158

Mg 30.05500 57.09500 39.25400
C  27.53900 54.76900 38.51600
C  32.43000 54.72100 38.17400
C  32.35200 59.51900 39.18000
C  27.56700 59.50600 39.62500
N  29.92100 54.89000 38.59600
C  28.79600 54.18800 38.25700
C  29.25000 52.77000 37.81100
C  30.82700 52.71300 37.94600
C  31.11600 54.22000 38.19600
C  31.33600 51.84300 39.14000
C  28.79400 52.37100 36.39200
C  29.15900 53.46000 35.31400
H  28.05800 53.83700 34.29700
N  32.11400 57.13400 38.76500
C  32.85800 56.08500 38.41400
C  34.23700 56.55700 38.14700
C  34.30700 57.92400 38.55800
C  32.90600 58.24400 38.93500
C  35.28600 55.68300 37.51900
C  35.56100 58.78400 38.84100
O  36.66400 58.25800 38.60600
C  35.59000 60.17500 39.46500
N  29.99000 59.14400 39.61200
C  31.07500 59.94600 39.44000
C  30.71900 61.44700 39.71400
C  29.15800 61.33500 39.60500
C  28.88100 59.88100 39.72000
C  31.31600 61.92200 41.10000
C  28.74700 62.08600 38.25300
C  27.79700 63.22200 38.50600
N  27.90800 57.07600 39.34600
C  27.05900 58.18600 39.44400
C  25.68200 57.74800 39.34800
C  25.82400 56.39500 38.98100
C  27.16300 56.04300 38.95300
C  24.33300 58.52600 39.43200
C  25.12900 55.24800 38.60300
O  23.90400 55.05900 38.53000
C  26.20900 54.22100 38.21600
C  25.88900 52.96100 39.01300
O  26.18100 52.86400 40.20100
O  25.21700 52.01500 38.22800
C  24.64400 50.92700 38.99900
H  33.18200 54.00300 37.84000
H  33.11200 60.28900 39.02900
H  26.79600 60.27900 39.63900
H  28.76000 52.09900 38.51700
H  31.34600 52.43400 37.02900
H  32.34000 51.42000 39.13300
H  30.65600 50.99500 39.22400
H  31.12600 52.40000 40.05300
H  27.72800 52.15300 36.45700
H  29.27400 51.46400 36.02500
H  30.02800 53.16200 34.72700
H  29.39200 54.33300 35.92400
H  34.84900 55.06900 36.73200
H  35.74800 55.19400 38.37700
H  35.95500 56.37300 37.00300
H  36.57100 60.42900 39.86600
H  34.77500 60.10400 40.18500
H  35.29800 60.79900 38.62000
H  31.13500 62.06300 38.91700
H  28.66800 61.80700 40.45700
H  31.43600 63.00600 41.11200
H  32.25800 61.41600 41.31100
H  30.60500 61.71100 41.89900
H  28.26400 61.33600 37.62700
H  29.55700 62.27600 37.54800
H  26.72500 63.03300 38.43900
H  27.90000 63.89800 37.65700
H  28.08500 63.75500 39.41200
H  24.44000 59.40900 38.80200
H  24.25000 58.95000 40.43300
H  23.49200 57.99900 38.98300
H  26.14500 53.97400 37.15600
H  25.27400 50.03700 38.99800
H  23.67800 50.64000 38.58200
H  24.46900 51.29400 40.01100
Mg 4.85200 53.16900 42.09800
C  5.01400 49.78000 41.25600
C  7.83200 53.69900 40.47300
C  4.39700 56.49300 42.58800
C  1.55500 52.56600 43.30300
N  6.17400 51.92700 40.87900
C  6.06100 50.59300 40.73900
C  7.29800 50.09800 39.93700
C  8.30800 51.18400 40.18800
C  7.38500 52.39100 40.53600
C  9.28400 51.03900 41.42800
C  6.99200 49.92200 38.41300
C  7.62100 48.79400 37.62000
H  6.92000 48.05100 36.38800
N  5.93700 54.85300 41.57800
C  7.18200 54.83500 40.96200
C  7.70500 56.20700 40.93400
C  6.66700 57.04800 41.44200
C  5.61300 56.18000 41.93800
C  9.11100 56.55100 40.49800
C  6.68500 58.53200 41.50200
O  7.71800 59.17700 41.21100
C  5.63700 59.34000 42.10300
N  3.21200 54.33500 42.80100
C  3.31400 55.69700 42.94000
C  2.09100 56.38700 43.39600
C  1.10800 55.14700 43.56800
C  1.97500 53.89900 43.22200
C  2.25100 57.15500 44.73100
C  -0.12600 55.21900 42.57900
C  -1.43700 54.54300 43.21300
N  3.47400 51.55100 42.22300
C  2.28900 51.46700 42.86000
C  1.87200 50.07700 42.95000
C  2.91200 49.36700 42.31000
C  3.83900 50.29700 41.86100
C  0.63200 49.51300 43.44600
C  3.34700 48.06300 41.90600
O  2.80200 47.02300 41.97900
C  4.80500 48.25400 41.30800
C  4.86700 47.54900 40.06700
O  4.21600 47.81100 39.07800
O  5.77600 46.49800 40.15700
C  5.83100 45.53300 39.04200
H  8.82200 53.81100 40.02500
H  4.24100 57.54900 42.81900
H  0.55900 52.42600 43.72900
H  7.58400 49.12900 40.34600
H  9.02200 51.44300 39.40600
H  10.20500 51.49000 41.06100
H  9.37500 49.99100 41.71300
H  8.97800 51.64100 42.28400
H  7.28800 50.86300 37.95200
H  5.92500 49.92400 38.19000
H  7.83100 48.07000 38.40700
H  8.61500 49.02700 37.23900
H  9.66700 55.66200 40.20100
H  9.60300 56.97300 41.37500
H  9.05300 57.29800 39.70600
H  5.80600 60.41000 42.22100
H  5.41300 58.96200 43.10100
H  4.81700 59.12800 41.41700
H  1.81500 57.05800 42.58300
H  0.86300 54.87500 44.59500
H  2.40900 58.18400 44.40800
H  3.11700 56.80700 45.29400
H  1.33300 57.03700 45.30600
H  0.24100 54.59800 41.76200
H  -0.39000 56.23500 42.28300
H  -1.69400 53.63200 42.67200
H  -2.27000 55.22400 43.38600
H  -1.21200 54.14400 44.20200
H  0.66800 49.35300 44.52300
H  0.38900 48.61000 42.88500
H  -0.14800 50.22600 43.17900
H  5.59200 47.79100 41.90300
H  6.85800 45.55600 38.67600
H  5.16800 45.72000 38.19800
H  5.36300 44.58200 39.29800

