158

Mg 2.08600 -0.66000 44.23200
C  5.41500 0.44700 44.04300
C  1.15200 2.10400 42.32500
C  -0.80100 -2.15300 43.63000
C  3.34700 -3.74200 45.35700
N  3.19400 1.07100 43.24100
C  4.50900 1.30400 43.30100
C  4.84400 2.64700 42.63600
C  3.41700 3.21000 42.34800
C  2.53900 2.10300 42.61200
C  3.10500 4.50800 43.11700
C  5.67100 2.39500 41.31300
C  6.98100 3.21400 41.27300
H  7.90700 2.89500 40.03100
N  0.40000 -0.02400 43.30100
C  0.16200 1.14400 42.61100
C  -1.18700 1.22300 42.26600
C  -1.84900 0.03200 42.75200
C  -0.71900 -0.80200 43.24600
C  -1.75100 2.46000 41.56200
C  -3.37700 -0.21200 42.73200
O  -4.09100 0.65300 42.17400
C  -3.98700 -1.45600 43.32700
N  1.32500 -2.69800 44.42000
C  0.09100 -3.04800 44.15200
C  -0.18400 -4.53500 44.39500
C  1.19800 -4.98700 44.99400
C  2.06000 -3.75800 44.89400
C  -1.35100 -4.86700 45.33000
C  1.94800 -6.26900 44.43100
C  2.53600 -7.25300 45.46900
N  4.00400 -1.47600 44.65300
C  4.31500 -2.66600 45.27300
C  5.66400 -2.66500 45.60600
C  6.20100 -1.45900 45.11300
C  5.17200 -0.81800 44.53300
C  6.47900 -3.76100 46.23600
C  7.36100 -0.60900 45.05400
O  8.49000 -0.76500 45.55200
C  6.88400 0.70100 44.32500
C  7.18500 1.86400 45.17400
O  6.43900 2.34600 46.01700
O  8.37200 2.39700 44.61400
C  8.71600 3.75700 45.11200
H  0.93700 2.99300 41.72800
H  -1.78200 -2.50900 43.30900
H  3.72900 -4.67700 45.77200
H  5.41500 3.31200 43.28400
H  3.29600 3.44400 41.29100
H  3.92800 4.90000 43.71400
H  2.24800 4.50900 43.79000
H  2.85500 5.34700 42.46800
H  5.05500 2.69600 40.46600
H  5.82400 1.32800 41.15200
H  7.48100 2.98100 42.21300
H  6.86900 4.29800 41.25300
H  -2.76500 2.69800 41.88100
H  -1.88300 2.16900 40.52000
H  -1.18000 3.35100 41.82400
H  -5.03200 -1.21800 43.12900
H  -3.75200 -1.50100 44.39000
H  -3.75300 -2.26600 42.63700
H  -0.34600 -5.10000 43.47700
H  1.09900 -5.08700 46.07500
H  -1.08700 -5.07000 46.36800
H  -1.97400 -5.66600 44.92700
H  -1.96400 -3.97600 45.46800
H  2.68000 -6.01900 43.66200
H  1.09300 -6.78800 43.99800
H  2.28200 -8.28600 45.23200
H  2.21800 -7.05600 46.49300
H  3.61500 -7.13600 45.36400
H  6.71300 -4.41800 45.39800
H  5.95700 -4.35100 46.98900
H  7.37900 -3.37400 46.71500
H  7.44200 0.95100 43.42300
H  9.73000 4.04300 44.83500
H  8.58400 3.91400 46.18300
H  8.07100 4.39400 44.50700
Mg 48.58800 15.58700 28.79800
C  46.66500 15.34800 31.63600
C  50.96300 17.47800 30.55500
C  50.40100 15.87700 26.00100
C  46.06300 14.03700 27.03700
N  48.75600 16.28600 30.92900
C  47.84400 16.08900 31.90300
C  48.47900 16.37400 33.22600
C  49.64500 17.36800 32.87100
C  49.86400 17.00800 31.40100
C  49.49100 18.94800 33.05200
C  48.91400 15.13000 34.05500
C  48.52800 15.14600 35.57500
H  48.33100 16.52700 36.23200
N  50.37300 16.63200 28.31400
C  51.23500 17.22400 29.20000
C  52.35100 17.77500 28.51100
C  52.29200 17.19000 27.19900
C  50.95800 16.53700 27.14900
C  53.43200 18.65700 29.10900
C  53.31300 17.24400 26.06300
O  53.23600 16.46000 25.10700
C  54.49100 18.12300 26.13600
N  48.26500 15.05000 26.74200
C  49.19500 15.22800 25.81000
C  48.71900 14.68600 24.43400
C  47.32200 14.08100 24.77800
C  47.18200 14.34500 26.30600
C  48.70700 15.87100 23.41700
C  47.24100 12.56200 24.26500
C  45.86200 11.92000 23.92100
N  46.78700 14.86500 29.20200
C  45.85700 14.25300 28.37800
C  44.70800 13.92000 29.14600
C  45.05900 14.20100 30.45200
C  46.22700 14.90200 30.43800
C  43.48300 13.19200 28.67000
C  44.54100 14.17900 31.74800
O  43.36800 13.93900 32.10000
C  45.58400 14.85400 32.64200
C  44.87200 15.94100 33.30100
O  44.46500 17.00400 32.82500
O  44.59500 15.58500 34.56000
C  43.88800 16.54000 35.41600
H  51.71700 18.08100 31.06500
H  50.92000 15.91700 25.04100
H  45.39300 13.46000 26.39700
H  47.69000 16.82600 33.82700
H  50.58400 17.13900 33.37600
H  48.45100 19.26700 33.11900
H  49.99900 19.58500 32.32900
H  50.04700 19.24700 33.94100
H  50.00400 15.11600 34.04700
H  48.64200 14.16300 33.63300
H  49.35300 14.67800 36.11100
H  47.64300 14.56400 35.83100
H  52.93100 19.21000 29.90300
H  53.66500 19.43400 28.38000
H  54.29500 18.09000 29.45800
H  54.05900 19.09900 26.35700
H  54.92700 18.31100 25.15400
H  55.23100 17.84100 26.88500
H  49.51700 13.95900 24.28500
H  46.57600 14.67000 24.24500
H  48.67800 16.86300 23.86900
H  47.87700 15.78800 22.71500
H  49.69300 15.77600 22.96400
H  47.55200 11.99200 25.14000
H  47.96800 12.41800 23.46600
H  45.61900 11.16700 24.67100
H  45.99600 11.43200 22.95600
H  45.03800 12.61600 23.76100
H  42.81300 12.98300 29.50400
H  43.86300 12.25900 28.25400
H  42.95400 13.68100 27.85200
H  46.02300 14.15200 33.35100
H  42.93400 16.66500 34.90400
H  44.38400 17.49300 35.60000
H  43.66300 15.99400 36.33200

