158

Mg 9.75300 4.32300 27.69400
C  10.96000 2.55700 30.43700
C  7.77900 6.10700 30.05000
C  8.13600 5.84800 25.20300
C  10.92000 1.87600 25.67700
N  9.59400 4.57100 29.98000
C  10.24900 3.68100 30.83600
C  9.91700 3.94900 32.23400
C  8.67800 4.86800 32.12500
C  8.66500 5.26000 30.62600
C  7.32300 4.13300 32.36500
C  11.18300 4.48700 33.02800
C  11.39100 3.85300 34.36700
H  11.76500 4.67700 35.54600
N  8.20800 5.79300 27.63800
C  7.54600 6.44100 28.66500
C  6.68700 7.43800 28.13800
C  6.83400 7.40000 26.70700
C  7.68700 6.28500 26.42800
C  5.75600 8.29700 28.99100
C  6.14100 8.32600 25.66000
O  6.32000 8.16300 24.43400
C  5.26900 9.43500 26.23800
N  9.54800 3.82100 25.74700
C  8.86000 4.66900 24.91300
C  9.18800 4.29500 23.42700
C  9.93000 2.94100 23.55900
C  10.18200 2.86400 25.04800
C  8.11900 4.35500 22.38600
C  11.31900 2.80100 22.85300
C  11.61200 1.42300 22.19600
N  11.07000 2.72300 27.95300
C  11.37500 1.79400 27.01100
C  12.09400 0.73900 27.60900
C  11.97300 0.99100 28.99700
C  11.30100 2.18700 29.11400
C  12.82600 -0.38500 26.92100
C  12.33200 0.42400 30.30800
O  12.97900 -0.57700 30.61500
C  11.67600 1.50300 31.29400
C  10.59600 0.77000 31.95000
O  9.45100 0.62500 31.53100
O  11.09700 0.37200 33.17900
C  10.03900 -0.31600 34.00700
H  7.32200 6.68600 30.85500
H  7.82800 6.39600 24.31000
H  11.17400 1.04900 25.01100
H  9.61300 3.03200 32.73800
H  8.79900 5.77600 32.71700
H  7.22500 3.56600 33.29100
H  7.16600 3.43600 31.54200
H  6.51400 4.86100 32.31300
H  11.04200 5.56600 33.09000
H  12.11100 4.42200 32.46100
H  12.18200 3.13300 34.15900
H  10.50700 3.24600 34.56400
H  6.04500 9.30300 29.29500
H  5.67400 7.77000 29.94100
H  4.70200 8.36700 28.72400
H  4.34000 8.99000 26.59400
H  4.91300 10.08400 25.43800
H  5.85900 10.04100 26.92600
H  9.84500 5.09700 23.08800
H  9.35800 2.03100 23.38000
H  7.31100 4.88700 22.88800
H  7.62400 3.42200 22.11700
H  8.39300 4.96100 21.52200
H  12.13100 2.87500 23.57700
H  11.36200 3.60400 22.11700
H  10.71600 0.80300 22.22300
H  12.38700 0.81900 22.66800
H  11.96800 1.57300 21.17700
H  13.87700 -0.46300 27.19900
H  12.72400 -0.41500 25.83600
H  12.20400 -1.22400 27.23100
H  12.28600 1.99800 32.04900
H  10.59000 -0.80900 34.80800
H  9.43100 -1.04400 33.46900
H  9.34300 0.35800 34.50700
Mg 9.10200 48.21100 26.28000
C  6.80000 48.78500 29.06700
C  11.59300 49.02400 28.40500
C  11.07600 48.25200 23.58900
C  6.20900 47.73000 24.25600
N  9.11600 48.77500 28.54600
C  8.11100 48.90300 29.46800
C  8.68700 49.06100 30.89200
C  10.18200 49.21400 30.59800
C  10.38500 49.07900 29.08100
C  10.83500 50.57400 31.05700
C  8.31800 47.91000 31.86700
C  9.06200 48.01300 33.20200
H  8.37300 47.45100 34.46900
N  11.11400 48.44300 25.97600
C  11.96100 48.85400 27.02900
C  13.30300 48.93200 26.46600
C  13.12400 48.73600 25.05900
C  11.75200 48.41600 24.79000
C  14.51100 49.31500 27.29100
C  14.26700 48.65700 23.93400
O  13.95600 48.38800 22.80400
C  15.72000 48.77000 24.19600
N  8.66100 48.00000 24.18000
C  9.71700 48.01000 23.31200
C  9.27000 47.67200 21.90500
C  7.69300 47.68300 22.09300
C  7.47000 47.72400 23.64100
C  9.72000 48.61000 20.74000
C  7.06300 46.45300 21.36600
C  7.05000 46.53200 19.85600
N  6.99000 48.34800 26.51300
C  5.94400 48.15400 25.58700
C  4.69300 48.30800 26.23800
C  4.91700 48.68100 27.53000
C  6.40100 48.63000 27.71000
C  3.35800 48.15400 25.58400
C  4.32400 49.19900 28.73300
O  3.19100 49.59000 28.92100
C  5.46800 49.08700 29.81000
C  5.16800 47.84800 30.60100
O  5.45700 46.71600 30.22700
O  4.52800 48.09200 31.82200
C  4.33500 46.90200 32.68000
H  12.47100 49.08800 29.05100
H  11.77800 48.18400 22.75600
H  5.32100 47.48700 23.66900
H  8.19500 49.98800 31.18500
H  10.90600 48.57400 31.10100
H  10.09100 51.18600 31.56700
H  11.24400 51.07900 30.18200
H  11.79900 50.43500 31.54700
H  8.68100 46.99900 31.39100
H  7.26000 47.80400 32.10800
H  9.25100 49.02800 33.55100
H  10.05900 47.59000 33.08400
H  15.28400 48.59600 27.02100
H  14.24700 49.36500 28.34800
H  14.87100 50.29500 26.98000
H  15.92700 49.55300 24.92500
H  16.15900 49.10400 23.25600
H  16.09600 47.76100 24.36600
H  9.52700 46.63500 21.68700
H  7.31400 48.66800 21.82100
H  8.91200 49.27100 20.42800
H  10.05600 48.02300 19.88500
H  10.34400 49.41700 21.12400
H  6.12500 46.23500 21.87700
H  7.60700 45.55300 21.65600
H  7.93000 47.06300 19.49300
H  6.13700 47.06500 19.59100
H  7.07200 45.51600 19.45900
H  2.56600 48.67800 26.11900
H  3.10900 47.09300 25.60400
H  3.37500 48.33900 24.51000
H  5.72600 49.99200 30.36000
H  3.58300 46.23000 32.26800
H  3.73500 47.15800 33.55300
H  5.23800 46.32100 32.86500

