158

Mg 41.03100 41.20300 26.11400
C  40.79100 43.80400 28.62100
C  42.02300 39.07900 28.67600
C  42.19400 38.90000 23.74900
C  40.77100 43.64500 23.75200
N  41.36800 41.43800 28.40100
C  40.98400 42.48900 29.15600
C  40.82800 42.22000 30.64000
C  41.34000 40.67900 30.74800
C  41.60100 40.36100 29.21400
C  42.54100 40.51000 31.70900
C  39.27600 42.40400 31.03200
C  38.94300 43.19900 32.33700
H  39.71300 42.86000 33.67400
N  41.93500 39.21300 26.15400
C  42.33400 38.55100 27.32800
C  42.97400 37.30300 26.96400
C  42.90400 37.23500 25.56600
C  42.35000 38.47600 25.06400
C  43.48600 36.25300 28.00900
C  43.43800 36.06600 24.71800
O  43.39600 36.23000 23.51000
C  43.98800 34.77000 25.33400
N  41.33800 41.22100 24.10400
C  41.59000 40.07100 23.33200
C  41.59400 40.47900 21.85100
C  40.93900 41.84900 21.81300
C  40.95100 42.28100 23.29900
C  43.01100 40.42800 21.14400
C  39.49700 41.78000 21.21400
C  38.37600 41.20000 22.19900
N  40.68600 43.30200 26.14300
C  40.60000 44.21000 25.03800
C  40.36300 45.47600 25.55100
C  40.28900 45.37500 26.96000
C  40.61100 44.04400 27.24500
C  40.26400 46.66800 24.70200
C  40.12600 46.08700 28.17200
O  39.82700 47.24000 28.27800
C  40.39300 45.09400 29.32600
C  41.46700 45.64700 30.16600
O  42.58500 46.04900 29.84400
O  40.92200 45.82300 31.42500
C  41.88500 46.25700 32.50700
H  42.25000 38.39300 29.49500
H  42.22200 38.08800 23.01900
H  40.62400 44.43000 23.00800
H  41.51000 42.89000 31.16300
H  40.50500 40.05500 31.06800
H  43.35800 40.17700 31.06900
H  42.18400 39.87500 32.52000
H  42.84600 41.48900 32.08100
H  38.81100 41.42100 31.10500
H  38.74500 42.89300 30.21600
H  37.96900 42.77800 32.58800
H  38.81700 44.26700 32.16400
H  42.93000 35.32500 27.87800
H  43.35100 36.57200 29.04200
H  44.54300 36.03000 27.85900
H  43.35600 34.35100 26.11700
H  44.89400 35.11100 25.83500
H  44.21000 34.04600 24.55000
H  41.00100 39.73100 21.32500
H  41.58200 42.48700 21.20600
H  43.06500 39.38900 20.81900
H  43.83500 40.47400 21.85500
H  43.21600 41.17200 20.37400
H  39.47300 41.22600 20.27500
H  39.24800 42.81300 20.97200
H  38.74600 40.96600 23.19700
H  37.86900 40.31300 21.81700
H  37.55000 41.90000 22.32400
H  41.18000 46.64900 24.11000
H  40.18400 47.54200 25.34800
H  39.42200 46.48600 24.03500
H  39.40600 45.05000 29.78700
H  41.43500 46.06800 33.48100
H  41.89500 47.34600 32.46500
H  42.92700 45.93700 32.47100
Mg 0.64900 43.63700 26.60200
C  3.08000 43.88100 29.17500
C  -1.65100 42.68800 28.86600
C  -1.48700 43.36500 24.01900
C  3.28300 43.83900 24.35400
N  0.69400 43.44300 28.83800
C  1.77000 43.55700 29.67600
C  1.28100 43.50700 31.16700
C  -0.09300 42.75200 30.98400
C  -0.40800 42.95500 29.48800
C  0.11200 41.24100 31.25300
C  1.21700 44.89700 31.73900
C  1.27000 44.86400 33.33300
H  0.99500 43.61600 34.20200
N  -1.30700 43.26200 26.47300
C  -2.13600 42.91600 27.50300
C  -3.51900 42.81800 27.00900
C  -3.49400 43.18900 25.63000
C  -2.07700 43.30800 25.31400
C  -4.70700 42.67600 27.91100
C  -4.68600 43.43200 24.65600
O  -4.56200 43.74500 23.44700
C  -6.16000 43.16400 25.12800
N  0.89400 43.82800 24.42600
C  -0.13500 43.49900 23.64100
C  0.27200 43.57600 22.12800
C  1.76600 43.89900 22.23200
C  2.02900 43.89600 23.72300
C  -0.09400 42.34600 21.23700
C  2.31200 45.22400 21.55700
C  2.05300 46.54000 22.24400
N  2.75100 43.80100 26.71800
C  3.69900 43.79900 25.70200
C  4.96900 43.95400 26.23100
C  4.82700 44.05400 27.64700
C  3.42600 43.98500 27.86300
C  6.16500 44.06300 25.50000
C  5.50800 43.99600 28.90000
O  6.69000 43.94700 29.18100
C  4.38500 44.02700 29.94700
C  4.59500 42.83000 30.77300
O  4.47600 41.66800 30.37700
O  4.98900 43.23900 31.99300
C  5.20700 42.21800 33.02100
H  -2.38800 42.32000 29.58200
H  -2.22600 43.29400 23.21800
H  4.07400 43.96600 23.61100
H  2.06400 42.95100 31.68100
H  -0.95100 43.22000 31.46600
H  0.92000 41.07600 31.96600
H  0.21500 40.78200 30.27000
H  -0.72600 40.76100 31.75900
H  0.29400 45.39200 31.43800
H  2.11000 45.44700 31.43900
H  0.64700 45.71200 33.61300
H  2.23900 45.21300 33.69000
H  -5.31500 41.88400 27.47400
H  -5.32800 43.54500 28.12800
H  -4.45100 42.28200 28.89400
H  -6.33200 42.24800 25.69400
H  -6.79500 43.22500 24.24500
H  -6.60400 43.94700 25.74300
H  -0.24900 44.48600 21.82900
H  2.33500 43.09600 21.76400
H  0.72900 41.81400 20.76000
H  -0.64400 42.69100 20.36100
H  -0.65700 41.55100 21.72600
H  1.75800 45.22900 20.61800
H  3.38400 45.07900 21.42300
H  1.59600 46.62600 23.23000
H  1.41400 47.19000 21.64700
H  3.04700 46.98100 22.31900
H  6.12100 45.03300 25.00500
H  6.33800 43.21200 24.84000
H  6.98500 44.25900 26.19100
H  4.50200 44.98300 30.45700
H  5.81500 42.50700 33.87900
H  5.72300 41.38700 32.54000
H  4.26100 41.79200 33.35400

