158

Mg 42.09900 41.36900 26.91600
C  41.23700 43.89600 29.11200
C  42.92200 39.54500 29.64500
C  43.32200 39.03500 24.85200
C  42.19800 43.68400 24.31300
N  41.99400 41.65400 29.10500
C  41.44000 42.71800 29.78500
C  41.31900 42.40400 31.31600
C  42.17000 41.18100 31.49600
C  42.43800 40.74400 29.98400
C  43.54600 41.34900 32.19300
C  39.88400 42.52800 31.82800
C  39.37700 41.66000 33.03100
H  38.70700 42.31100 34.24100
N  42.76900 39.45600 27.19600
C  43.03700 38.90000 28.39500
C  43.62100 37.55200 28.28800
C  43.66100 37.37400 26.87100
C  43.24600 38.64900 26.21500
C  44.07200 36.65300 29.47200
C  43.93100 36.13100 26.07500
O  43.99500 36.05700 24.84900
C  44.20600 34.92800 26.88100
N  42.64900 41.32500 24.85200
C  43.02300 40.20900 24.21900
C  42.97800 40.42100 22.61200
C  42.69800 41.97100 22.51600
C  42.50700 42.38900 23.98800
C  44.21700 39.95700 21.89900
C  41.61000 42.37100 21.58800
C  41.80500 43.70000 20.95300
N  41.75000 43.41400 26.71700
C  41.79100 44.19600 25.60000
C  41.48800 45.54000 25.96300
C  41.18600 45.48200 27.33300
C  41.44000 44.16700 27.73100
C  41.31200 46.59600 24.91500
C  40.70600 46.23600 28.43700
O  40.34600 47.40200 28.54900
C  40.78900 45.20800 29.70200
C  41.77600 45.76000 30.68100
O  42.99800 45.75700 30.61700
O  41.17000 46.27200 31.80100
C  41.98300 46.73600 32.95300
H  43.15300 38.94800 30.52900
H  43.74000 38.27500 24.19000
H  42.37500 44.40000 23.50800
H  41.90700 43.26100 31.64500
H  41.56100 40.53000 32.12200
H  44.41300 41.37700 31.53300
H  43.67600 40.62600 32.99900
H  43.58400 42.28600 32.74900
H  39.29900 42.19700 30.96900
H  39.74200 43.60500 31.92400
H  40.16500 41.09300 33.52900
H  38.90300 40.85100 32.47600
H  43.76300 35.60900 29.41800
H  43.68900 36.87000 30.46900
H  45.16200 36.64800 29.46100
H  44.93200 35.09700 27.67600
H  44.53700 34.06200 26.30800
H  43.34800 34.74500 27.52800
H  42.07900 39.93100 22.23700
H  43.64400 42.41400 22.20500
H  44.79900 40.71300 21.37200
H  44.12800 39.06700 21.27600
H  44.91400 39.59600 22.65500
H  40.62000 42.37000 22.04400
H  41.67700 41.68300 20.74500
H  41.48800 43.49400 19.93000
H  42.82500 44.05800 20.81200
H  41.19700 44.45200 21.45600
H  40.74800 46.18100 24.07900
H  42.33000 46.87500 24.64200
H  40.76900 47.44300 25.33400
H  39.82400 45.13000 30.20300
H  41.44000 47.62600 33.27200
H  43.01600 47.01300 32.74600
H  41.87800 46.02600 33.77400
Mg -4.52700 25.39000 25.81400
C  -3.17900 26.26300 28.86300
C  -6.68000 22.98200 27.53500
C  -5.26100 23.73400 22.91400
C  -2.52300 27.48600 24.21900
N  -4.75200 24.62100 27.96600
C  -4.03400 25.14100 29.05500
C  -4.46200 24.40000 30.30500
C  -5.44100 23.29700 29.78900
C  -5.67100 23.65600 28.33100
C  -4.83900 21.86900 29.98800
C  -5.02600 25.42800 31.43200
C  -5.91400 24.73900 32.53200
H  -5.46200 24.79800 33.95200
N  -5.77900 23.62200 25.33500
C  -6.69100 22.94100 26.12000
C  -7.48500 22.04300 25.39000
C  -7.06900 22.13500 24.04100
C  -5.99900 23.25200 24.06600
C  -8.51400 21.05200 26.03500
C  -7.46600 21.41500 22.78300
O  -6.89300 21.63400 21.71100
C  -8.52200 20.29300 22.73500
N  -3.70400 25.42500 23.88900
C  -4.26200 24.75100 22.90000
C  -3.71300 25.19200 21.51200
C  -3.00400 26.56600 21.87500
C  -3.06600 26.50900 23.42700
C  -2.75700 24.12800 20.93100
C  -3.67600 27.81000 21.23000
C  -2.78500 28.75000 20.33800
N  -3.17900 26.69200 26.34200
C  -2.50400 27.53200 25.58200
C  -1.76500 28.41700 26.47400
C  -1.91500 27.93400 27.76300
C  -2.82500 26.84000 27.62500
C  -0.74900 29.61900 26.04500
C  -1.50100 28.07600 29.14200
O  -0.55600 28.69700 29.62300
C  -2.47600 27.07800 29.95200
C  -1.57400 26.33800 30.84400
O  -0.81000 25.46300 30.51400
O  -1.85100 26.71700 32.10800
C  -0.99400 26.10100 33.11900
H  -7.32700 22.39500 28.19100
H  -5.52300 23.44500 21.89400
H  -1.93000 28.21300 23.66100
H  -3.60700 23.96700 30.82300
H  -6.39000 23.30800 30.32400
H  -3.81900 21.83200 30.37200
H  -4.82000 21.36600 29.02100
H  -5.48100 21.29900 30.65900
H  -5.56400 26.10200 30.76500
H  -4.19000 25.92200 31.92700
H  -5.98000 23.66600 32.35300
H  -6.87600 25.21500 32.34400
H  -9.47400 21.48300 26.32100
H  -8.07700 20.68100 26.96200
H  -8.63900 20.20400 25.36200
H  -8.16300 19.52700 23.42200
H  -8.69000 19.90800 21.72900
H  -9.52700 20.61600 23.01000
H  -4.48200 25.41500 20.77300
H  -1.97400 26.56200 21.51900
H  -1.91300 24.60000 20.42800
H  -3.38400 23.77400 20.11300
H  -2.45600 23.34500 21.62700
H  -4.14100 28.41100 22.01200
H  -4.52600 27.41200 20.67600
H  -1.71600 28.54400 20.40700
H  -2.83700 29.80700 20.59700
H  -3.14800 28.77800 19.31100
H  0.07100 29.25300 25.42700
H  -0.39100 29.97800 27.01000
H  -1.34200 30.38400 25.54300
H  -3.18500 27.77100 30.40500
H  -0.77500 25.04500 32.96600
H  -1.53200 26.02800 34.06500
H  -0.08900 26.65800 33.36400

