158

Mg 26.06800 52.29200 25.56100
C  23.94200 52.95300 28.37900
C  28.46700 51.48100 27.76300
C  28.20100 52.33100 22.97300
C  23.56600 53.52000 23.45200
N  26.21600 52.36200 27.90000
C  25.18800 52.48700 28.75700
C  25.60600 52.05400 30.17900
C  27.12700 51.62000 29.95800
C  27.33700 51.82600 28.46100
C  28.09600 52.47100 30.81400
C  24.82500 50.94600 30.93400
C  24.25800 51.24600 32.34900
H  24.74500 50.47800 33.62500
N  28.11500 52.00700 25.42500
C  28.90900 51.65100 26.40500
C  30.21400 51.34600 25.85300
C  30.15900 51.57900 24.40300
C  28.81700 51.98300 24.22500
C  31.36100 50.67000 26.72500
C  31.22600 51.34100 23.32700
O  31.09500 51.59900 22.14800
C  32.54300 51.01900 23.83700
N  25.95800 52.79700 23.55400
C  26.93700 52.71400 22.62400
C  26.48200 53.17900 21.18600
C  24.95300 53.14600 21.40800
C  24.81500 53.20200 22.91700
C  26.98100 54.58100 20.78600
C  24.33800 51.86200 20.82600
C  23.92600 51.89200 19.38900
N  24.16600 53.05800 25.72100
C  23.19400 53.39500 24.75200
C  21.95100 53.71200 25.46600
C  22.23600 53.56900 26.85300
C  23.56200 53.15300 26.97500
C  20.64500 53.97200 24.81100
C  21.62700 53.61600 28.17900
O  20.54900 53.97700 28.63000
C  22.76800 53.11200 29.16500
C  22.86800 54.24200 30.10100
O  23.61200 55.20100 30.03400
O  22.04700 54.01000 31.15000
C  22.22700 54.86300 32.42400
H  29.19600 51.01000 28.42700
H  28.73100 52.36500 22.01900
H  22.77000 53.80800 22.76200
H  25.50000 52.99500 30.71900
H  27.30600 50.58200 30.23600
H  28.77500 51.85700 31.40600
H  27.51100 53.15900 31.42500
H  28.75800 53.09000 30.20900
H  25.43000 50.08300 31.21200
H  23.94300 50.72300 30.33400
H  23.17000 51.19000 32.39200
H  24.44000 52.29800 32.56800
H  31.73400 49.79300 26.19600
H  31.12900 50.40900 27.75700
H  32.21400 51.34300 26.81700
H  32.53700 49.97900 24.16500
H  32.76500 51.74600 24.61800
H  33.27600 51.27100 23.07100
H  26.72400 52.43400 20.42800
H  24.46300 54.01400 20.96700
H  26.90400 54.50300 19.70100
H  28.03500 54.58800 21.06200
H  26.41100 55.41300 21.20000
H  23.36900 51.77000 21.31700
H  24.89000 50.99700 21.19500
H  24.36400 52.70500 18.81000
H  22.84700 51.84600 19.23700
H  24.29400 51.02000 18.85000
H  20.70900 53.61900 23.78200
H  20.48900 55.03700 24.64300
H  19.90700 53.44100 25.41300
H  22.57600 52.24800 29.80100
H  22.91700 54.27400 33.02900
H  21.23300 54.96700 32.85900
H  22.57500 55.88000 32.24500
Mg -10.09900 39.34100 42.59800
C  -8.72000 36.38600 41.52600
C  -7.33100 41.03100 41.28600
C  -11.68700 42.43300 43.14700
C  -13.08000 37.75600 43.42400
N  -8.22400 38.70400 41.36500
C  -7.82800 37.41800 41.24100
C  -6.38200 37.36200 40.68600
C  -5.96800 38.87700 40.85600
C  -7.20600 39.63100 41.21600
C  -4.86600 39.19800 41.93800
C  -6.45400 36.87200 39.15900
C  -5.60400 35.71000 38.89900
H  -4.86500 35.61100 37.57300
N  -9.68600 41.35100 42.23000
C  -8.46700 41.78700 41.72600
C  -8.46700 43.25300 41.64500
C  -9.70700 43.68100 42.20700
C  -10.43600 42.47900 42.56600
C  -7.40400 44.24100 41.03000
C  -10.13100 45.14000 42.22200
O  -9.28700 46.06400 42.06000
C  -11.54200 45.61700 42.34400
N  -12.01900 39.98200 43.30500
C  -12.41700 41.29400 43.45100
C  -13.99100 41.48200 43.77600
C  -14.36400 39.90900 43.98200
C  -13.13400 39.15200 43.46700
C  -14.27000 42.48800 44.95500
C  -15.67600 39.51400 43.35500
C  -16.82800 39.18600 44.33800
N  -10.76600 37.49900 42.60000
C  -11.96100 36.97900 43.06900
C  -11.94600 35.51000 42.85700
C  -10.69700 35.27000 42.23300
C  -10.02400 36.49100 42.13000
C  -13.07600 34.65200 43.13800
C  -9.88000 34.18300 41.77500
O  -10.12000 32.96500 41.73800
C  -8.45700 34.91400 41.36900
C  -7.41600 34.45500 42.31700
O  -7.43000 34.56800 43.54200
O  -6.48800 33.77400 41.60700
C  -5.62100 32.83500 42.36900
H  -6.40600 41.57400 41.07900
H  -12.16300 43.38400 43.39500
H  -13.98000 37.19100 43.67600
H  -5.68000 36.72300 41.22300
H  -5.68900 39.16800 39.84300
H  -4.07800 39.81300 41.50100
H  -4.48100 38.28600 42.39300
H  -5.28400 39.74700 42.78200
H  -5.98200 37.71100 38.64700
H  -7.47700 36.80800 38.78800
H  -6.14900 34.81000 39.18500
H  -4.73500 35.79500 39.55200
H  -6.91200 44.92400 41.72300
H  -7.88900 44.92900 40.33800
H  -6.65200 43.63600 40.52300
H  -11.75400 46.13200 43.28100
H  -12.39900 44.95700 42.20500
H  -11.64700 46.57800 41.84100
H  -14.34000 41.87600 42.82100
H  -14.33200 39.75800 45.06100
H  -13.30900 42.62600 45.44900
H  -15.00800 42.00000 45.59200
H  -14.54300 43.43500 44.49000
H  -15.61900 38.59500 42.77100
H  -15.95400 40.29300 42.64500
H  -17.74800 39.69600 44.05100
H  -16.62300 39.53500 45.35000
H  -17.05700 38.12100 44.28900
H  -13.82100 34.81000 42.35800
H  -13.58000 34.88300 44.07600
H  -12.84400 33.59600 43.00000
H  -8.12700 34.76700 40.34100
H  -5.26100 33.24000 43.31400
H  -4.69500 32.74200 41.80100
H  -6.14100 31.89000 42.52600

