158

Mg 2.29500 -1.13600 43.38500
C  5.70800 -0.88200 43.04400
C  2.01600 1.48000 41.21400
C  -1.12800 -1.78500 43.21700
C  2.64700 -4.28000 44.79800
N  3.72800 0.00000 42.12600
C  5.05500 0.03200 42.21900
C  5.67300 1.00100 41.22300
C  4.47100 1.95100 41.00500
C  3.32700 1.13400 41.45200
C  4.57500 3.32900 41.82800
C  6.26700 0.33000 39.90800
C  7.35700 1.25900 39.18400
H  6.93900 2.18700 38.06400
N  0.64200 -0.18600 42.48800
C  0.80600 0.87300 41.60000
C  -0.46800 1.37700 41.31800
C  -1.45400 0.53800 42.00500
C  -0.67400 -0.56500 42.61000
C  -0.72100 2.62600 40.39200
C  -2.93100 0.66900 41.81800
O  -3.43600 1.64000 41.23100
C  -3.86300 -0.22300 42.53800
N  0.94800 -2.85800 43.68900
C  -0.46100 -2.91400 43.60100
C  -0.99500 -4.22200 44.10500
C  0.25100 -4.96200 44.72900
C  1.36900 -3.99300 44.30500
C  -2.23000 -4.11800 45.03600
C  0.40000 -6.42800 44.27800
C  -0.51900 -7.44800 45.03600
N  3.83400 -2.28000 43.98300
C  3.83500 -3.52100 44.55200
C  5.24500 -3.92000 44.78000
C  6.00800 -2.82400 44.36100
C  5.12500 -1.94100 43.81800
C  5.66300 -5.18400 45.38100
C  7.37100 -2.26500 44.17400
O  8.43600 -2.71700 44.54000
C  7.24700 -0.96300 43.31700
C  7.71800 0.19100 44.24600
O  7.78300 0.16800 45.45000
O  7.96400 1.35300 43.53500
C  8.22900 2.58600 44.31300
H  1.98900 2.42400 40.66500
H  -2.17900 -2.07700 43.15200
H  2.84800 -5.18600 45.37300
H  6.46800 1.60300 41.66100
H  4.30500 2.00300 39.92900
H  5.41200 3.20300 42.51500
H  3.68200 3.50200 42.42900
H  4.82700 4.12900 41.13200
H  5.43600 0.18600 39.21700
H  6.64000 -0.66200 40.16400
H  8.02700 0.52100 38.74200
H  8.00300 1.81800 39.86100
H  -1.62800 2.37800 39.84200
H  0.03700 2.92200 39.66600
H  -0.97100 3.45700 41.05100
H  -3.90400 -1.15300 41.97100
H  -4.83800 0.24800 42.66500
H  -3.38300 -0.26100 43.51600
H  -1.40700 -4.73100 43.23400
H  0.25800 -4.89100 45.81700
H  -2.31800 -3.10200 45.42000
H  -2.14300 -4.76700 45.90800
H  -3.13100 -4.38200 44.48300
H  1.42400 -6.79300 44.36400
H  0.09900 -6.48900 43.23200
H  -1.04500 -6.96000 45.85700
H  0.12400 -8.25200 45.39500
H  -1.19600 -7.89800 44.31000
H  6.74900 -5.26800 45.40600
H  5.24700 -6.07700 44.91400
H  5.27400 -5.20700 46.39900
H  7.86900 -1.11200 42.43400
H  8.11000 2.60500 45.39700
H  7.48600 3.33800 44.04700
H  9.13500 3.15800 44.11000
Mg 17.04600 -1.77100 28.07700
C  16.30600 0.26600 30.95000
C  18.88300 -3.73400 30.29400
C  18.31600 -3.44700 25.39700
C  15.73300 0.59500 26.02000
N  17.57500 -1.67500 30.37900
C  17.08200 -0.86000 31.33700
C  17.60600 -1.16200 32.72200
C  18.55100 -2.36600 32.44100
C  18.27500 -2.63200 30.96400
C  20.11600 -2.28500 32.73900
C  16.46400 -1.48000 33.79000
C  16.68200 -0.91800 35.19400
H  18.07000 -0.34600 35.55800
N  18.24100 -3.45300 27.86100
C  18.84800 -4.15200 28.90600
C  19.42200 -5.40000 28.38600
C  19.33000 -5.33400 26.95700
C  18.59200 -4.03800 26.69200
C  20.04800 -6.46600 29.29000
C  19.78900 -6.30100 25.97400
O  19.71000 -6.12500 24.76600
C  20.64700 -7.48400 26.38500
N  17.00000 -1.53800 26.05500
C  17.57400 -2.27700 25.11100
C  17.54800 -1.68700 23.72900
C  16.58500 -0.55000 24.04900
C  16.39700 -0.52400 25.46200
C  18.95300 -1.18500 23.26000
C  15.22500 -0.67800 23.23200
C  14.98600 0.54500 22.22800
N  16.14200 -0.02500 28.35800
C  15.63700 0.75500 27.41400
C  14.88100 1.85400 28.00600
C  15.11400 1.69800 29.42000
C  15.99900 0.60500 29.58200
C  14.06800 2.85000 27.31700
C  14.90700 2.32900 30.72700
O  14.38000 3.31600 31.07500
C  15.55400 1.34600 31.75200
C  16.55500 2.11000 32.51900
O  17.66500 2.40400 32.21500
O  15.98200 2.52500 33.74100
C  16.82400 3.51300 34.42900
H  19.46800 -4.25900 31.05200
H  18.50600 -4.04100 24.50000
H  15.23700 1.24900 25.30000
H  18.26200 -0.35500 33.04900
H  18.23800 -3.26900 32.96600
H  20.33800 -1.33800 33.23100
H  20.71900 -2.38500 31.83700
H  20.28500 -3.20600 33.29700
H  16.21600 -2.53900 33.72900
H  15.64900 -0.85800 33.42100
H  16.40000 -1.75700 35.83100
H  15.93200 -0.14600 35.36700
H  19.87300 -6.33500 30.35800
H  21.13400 -6.53100 29.35800
H  19.69800 -7.47700 29.08300
H  19.97100 -8.19300 26.86200
H  21.47600 -7.28500 27.06300
H  21.18600 -8.08300 25.65000
H  17.26700 -2.45800 23.01200
H  17.04000 0.36800 23.67600
H  19.03200 -0.09900 23.32200
H  19.02100 -1.50900 22.22200
H  19.74900 -1.71600 23.78200
H  14.43500 -0.79400 23.97400
H  15.11100 -1.52100 22.55000
H  14.60700 0.16400 21.27900
H  15.88400 1.14300 22.07200
H  14.18700 1.16000 22.64100
H  13.13300 2.45600 26.91700
H  14.56700 3.32000 26.47000
H  13.75600 3.70100 27.92300
H  14.89400 1.01400 32.55400
H  17.03000 4.27300 33.67600
H  17.74600 3.06300 34.79700
H  16.28100 4.03800 35.21500

