158

Mg 26.39800 0.13400 29.04800
C  28.11800 0.08000 32.26800
C  23.51100 0.78800 30.76600
C  24.73800 -0.07400 26.23400
C  29.24200 -1.05800 27.59900
N  25.94300 0.30800 31.28900
C  26.78100 0.34700 32.42600
C  26.02000 0.82300 33.68100
C  24.48300 0.89400 33.15000
C  24.58400 0.64700 31.59100
C  23.54800 -0.11500 33.90100
C  26.57100 2.13500 34.21300
C  26.02100 2.64100 35.54900
H  27.09100 2.81100 36.69900
N  24.33300 0.36300 28.54600
C  23.35200 0.66900 29.42900
C  22.09400 0.66700 28.74900
C  22.35700 0.45400 27.35800
C  23.83800 0.20600 27.30900
C  20.73800 1.02100 29.33100
C  21.51100 0.48400 26.11400
O  21.94200 0.24500 25.01800
C  20.08000 0.75400 26.26000
N  26.95000 -0.49000 27.20400
C  26.11100 -0.36000 26.16600
C  26.79000 -0.61500 24.83100
C  28.20400 -1.05900 25.26800
C  28.10100 -0.95800 26.81200
C  26.11400 -1.64700 23.89600
C  29.34100 -0.21800 24.57300
C  29.72600 -0.58300 23.14500
N  28.28700 -0.41800 29.74700
C  29.32700 -0.82100 28.99100
C  30.51600 -0.97300 29.81800
C  30.11500 -0.63400 31.14800
C  28.71300 -0.33500 31.01700
C  31.83300 -1.54300 29.30200
C  30.51500 -0.46500 32.53400
O  31.58000 -0.57100 33.09200
C  29.19800 0.07700 33.24100
C  28.88500 -0.91200 34.32000
O  28.60300 -2.10800 34.12500
O  28.94100 -0.25400 35.54600
C  28.87400 -1.08500 36.70200
H  22.67600 1.03500 31.42500
H  24.29500 -0.10600 25.23700
H  30.18900 -1.38900 27.16600
H  26.10100 0.07900 34.47400
H  24.14900 1.91400 33.34000
H  23.10500 0.36700 34.77200
H  24.24400 -0.85900 34.28900
H  22.77000 -0.47700 33.22900
H  26.40800 2.94500 33.50300
H  27.65500 2.14200 34.33000
H  25.20300 2.02100 35.91600
H  25.61700 3.63500 35.35800
H  20.51600 2.06900 29.13100
H  20.97100 0.99200 30.39600
H  19.88300 0.42300 29.01800
H  19.57700 0.77600 25.29300
H  20.04500 1.78300 26.61800
H  19.59400 -0.01700 26.85900
H  26.77900 0.38900 24.40600
H  28.36400 -2.12100 25.08300
H  25.23000 -1.97000 24.44400
H  26.81100 -2.39700 23.52000
H  25.74900 -1.07700 23.04100
H  30.34600 -0.26800 24.99200
H  29.08100 0.84000 24.57700
H  30.78400 -0.84200 23.09200
H  29.57200 0.31100 22.54100
H  29.18400 -1.43600 22.73700
H  31.59200 -2.22100 28.48300
H  32.27900 -2.00600 30.18200
H  32.51900 -0.77400 28.94700
H  29.40500 1.09400 33.57500
H  29.87100 -1.26400 37.10400
H  28.32400 -2.01600 36.56700
H  28.34500 -0.56600 37.50100
Mg -6.15800 25.24700 25.82700
C  -4.44900 26.52500 28.66300
C  -7.50900 22.94600 27.87600
C  -7.51500 23.72800 23.05500
C  -4.26000 27.31900 23.88000
N  -6.08100 24.90300 27.96600
C  -5.29900 25.50900 28.93600
C  -5.83500 25.18600 30.36700
C  -6.58400 23.87600 30.07800
C  -6.74800 23.89400 28.52500
C  -5.95000 22.55900 30.55200
C  -6.69300 26.37300 30.93300
C  -6.46400 26.71500 32.45500
H  -6.12800 25.68300 33.42100
N  -7.42600 23.64800 25.51200
C  -7.82900 22.79600 26.51500
C  -8.83300 21.84900 25.97900
C  -8.79000 21.99800 24.52500
C  -7.95200 23.19700 24.26900
C  -9.71500 21.04100 26.94100
C  -9.46900 21.15000 23.38900
O  -9.32800 21.42300 22.17500
C  -10.24400 20.02800 23.81600
N  -5.91300 25.44800 23.83700
C  -6.56800 24.74200 22.87100
C  -6.16500 25.31000 21.41900
C  -5.24100 26.50700 21.71800
C  -5.07600 26.36400 23.20500
C  -5.51800 24.30800 20.45200
C  -5.76800 27.95300 21.36700
C  -4.75300 28.71900 20.51800
N  -4.58500 26.65600 26.11800
C  -3.93500 27.46400 25.24300
C  -3.10700 28.33200 25.99000
C  -3.26300 28.05700 27.34200
C  -4.18200 27.01100 27.37200
C  -2.13300 29.32200 25.26800
C  -2.84800 28.39600 28.71800
O  -2.21300 29.34400 29.19000
C  -3.68300 27.49600 29.63000
C  -2.73100 26.92400 30.51100
O  -2.22300 25.87500 30.27500
O  -2.54400 27.67700 31.65200
C  -1.72400 27.08800 32.61800
H  -7.92400 22.22300 28.58200
H  -7.91400 23.30600 22.13000
H  -3.71600 28.04300 23.27000
H  -5.03700 24.95300 31.07300
H  -7.59700 23.89200 30.48000
H  -6.64700 22.06900 31.23300
H  -5.03900 22.63700 31.14600
H  -5.71100 21.93700 29.68900
H  -7.73700 26.08300 30.82400
H  -6.50900 27.31000 30.40700
H  -7.35900 27.21000 32.83400
H  -5.75400 27.54100 32.41000
H  -9.18100 20.14200 27.25200
H  -10.61600 20.70300 26.43000
H  -9.96900 21.58700 27.85000
H  -11.10800 20.47000 24.31400
H  -9.69600 19.44100 24.55300
H  -10.50000 19.29300 23.05300
H  -7.03200 25.64400 20.84900
H  -4.30300 26.27300 21.21400
H  -6.06900 23.39900 20.20800
H  -4.60800 23.81300 20.79400
H  -5.33100 24.78000 19.48800
H  -6.07300 28.48200 22.27000
H  -6.73200 27.89400 20.86200
H  -4.57400 29.69600 20.96600
H  -5.12600 29.09900 19.56600
H  -3.77000 28.25800 20.42000
H  -2.78900 30.07300 24.82900
H  -1.62700 28.85300 24.42400
H  -1.35200 29.69100 25.93300
H  -4.36700 28.18100 30.13200
H  -0.70900 26.81600 32.32900
H  -2.25300 26.37400 33.25100
H  -1.59300 27.91800 33.31200

