158

Mg 1.02100 42.93900 25.57500
C  3.32000 42.54500 28.22200
C  -1.52200 42.03400 27.48400
C  -0.89600 42.80100 22.83100
C  3.88100 43.47600 23.50400
N  0.99200 42.41100 27.62600
C  1.95700 42.36700 28.55700
C  1.36900 41.90400 29.90500
C  -0.16400 41.55400 29.52200
C  -0.25600 42.04600 28.11800
C  -0.60500 40.11900 29.86400
C  1.52900 43.02200 30.94400
C  1.88600 42.56500 32.34800
H  1.00100 42.96000 33.47700
N  -1.00000 42.67600 25.21800
C  -1.88100 42.35100 26.18900
C  -3.18100 42.36700 25.68900
C  -3.05200 42.45300 24.27500
C  -1.65400 42.61200 24.03600
C  -4.38700 42.30500 26.53600
C  -4.11200 42.39200 23.21200
O  -4.03000 42.61200 22.01300
C  -5.50000 42.12600 23.59400
N  1.46000 43.04200 23.44200
C  0.43200 43.05100 22.52600
C  0.92500 43.39100 21.15400
C  2.30700 44.01200 21.49000
C  2.61000 43.48800 22.89300
C  0.93400 42.14500 20.13600
C  2.33200 45.54700 21.33700
C  3.37100 46.08000 20.38000
N  3.08000 42.98600 25.76300
C  4.06400 43.25000 24.82600
C  5.37300 43.29000 25.42800
C  5.09000 43.00800 26.83100
C  3.72500 42.84200 26.94100
C  6.73700 43.38500 24.77500
C  5.70300 42.66800 28.13200
O  6.89800 42.48100 28.43500
C  4.58700 42.46600 29.16000
C  4.66900 41.14600 29.76800
O  4.53300 40.05700 29.17700
O  4.99600 41.33900 31.12500
C  5.38200 40.12200 31.86400
H  -2.29700 41.58800 28.11200
H  -1.55900 42.87500 21.96600
H  4.68600 43.83100 22.85700
H  1.90800 40.98600 30.13800
H  -0.92600 42.20100 29.95700
H  0.27100 39.56200 30.19600
H  -0.87700 39.48200 29.02300
H  -1.44000 40.02200 30.55700
H  0.62700 43.63200 30.97700
H  2.34900 43.68500 30.66800
H  2.85900 42.97400 32.62100
H  2.08400 41.49500 32.40800
H  -4.86100 41.34100 26.35200
H  -5.02100 43.17900 26.39000
H  -4.14800 42.48100 27.58500
H  -6.13000 41.96500 22.71900
H  -5.79200 42.94300 24.25200
H  -5.61300 41.19400 24.14900
H  0.25800 44.17100 20.78700
H  2.97600 43.74800 20.67000
H  1.97300 41.93100 19.88600
H  0.37000 42.41300 19.24300
H  0.53100 41.25000 20.61100
H  2.47000 46.01400 22.31200
H  1.43600 46.04000 20.95800
H  2.87300 46.64000 19.58800
H  3.88100 45.32900 19.77600
H  4.08300 46.67800 20.94800
H  7.35500 42.58400 25.18100
H  7.16700 44.38100 24.87800
H  6.60400 43.17600 23.71300
H  4.65400 43.21300 29.95200
H  5.68500 39.40700 31.10000
H  4.58100 39.72800 32.49100
H  6.15400 40.44500 32.56300
Mg -5.91300 25.62100 25.65600
C  -4.15500 26.66300 28.51800
C  -7.92300 23.70700 27.66400
C  -7.28300 24.09600 22.84900
C  -3.75100 27.32300 23.62500
N  -5.98800 25.19300 27.86300
C  -5.19800 25.79900 28.79900
C  -5.75500 25.30400 30.16800
C  -6.74400 24.15400 29.85900
C  -6.92600 24.35400 28.37900
C  -6.24000 22.71400 30.10100
C  -6.30900 26.52800 30.99600
C  -5.58100 26.79600 32.38600
H  -4.81700 25.56600 32.96500
N  -7.44500 24.20600 25.29500
C  -8.22600 23.64800 26.30200
C  -9.15700 22.72900 25.74500
C  -9.04200 22.80100 24.32200
C  -7.91200 23.76200 24.07100
C  -10.20000 21.95800 26.58000
C  -9.82400 22.11700 23.27400
O  -9.63900 22.25400 22.05100
C  -10.85700 21.12200 23.64400
N  -5.71400 25.84700 23.56400
C  -6.26800 25.01900 22.56600
C  -5.63400 25.18000 21.23000
C  -4.72400 26.38700 21.40600
C  -4.75100 26.62600 22.97000
C  -4.99600 23.86200 20.61900
C  -5.06200 27.65300 20.53700
C  -4.26700 27.66800 19.17000
N  -4.25400 26.71200 25.94000
C  -3.45400 27.36700 25.01900
C  -2.45100 28.23100 25.71100
C  -2.73500 27.89500 27.08400
C  -3.83200 26.96000 27.18700
C  -1.46100 29.15200 25.10400
C  -2.33500 28.28000 28.46900
O  -1.60100 29.15800 28.81500
C  -3.14800 27.31600 29.48500
C  -2.12500 26.37900 29.95800
O  -1.99500 25.15600 29.58900
O  -1.42200 26.99400 30.98400
C  -0.65500 26.07300 31.79600
H  -8.45700 23.01900 28.32300
H  -7.56500 23.55000 21.94600
H  -3.09500 27.79400 22.89000
H  -4.79900 24.93300 30.53900
H  -7.68200 24.32400 30.38800
H  -5.25600 22.84300 30.55100
H  -6.10900 22.22100 29.13800
H  -6.98000 22.19200 30.70700
H  -7.32100 26.24000 31.28200
H  -6.32200 27.41000 30.35700
H  -6.35200 27.00000 33.12900
H  -4.99200 27.71200 32.37800
H  -11.15000 22.28000 26.15400
H  -10.21100 22.13400 27.65600
H  -9.93800 20.90400 26.48400
H  -10.36300 20.42100 24.31800
H  -10.97200 20.56700 22.71300
H  -11.77500 21.64800 23.90500
H  -6.47100 25.51400 20.61700
H  -3.67700 26.12800 21.24600
H  -3.94300 23.94400 20.35000
H  -5.66200 23.50200 19.83500
H  -5.00500 23.22700 21.50500
H  -4.76200 28.51500 21.13200
H  -6.12600 27.72500 20.31300
H  -4.96200 27.92600 18.37200
H  -3.81400 26.69400 18.98700
H  -3.39500 28.30200 19.33000
H  -1.26400 28.85900 24.07300
H  -0.46800 29.01700 25.53400
H  -1.83500 30.17300 25.03500
H  -3.50100 27.88300 30.34600
H  -1.39200 25.71000 32.51300
H  -0.01800 26.76900 32.34300
H  -0.11000 25.29400 31.26300

