158

Mg -0.19400 7.34700 26.26500
C  0.76700 9.31600 29.05900
C  -0.08600 4.63100 28.41600
C  -0.62500 5.53700 23.66100
C  0.31900 10.20700 24.23600
N  0.28200 6.97500 28.57500
C  0.53700 7.96500 29.47700
C  0.48300 7.39500 30.92300
C  0.53200 5.83200 30.68100
C  0.29500 5.78100 29.10500
C  1.92500 5.18100 31.20700
C  -0.72100 7.82300 31.85200
C  -0.36500 7.94600 33.36800
H  0.81600 7.25000 34.02900
N  -0.35500 5.38600 26.06800
C  -0.29900 4.38700 27.05900
C  -0.59200 3.11300 26.44300
C  -0.78300 3.36200 25.03000
C  -0.53400 4.81300 24.83600
C  -0.65600 1.84600 27.21100
C  -1.20300 2.40200 23.93700
O  -1.44100 2.71100 22.75900
C  -1.71400 0.96600 24.31300
N  0.07900 7.77900 24.21600
C  -0.29600 6.81000 23.31000
C  -0.31100 7.42600 21.82900
C  -0.04500 8.93800 22.04800
C  0.15500 9.00200 23.57800
C  0.71100 6.71500 20.89700
C  -1.17200 9.85300 21.48800
C  -2.36500 10.06600 22.37500
N  0.47100 9.38600 26.51200
C  0.51300 10.44000 25.60500
C  0.83500 11.66600 26.31100
C  1.00900 11.28800 27.66700
C  0.71500 9.88500 27.74500
C  1.00700 13.04500 25.68600
C  1.36100 11.73300 28.98700
O  1.75400 12.79900 29.37900
C  1.12600 10.45700 29.93600
C  2.39000 10.19600 30.61000
O  3.37500 9.63000 30.16600
O  2.30100 10.77200 31.81300
C  3.50100 10.65900 32.69900
H  -0.25000 3.75100 29.04300
H  -1.03000 4.96500 22.82400
H  0.38800 11.11400 23.63200
H  1.40400 7.70900 31.41500
H  -0.19700 5.31100 31.30200
H  2.31200 4.63400 30.34700
H  1.71200 4.48200 32.01600
H  2.61100 6.00600 31.39900
H  -1.52900 7.09200 31.89100
H  -1.15900 8.72700 31.42900
H  -1.21700 7.58300 33.94300
H  -0.29400 8.97900 33.71100
H  -1.22000 0.98600 26.85000
H  -1.09200 1.98100 28.20000
H  0.39200 1.55200 27.27000
H  -2.56700 0.97000 24.99100
H  -0.94200 0.37000 24.80100
H  -2.11300 0.47500 23.42600
H  -1.29700 7.25500 21.39800
H  0.88300 9.12100 21.50700
H  0.78100 5.64800 21.10900
H  1.69000 7.07100 21.21800
H  0.53900 6.93800 19.84400
H  -1.53500 9.35900 20.58700
H  -0.61200 10.75900 21.25700
H  -2.39000 11.11000 22.68700
H  -2.39100 9.43400 23.26200
H  -3.29900 9.91700 21.83300
H  0.11200 13.65400 25.55900
H  1.37700 12.81000 24.68900
H  1.69800 13.56300 26.35100
H  0.32200 10.72200 30.62300
H  4.41900 11.11200 32.32400
H  3.52900 9.63800 33.08000
H  3.39400 11.17800 33.65100
Mg 44.14100 42.69100 25.71400
C  43.35500 45.11000 28.24000
C  45.12600 40.60900 28.26300
C  45.17000 40.71900 23.37200
C  43.29900 45.17300 23.25400
N  44.27300 42.89700 27.99200
C  43.70000 43.85200 28.78100
C  43.73300 43.54300 30.32700
C  44.45500 42.14300 30.33100
C  44.59100 41.84200 28.75800
C  45.78400 42.05400 31.16600
C  42.38400 43.47700 30.98600
C  42.24000 42.86700 32.40700
H  42.15400 43.74900 33.64000
N  45.09600 40.92600 25.78400
C  45.34800 40.16100 26.90400
C  45.86300 38.87500 26.55900
C  45.79100 38.85000 25.10700
C  45.34200 40.16800 24.67600
C  46.13900 37.81100 27.57500
C  46.08800 37.70300 24.13100
O  46.00500 37.76800 22.88600
C  46.67100 36.50500 24.70200
N  44.41100 42.98200 23.64300
C  44.79900 41.94500 22.87800
C  44.61100 42.20400 21.36900
C  43.80900 43.56100 21.39400
C  43.80000 43.92800 22.83200
C  45.85100 42.16400 20.54000
C  42.40000 43.44800 20.80300
C  41.24300 42.78800 21.55500
N  43.50800 44.75500 25.70200
C  43.16800 45.55200 24.63200
C  42.76200 46.81200 25.17300
C  42.81100 46.66500 26.57600
C  43.29400 45.42000 26.86400
C  42.60200 48.08600 24.44600
C  42.58000 47.32800 27.84400
O  42.08200 48.38700 28.09000
C  43.02500 46.36100 28.98000
C  44.19100 47.12000 29.59900
O  45.17500 47.50500 28.99000
O  43.89800 47.24900 30.96300
C  44.65200 48.29700 31.79000
H  45.44200 40.06000 29.15200
H  45.38300 40.07300 22.51700
H  43.10700 45.98300 22.54700
H  44.38100 44.28300 30.79600
H  43.77200 41.36300 30.66800
H  46.67800 41.91700 30.55700
H  45.66300 41.29900 31.94200
H  45.89600 43.00800 31.68100
H  41.68100 42.98700 30.31300
H  42.01300 44.48800 31.15100
H  43.12800 42.29500 32.67900
H  41.32200 42.28000 32.40100
H  45.67900 36.83600 27.41800
H  45.86800 38.16700 28.56900
H  47.21500 37.63400 27.57100
H  45.96500 36.08400 25.41700
H  47.64200 36.68400 25.16500
H  46.91000 35.78300 23.92100
H  44.06800 41.34900 20.96800
H  44.29800 44.39000 20.88200
H  45.48500 42.46600 19.55900
H  46.23700 41.14700 20.47100
H  46.55400 42.98600 20.67700
H  42.57200 43.02100 19.81500
H  42.02600 44.46800 20.72300
H  40.31400 43.31900 21.34900
H  41.40300 42.55900 22.60800
H  41.19200 41.76300 21.18700
H  43.01200 48.22600 23.44600
H  43.10100 48.85600 25.03500
H  41.53900 48.32000 24.39700
H  42.30200 46.20200 29.77900
H  45.65400 47.97000 32.06600
H  44.11800 48.64500 32.67400
H  44.85000 49.21400 31.23500

