158

Mg 17.64000 52.64300 26.40100
C  19.69900 51.31800 28.92000
C  15.24500 53.29700 28.85200
C  15.81700 53.97300 24.07000
C  19.99100 51.80200 24.06400
N  17.49400 52.19100 28.72900
C  18.45000 51.69000 29.49700
C  18.13100 51.91100 31.00900
C  16.56200 52.19500 30.95300
C  16.35700 52.58000 29.40300
C  15.65500 51.02100 31.41500
C  19.10700 53.08200 31.56200
C  19.43000 52.96200 33.09500
H  18.52700 52.16500 34.13400
N  15.89200 53.61800 26.52500
C  14.99200 53.77200 27.49300
C  13.92400 54.64100 27.13100
C  13.98700 54.71800 25.72100
C  15.32700 54.07500 25.37500
C  12.89100 55.10300 28.15300
C  13.00000 55.32100 24.75400
O  13.24400 55.42300 23.58200
C  11.80900 56.09800 25.20500
N  18.01100 53.04300 24.31500
C  16.97000 53.43300 23.55700
C  17.32100 53.39400 22.02400
C  18.76100 52.83900 22.10700
C  18.98600 52.58400 23.60800
C  16.25300 52.50000 21.27400
C  19.88300 53.81500 21.46500
C  20.72700 54.69200 22.35300
N  19.40000 51.70400 26.41300
C  20.25600 51.40800 25.38200
C  21.46200 50.74200 25.89800
C  21.30300 50.71500 27.25900
C  19.99400 51.33500 27.50900
C  22.62500 50.27800 25.05900
C  21.89900 50.28200 28.48500
O  22.95200 49.72200 28.64100
C  20.91600 50.72000 29.61700
C  20.51700 49.63500 30.55100
O  20.10900 48.58500 30.20200
O  20.87100 49.98000 31.83800
C  20.64000 48.92600 32.76800
H  14.43200 53.45700 29.56400
H  15.14600 54.44000 23.34600
H  20.70700 51.52200 23.28900
H  18.30400 50.97400 31.53700
H  16.22700 53.03900 31.55600
H  14.73900 51.35200 31.90300
H  16.21000 50.47600 32.17900
H  15.47100 50.33300 30.58900
H  18.47400 53.95300 31.38900
H  19.93700 53.22100 30.87000
H  19.68900 53.96400 33.43600
H  20.41600 52.49600 33.10800
H  13.60000 55.30100 28.95600
H  12.21000 54.28100 28.37100
H  12.33800 56.00300 27.88200
H  11.17200 55.56800 25.91300
H  11.29500 56.47200 24.31900
H  12.22600 56.94000 25.75800
H  17.27500 54.41200 21.63800
H  18.78300 51.88200 21.58600
H  15.62400 52.00600 22.01400
H  16.81800 51.71000 20.77900
H  15.68500 53.01700 20.50000
H  19.39600 54.36200 20.65800
H  20.56800 53.15200 20.93600
H  20.73300 55.70500 21.95100
H  21.76800 54.38100 22.43300
H  20.36200 54.77600 23.37700
H  22.61400 49.20500 24.87000
H  23.54700 50.54900 25.57300
H  22.62600 50.79400 24.09800
H  21.43300 51.50900 30.16400
H  20.78500 49.28300 33.78800
H  21.27800 48.05700 32.61000
H  19.60300 48.59900 32.69200
Mg -10.47000 39.00500 40.21800
C  -8.98200 35.81800 40.32600
C  -7.65200 40.28500 38.79700
C  -12.27900 41.94900 39.63400
C  -13.43200 37.57800 41.51600
N  -8.54600 38.12800 39.62300
C  -8.11400 36.81100 39.73000
C  -6.81200 36.56900 38.98000
C  -6.33200 38.08300 38.93600
C  -7.61500 38.87500 39.05200
C  -5.30300 38.38400 40.08400
C  -7.09800 35.88500 37.60800
C  -6.11100 34.88000 37.00900
H  -5.29800 35.40800 35.82200
N  -10.04700 40.89600 39.30000
C  -8.72700 41.24100 38.97400
C  -8.77200 42.65000 38.69300
C  -10.09500 43.16800 38.84700
C  -10.92900 41.98500 39.21300
C  -7.51500 43.37200 38.40900
C  -10.45200 44.66200 38.58200
O  -9.61900 45.41500 38.19100
C  -11.84800 45.11000 38.70200
N  -12.66700 39.55800 40.23200
C  -13.03800 40.87300 40.16400
C  -14.51100 41.07200 40.50100
C  -14.89400 39.65800 41.04600
C  -13.60300 38.87600 40.92500
C  -14.59700 42.17900 41.59700
C  -16.25000 38.92800 40.49100
C  -17.51800 39.73200 40.45800
N  -11.11300 37.11200 40.95800
C  -12.29700 36.63400 41.48500
C  -12.13000 35.28100 41.93400
C  -10.86900 34.87100 41.43000
C  -10.25000 36.02500 40.82400
C  -13.11500 34.43700 42.76200
C  -9.99300 33.69500 41.30200
O  -10.05400 32.53300 41.69800
C  -8.83700 34.28000 40.37200
C  -7.47200 33.84000 40.86800
O  -6.83000 32.96100 40.28100
O  -7.20000 34.37900 42.16000
C  -5.90600 33.92500 42.80300
H  -6.66700 40.74400 38.68400
H  -12.86400 42.85300 39.45300
H  -14.31600 37.10000 41.94300
H  -6.14400 35.98100 39.61000
H  -5.88100 38.13300 37.94400
H  -5.79500 39.25400 40.51900
H  -4.27400 38.60900 39.80700
H  -5.26300 37.62500 40.86600
H  -7.31100 36.72100 36.94200
H  -8.04700 35.35000 37.64800
H  -6.59800 33.93000 36.78700
H  -5.40300 34.68600 37.81500
H  -7.54700 43.83000 37.42100
H  -6.62100 42.75000 38.46800
H  -7.38700 44.21800 39.08400
H  -12.44000 44.93800 39.60100
H  -12.35500 44.63300 37.86300
H  -11.85500 46.16200 38.41700
H  -15.14000 41.26700 39.63200
H  -15.10200 39.68800 42.11600
H  -15.24200 42.93200 41.14600
H  -13.62300 42.62200 41.80200
H  -15.11900 41.85300 42.49700
H  -16.31400 38.00700 41.07100
H  -16.05500 38.63100 39.46100
H  -17.39100 40.74000 40.85500
H  -18.25400 39.22500 41.08100
H  -17.82000 39.79200 39.41300
H  -12.78700 33.39800 42.80600
H  -14.09500 34.39300 42.28800
H  -13.26000 34.90100 43.73800
H  -8.98600 33.78100 39.41500
H  -5.13400 34.32900 42.14800
H  -5.81900 32.84200 42.88300
H  -5.87400 34.27600 43.83500

