158

Mg 41.37900 8.41800 29.30600
C  43.46700 9.36500 32.09100
C  39.13800 7.12500 31.62600
C  39.66900 7.38100 26.76600
C  44.13500 9.29400 27.18300
N  41.35600 8.32200 31.60100
C  42.25300 8.80700 32.50200
C  41.63100 8.79100 33.91300
C  40.39100 7.80700 33.78400
C  40.23800 7.73300 32.21900
C  40.57600 6.46500 34.60600
C  41.22000 10.14600 34.47900
C  40.91300 10.13900 35.99200
H  41.58400 11.28900 36.82900
N  39.65300 7.42700 29.17300
C  38.87500 6.94700 30.19600
C  37.70900 6.33700 29.52200
C  37.67700 6.50900 28.15700
C  39.06700 7.05000 27.97100
C  36.77500 5.44000 30.31700
C  36.78200 6.10600 27.09700
O  36.90800 6.28600 25.90900
C  35.45100 5.52500 27.52800
N  42.02700 8.11500 27.29700
C  40.95700 7.88400 26.44400
C  41.41700 8.07700 24.98700
C  42.68400 8.85500 25.12300
C  42.96800 8.74200 26.62800
C  41.60700 6.65200 24.19900
C  42.71300 10.22700 24.58000
C  41.63600 11.15500 25.18800
N  43.38300 9.22700 29.52500
C  44.40500 9.46000 28.56100
C  45.59100 9.92800 29.16200
C  45.25100 9.96800 30.57600
C  43.90400 9.46900 30.73800
C  46.79700 10.37900 28.49900
C  45.68500 10.35100 31.84900
O  46.75600 10.89200 32.11000
C  44.57300 9.99000 32.87800
C  45.13400 9.03700 33.90300
O  45.15700 7.81400 33.92500
O  45.72500 9.77500 34.92100
C  46.21400 9.12200 36.12800
H  38.35300 6.82700 32.32400
H  38.94000 7.25600 25.96200
H  44.88000 9.57700 26.43700
H  42.33500 8.39800 34.64700
H  39.47100 8.28100 34.12700
H  39.92500 6.22800 35.44800
H  41.53700 6.37000 35.11100
H  40.41500 5.61800 33.94000
H  40.28900 10.56500 34.09600
H  41.95800 10.92100 34.27000
H  41.22100 9.28400 36.59300
H  39.82700 10.22500 35.96900
H  36.57700 4.50500 29.79300
H  35.88100 6.02600 30.53000
H  37.17900 5.19700 31.30000
H  35.48800 4.47100 27.80300
H  34.77400 5.51900 26.67400
H  34.99500 6.24800 28.20400
H  40.70900 8.67700 24.41500
H  43.46400 8.36700 24.54000
H  41.06700 6.64900 23.25200
H  41.19000 5.81500 24.76000
H  42.67600 6.49000 24.05800
H  42.55400 10.12600 23.50600
H  43.67600 10.71900 24.71400
H  42.04300 12.09400 25.56400
H  41.02800 10.64400 25.93400
H  40.83900 11.34000 24.46700
H  46.96300 9.85300 27.55900
H  47.72600 10.17600 29.03100
H  46.68100 11.43700 28.26600
H  44.31100 10.90400 33.41100
H  45.40200 8.92300 36.82800
H  46.99300 9.71000 36.61300
H  46.60800 8.15700 35.81000
Mg 29.72300 57.95500 40.78400
C  27.01700 56.28000 39.36100
C  31.75300 55.65900 39.20200
C  32.41300 60.03300 41.20100
C  27.53200 60.64300 41.49900
N  29.37400 56.10400 39.55700
C  28.23200 55.63800 38.98800
C  28.42100 54.44700 38.14700
C  29.91200 54.03500 38.52700
C  30.40100 55.32300 39.14600
C  30.32200 52.76400 39.35700
C  28.21300 54.70400 36.61900
C  27.18400 53.82000 35.84200
H  26.30300 54.55600 34.89800
N  31.83600 57.79000 40.39100
C  32.40800 56.71500 39.74700
C  33.80100 56.91800 39.85400
C  34.08000 58.20000 40.46900
C  32.78500 58.75900 40.71700
C  34.79300 55.91700 39.27100
C  35.46400 58.74900 40.61400
O  36.48000 58.08400 40.31600
C  35.71500 60.03700 41.35000
N  29.95600 59.99700 41.26000
C  31.19600 60.58400 41.41500
C  31.00200 62.02700 41.81600
C  29.50000 62.21600 42.04600
C  28.93200 60.87300 41.57900
C  31.98600 62.52200 42.88200
C  28.75600 63.43300 41.38200
C  27.63400 64.08200 42.29000
N  27.72400 58.37900 40.63700
C  26.96300 59.44700 41.07900
C  25.54100 59.18800 40.77000
C  25.46800 57.88600 40.22900
C  26.85300 57.48100 40.09800
C  24.38700 60.16900 40.98400
C  24.58400 56.90400 39.67700
O  23.37500 56.89700 39.53200
C  25.58700 55.74700 39.13200
C  25.19100 54.52200 39.89800
O  24.99200 54.44500 41.07200
O  24.83400 53.47000 39.03400
C  24.22800 52.26700 39.74000
H  32.43600 54.94600 38.73400
H  33.24300 60.72200 41.37600
H  26.88800 61.48500 41.76100
H  27.75400 53.75500 38.66200
H  30.44100 53.94900 37.57800
H  30.82500 51.95200 38.83300
H  29.38700 52.33700 39.72000
H  30.97500 53.04000 40.18500
H  29.19000 54.69100 36.13600
H  28.00700 55.77300 36.56600
H  26.46500 53.36600 36.52400
H  27.76200 53.02800 35.36600
H  35.60700 55.87100 39.99500
H  35.12800 56.44700 38.37900
H  34.46800 54.90200 39.04300
H  35.37700 60.92800 40.82100
H  36.79400 60.01900 41.19600
H  35.40100 60.07000 42.39300
H  31.28500 62.63600 40.95700
H  29.26100 62.13300 43.10600
H  32.60000 63.26100 42.36900
H  32.65500 61.73200 43.22100
H  31.41800 62.98100 43.69200
H  28.35100 63.11700 40.42100
H  29.49900 64.18600 41.12000
H  27.95900 65.06800 42.62400
H  27.51300 63.59800 43.25900
H  26.63900 64.12900 41.84800
H  23.58100 59.74700 41.58300
H  23.97100 60.41200 40.00600
H  24.85200 60.98700 41.53400
H  25.34500 55.58200 38.08200
H  24.72000 51.46300 39.19200
H  23.18600 52.22900 39.42100
H  24.26300 52.22600 40.82900

