158

Mg 49.53000 35.18900 27.86500
C  47.14800 34.03000 30.32100
C  49.90700 37.99000 29.74300
C  51.29700 36.31000 25.34300
C  48.70600 32.30900 25.93600
N  48.63000 35.89200 29.94200
C  47.87200 35.20300 30.80400
C  48.00700 35.83700 32.18000
C  48.46900 37.35400 31.87500
C  49.09400 37.04100 30.44600
C  47.41200 38.50100 31.85500
C  49.12400 35.13200 33.07600
C  48.92400 35.17400 34.55400
H  48.10100 36.36500 35.20900
N  50.38700 36.90500 27.56200
C  50.52200 37.92500 28.43800
C  51.39300 38.95200 27.92100
C  51.83900 38.52300 26.64000
C  51.16700 37.21800 26.42200
C  51.47600 40.27400 28.66000
C  52.90900 39.17300 25.75900
O  53.30500 38.77700 24.62800
C  53.65900 40.31600 26.41700
N  49.87000 34.35800 25.83600
C  50.79300 35.05900 25.09900
C  51.29900 34.13800 23.96500
C  50.58700 32.74900 24.20400
C  49.63200 33.12200 25.31800
C  51.18800 34.83300 22.56600
C  51.60000 31.61900 24.65900
C  51.29700 30.27300 24.04700
N  48.22200 33.51400 28.00100
C  48.00600 32.43900 27.16600
C  47.08900 31.47500 27.82600
C  46.70700 32.04300 29.03500
C  47.39900 33.29300 29.09500
C  46.74600 30.09900 27.26100
C  45.82300 31.94200 30.24500
O  45.02200 31.03300 30.53500
C  46.03900 33.18000 31.17200
C  46.40300 32.80400 32.54800
O  47.30100 32.05400 32.84700
O  45.56900 33.42100 33.39200
C  45.61600 33.20400 34.80700
H  50.20500 38.83100 30.37300
H  52.13800 36.57500 24.69900
H  48.54600 31.44300 25.29000
H  47.03700 35.78500 32.67500
H  49.28900 37.73300 32.48500
H  47.30900 38.68300 30.78600
H  47.63900 39.38400 32.45300
H  46.50000 38.07900 32.27700
H  50.02700 35.59800 32.68100
H  49.04100 34.06800 32.85500
H  49.81700 35.19900 35.17800
H  48.52000 34.18300 34.75900
H  51.68300 41.09300 27.97100
H  52.15800 40.27900 29.51000
H  50.56200 40.61100 29.14900
H  53.15000 41.23400 26.12400
H  54.57500 40.33800 25.82700
H  53.79400 40.10700 27.47800
H  52.35800 34.13600 24.21900
H  49.91000 32.38700 23.43000
H  52.18800 34.94400 22.14500
H  50.68900 35.80000 22.62100
H  50.74700 34.22700 21.77500
H  51.74700 31.50800 25.73400
H  52.54600 31.93000 24.21700
H  51.26200 29.56400 24.87400
H  52.11200 30.01000 23.37300
H  50.36800 30.29300 23.47600
H  47.16500 29.87200 26.28100
H  45.66300 29.98300 27.22100
H  47.21900 29.46100 28.00800
H  45.13100 33.78200 31.21200
H  46.62800 33.51700 35.06600
H  45.44900 32.13700 34.95600
H  44.90000 33.80300 35.36900
Mg -11.77400 38.40000 42.27900
C  -9.57400 35.93300 41.05400
C  -9.85700 40.72100 40.53200
C  -14.27700 40.54300 42.58200
C  -13.98400 35.79600 43.47400
N  -10.05600 38.27300 40.81500
C  -9.19600 37.19100 40.61700
C  -7.84900 37.53300 39.92200
C  -8.02200 39.04400 39.74400
C  -9.41300 39.39100 40.35800
C  -6.89100 39.89300 40.30500
C  -7.63400 36.82300 38.55500
C  -6.31600 36.03800 38.35900
H  -5.47100 36.31600 37.11300
N  -11.94800 40.41300 41.79000
C  -11.04500 41.14200 41.09400
C  -11.56600 42.46700 41.00000
C  -12.83300 42.48100 41.54500
C  -13.07000 41.11000 42.04500
C  -10.74200 43.66100 40.42800
C  -13.78500 43.67800 41.54800
O  -13.46000 44.74700 41.05800
C  -15.18200 43.57800 42.06800
N  -13.93500 38.18100 42.97200
C  -14.66600 39.27700 42.99200
C  -16.06700 38.95400 43.54700
C  -15.94000 37.35300 43.84700
C  -14.50900 37.09700 43.45900
C  -16.67600 39.84400 44.72600
C  -16.94500 36.46300 43.11900
C  -18.17400 36.01600 43.86300
N  -11.84100 36.25500 42.23500
C  -12.75300 35.40700 42.82600
C  -12.10800 34.07000 42.83700
C  -10.86400 34.23600 42.20100
C  -10.78200 35.57200 41.79100
C  -12.60900 32.79200 43.44600
C  -9.58400 33.58000 41.83100
O  -9.15500 32.44900 42.13000
C  -8.73000 34.56600 41.00800
C  -7.39500 34.58600 41.63000
O  -6.46700 33.80800 41.32100
O  -7.28000 35.48900 42.68600
C  -6.04700 35.24200 43.53500
H  -9.14200 41.43100 40.11100
H  -15.07500 41.28500 42.64300
H  -14.65200 35.09100 43.97300
H  -7.03900 37.27400 40.60400
H  -8.09600 39.36100 38.70400
H  -7.09500 40.07300 41.36100
H  -6.70700 40.82100 39.76300
H  -5.97300 39.31500 40.19900
H  -7.68300 37.51100 37.71100
H  -8.51000 36.20600 38.35400
H  -6.63400 34.99600 38.32800
H  -5.78500 36.24600 39.28800
H  -10.80000 43.75200 39.34400
H  -9.71700 43.42000 40.70900
H  -11.00600 44.58800 40.93800
H  -15.74200 44.47800 41.81700
H  -15.06700 43.38900 43.13500
H  -15.73600 42.77500 41.58100
H  -16.76000 39.14500 42.72800
H  -16.07100 37.17100 44.91400
H  -15.75300 40.33200 45.04000
H  -17.07700 39.31000 45.58800
H  -17.34200 40.59600 44.30200
H  -16.48000 35.55000 42.74800
H  -17.20200 36.95300 42.17900
H  -18.79800 35.66900 43.03900
H  -18.66800 36.77400 44.47200
H  -17.97200 35.11900 44.44800
H  -12.84100 32.07800 42.65600
H  -13.48800 33.00700 44.05400
H  -11.80500 32.42700 44.08400
H  -8.63600 34.37400 39.93900
H  -6.16400 35.80800 44.45900
H  -5.11500 35.51600 43.04000
H  -6.00000 34.20800 43.87700

