158

Mg 24.73900 -4.48800 45.71700
C  26.73000 -2.09200 43.90000
C  22.02500 -3.28800 43.81000
C  23.10800 -7.21800 46.62500
C  27.71600 -5.73100 46.95100
N  24.52900 -2.91500 44.05000
C  25.45100 -2.11100 43.43100
C  24.79600 -1.24500 42.32800
C  23.24800 -1.48500 42.54000
C  23.22200 -2.61500 43.58200
C  22.29600 -0.28000 43.10500
C  25.38100 -1.59600 40.89700
C  25.92300 -0.41600 40.07500
H  25.66600 -0.56400 38.55000
N  22.78900 -5.12900 45.32500
C  21.82100 -4.47800 44.62700
C  20.68100 -5.31200 44.66300
C  20.89600 -6.46100 45.47700
C  22.31200 -6.31900 45.86200
C  19.45800 -4.91600 43.86300
C  19.87300 -7.53800 45.88500
O  18.75200 -7.67400 45.36700
C  20.10200 -8.52600 46.95800
N  25.32000 -6.16500 46.79400
C  24.47300 -7.23300 47.06500
C  25.18000 -8.45000 47.62600
C  26.62500 -7.89900 47.96100
C  26.60100 -6.55100 47.19100
C  24.41700 -9.02000 48.88700
C  27.73700 -8.92000 47.52400
C  28.61300 -9.48300 48.70100
N  26.74600 -3.90400 45.75900
C  27.79500 -4.49700 46.32300
C  28.93900 -3.63300 46.23900
C  28.63300 -2.72000 45.19300
C  27.26100 -2.89600 44.95200
C  30.24400 -3.76700 47.02500
C  29.08900 -1.65200 44.39100
O  30.12400 -1.06700 44.37500
C  27.85000 -1.30400 43.44600
C  27.56500 0.15300 43.65400
O  27.06700 0.71400 44.61800
O  28.10400 0.88000 42.61500
C  28.18600 2.38500 42.66400
H  21.11200 -2.92400 43.33500
H  22.52000 -8.10200 46.88200
H  28.70900 -6.01200 47.30700
H  25.02500 -0.21800 42.61100
H  22.98500 -1.84700 41.54600
H  21.56800 -0.61600 43.84400
H  21.65100 0.13900 42.33300
H  22.89500 0.57200 43.42500
H  24.67700 -2.08200 40.22100
H  26.13800 -2.37500 40.99500
H  26.97600 -0.26000 40.31200
H  25.33000 0.41900 40.44900
H  19.50900 -5.15200 42.80000
H  19.15800 -3.86800 43.87700
H  18.53000 -5.39300 44.17700
H  19.16900 -9.02300 47.22300
H  20.45900 -7.89300 47.77100
H  20.77700 -9.33600 46.68200
H  25.18100 -9.27900 46.91900
H  26.77600 -7.76800 49.03200
H  25.01500 -8.92100 49.79300
H  24.12400 -10.05800 48.73300
H  23.44000 -8.55100 49.00900
H  28.42000 -8.41000 46.84400
H  27.30900 -9.74000 46.94700
H  28.85000 -10.54200 48.60300
H  28.00400 -9.36600 49.59800
H  29.50500 -8.86600 48.80500
H  30.82100 -4.53300 46.50700
H  30.04200 -4.21100 47.99900
H  30.79200 -2.82500 46.97500
H  28.19600 -1.53200 42.43800
H  28.31400 2.64800 41.61400
H  29.06300 2.59100 43.27700
H  27.31600 2.91300 43.05700
Mg 6.90200 53.59700 41.75600
C  6.57100 50.06600 41.25700
C  10.08100 53.41600 40.49200
C  7.06400 56.94100 41.76300
C  3.60500 53.65900 43.07600
N  8.09900 51.96900 40.83700
C  7.77300 50.64800 40.63600
C  8.97800 49.89700 39.94100
C  10.19600 50.88400 40.18200
C  9.44400 52.22300 40.51500
C  11.11200 50.38600 41.39300
C  8.82300 49.37900 38.42900
C  7.81900 50.15200 37.58500
H  7.04000 49.32500 36.43200
N  8.34500 55.04500 41.12200
C  9.62300 54.74500 40.72700
C  10.36500 55.99000 40.60000
C  9.44500 57.03600 40.77600
C  8.20400 56.33800 41.22000
C  11.79300 56.12700 40.17200
C  9.63900 58.53800 40.53200
O  10.70000 58.94200 40.05700
C  8.49700 59.53800 40.68700
N  5.44900 55.09400 42.27500
C  5.81000 56.39900 42.30900
C  4.76700 57.23500 43.00500
C  3.58800 56.20900 43.21700
C  4.22900 54.88300 42.85900
C  5.04700 57.97100 44.28200
C  2.26600 56.40900 42.46700
C  1.48300 57.65000 43.02900
N  5.33000 52.21200 42.20000
C  4.09400 52.38400 42.73800
C  3.56700 51.04100 42.94500
C  4.51200 50.12000 42.41600
C  5.56800 50.89800 41.93600
C  2.32400 50.72100 43.62200
C  4.75300 48.70600 42.28200
O  4.08400 47.79800 42.66300
C  6.13200 48.61800 41.45300
C  5.77300 47.94700 40.21800
O  4.97800 48.46300 39.45700
O  6.39600 46.78700 40.00800
C  5.89900 46.16400 38.78600
H  11.13400 53.33600 40.21400
H  7.00300 58.02800 41.85600
H  2.66200 53.63100 43.62500
H  9.09800 48.95700 40.48100
H  10.78700 51.03400 39.27800
H  11.24600 51.15900 42.15000
H  12.08900 50.04500 41.05100
H  10.67400 49.50400 41.85900
H  8.61300 48.31400 38.53000
H  9.76100 49.51000 37.88800
H  8.47300 50.89300 37.12700
H  7.10000 50.70300 38.19000
H  11.90300 56.21600 39.09200
H  12.39000 55.26300 40.46800
H  12.35400 56.94400 40.62600
H  8.28500 59.79700 41.72500
H  7.63000 59.16400 40.14300
H  8.63000 60.51900 40.23000
H  4.34600 57.88000 42.23300
H  3.24500 56.05000 44.23900
H  6.11000 57.84200 44.48300
H  4.67000 57.53100 45.20500
H  4.80300 59.02800 44.38000
H  1.61000 55.54200 42.55100
H  2.52900 56.60400 41.42800
H  1.85900 58.21300 43.88300
H  0.49700 57.38000 43.40500
H  1.28200 58.43000 42.29500
H  1.80500 50.00400 42.98600
H  1.76800 51.65800 43.65800
H  2.31900 50.36700 44.65300
H  6.73000 47.91900 42.03800
H  6.21100 46.73900 37.91500
H  4.84000 45.90800 38.82000
H  6.43500 45.21500 38.76400

