158

Mg 8.77800 3.11600 27.57700
C  10.28900 1.47500 30.37100
C  7.10800 5.24500 29.81300
C  7.57800 4.55600 24.93000
C  10.03500 0.50100 25.48100
N  8.74400 3.36500 29.89300
C  9.47000 2.56000 30.80100
C  9.22500 2.96000 32.25300
C  8.15100 4.14400 32.05000
C  7.88300 4.21400 30.49800
C  6.81500 3.86300 32.84100
C  10.57000 3.31000 33.04900
C  10.52200 4.37800 34.15100
H  11.22600 4.10600 35.48600
N  7.45100 4.62000 27.36900
C  6.90700 5.39300 28.39300
C  6.12800 6.46800 27.82200
C  6.31600 6.30100 26.37000
C  7.12700 5.08800 26.17700
C  5.45800 7.51600 28.59900
C  5.85100 7.24500 25.26900
O  6.27300 7.18100 24.13600
C  4.87300 8.29700 25.57800
N  8.89600 2.61200 25.49800
C  8.31100 3.45600 24.63200
C  8.65200 3.06500 23.15100
C  9.31100 1.66300 23.35400
C  9.48800 1.59200 24.83900
C  7.46200 2.98300 22.14400
C  10.77800 1.61100 22.69500
C  11.02600 0.59500 21.56400
N  9.95600 1.34000 27.77300
C  10.30600 0.40400 26.88100
C  11.16300 -0.58300 27.54400
C  11.27100 -0.15500 28.90500
C  10.47800 0.99600 28.96900
C  11.81300 -1.72000 26.82200
C  11.75300 -0.46900 30.23100
O  12.56100 -1.34800 30.58500
C  11.19300 0.64700 31.21600
C  10.48700 -0.11000 32.27000
O  9.41000 -0.59400 32.12300
O  11.17300 -0.10700 33.50800
C  10.41600 -0.49200 34.71800
H  6.56300 6.04900 30.31100
H  7.12500 4.93400 24.01100
H  10.35700 -0.32900 24.85000
H  8.72600 2.11700 32.73100
H  8.56400 5.12600 32.28000
H  6.84500 2.89200 33.33500
H  5.96600 3.83200 32.15900
H  6.51800 4.59000 33.59700
H  11.44900 3.52200 32.44100
H  10.75000 2.42900 33.66500
H  9.48200 4.63100 34.35700
H  10.97200 5.30000 33.78300
H  5.89700 8.49300 28.39600
H  5.38300 7.53900 29.68600
H  4.42200 7.55200 28.26200
H  4.30900 8.59700 24.69500
H  5.56700 9.07300 25.90300
H  4.14300 7.91000 26.28900
H  9.32200 3.83700 22.77100
H  8.77600 0.79400 22.96900
H  6.87700 3.88300 22.32900
H  6.81400 2.15100 22.42000
H  7.88400 2.98500 21.13900
H  11.43400 1.30300 23.51000
H  11.15100 2.59300 22.40800
H  11.46700 1.01700 20.66100
H  10.07200 0.19200 21.22300
H  11.60500 -0.23800 21.96400
H  11.95400 -1.64500 25.74300
H  11.30800 -2.67800 26.94600
H  12.80900 -1.73800 27.26300
H  11.99100 1.14400 31.76800
H  9.84800 -1.40800 34.55600
H  9.79500 0.36900 34.97000
H  11.05500 -0.82700 35.53500
Mg -11.31200 38.89500 42.04700
C  -9.78500 36.04600 40.56800
C  -8.92200 40.75700 40.42200
C  -13.18700 41.68100 42.62200
C  -13.94300 36.88200 42.91600
N  -9.69300 38.42900 40.40400
C  -9.12100 37.20400 40.16800
C  -7.80500 37.36300 39.44200
C  -7.50700 38.86900 39.46200
C  -8.79000 39.42000 40.06700
C  -6.21800 39.19800 40.29500
C  -7.91700 36.85000 37.95500
C  -6.73600 36.05800 37.35600
H  -6.07900 36.70500 36.17300
N  -11.10500 40.89700 41.56600
C  -10.01900 41.48500 40.95500
C  -10.28100 42.91400 40.80100
C  -11.42600 43.22300 41.53000
C  -12.02400 41.93600 41.83800
C  -9.27000 43.78700 40.09900
C  -11.90000 44.62400 41.74800
O  -11.18900 45.58100 41.44200
C  -13.17200 44.96300 42.53300
N  -13.24800 39.22400 42.62100
C  -13.71800 40.42100 42.97700
C  -15.11200 40.39200 43.68300
C  -15.38400 38.80600 43.69000
C  -14.11200 38.24800 43.09600
C  -15.22200 41.06700 45.08100
C  -16.57900 38.34000 42.74900
C  -17.83800 38.02300 43.55200
N  -11.73600 36.87100 42.03800
C  -12.90400 36.15200 42.33700
C  -12.76300 34.77100 42.10600
C  -11.55200 34.69000 41.42000
C  -10.96100 35.94500 41.36300
C  -13.79900 33.74500 42.35700
C  -10.67400 33.78500 40.70900
O  -10.78400 32.57100 40.55900
C  -9.41000 34.59100 40.25600
C  -8.27400 34.15700 41.09700
O  -8.17300 34.02500 42.29300
O  -7.15100 33.98800 40.33000
C  -5.81800 33.93500 40.88700
H  -8.12600 41.46700 40.18700
H  -13.76100 42.52800 43.00300
H  -14.64500 36.15800 43.33500
H  -7.06500 36.78200 39.99100
H  -7.53300 39.33200 38.47600
H  -5.65500 39.87500 39.65200
H  -5.68900 38.27400 40.53100
H  -6.44400 39.75300 41.20500
H  -8.04600 37.74600 37.34900
H  -8.83600 36.29800 37.76100
H  -7.11300 35.07900 37.05900
H  -6.03600 35.96700 38.18700
H  -8.56000 44.21200 40.80900
H  -9.78400 44.63200 39.64100
H  -8.73200 43.26400 39.30800
H  -12.98200 44.55200 43.52500
H  -13.99600 44.52400 41.97200
H  -13.33100 46.03900 42.60300
H  -15.77800 40.95600 43.03100
H  -15.33200 38.42800 44.71100
H  -16.12300 41.68000 45.10900
H  -14.32800 41.68700 45.15500
H  -15.34300 40.29100 45.83700
H  -16.30400 37.45500 42.17500
H  -16.75900 39.19400 42.09700
H  -18.64400 38.42300 42.93800
H  -17.77700 38.54300 44.50800
H  -18.04200 36.96900 43.74600
H  -14.79800 34.17200 42.27300
H  -13.64200 33.37800 43.37100
H  -13.65100 32.88300 41.70700
H  -9.17500 34.30600 39.23000
H  -5.22000 34.65300 40.32700
H  -5.38400 32.95100 40.70900
H  -5.67200 34.17600 41.94000

