158

Mg 41.02100 7.79500 29.52100
C  42.92200 9.22400 32.08100
C  38.65000 6.80200 31.81800
C  39.54900 5.99500 27.12500
C  43.81600 8.03900 27.34700
N  40.86700 7.90700 31.74900
C  41.68500 8.73200 32.54700
C  41.03000 8.81000 33.96300
C  39.82000 7.86200 33.95300
C  39.75700 7.40000 32.43800
C  39.75300 6.64200 34.85000
C  40.72900 10.35900 34.16900
C  40.03500 10.72600 35.47400
H  40.75200 11.67200 36.45700
N  39.35800 6.61000 29.54600
C  38.41300 6.44800 30.50800
C  37.31200 5.70100 30.02700
C  37.51800 5.41500 28.66400
C  38.91100 5.93600 28.41000
C  36.09600 5.36000 30.93100
C  36.62000 4.72600 27.63300
O  36.98600 4.49600 26.45400
C  35.10300 4.44400 27.95800
N  41.58500 7.07500 27.48900
C  40.75300 6.41700 26.74500
C  41.31700 6.07000 25.39400
C  42.50100 7.05700 25.35200
C  42.72100 7.28900 26.83300
C  41.60100 4.64500 25.04900
C  42.23200 8.39600 24.58200
C  43.43500 9.38800 24.16200
N  42.95000 8.47700 29.63600
C  43.96800 8.47000 28.66400
C  45.07100 9.17300 29.17200
C  44.72500 9.45000 30.51800
C  43.45100 9.01500 30.74800
C  46.27600 9.66300 28.42600
C  45.15100 10.11100 31.77000
O  46.20100 10.65500 32.06700
C  43.98600 10.00900 32.85600
C  44.48800 9.31400 34.06400
O  44.92300 8.16300 34.04900
O  44.39700 10.08800 35.20700
C  44.38300 9.28500 36.45000
H  37.84300 6.69100 32.54600
H  39.07200 5.40800 26.33700
H  44.69300 8.13500 26.70300
H  41.76900 8.48400 34.69400
H  38.85400 8.35100 34.07500
H  39.97300 5.73800 34.28200
H  38.89700 6.59600 35.52400
H  40.54400 6.67600 35.59900
H  40.23200 10.80400 33.30800
H  41.64000 10.95500 34.22600
H  39.87400 9.77300 35.97700
H  39.15500 11.33400 35.26300
H  35.17100 5.75700 30.51400
H  36.15300 5.61200 31.99000
H  36.01200 4.27400 30.95600
H  35.07200 3.80800 28.84300
H  34.56700 3.95500 27.14400
H  34.55400 5.36900 28.13600
H  40.63300 6.44200 24.63100
H  43.31900 6.58300 24.81000
H  41.06500 3.86700 25.59300
H  42.66800 4.54900 25.24600
H  41.44900 4.51500 23.97700
H  41.64100 8.92800 25.32700
H  41.56700 8.07300 23.78100
H  43.39100 9.48900 23.07800
H  44.30900 8.85400 24.53600
H  43.33500 10.39200 24.57600
H  45.86700 9.90400 27.44500
H  47.01000 8.86500 28.31800
H  46.67100 10.62300 28.75900
H  43.79300 11.03700 33.16200
H  45.42900 9.13000 36.71700
H  43.81200 8.37000 36.29300
H  43.90200 9.78800 37.28800
Mg 9.04300 47.55900 26.85200
C  7.08800 47.14200 29.63300
C  11.70500 47.95700 28.99900
C  10.84800 48.65400 24.17000
C  6.13600 47.65000 24.84200
N  9.38100 47.62100 29.14300
C  8.41700 47.35000 30.06000
C  9.01600 47.38700 31.49200
C  10.53000 47.70700 31.25100
C  10.53100 47.77500 29.72100
C  11.21800 48.89100 31.98500
C  8.67700 46.25200 32.55400
C  9.79400 45.90200 33.53000
H  9.43700 45.15500 34.80800
N  11.04500 48.08100 26.60100
C  11.99700 48.13600 27.58900
C  13.24900 48.39400 26.97400
C  13.02100 48.54600 25.58500
C  11.59000 48.48000 25.39500
C  14.55900 48.30900 27.81700
C  14.02000 48.80400 24.50000
O  13.77300 49.01200 23.30500
C  15.46000 49.01900 24.92000
N  8.55100 48.17900 24.80500
C  9.47400 48.66100 23.92400
C  8.86200 48.94000 22.60400
C  7.38200 48.39800 22.75900
C  7.34400 48.00500 24.24100
C  8.87300 50.45600 22.24600
C  7.01200 47.12500 21.77900
C  6.20700 47.45400 20.45000
N  7.01800 47.41700 27.11300
C  5.94600 47.31200 26.18400
C  4.68500 47.10600 26.89000
C  5.06300 47.06900 28.25000
C  6.50100 47.22100 28.33100
C  3.34600 47.07600 26.19600
C  4.59300 46.82900 29.62000
O  3.46100 46.69600 30.06300
C  5.92900 46.73100 30.52600
C  6.01000 45.34700 31.12000
O  6.63700 44.42300 30.63000
O  5.44300 45.35800 32.39300
C  5.70300 44.28600 33.28600
H  12.56200 48.03500 29.67100
H  11.42700 48.85000 23.26500
H  5.27800 47.64800 24.16700
H  8.62700 48.23400 32.05600
H  11.11500 46.81600 31.47800
H  11.74300 49.52900 31.27300
H  12.02600 48.41700 32.54300
H  10.52300 49.47000 32.59400
H  8.56300 45.28200 32.07000
H  7.81300 46.58200 33.13100
H  10.15300 46.88300 33.84000
H  10.61100 45.36100 33.05300
H  14.95600 49.32200 27.74800
H  15.35500 47.65100 27.46900
H  14.37400 48.13100 28.87600
H  15.67400 49.69400 25.74900
H  15.91600 49.33600 23.98200
H  15.85400 48.00800 25.02800
H  9.44900 48.37800 21.87800
H  6.58900 49.14200 22.67900
H  9.41200 50.57400 21.30600
H  9.51300 50.87900 23.02100
H  7.86800 50.87600 22.27300
H  6.50300 46.36400 22.37000
H  8.02500 46.88500 21.45700
H  5.30600 46.84100 20.46700
H  6.72300 47.23100 19.51500
H  5.77700 48.45400 20.39600
H  3.15700 46.32500 25.42800
H  3.19200 48.06600 25.76800
H  2.46200 46.94100 26.81900
H  5.86500 47.51800 31.27700
H  6.41200 43.58200 32.85000
H  4.76700 43.82500 33.60000
H  6.26100 44.61300 34.16400

