158

Mg 46.44200 25.75500 28.66400
C  47.23900 27.76100 31.48600
C  45.57200 23.26800 31.04100
C  45.78900 23.85900 26.21700
C  48.23100 28.00100 26.58600
N  46.33400 25.62700 31.11000
C  46.65000 26.55800 31.97200
C  46.38200 26.04600 33.36900
C  46.16600 24.47400 33.17000
C  45.98400 24.42000 31.69300
C  47.41700 23.66200 33.83100
C  45.28200 26.82600 34.05200
C  45.33200 27.34000 35.54300
H  45.96700 26.44900 36.65600
N  45.67500 23.84400 28.70100
C  45.31700 22.98400 29.70700
C  44.62800 21.77500 29.09000
C  44.62500 22.01200 27.66200
C  45.36200 23.28600 27.48700
C  44.16000 20.63900 29.88400
C  44.15200 21.04200 26.53800
O  44.39100 21.17000 25.32200
C  43.22600 19.89600 26.87600
N  47.03200 25.89000 26.75100
C  46.53200 24.94500 25.87100
C  47.12200 25.17800 24.42800
C  47.65300 26.64800 24.61400
C  47.68700 26.86300 26.07600
C  48.19000 24.09000 24.10900
C  46.53000 27.62200 24.05200
C  46.88400 29.05000 23.82900
N  47.53600 27.53600 28.89600
C  48.25900 28.23500 27.95800
C  48.75600 29.37000 28.60300
C  48.41500 29.21900 29.95300
C  47.71700 28.07400 30.09300
C  49.44300 30.57300 27.97000
C  48.55300 29.81600 31.25800
O  49.22700 30.76300 31.68500
C  47.76700 28.95500 32.26400
C  48.76200 28.62500 33.37000
O  49.92100 28.15700 33.22000
O  48.10900 28.90200 34.53600
C  48.81200 28.51200 35.73300
H  45.21900 22.46900 31.69600
H  45.54100 23.20200 25.38100
H  48.61700 28.69900 25.84000
H  47.29600 26.29400 33.90900
H  45.30600 24.01700 33.66000
H  47.07200 22.83000 34.44500
H  47.90500 24.32300 34.54600
H  48.02400 23.28100 33.01000
H  44.42600 26.15500 33.97300
H  44.96100 27.56100 33.31400
H  44.30300 27.56300 35.82500
H  45.91300 28.26100 35.49000
H  43.16400 20.27400 29.63600
H  44.38900 20.64000 30.95000
H  44.75600 19.80500 29.51200
H  43.79500 19.20300 27.49600
H  42.90400 19.36700 25.97900
H  42.33400 20.15300 27.44700
H  46.33900 25.00300 23.69000
H  48.68100 26.85900 24.31800
H  47.87200 23.57100 23.20400
H  48.08600 23.39700 24.94400
H  49.15800 24.54700 23.90600
H  45.74500 27.70700 24.80300
H  46.16000 27.18600 23.12400
H  46.54500 29.26100 22.81500
H  47.93600 29.32000 23.73300
H  46.44300 29.74600 24.54400
H  49.49100 31.37000 28.71100
H  49.03200 30.86300 27.00300
H  50.47800 30.31000 27.74900
H  46.96400 29.54400 32.70700
H  49.75400 29.04100 35.87600
H  48.96200 27.43400 35.79400
H  48.02900 28.77900 36.44300
Mg 7.47100 52.86000 42.07200
C  6.98200 49.44400 41.52100
C  10.48900 52.69700 40.55400
C  7.66600 56.19300 42.36000
C  4.25900 53.05600 43.36500
N  8.50600 51.24600 40.95700
C  8.17100 49.95900 40.93300
C  9.30200 49.17100 40.18000
C  10.53200 50.14600 40.22500
C  9.83300 51.44900 40.64600
C  11.79600 49.69500 41.00500
C  8.81900 48.71900 38.77200
C  7.96200 49.71900 37.92700
H  7.72000 49.37700 36.46400
N  8.88400 54.30900 41.48800
C  10.06900 54.05900 40.84800
C  10.86900 55.23600 40.80400
C  10.08500 56.25200 41.31600
C  8.81700 55.57700 41.81600
C  12.20900 55.28900 40.02000
C  10.44600 57.79200 41.38300
O  11.50100 58.17300 40.87200
C  9.47300 58.82800 41.78300
N  6.11900 54.47300 42.55200
C  6.43100 55.73300 42.70000
C  5.15800 56.65900 42.95500
C  4.15500 55.50600 43.34900
C  4.86900 54.24700 43.06900
C  5.28900 57.90400 43.96300
C  2.75800 55.58000 42.61400
C  1.51600 55.47200 43.53000
N  5.85500 51.59300 42.42500
C  4.66000 51.76500 43.03900
C  3.99400 50.55200 43.12900
C  4.94100 49.57700 42.72800
C  5.98200 50.28900 42.15700
C  2.56800 50.26800 43.58800
C  5.25900 48.15800 42.63300
O  4.66000 47.14200 42.99100
C  6.60700 48.08700 41.75600
C  6.27100 47.38600 40.45600
O  5.57700 47.77800 39.50800
O  6.73500 46.11400 40.53500
C  6.31500 45.13900 39.55400
H  11.52300 52.61100 40.21200
H  7.87700 57.21400 42.68300
H  3.30400 53.00800 43.89200
H  9.53700 48.22000 40.66000
H  10.90600 50.31900 39.21600
H  12.63500 49.51700 40.33300
H  11.62800 48.75200 41.52400
H  11.88100 50.44600 41.79100
H  8.47700 47.68800 38.86100
H  9.72500 48.70400 38.16600
H  8.53600 50.64500 37.87900
H  7.04100 50.03200 38.42000
H  12.07800 55.25100 38.93900
H  12.76500 54.42900 40.39400
H  12.76400 56.21800 40.15000
H  9.19700 58.79000 42.83700
H  8.55800 58.66000 41.21400
H  9.87700 59.80300 41.51000
H  4.85000 57.10600 42.01000
H  4.08000 55.66100 44.42500
H  4.46100 57.76500 44.65800
H  5.31000 58.91400 43.55200
H  6.25400 57.91300 44.47000
H  2.65200 54.72500 41.94700
H  2.74700 56.49300 42.01900
H  0.97600 54.57200 43.23400
H  0.88600 56.36100 43.55000
H  1.92800 55.33900 44.53100
H  1.93800 51.14800 43.45700
H  2.54500 49.90200 44.61500
H  2.15700 49.39000 43.08900
H  7.43000 47.66300 42.33200
H  6.90300 45.34900 38.66100
H  5.26200 45.20500 39.27900
H  6.49100 44.08700 39.78100

