158

Mg 1.35900 8.51300 27.48100
C  2.12500 10.18200 30.34500
C  2.02100 5.50800 29.20500
C  1.28300 6.72600 24.55100
C  1.75800 11.41200 25.60200
N  1.84300 7.96100 29.59100
C  2.04800 8.80600 30.63700
C  2.05400 8.05100 31.98600
C  2.15400 6.50800 31.52900
C  2.09400 6.67100 29.98800
C  3.41000 5.73600 31.95700
C  0.78400 8.46300 32.90300
C  1.05600 9.00700 34.28100
H  2.26000 8.54100 35.09500
N  1.44100 6.47400 26.97800
C  1.72000 5.40600 27.83300
C  1.51100 4.15200 27.10400
C  1.09700 4.47000 25.74800
C  1.29000 5.92900 25.70800
C  1.82800 2.79300 27.72700
C  0.65800 3.57000 24.59800
O  0.20800 4.04800 23.55800
C  0.69600 2.13400 24.87600
N  1.46200 9.01000 25.31700
C  1.45300 8.10000 24.30400
C  1.85700 8.77000 22.94000
C  1.69600 10.31900 23.31500
C  1.61600 10.28800 24.82700
C  3.26800 8.18600 22.53700
C  0.58600 11.12000 22.58500
C  -0.88700 10.73300 23.10800
N  1.78000 10.46200 27.86900
C  1.86600 11.56000 27.02800
C  2.14000 12.74000 27.81700
C  2.22100 12.28000 29.15300
C  2.03800 10.87300 29.11400
C  2.37300 14.10300 27.19700
C  2.51800 12.66100 30.55600
O  2.79300 13.71800 31.12500
C  2.29500 11.35800 31.40000
C  3.48600 11.28400 32.27000
O  4.60500 10.93100 31.93800
O  3.21800 11.80400 33.50200
C  4.44700 12.00200 34.33100
H  2.05300 4.56800 29.76000
H  1.27700 6.14900 23.62400
H  1.76800 12.36200 25.06300
H  2.88300 8.30000 32.64800
H  1.23600 6.01400 31.84800
H  4.28700 6.37300 32.06500
H  3.73500 5.05200 31.17300
H  3.17800 5.00600 32.73300
H  0.09900 7.61700 32.96600
H  0.23500 9.25400 32.39300
H  0.14100 8.92400 34.86600
H  1.24400 10.07800 34.20300
H  0.92400 2.22600 27.94900
H  2.48300 2.83800 28.59700
H  2.37600 2.31800 26.91300
H  0.33900 1.39300 24.16100
H  0.06100 1.79300 25.69400
H  1.74300 1.83400 24.93600
H  1.10700 8.46000 22.21200
H  2.54900 10.95200 23.07000
H  3.27100 7.71500 21.55400
H  3.54700 7.40600 23.24600
H  3.99600 8.99600 22.58200
H  0.64000 10.73700 21.56600
H  0.82800 12.18000 22.66200
H  -1.57700 10.66600 22.26700
H  -1.21900 11.61000 23.66400
H  -0.97500 9.84200 23.72900
H  1.63800 14.22600 26.40100
H  3.40200 14.31200 26.90400
H  2.09300 14.72300 28.04800
H  1.35600 11.58000 31.90600
H  4.71800 13.04500 34.49800
H  5.34000 11.44500 34.04900
H  4.14000 11.66600 35.32200
Mg 41.86600 40.52800 26.90100
C  41.46300 42.82200 29.57300
C  42.99600 38.26800 29.03100
C  42.74300 38.67000 24.25400
C  41.07600 43.24300 24.72900
N  42.24600 40.70200 29.02200
C  41.91500 41.62100 30.02500
C  42.03300 41.16100 31.38400
C  42.81800 39.83600 31.07400
C  42.57700 39.54700 29.57200
C  44.29200 39.91900 31.58500
C  40.64200 41.06400 32.14100
C  40.41600 41.96600 33.44100
H  39.64000 41.32200 34.68100
N  42.80900 38.71000 26.65900
C  43.20000 37.88100 27.68200
C  43.59300 36.51700 27.16300
C  43.34100 36.60500 25.73800
C  42.88700 38.02900 25.49600
C  44.00200 35.29900 28.03200
C  43.60500 35.58100 24.70000
O  43.42900 35.81100 23.49200
C  44.11900 34.16800 25.03300
N  41.98700 40.95900 24.87500
C  42.35400 39.99500 23.93700
C  41.83700 40.33600 22.54800
C  41.31800 41.83900 22.68100
C  41.41500 42.04700 24.18700
C  42.96100 40.14700 21.49400
C  39.84900 42.00500 22.23500
C  39.67800 42.32600 20.77500
N  41.40800 42.68900 27.08500
C  40.99800 43.54000 26.09600
C  40.62100 44.76200 26.71900
C  40.72100 44.57200 28.13500
C  41.30900 43.28800 28.27800
C  40.18700 45.88300 25.94400
C  40.49400 45.19200 29.42100
O  40.04700 46.26400 29.73700
C  41.00100 44.06700 30.43100
C  42.10000 44.65800 31.15100
O  43.17900 44.95100 30.69100
O  41.63400 45.01900 32.34900
C  42.57600 45.63500 33.26900
H  43.26600 37.58100 29.83600
H  42.80300 38.06900 23.34400
H  40.80700 44.11400 24.12700
H  42.59700 41.97200 31.84400
H  42.23100 39.08800 31.60600
H  44.91000 39.66800 30.72300
H  44.47600 39.11700 32.30000
H  44.65400 40.91800 31.82900
H  40.38800 40.09800 32.57700
H  39.90100 41.36300 31.40000
H  39.82700 42.85400 33.21200
H  41.41100 42.21200 33.81300
H  45.01800 35.06900 27.70900
H  43.40200 34.42700 27.77100
H  43.84500 35.54800 29.08100
H  44.34400 33.54000 24.17100
H  43.31300 33.63900 25.54200
H  45.08600 34.20700 25.53300
H  41.03900 39.62600 22.32800
H  41.94200 42.56100 22.15500
H  44.02100 40.13000 21.74800
H  42.89200 40.96000 20.77100
H  42.82400 39.17100 21.03000
H  39.37500 42.81100 22.79700
H  39.29600 41.10400 22.49800
H  39.25900 43.29400 20.49800
H  39.03800 41.63400 20.22700
H  40.66400 42.38600 20.31400
H  40.68300 45.99900 24.98000
H  40.36300 46.77200 26.55100
H  39.11400 45.74600 25.81100
H  40.17200 43.90500 31.12000
H  43.06800 44.99400 34.00000
H  41.91600 46.23400 33.89600
H  43.30000 46.24200 32.72600

