158

Mg 26.33300 50.25100 25.54100
C  24.22200 51.83800 28.07200
C  28.49500 49.47300 27.97800
C  28.34600 49.12800 23.13300
C  24.58600 52.36100 23.14100
N  26.23100 50.60400 27.71800
C  25.29900 51.13200 28.58700
C  25.67600 50.95300 30.03900
C  27.18100 50.43200 29.95900
C  27.33900 50.18700 28.44300
C  28.23800 51.38200 30.54400
C  24.75100 50.00200 30.76500
C  24.19500 50.54200 32.00800
H  25.09700 50.94000 33.18700
N  28.07200 49.25300 25.53800
C  28.83000 49.01800 26.64700
C  29.97300 48.17900 26.32300
C  29.88100 47.93600 24.91500
C  28.73600 48.74800 24.45100
C  31.01100 47.73000 27.31800
C  30.70100 46.96200 24.03300
O  30.58100 46.97200 22.79600
C  31.57100 45.91100 24.60200
N  26.25700 50.48800 23.46000
C  27.31700 50.00900 22.72100
C  27.13400 50.40900 21.24200
C  26.10900 51.46700 21.21300
C  25.62300 51.51500 22.66800
C  28.45300 50.67300 20.47600
C  24.97300 51.31700 20.16400
C  23.80900 50.22000 20.39300
N  24.70000 51.73300 25.54300
C  24.10900 52.45800 24.46200
C  23.07200 53.30200 25.02300
C  23.06400 53.10200 26.37700
C  24.04600 52.10800 26.70500
C  22.14200 54.21400 24.29500
C  22.33200 53.41300 27.55800
O  21.28600 54.03700 27.77100
C  23.18400 52.72300 28.73800
C  23.72700 53.87500 29.62600
O  24.59400 54.68000 29.29000
O  23.18000 53.77300 30.88300
C  23.58800 54.85700 31.83600
H  29.20500 49.21600 28.76700
H  28.95300 48.67900 22.34400
H  24.10500 52.99800 22.39500
H  25.62200 51.95500 30.46400
H  27.30900 49.43500 30.38200
H  28.89800 50.88200 31.25300
H  27.73700 52.20200 31.05800
H  28.81300 51.74200 29.69000
H  25.29400 49.10200 31.05200
H  23.85400 49.63000 30.27100
H  23.43800 49.81100 32.29100
H  23.56500 51.40500 31.78900
H  30.83200 46.75900 27.77800
H  31.20500 48.49900 28.06600
H  31.94400 47.68900 26.75700
H  32.51900 46.25600 25.01400
H  31.78500 45.22900 23.78000
H  30.97000 45.28800 25.26500
H  26.84100 49.39600 20.96600
H  26.60400 52.40200 20.95300
H  28.37200 50.48100 19.40600
H  29.35500 50.20700 20.87500
H  28.85000 51.66900 20.66900
H  25.41100 51.06000 19.20000
H  24.42500 52.22000 19.89600
H  23.58000 49.86700 19.38700
H  23.02200 50.68600 20.98600
H  24.13100 49.35400 20.97000
H  21.29200 53.62200 23.95600
H  22.69200 54.62900 23.45000
H  21.67000 54.92700 24.97200
H  22.47800 52.10000 29.28600
H  23.78500 55.86900 31.48000
H  24.44800 54.49900 32.40100
H  22.77600 54.88900 32.56200
Mg 0.54700 44.00100 24.97500
C  2.51800 43.62600 27.94200
C  -2.30300 43.29800 26.92200
C  -1.24100 43.55100 22.22800
C  3.53600 44.01500 23.04400
N  0.26100 43.43000 27.19500
C  1.13400 43.50700 28.21600
C  0.45200 43.43100 29.63200
C  -1.02400 43.12300 29.12200
C  -1.04500 43.22700 27.64500
C  -1.62900 41.84600 29.73300
C  0.55500 44.73100 30.49800
C  1.09200 44.55600 31.96600
H  0.89900 43.19500 32.73000
N  -1.49100 43.84600 24.66000
C  -2.47400 43.53500 25.53800
C  -3.70000 43.55800 24.89100
C  -3.46800 43.72100 23.49900
C  -1.99600 43.64100 23.41400
C  -4.98800 43.44800 25.60300
C  -4.46200 43.77800 22.31800
O  -4.13500 43.92600 21.13100
C  -5.86300 44.02800 22.69500
N  1.09700 43.83500 22.91300
C  0.16300 43.70500 21.93400
C  0.75700 43.36800 20.58300
C  2.20800 43.99600 20.79600
C  2.31300 43.94700 22.38400
C  0.86900 41.87700 20.16500
C  2.51600 45.39200 20.22300
C  3.30000 45.41100 18.88000
N  2.64900 43.83800 25.32600
C  3.73200 43.95600 24.44300
C  4.94700 43.99900 25.25400
C  4.51100 43.91000 26.57600
C  3.11900 43.77100 26.63800
C  6.32000 44.15600 24.63100
C  5.03300 43.78300 27.95200
O  6.17900 43.78500 28.41400
C  3.71300 43.73200 28.90600
C  3.83700 42.48100 29.67400
O  3.62300 41.38200 29.26400
O  4.24700 42.80400 30.97200
C  4.80900 41.66700 31.79800
H  -3.14300 43.42700 27.60800
H  -1.76900 43.28100 21.31200
H  4.48400 44.16700 22.52400
H  0.81600 42.63300 30.27900
H  -1.72300 43.87600 29.48700
H  -1.86900 41.28200 28.83300
H  -2.52600 42.11000 30.29300
H  -0.92100 41.28500 30.34300
H  -0.40300 45.25100 30.48400
H  1.28500 45.35000 29.97600
H  0.81700 45.42000 32.57200
H  2.16000 44.63700 31.76300
H  -4.96200 43.05500 26.62000
H  -5.76700 42.86900 25.10700
H  -5.29000 44.49500 25.58500
H  -6.45300 44.54900 21.94100
H  -5.91900 44.57600 23.63600
H  -6.25200 43.01500 22.79700
H  0.14800 43.87200 19.83200
H  2.97600 43.32300 20.41300
H  1.87400 41.56500 19.88100
H  0.21200 41.83400 19.29600
H  0.58200 41.20000 20.97000
H  3.05400 46.04900 20.90600
H  1.52200 45.76400 19.97300
H  4.00700 44.58200 18.91800
H  3.88900 46.32400 18.79700
H  2.61100 45.40200 18.03500
H  6.63900 45.19300 24.73500
H  6.35000 43.75700 23.61700
H  7.10000 43.66700 25.21400
H  3.63500 44.59800 29.56300
H  4.37000 40.71700 31.49500
H  4.44300 41.88300 32.80200
H  5.89100 41.53000 31.80000

