158

Mg 25.24100 1.23700 30.01400
C  27.26600 1.17400 32.76400
C  22.54800 1.53800 31.99400
C  23.44700 1.19400 27.16700
C  28.11100 0.51900 28.09300
N  24.96500 1.32800 32.18200
C  25.90400 1.45000 33.12400
C  25.33500 1.60900 34.54700
C  23.74500 1.64600 34.29600
C  23.72100 1.39700 32.76900
C  22.86900 0.60700 35.13300
C  25.91200 2.79600 35.39000
C  26.42400 2.53200 36.83000
H  26.10600 3.46400 37.98500
N  23.21600 1.18200 29.59300
C  22.27300 1.38900 30.56900
C  20.97800 1.49900 29.87300
C  21.22400 1.46100 28.50000
C  22.67100 1.21500 28.34900
C  19.67300 1.66800 30.65000
C  20.17300 1.51500 27.32200
O  20.46200 1.44100 26.10000
C  18.63200 1.55100 27.67500
N  25.71000 0.79400 27.87700
C  24.76200 0.97500 26.92400
C  25.37000 1.06100 25.52200
C  26.93100 0.79200 25.82400
C  26.91100 0.63800 27.34000
C  24.74000 0.11100 24.45200
C  27.95300 1.84400 25.20300
C  27.86500 3.22400 25.88800
N  27.22100 0.82100 30.34000
C  28.25300 0.56500 29.47900
C  29.49800 0.30400 30.22000
C  29.14400 0.54800 31.49500
C  27.76400 0.90400 31.52300
C  30.89100 -0.07400 29.63000
C  29.69200 0.63700 32.85600
O  30.77100 0.53800 33.33000
C  28.39600 0.99000 33.76900
C  28.18000 -0.10600 34.76200
O  27.58000 -1.14100 34.52100
O  28.61700 0.31300 36.00700
C  28.50200 -0.66800 37.09700
H  21.66300 1.58000 32.63200
H  22.80500 1.28900 26.28900
H  29.02200 0.31500 27.52600
H  25.61300 0.73500 35.13600
H  23.27900 2.62600 34.40400
H  22.38200 1.18500 35.91900
H  23.58300 -0.13500 35.49100
H  22.24900 0.06200 34.42200
H  25.15600 3.57900 35.44200
H  26.76200 3.17800 34.82400
H  27.50600 2.44000 36.93000
H  26.14100 1.50400 37.05400
H  19.76600 1.79800 31.72800
H  19.11600 0.73000 30.64600
H  19.09000 2.55200 30.39200
H  18.33000 0.63500 28.18400
H  18.14700 1.59500 26.70000
H  18.36000 2.47400 28.18600
H  25.26700 2.11000 25.24700
H  27.21900 -0.21100 25.50900
H  24.13700 0.65400 23.72400
H  24.05400 -0.59900 24.91300
H  25.53900 -0.31100 23.84300
H  27.74200 1.99600 24.14500
H  28.92100 1.38700 25.41300
H  27.73400 3.05300 26.95700
H  27.07900 3.84000 25.45100
H  28.87700 3.60100 25.74600
H  30.76600 -0.47900 28.62600
H  31.30400 -0.83000 30.29700
H  31.49100 0.83700 29.63900
H  28.59400 1.88400 34.36100
H  28.98100 -1.59500 36.78100
H  27.46700 -0.82200 37.40300
H  29.01700 -0.34000 38.00000
Mg 30.23000 57.68600 39.06200
C  27.46400 55.65600 38.20500
C  32.28600 55.16300 38.11900
C  32.68900 59.77600 39.52700
C  27.91500 60.40100 39.43700
N  29.90100 55.57100 38.11500
C  28.67100 54.93300 37.97500
C  28.92900 53.43500 37.68300
C  30.48500 53.29600 37.73400
C  30.93100 54.70100 38.05200
C  31.00400 52.20800 38.74300
C  28.42500 53.00000 36.23700
C  29.04500 53.71500 34.96500
H  28.07900 54.45500 34.12200
N  32.23800 57.50500 38.80200
C  32.93100 56.41400 38.48500
C  34.23700 56.68500 38.51800
C  34.42100 57.98700 39.00800
C  33.04500 58.52100 39.08600
C  35.25000 55.63100 38.27300
C  35.73800 58.63800 39.48400
O  36.80700 58.06400 39.58000
C  35.79300 60.12400 39.84500
N  30.30100 59.81600 39.41900
C  31.47800 60.38800 39.74400
C  31.33000 61.86200 40.27300
C  29.82300 62.00600 40.11900
C  29.29400 60.71700 39.58000
C  32.00700 62.03800 41.67500
C  29.47000 63.26500 39.18400
C  28.32600 64.18700 39.76900
N  28.16900 58.04700 38.85600
C  27.38200 59.14100 39.12900
C  26.01300 58.74200 39.01800
C  26.04300 57.42400 38.62200
C  27.37800 57.02900 38.50100
C  24.87500 59.62400 39.33500
C  25.19300 56.21600 38.40500
O  24.01600 56.07900 38.49000
C  26.09500 55.06100 37.99600
C  25.83500 53.90400 38.76800
O  26.15000 53.65500 39.92400
O  24.93100 53.11700 38.04500
C  24.33900 51.92700 38.78200
H  32.90700 54.28000 37.95400
H  33.46000 60.50300 39.79200
H  27.23000 61.23200 39.62000
H  28.37300 52.90100 38.45300
H  30.86000 53.02200 36.74800
H  31.33500 52.69500 39.66100
H  31.85000 51.67300 38.31200
H  30.23300 51.45400 38.89800
H  27.34000 53.04900 36.15400
H  28.67200 51.94200 36.14000
H  29.46100 52.96100 34.29700
H  29.89700 54.36800 35.15600
H  35.40800 55.02200 39.16300
H  36.26600 55.91300 37.99600
H  34.97200 54.88900 37.52400
H  36.85000 60.30400 40.04100
H  35.39800 60.17700 40.85900
H  35.30300 60.79800 39.14200
H  31.86000 62.56300 39.62800
H  29.35500 62.13100 41.09600
H  31.29500 62.61900 42.26100
H  32.99200 62.50100 41.63100
H  32.03800 61.08200 42.19900
H  29.04500 62.94300 38.23400
H  30.39500 63.77800 38.91900
H  27.46300 63.98700 39.13400
H  28.67100 65.21300 39.63800
H  27.94900 63.92500 40.75700
H  24.50700 59.19900 40.26900
H  24.10700 59.51500 38.56900
H  25.13700 60.67400 39.46100
H  26.03900 54.80400 36.93800
H  24.70100 51.84400 39.80700
H  24.61300 51.00500 38.26900
H  23.25100 51.97300 38.82900

