158

Mg 36.10300 0.38300 30.41200
C  33.62500 1.55800 32.64200
C  38.43800 0.82700 32.77600
C  38.27200 -0.16400 28.07100
C  33.49300 0.71400 27.81400
N  36.04700 1.21000 32.41200
C  34.93000 1.39600 33.21200
C  35.24700 1.39200 34.73700
C  36.81800 1.67500 34.62800
C  37.15900 1.13800 33.22100
C  37.13600 3.20700 34.94500
C  34.89400 0.05400 35.48600
C  34.21200 0.15500 36.83500
H  34.22900 1.41100 37.81300
N  38.09500 0.29300 30.46300
C  38.89500 0.44700 31.48200
C  40.23100 0.08100 31.04000
C  40.23300 -0.29700 29.70000
C  38.83500 -0.09100 29.32400
C  41.34000 0.09900 32.06100
C  41.35000 -0.69500 28.84300
O  41.21100 -1.08300 27.70900
C  42.70500 -0.84200 29.45000
N  35.88100 0.60900 28.23400
C  36.98000 0.12500 27.58500
C  36.72900 0.07400 26.13400
C  35.19200 0.27000 25.96100
C  34.80400 0.52800 27.39100
C  37.57800 0.91000 25.21800
C  34.48200 -0.89200 25.20300
C  33.98400 -2.07000 26.03300
N  34.01300 0.96900 30.21700
C  33.11500 1.02500 29.13300
C  31.80500 1.24300 29.56700
C  32.00600 1.52200 30.93500
C  33.30600 1.30200 31.27400
C  30.48900 1.30700 28.78600
C  31.26300 1.95400 32.10900
O  30.08000 2.29600 32.16200
C  32.28800 1.85000 33.39200
C  32.30200 3.12800 34.21500
O  33.03600 4.09000 34.04900
O  31.34600 2.96600 35.23400
C  31.13000 4.14200 36.09600
H  39.14100 0.77700 33.61000
H  39.02400 -0.41700 27.32100
H  32.72600 0.64700 27.03900
H  34.74400 2.14600 35.34300
H  37.33200 1.04800 35.35700
H  37.02700 3.76600 34.01600
H  38.17800 3.27200 35.25800
H  36.49900 3.63500 35.71900
H  35.65700 -0.72400 35.46700
H  34.11000 -0.37600 34.86400
H  34.68500 -0.64200 37.40900
H  33.15000 -0.05900 36.71500
H  42.30300 0.38800 31.64000
H  41.55100 -0.87700 32.49800
H  41.08700 0.73600 32.90800
H  42.63600 -1.41100 30.37700
H  43.07500 0.17900 29.54000
H  43.35300 -1.46300 28.83200
H  37.19800 -0.88900 25.93000
H  35.01600 1.21900 25.45400
H  38.50000 1.22000 25.71000
H  37.03300 1.78800 24.87000
H  37.83200 0.33800 24.32600
H  35.18400 -1.27400 24.46200
H  33.69400 -0.37700 24.65300
H  34.31400 -1.94400 27.06400
H  34.44300 -2.96700 25.61800
H  32.92500 -2.30400 25.92100
H  30.48300 0.45500 28.10600
H  30.57500 2.22700 28.20800
H  29.60900 1.27100 29.42900
H  32.00300 0.99400 34.00400
H  31.33000 3.80400 37.11300
H  30.06200 4.35200 36.15200
H  31.76700 5.00700 35.91200
Mg 35.17600 49.22200 25.06800
C  35.30400 47.61800 28.39700
C  33.89500 52.03900 26.59700
C  34.63200 50.36600 22.09800
C  36.37600 46.13300 23.83300
N  34.57500 49.62700 27.23200
C  34.78000 48.94800 28.39000
C  34.41700 49.78400 29.65700
C  33.86600 51.12400 29.03200
C  34.17700 50.96700 27.51700
C  32.35800 51.37200 29.31700
C  35.56400 49.71400 30.72300
C  35.07400 49.22300 32.07000
H  34.82000 50.21900 33.20800
N  34.35700 50.98700 24.40400
C  33.99200 52.06400 25.17700
C  33.79900 53.19500 24.23800
C  33.80000 52.74700 22.87500
C  34.25000 51.31200 23.07300
C  33.59700 54.62600 24.71600
C  33.65400 53.51300 21.56300
O  33.87000 52.98000 20.46500
C  33.14200 55.01400 21.45400
N  35.44800 48.33100 23.26300
C  35.18700 49.08700 22.15900
C  35.57000 48.30100 20.87800
C  36.28300 47.07300 21.44900
C  35.95700 47.18300 22.95400
C  34.44900 48.04800 19.88000
C  37.85200 47.00000 21.18400
C  38.77800 47.80600 22.12600
N  35.67100 47.18000 25.89600
C  36.22200 46.07700 25.27000
C  36.52900 45.09800 26.24800
C  36.20200 45.65400 27.51800
C  35.69600 46.91600 27.23700
C  37.00000 43.69300 26.01200
C  36.28200 45.49700 29.01100
O  36.73200 44.52500 29.60600
C  35.60300 46.70800 29.58600
C  34.37000 46.16000 30.31600
O  33.34000 45.79700 29.84000
O  34.60300 46.05400 31.67100
C  33.64000 45.20200 32.41800
H  33.53700 53.01100 26.94000
H  34.49400 50.72400 21.07600
H  36.77800 45.25000 23.33200
H  33.52900 49.42200 30.17600
H  34.39800 52.00300 29.39500
H  32.32400 52.38000 29.73100
H  31.96300 50.72600 30.10100
H  31.72400 51.16700 28.45500
H  35.83900 50.76700 30.78500
H  36.34800 49.06400 30.33400
H  35.76600 48.44800 32.40100
H  34.13000 48.68600 31.98100
H  33.66200 54.70100 25.80200
H  32.67900 55.19800 24.57800
H  34.37500 55.16000 24.17100
H  34.03700 55.63000 21.54200
H  32.38200 55.36300 22.15300
H  32.62700 55.13600 20.50000
H  36.34200 48.91200 20.41000
H  35.88800 46.14900 21.02800
H  34.60000 48.58000 18.94100
H  33.56800 48.39300 20.42100
H  34.37700 46.98600 19.64800
H  37.94300 47.34700 20.15500
H  38.08200 45.93600 21.12900
H  38.25400 48.23800 22.97800
H  39.25700 48.53600 21.47300
H  39.49000 47.04800 22.45200
H  36.36700 42.96400 26.51700
H  37.99500 43.68900 26.45700
H  37.06400 43.32500 24.98800
H  36.27800 47.14100 30.32400
H  33.55300 44.22300 31.94600
H  32.65700 45.65800 32.30900
H  33.77200 45.07500 33.49300

