158

Mg 40.13700 8.82500 28.46500
C  42.02400 10.06300 31.03300
C  38.00900 7.44400 30.63200
C  38.21500 7.85800 25.79800
C  42.45900 9.97900 26.17800
N  40.10500 8.72600 30.57600
C  40.85400 9.44100 31.44700
C  40.29900 9.39300 32.86500
C  39.18400 8.31600 32.76600
C  39.10200 8.06300 31.19600
C  39.49600 7.03100 33.54300
C  39.75600 10.84000 33.33600
C  39.14500 11.04000 34.77600
H  39.39800 12.30600 35.49500
N  38.29200 7.79400 28.25500
C  37.59800 7.26100 29.30000
C  36.41000 6.68800 28.82300
C  36.36700 6.90000 27.43500
C  37.62600 7.57200 27.10700
C  35.29200 5.95400 29.70000
C  35.29900 6.55900 26.33700
O  35.42300 6.66100 25.13200
C  33.89900 6.16400 26.78400
N  40.33300 8.69800 26.29200
C  39.36800 8.45600 25.38800
C  39.82500 8.74000 24.00300
C  41.18200 9.41900 24.18900
C  41.35200 9.34200 25.70100
C  39.82500 7.47200 23.14700
C  41.14500 10.90600 23.60200
C  40.47900 12.03000 24.43500
N  41.90100 9.72700 28.61300
C  42.79100 10.15900 27.56100
C  43.95800 10.86200 28.18200
C  43.63300 10.84900 29.55700
C  42.47100 10.14700 29.64900
C  45.15700 11.39100 27.48100
C  44.05700 11.31000 30.88800
O  44.93900 12.07600 31.22900
C  43.00400 10.83300 31.88800
C  43.69400 9.99500 32.96700
O  44.28800 8.94600 32.76300
O  43.43500 10.53600 34.24200
C  43.70700 9.63100 35.30800
H  37.31200 7.24900 31.45000
H  37.66700 7.61600 24.88400
H  43.21200 10.33500 25.47200
H  41.18100 9.08300 33.42500
H  38.28000 8.76500 33.17600
H  40.50300 6.92100 33.94500
H  39.38500 6.14100 32.92300
H  38.80500 7.03800 34.38600
H  38.82800 11.03200 32.79800
H  40.52900 11.59400 33.18400
H  39.59900 10.21400 35.32300
H  38.07300 10.86000 34.68900
H  35.41900 6.04500 30.77800
H  35.42200 4.91100 29.41200
H  34.32400 6.42200 29.52200
H  33.49600 7.09100 27.19300
H  33.85600 5.42000 27.58000
H  33.40500 5.87200 25.85700
H  39.10800 9.46400 23.61700
H  41.94100 8.85200 23.65000
H  39.83500 6.58300 23.77900
H  40.71400 7.43600 22.51700
H  38.97100 7.44700 22.47000
H  40.73200 10.82500 22.59700
H  42.16500 11.25800 23.45000
H  40.24000 11.62200 25.41700
H  39.55600 12.36800 23.96600
H  41.19000 12.84500 24.56800
H  45.91200 11.30700 28.26300
H  44.91100 12.42900 27.25900
H  45.30100 10.69900 26.65100
H  42.56500 11.68300 32.41200
H  42.78500 9.59000 35.88800
H  44.59600 9.81400 35.91100
H  43.83100 8.62400 34.91000
Mg 9.62700 48.72600 26.49900
C  7.61500 48.77800 29.35600
C  12.38100 49.50500 28.49000
C  11.48100 48.82300 23.77100
C  6.76500 48.21900 24.53500
N  9.91400 49.10700 28.66200
C  8.96600 49.09900 29.64600
C  9.61900 49.36900 31.02500
C  11.05000 49.95800 30.65600
C  11.18700 49.44100 29.20400
C  11.13900 51.43600 30.86200
C  9.65800 48.08600 32.04200
C  9.05300 48.29500 33.44400
H  9.28500 47.11600 34.44900
N  11.59400 49.13100 26.21300
C  12.59600 49.32300 27.14800
C  13.88200 49.38400 26.49400
C  13.64600 49.08000 25.15500
C  12.17200 49.01900 24.99200
C  15.16700 49.67500 27.18700
C  14.73200 48.87200 24.02100
O  14.37500 48.65000 22.89600
C  16.12600 49.02000 24.29400
N  9.13200 48.76900 24.43000
C  10.07400 48.82500 23.47100
C  9.53100 48.51400 22.04200
C  7.98100 48.35800 22.31400
C  7.93000 48.38800 23.85000
C  9.94600 49.62700 21.06300
C  7.35400 47.02400 21.64200
C  6.06700 47.23700 20.93000
N  7.53500 48.52500 26.81200
C  6.47600 48.30100 25.92800
C  5.26100 48.10700 26.67200
C  5.65500 48.21200 28.03900
C  7.05900 48.50400 28.06300
C  3.87300 47.81000 26.03800
C  5.15400 48.10400 29.36900
O  3.97500 47.94100 29.75500
C  6.40400 48.36500 30.27300
C  6.42000 47.16300 31.11200
O  7.06000 46.16400 30.99200
O  5.76800 47.50800 32.30300
C  5.93100 46.53600 33.36900
H  13.24700 49.72000 29.11900
H  12.10100 48.72600 22.87800
H  5.83600 47.95400 24.02400
H  9.04100 50.14500 31.52600
H  11.92400 49.53000 31.14700
H  10.21300 51.90000 31.20000
H  11.35300 51.87400 29.88700
H  11.99800 51.74000 31.46100
H  10.67700 47.70400 32.09100
H  9.09900 47.32100 31.50400
H  7.98200 48.46400 33.33200
H  9.46600 49.20600 33.87700
H  15.83000 48.81200 27.24500
H  15.01900 49.89800 28.24300
H  15.79200 50.44600 26.73500
H  16.41900 50.01100 24.63900
H  16.78400 48.73300 23.47300
H  16.30600 48.37000 25.15100
H  9.96800 47.59000 21.66300
H  7.39700 49.22800 22.01400
H  10.62300 50.31000 21.57600
H  9.02000 50.11300 20.75600
H  10.29000 49.13600 20.15300
H  7.25800 46.22100 22.37300
H  8.11600 46.58600 20.99800
H  6.20600 46.96100 19.88400
H  5.81100 48.29400 21.00100
H  5.28400 46.63400 21.39000
H  3.75400 46.74100 26.21600
H  3.73300 48.02600 24.97900
H  3.07700 48.36500 26.53500
H  6.10600 49.25700 30.82500
H  4.91200 46.42400 33.74000
H  6.71100 46.71300 34.11000
H  6.03700 45.55000 32.91700

