158

Mg 16.83000 52.29200 26.56100
C  18.74400 50.95300 29.00800
C  14.40200 53.20200 28.83100
C  14.90900 53.54700 24.10800
C  19.24700 51.36100 24.13700
N  16.58700 52.04800 28.68300
C  17.54900 51.53800 29.49900
C  17.09500 51.72200 30.94100
C  15.63800 52.28600 30.83000
C  15.54400 52.55800 29.35200
C  14.46800 51.37700 31.37700
C  18.04900 52.73600 31.62000
C  17.90900 52.94400 33.16800
H  17.05300 51.98900 33.91100
N  14.88400 53.18600 26.46400
C  14.07200 53.51700 27.46400
C  12.94800 54.24500 27.00500
C  13.05000 54.40200 25.58200
C  14.31300 53.65900 25.31900
C  11.80100 54.59000 27.98100
C  12.13800 54.94300 24.60700
O  12.29500 54.87100 23.39200
C  10.84900 55.60500 25.10400
N  17.00200 52.22300 24.35300
C  16.06200 52.85800 23.62800
C  16.54800 52.95800 22.16800
C  18.05600 52.44800 22.24100
C  18.06200 51.88300 23.64500
C  15.66700 52.20300 21.15300
C  19.12900 53.46500 21.94100
C  20.00800 53.22300 20.76100
N  18.64300 51.27800 26.49800
C  19.48000 50.95600 25.49500
C  20.64400 50.29700 26.02600
C  20.43800 50.25200 27.42700
C  19.19900 50.92400 27.65000
C  21.82200 49.72700 25.29700
C  20.98700 49.78600 28.68500
O  21.93700 48.99300 28.97200
C  19.89400 50.31600 29.78100
C  19.54600 49.25500 30.77700
O  18.76600 48.36600 30.63200
O  20.33400 49.42500 31.94200
C  19.91500 48.54000 33.00400
H  13.64300 53.49800 29.55900
H  14.47500 53.98500 23.20600
H  20.06100 51.18300 23.43100
H  17.08700 50.73700 31.40900
H  15.47000 53.17700 31.43600
H  14.73300 50.73400 32.21600
H  13.94400 50.76100 30.64600
H  13.68300 51.96200 31.85700
H  17.85000 53.67700 31.10700
H  19.09900 52.60700 31.35600
H  17.45300 53.93400 33.17300
H  18.90900 53.14700 33.55100
H  10.86200 54.17300 27.61700
H  11.71600 55.63900 28.26400
H  11.84900 54.09700 28.95200
H  9.99900 55.46800 24.43600
H  11.13500 56.65700 25.10800
H  10.42400 55.26300 26.04700
H  16.47200 53.99400 21.83700
H  18.18800 51.56600 21.61400
H  16.04500 51.22200 20.86400
H  15.43400 52.81200 20.27900
H  14.72800 51.99300 21.66600
H  19.65300 53.65000 22.87900
H  18.61100 54.40600 21.76000
H  19.62400 53.79900 19.91900
H  20.03700 52.16000 20.52100
H  21.06800 53.45500 20.86400
H  22.59300 49.64300 26.06300
H  22.08000 50.48600 24.55900
H  21.62900 48.75600 24.84200
H  20.42100 51.12300 30.29000
H  20.39100 48.80500 33.94800
H  20.15900 47.50300 32.77300
H  18.83600 48.53000 33.15600
Mg -2.35100 35.50600 26.57700
C  -4.00300 33.79100 29.19300
C  -0.68900 37.42000 28.83300
C  -1.06600 37.20300 24.03800
C  -4.40500 33.81800 24.44500
N  -2.59800 35.68800 28.78000
C  -3.16400 34.85900 29.64100
C  -2.72400 35.16600 31.15400
C  -1.90700 36.48400 30.97500
C  -1.75300 36.58000 29.42600
C  -2.49300 37.77800 31.64900
C  -1.98200 33.98000 31.81900
C  -2.68500 33.35200 33.06400
H  -1.74000 33.30900 34.31700
N  -0.85600 36.88800 26.44800
C  -0.30800 37.63200 27.51100
C  0.80500 38.50700 26.97800
C  0.75400 38.39800 25.53200
C  -0.38900 37.48400 25.22800
C  1.62000 39.37100 27.85400
C  1.61500 39.19900 24.54900
O  1.53600 39.01900 23.34600
C  2.80200 39.97500 24.93700
N  -2.93400 35.73800 24.55600
C  -2.17400 36.40100 23.73000
C  -2.75800 36.36200 22.32200
C  -3.76800 35.18400 22.41400
C  -3.71000 34.87000 23.86900
C  -3.25500 37.70300 21.74800
C  -3.44900 33.97800 21.51400
C  -2.08900 33.27300 21.92000
N  -3.84100 34.06300 26.71800
C  -4.49800 33.35800 25.76500
C  -5.08100 32.22200 26.31400
C  -4.93600 32.36500 27.67600
C  -4.25800 33.50300 27.87600
C  -5.66400 31.12400 25.40400
C  -5.26000 31.79900 28.94400
O  -5.78900 30.74000 29.22400
C  -4.79700 32.76600 30.01900
C  -5.98700 33.27800 30.77000
O  -6.93300 33.86200 30.33700
O  -5.81100 32.95600 32.09300
C  -7.04800 32.84400 32.94000
H  -0.16400 37.99500 29.59800
H  -0.72100 37.91200 23.28200
H  -4.84900 33.10900 23.74200
H  -3.60500 35.38300 31.75900
H  -0.90200 36.50700 31.39600
H  -3.29100 37.49600 32.33500
H  -2.93100 38.43900 30.90100
H  -1.77900 38.27900 32.30200
H  -1.00600 34.36600 32.11400
H  -1.88200 33.17300 31.09300
H  -2.78900 32.29900 32.80400
H  -3.66700 33.80300 33.19900
H  1.82800 40.30400 27.33100
H  2.46000 38.75300 28.17300
H  1.07500 39.59600 28.77100
H  2.44700 40.94800 25.27800
H  3.39700 40.08700 24.03100
H  3.34700 39.45300 25.72300
H  -1.94800 36.02200 21.67600
H  -4.80400 35.41300 22.16300
H  -2.62600 38.50100 22.14100
H  -4.30600 37.88100 21.97500
H  -3.07500 37.71600 20.67300
H  -3.27600 34.16100 20.45400
H  -4.27900 33.27700 21.61000
H  -1.57800 33.11400 20.97000
H  -2.22700 32.35600 22.49400
H  -1.36600 33.89500 22.44800
H  -4.97500 30.67200 24.69100
H  -6.56500 31.45500 24.88600
H  -5.97300 30.32500 26.07700
H  -4.16600 32.18000 30.68700
H  -7.81200 33.39000 32.38700
H  -6.79900 33.36000 33.86600
H  -7.26000 31.78100 33.05500

