158

Mg 35.73400 49.55600 24.85800
C  36.07800 47.86400 27.97800
C  34.54700 52.25700 26.46800
C  35.22800 50.97400 21.85200
C  36.93100 46.62400 23.34900
N  35.54900 50.00600 27.08200
C  35.71600 49.27200 28.16400
C  35.32200 50.04700 29.44000
C  34.70400 51.38700 28.89900
C  34.94800 51.22600 27.34900
C  33.17600 51.65100 29.24100
C  36.43800 50.17500 30.50200
C  36.10900 49.47600 31.86500
H  34.65800 49.55800 32.33500
N  35.01800 51.41000 24.27600
C  34.48100 52.36700 25.08100
C  33.92300 53.41100 24.31300
C  34.16400 53.13600 22.92500
C  34.81900 51.78500 22.93900
C  33.14200 54.57700 24.89800
C  33.65200 53.88900 21.68800
O  33.61500 53.37600 20.57100
C  33.05200 55.30600 21.91100
N  35.84500 48.84600 22.89400
C  35.72800 49.66200 21.75900
C  35.99700 48.89700 20.44500
C  36.56400 47.51700 20.98600
C  36.45300 47.64900 22.52100
C  34.84300 48.77200 19.41500
C  37.93600 47.10500 20.47900
C  39.14300 47.75400 21.20100
N  36.46000 47.65200 25.52900
C  36.74800 46.50100 24.76700
C  37.11000 45.43100 25.56900
C  36.72300 45.83400 26.85300
C  36.41800 47.23900 26.77500
C  37.65400 44.12800 25.14100
C  36.70100 45.47900 28.21700
O  36.93700 44.41600 28.73300
C  36.38700 46.80700 29.00500
C  35.30500 46.54400 29.98800
O  34.08600 46.57700 29.79700
O  35.88200 46.01200 31.13700
C  35.07200 45.35600 32.19600
H  34.06600 53.13900 26.89600
H  34.98300 51.48300 20.91700
H  37.35300 45.76200 22.83000
H  34.44300 49.55700 29.85900
H  35.31200 52.26900 29.09900
H  32.91300 51.25700 30.22300
H  32.47400 51.18500 28.55000
H  33.01600 52.72500 29.32900
H  36.48800 51.22200 30.80100
H  37.34500 49.76500 30.05800
H  36.70000 50.03200 32.59400
H  36.50600 48.46900 31.99200
H  33.02200 54.56400 25.98200
H  32.13600 54.55600 24.48000
H  33.59000 55.53800 24.64800
H  33.58900 55.98900 22.56800
H  32.01700 55.19400 22.23600
H  32.90600 55.73900 20.92100
H  36.79900 49.39900 19.90400
H  35.81200 46.78900 20.68200
H  33.92300 49.13400 19.87400
H  34.72500 47.71300 19.18600
H  34.98000 49.39400 18.53100
H  37.83500 47.29600 19.41100
H  37.97400 46.02700 20.64100
H  38.84900 48.55300 21.88100
H  39.82400 48.29100 20.54100
H  39.70700 47.05200 21.81600
H  38.50200 44.32800 24.48600
H  36.99100 43.45600 24.59800
H  37.91800 43.60100 26.05800
H  37.21400 47.04700 29.67500
H  34.95400 44.32500 31.86400
H  34.05800 45.75200 32.25700
H  35.56900 45.48800 33.15700
Mg 0.43400 42.49200 25.96400
C  2.28400 42.68700 29.05200
C  -2.23300 41.34800 27.80000
C  -0.99200 41.84500 23.12500
C  3.36200 43.40700 24.36000
N  0.08600 42.17500 28.26300
C  0.97000 42.32700 29.31000
C  0.16100 42.37900 30.57500
C  -1.31800 41.87700 30.19500
C  -1.15400 41.84400 28.63000
C  -1.73900 40.42800 30.70500
C  0.28300 43.64900 31.38000
C  0.58300 43.56800 32.87600
H  0.36100 42.29400 33.62000
N  -1.34500 41.76100 25.52800
C  -2.31600 41.24900 26.37500
C  -3.48400 40.77800 25.66600
C  -3.09200 40.84000 24.25700
C  -1.75200 41.49800 24.26100
C  -4.73400 40.28400 26.31900
C  -4.02500 40.48200 23.09900
O  -3.54600 40.42000 21.94100
C  -5.39700 39.91300 23.26200
N  1.14700 42.59700 24.02600
C  0.31900 42.38000 23.01400
C  1.00500 42.65600 21.64200
C  2.23900 43.46400 22.08500
C  2.27800 43.13800 23.55500
C  1.35200 41.44800 20.76600
C  2.17000 44.98600 21.95300
C  3.19000 45.60500 20.97200
N  2.43300 42.89400 26.47600
C  3.48900 43.19700 25.71100
C  4.71600 43.36900 26.42000
C  4.27000 43.13000 27.76700
C  2.88400 42.86500 27.75900
C  6.06100 43.71300 25.92600
C  4.71100 43.05600 29.09600
O  5.87600 42.98500 29.54900
C  3.40400 42.82600 30.01700
C  3.56400 41.59800 30.86900
O  3.70800 40.46200 30.46900
O  3.85700 42.08400 32.14800
C  4.38200 40.98300 33.04500
H  -3.10100 41.02800 28.38100
H  -1.42800 41.69400 22.13600
H  4.22200 43.77800 23.79800
H  0.67600 41.58600 31.11800
H  -2.17100 42.54500 30.31600
H  -1.19100 40.17000 31.61100
H  -1.42000 39.77800 29.89000
H  -2.81200 40.32100 30.86700
H  -0.67100 44.15300 31.22600
H  1.08500 44.34800 31.14100
H  -0.02400 44.30800 33.39800
H  1.60100 43.94300 32.99000
H  -4.59300 40.15400 27.39200
H  -5.16300 39.38600 25.87500
H  -5.47300 41.07700 26.20100
H  -6.07400 40.60800 23.75800
H  -5.15100 38.99500 23.79600
H  -5.80200 39.70800 22.27100
H  0.37400 43.35600 21.09400
H  3.17800 43.10000 21.66700
H  0.84100 40.57800 21.17800
H  2.43200 41.32100 20.68600
H  0.87200 41.71600 19.82500
H  2.21200 45.55200 22.88300
H  1.13700 45.13000 21.63800
H  2.64900 46.20100 20.23700
H  3.57400 44.80900 20.33300
H  4.10300 46.00700 21.41000
H  6.74100 43.10200 26.51900
H  6.27900 44.78100 25.90800
H  6.16800 43.25600 24.94200
H  3.20600 43.74700 30.56500
H  4.49200 41.24700 34.09600
H  5.35800 40.63900 32.70200
H  3.70400 40.13300 32.96500

