158

Mg 17.14400 51.99800 25.36600
C  18.94000 50.42000 27.98500
C  14.83800 53.09700 27.54500
C  15.29800 53.01200 22.77900
C  19.45800 50.37700 23.14800
N  16.92800 51.73800 27.56700
C  17.79200 51.06200 28.41400
C  17.43200 51.37700 29.89300
C  15.94600 52.09300 29.64000
C  15.89400 52.32900 28.16900
C  14.65600 51.36000 30.29000
C  18.43500 52.18800 30.67900
C  18.46000 52.04000 32.18900
H  17.37600 51.21900 32.86500
N  15.33200 52.97600 25.21200
C  14.56600 53.47500 26.17500
C  13.42400 54.19700 25.60100
C  13.51700 54.11000 24.15500
C  14.71800 53.31900 23.99100
C  12.31100 54.76600 26.56900
C  12.54600 54.74300 23.13300
O  12.66000 54.55800 21.94400
C  11.53800 55.65600 23.60900
N  17.44200 51.71300 23.33600
C  16.49400 52.27500 22.45600
C  16.86300 51.81900 20.98700
C  18.35500 51.28900 21.09800
C  18.45400 51.19500 22.58000
C  15.81900 50.71100 20.66900
C  19.44000 52.20000 20.50200
C  20.07600 53.33900 21.31000
N  18.90200 50.72500 25.46300
C  19.68900 50.16400 24.50000
C  20.80100 49.45200 25.08400
C  20.51300 49.48300 26.46600
C  19.33600 50.19700 26.60200
C  21.92900 48.72100 24.29300
C  20.96900 49.10100 27.82800
O  21.98200 48.50200 28.10300
C  19.99800 49.76800 28.77500
C  19.61500 48.80400 29.83400
O  18.80200 47.89100 29.74000
O  20.26500 49.06200 30.98300
C  19.79700 48.19600 32.10600
H  14.11100 53.45200 28.27800
H  14.72700 53.36600 21.91800
H  20.20700 49.92300 22.49700
H  17.34300 50.47500 30.49800
H  15.90400 53.05600 30.14900
H  14.18100 51.00900 29.37300
H  13.98800 51.99200 30.87500
H  15.04800 50.58200 30.94400
H  18.20000 53.23400 30.48300
H  19.35600 52.06700 30.10800
H  18.47700 53.03000 32.64400
H  19.39200 51.53800 32.44800
H  12.58200 55.78200 26.85600
H  12.35800 54.21800 27.50900
H  11.34300 54.65500 26.07800
H  10.78500 55.11900 24.18500
H  11.10600 56.16200 22.74600
H  12.03700 56.36500 24.26900
H  16.79200 52.69200 20.33800
H  18.33800 50.29800 20.64600
H  15.24000 50.96000 19.77900
H  15.14500 50.39600 21.46500
H  16.29500 49.78400 20.34900
H  19.11100 52.64200 19.56100
H  20.13100 51.47900 20.06500
H  21.10000 53.10000 21.59800
H  19.50200 53.61400 22.19500
H  20.20900 54.24700 20.72100
H  22.16200 49.15600 23.32100
H  21.74800 47.65900 24.12800
H  22.76900 48.94800 24.95000
H  20.59400 50.60100 29.14900
H  19.86000 48.80000 33.01200
H  20.40000 47.28800 32.11700
H  18.77900 47.81300 32.03300
Mg 9.94500 47.66000 25.70900
C  7.96600 47.95400 28.62000
C  12.52700 48.87700 27.59200
C  11.91100 47.38900 22.97800
C  7.17400 46.84000 23.90300
N  10.10000 48.47900 27.88100
C  9.27200 48.15600 28.86100
C  9.83300 48.47300 30.22200
C  11.24700 49.15600 29.88500
C  11.36500 48.82400 28.34200
C  11.28300 50.66000 30.22800
C  10.04000 47.26100 31.13000
C  9.72100 47.60700 32.57500
H  9.69500 46.48200 33.55700
N  11.93600 48.13800 25.35300
C  12.78500 48.63100 26.22200
C  14.02600 48.75400 25.57300
C  13.98100 48.19300 24.26200
C  12.54900 47.91100 24.13200
C  15.11200 49.42900 26.39300
C  15.10600 47.92900 23.21000
O  14.86600 47.58500 22.06400
C  16.42900 48.16700 23.69400
N  9.62900 47.38900 23.65500
C  10.56100 47.19900 22.75500
C  10.06400 46.64700 21.41900
C  8.55400 46.48400 21.78100
C  8.37500 47.00500 23.22700
C  10.22900 47.52200 20.16100
C  8.02800 45.00400 21.64300
C  8.36800 44.05600 22.80900
N  7.99000 47.30100 26.16700
C  6.97800 47.05700 25.23800
C  5.72200 47.01400 26.01200
C  5.98800 47.39200 27.34600
C  7.45900 47.59400 27.32300
C  4.31400 46.76900 25.41500
C  5.51600 47.53700 28.66100
O  4.38700 47.40300 29.10000
C  6.80500 47.83500 29.55400
C  6.84500 46.59800 30.43700
O  7.07800 45.46800 30.12300
O  6.46200 46.99000 31.62300
C  5.93200 45.91500 32.48800
H  13.36700 49.14300 28.23800
H  12.57800 47.27700 22.12000
H  6.32300 46.61900 23.25600
H  9.25600 49.24400 30.73200
H  12.13100 48.62700 30.24100
H  10.38900 51.01200 30.74300
H  11.39400 51.28700 29.34300
H  12.14600 50.93300 30.83400
H  11.10600 47.04100 31.19100
H  9.47600 46.36700 30.86700
H  8.80700 48.19800 32.62900
H  10.50700 48.26100 32.95100
H  14.62300 50.25100 26.91600
H  15.77300 49.85900 25.64100
H  15.48700 48.68200 27.09200
H  16.68500 49.22500 23.63000
H  17.20700 47.70900 23.08400
H  16.41200 47.89200 24.74900
H  10.44500 45.62800 21.34300
H  7.86800 47.07100 21.17100
H  11.02300 48.25500 20.30800
H  9.40400 48.15600 19.83400
H  10.43800 46.73100 19.44100
H  8.54000 44.53000 20.80600
H  6.98500 44.89900 21.34300
H  8.78800 44.51400 23.70500
H  9.09100 43.29800 22.50700
H  7.45000 43.69200 23.27100
H  4.32700 46.96700 24.34300
H  3.54600 47.27500 26.00000
H  4.01600 45.73700 25.60100
H  6.54600 48.67900 30.19400
H  4.84300 45.91300 32.45500
H  6.22800 46.13100 33.51400
H  6.26000 44.88800 32.33100

