158

Mg -1.44500 17.64800 27.59600
C  -2.14700 15.30300 30.12300
C  -2.32600 20.11700 29.65300
C  -0.99700 19.80300 25.03400
C  -0.98000 15.01800 25.22800
N  -2.10800 17.60600 29.66900
C  -2.13000 16.60600 30.57800
C  -2.22100 17.16200 32.05800
C  -2.42700 18.71800 31.83600
C  -2.34300 18.84700 30.28300
C  -3.73800 19.35600 32.47300
C  -1.10700 16.57700 33.02900
C  -0.55300 17.44400 34.17900
H  0.16800 16.75700 35.30600
N  -1.56200 19.68400 27.42700
C  -1.95000 20.58200 28.37200
C  -1.76100 22.00300 27.91300
C  -1.35300 21.89500 26.55200
C  -1.25800 20.44000 26.28100
C  -1.88800 23.22300 28.84600
C  -1.01200 23.05300 25.66000
O  -0.54700 22.92700 24.55300
C  -1.33800 24.41200 26.07700
N  -0.87400 17.42800 25.41600
C  -0.82700 18.47700 24.61600
C  -0.70700 18.05700 23.11800
C  -0.57100 16.50100 23.24400
C  -0.79700 16.25100 24.76700
C  -1.98100 18.56000 22.40600
C  0.86800 15.93000 22.80800
C  2.08400 16.39200 23.68400
N  -1.62500 15.62600 27.61000
C  -1.38700 14.72100 26.58700
C  -1.55500 13.40000 27.15900
C  -1.85500 13.54600 28.54100
C  -1.88100 14.95000 28.78400
C  -1.32600 12.17600 26.37800
C  -2.14100 12.82500 29.73800
O  -2.22100 11.61300 29.96100
C  -2.26500 13.97800 30.87500
C  -1.11600 13.68000 31.78800
O  0.04600 14.01200 31.71500
O  -1.60400 12.83900 32.81200
C  -0.67700 12.46200 33.84400
H  -2.50900 20.91000 30.38200
H  -0.83800 20.44600 24.16600
H  -0.87900 14.14800 24.57500
H  -3.16700 16.85200 32.50100
H  -1.49300 19.11700 32.23100
H  -3.43700 20.21500 33.07300
H  -4.22600 18.62400 33.11600
H  -4.40500 19.72500 31.69400
H  -0.19900 16.41200 32.44900
H  -1.54000 15.66700 33.44500
H  -1.23900 18.18700 34.58600
H  0.33000 17.87700 33.71000
H  -0.95700 23.77300 28.71200
H  -1.97000 22.88900 29.88100
H  -2.69100 23.89300 28.53800
H  -2.33100 24.52600 26.51200
H  -1.19700 25.21200 25.35000
H  -0.61400 24.72300 26.82900
H  0.18000 18.54200 22.71100
H  -1.33100 15.98700 22.65700
H  -1.79900 19.20700 21.54800
H  -2.69700 19.06300 23.05700
H  -2.48600 17.77800 21.83800
H  1.04500 16.37900 21.83100
H  0.80700 14.86600 22.57800
H  1.75600 17.07800 24.46400
H  2.75000 17.02700 23.10000
H  2.62500 15.60500 24.20800
H  -2.05700 11.94300 25.60400
H  -1.18900 11.26900 26.96700
H  -0.37700 12.24200 25.84600
H  -3.24000 13.91800 31.35800
H  -0.37500 13.32900 34.43200
H  0.29200 12.12400 33.47700
H  -1.03500 11.60300 34.41100
Mg 48.90300 46.46200 44.11800
C  45.66400 46.63000 42.84500
C  49.36100 43.54100 42.58500
C  52.11500 46.56100 45.09700
C  48.73900 49.99400 44.69400
N  47.60400 45.30500 42.82100
C  46.34800 45.46900 42.40900
C  45.86600 44.24800 41.64900
C  47.02600 43.29500 41.62700
C  48.07600 44.10300 42.31400
C  46.66800 41.92100 42.32300
C  45.27700 44.57500 40.25300
C  43.72400 44.54200 40.02800
H  43.17000 43.80400 38.80300
N  50.45200 45.21800 43.91600
C  50.44700 44.02200 43.27000
C  51.76900 43.37500 43.34500
C  52.48100 44.09800 44.31000
C  51.72000 45.39200 44.49500
C  52.13400 42.14400 42.65300
C  53.90000 43.85900 44.74600
O  54.56800 42.90800 44.35400
C  54.59200 44.64900 45.81200
N  50.29400 48.12900 44.61800
C  51.52200 47.85500 45.10000
C  52.26700 49.12700 45.66300
C  51.19400 50.25400 45.30600
C  50.01900 49.40600 44.88400
C  52.45500 49.00800 47.22700
C  51.57000 51.19200 44.10400
C  50.78100 52.47000 43.72000
N  47.52300 47.92900 43.81000
C  47.57300 49.32500 44.09000
C  46.26400 49.88700 43.89500
C  45.45800 48.81300 43.45600
C  46.30800 47.71600 43.31900
C  45.80700 51.28400 44.18400
C  44.14200 48.40700 43.04200
O  43.05300 48.99800 42.94800
C  44.14000 46.92100 42.63500
C  43.16800 46.17200 43.47800
O  43.43700 45.63400 44.52900
O  41.90800 46.23600 42.88300
C  40.72900 45.63300 43.55300
H  49.35100 42.51600 42.20800
H  53.05100 46.61300 45.65600
H  48.59600 51.03800 44.98000
H  45.05800 43.78700 42.21700
H  47.38200 42.99200 40.64200
H  45.60700 41.81200 42.54500
H  47.21500 41.81600 43.26100
H  47.00100 41.24100 41.54000
H  45.83300 44.01700 39.49900
H  45.54300 45.60700 40.02500
H  43.47700 45.58900 39.85200
H  43.16200 44.32100 40.93400
H  52.87100 42.47400 41.92200
H  51.33100 41.54000 42.23000
H  52.61900 41.47500 43.36400
H  54.01900 44.87900 46.71000
H  54.90800 45.60200 45.38700
H  55.34900 43.95000 46.16700
H  53.22100 49.11800 45.13600
H  50.91900 50.93600 46.11200
H  52.97600 48.08300 47.47200
H  51.46400 49.08700 47.67300
H  52.98800 49.88000 47.60500
H  51.61500 50.49500 43.26700
H  52.61300 51.47000 44.25500
H  49.95200 52.67900 44.39600
H  50.21500 52.31600 42.80100
H  51.46300 53.30500 43.56000
H  46.06000 51.52200 45.21700
H  44.77000 51.56800 44.00300
H  46.33300 51.95200 43.50100
H  43.96600 46.84700 41.56200
H  40.02500 45.42600 42.74800
H  40.24700 46.25800 44.30500
H  41.12900 44.69100 43.92900

