158

Mg 41.82400 40.89000 26.40900
C  40.76300 43.19700 28.87400
C  42.72200 38.67900 28.92900
C  43.01400 38.78300 23.97200
C  40.98800 43.16000 23.88000
N  41.71800 41.03100 28.63300
C  41.15200 41.99000 29.44000
C  41.28700 41.58700 30.94000
C  41.96500 40.15400 30.86200
C  42.20000 39.95200 29.36000
C  43.24400 40.05600 31.70600
C  39.91600 41.75100 31.71500
C  39.77200 42.83400 32.74100
H  39.06800 42.53700 34.08500
N  42.67700 38.96400 26.45400
C  42.98700 38.24100 27.56600
C  43.43000 36.90100 27.14600
C  43.51100 36.88700 25.70400
C  43.06200 38.24100 25.31100
C  43.77200 35.81500 28.12600
C  43.96900 35.78100 24.64500
O  44.04600 35.88900 23.41600
C  44.23800 34.48500 25.20700
N  42.04000 40.98200 24.24100
C  42.54800 39.96600 23.45900
C  42.48800 40.28000 21.99400
C  41.58100 41.52200 21.95500
C  41.53300 41.91600 23.42900
C  43.84700 40.38400 21.22300
C  40.12000 41.45200 21.33400
C  39.23100 40.25100 21.72900
N  41.08600 42.81900 26.28600
C  40.81300 43.61900 25.18700
C  40.26100 44.89300 25.61700
C  40.31000 44.81600 27.06000
C  40.70400 43.50200 27.41800
C  39.77300 46.01200 24.80800
C  40.06900 45.46700 28.32600
O  39.66100 46.60800 28.57000
C  40.42600 44.57200 29.50700
C  41.47800 45.19300 30.38600
O  42.63400 45.37300 30.13200
O  40.88900 45.48400 31.62000
C  41.72900 46.11600 32.62400
H  42.91100 37.99300 29.75700
H  43.27900 38.06100 23.19700
H  40.83000 43.94700 23.14000
H  42.08300 42.18100 31.38700
H  41.16600 39.46000 31.12300
H  43.37600 39.17700 32.33700
H  43.28900 40.83800 32.46400
H  44.08200 40.33700 31.06900
H  39.76100 40.79100 32.20600
H  39.09400 41.87900 31.01100
H  39.36800 43.75700 32.32600
H  40.73400 43.23100 33.06600
H  43.17500 35.95300 29.02800
H  44.84200 35.77000 28.32500
H  43.48100 34.82800 27.76800
H  43.41900 34.00600 25.74300
H  44.95000 34.74800 25.98900
H  44.72400 33.84100 24.47400
H  41.99100 39.46500 21.46900
H  42.08400 42.40700 21.56500
H  44.56500 39.79600 21.79600
H  43.95700 41.43200 20.94700
H  43.68100 39.75500 20.34800
H  40.22900 41.46700 20.25000
H  39.54400 42.34300 21.58400
H  38.77300 39.67300 20.92600
H  38.41600 40.62100 22.35200
H  39.70500 39.51600 22.37900
H  40.62800 46.68200 24.89600
H  38.83500 46.40000 25.20500
H  39.64500 45.63300 23.79400
H  39.53000 44.61600 30.12700
H  41.44400 45.68200 33.58300
H  41.51500 47.18400 32.57900
H  42.80400 46.01000 32.48300
Mg -1.81200 34.66700 26.95200
C  -3.39900 32.89700 29.45200
C  -0.73900 36.98300 29.38000
C  -1.00200 36.99800 24.53600
C  -3.72700 32.98800 24.60000
N  -1.92300 34.72400 29.16900
C  -2.69100 33.95600 30.01100
C  -2.37100 34.21500 31.50500
C  -1.57700 35.56600 31.45100
C  -1.42100 35.80300 29.90600
C  -2.25500 36.66400 32.32700
C  -1.52000 32.95600 32.06800
C  -2.14200 32.31900 33.34600
H  -1.29300 32.18500 34.55600
N  -0.72700 36.63700 26.92400
C  -0.40500 37.35800 28.02500
C  0.40200 38.48600 27.56700
C  0.15800 38.55300 26.12700
C  -0.58500 37.40900 25.84700
C  1.13100 39.35900 28.55300
C  0.69500 39.64500 25.17700
O  0.50200 39.59100 23.97200
C  1.58000 40.66700 25.79600
N  -2.34200 35.02700 24.90800
C  -1.79500 35.93700 24.07400
C  -2.22000 35.69300 22.61000
C  -3.15700 34.41100 22.70900
C  -3.08300 34.17300 24.17300
C  -2.84600 37.04200 22.09100
C  -2.59600 33.20500 21.90000
C  -1.07300 32.97400 22.00200
N  -3.23700 33.23200 26.95500
C  -3.89400 32.56700 25.91100
C  -4.73800 31.53700 26.46300
C  -4.56100 31.65500 27.85000
C  -3.61500 32.66500 28.08000
C  -5.66000 30.59500 25.76200
C  -5.07600 31.04900 29.09500
O  -5.85100 30.12700 29.35800
C  -4.32500 31.89300 30.13900
C  -5.27000 32.40000 31.12500
O  -5.97200 33.40700 31.09400
O  -5.36100 31.57800 32.23900
C  -6.33900 31.90200 33.30500
H  -0.23000 37.58900 30.13200
H  -0.74100 37.74200 23.78100
H  -4.34900 32.41900 23.90600
H  -3.23100 34.28700 32.17100
H  -0.58400 35.41900 31.87600
H  -2.87400 37.31600 31.71100
H  -1.48200 37.26800 32.80100
H  -2.87200 36.18200 33.08500
H  -0.50100 33.27400 32.29100
H  -1.51600 32.21700 31.26600
H  -2.52900 31.32600 33.12000
H  -3.06100 32.85100 33.59300
H  1.20000 38.85600 29.51700
H  0.61000 40.31600 28.55900
H  2.09700 39.38600 28.04900
H  2.50400 40.24900 26.19500
H  1.11900 41.21800 26.61600
H  1.91300 41.43000 25.09200
H  -1.31800 35.57200 22.01100
H  -4.20200 34.64800 22.51500
H  -2.03300 37.58200 21.60400
H  -3.29300 37.56100 22.93900
H  -3.72400 36.92000 21.45700
H  -2.92700 33.42200 20.88500
H  -3.04100 32.24700 22.16600
H  -0.85400 33.47100 22.94700
H  -0.47700 33.43400 21.21400
H  -0.81800 31.93600 22.21600
H  -5.79300 30.76300 24.69300
H  -6.59700 30.82900 26.26800
H  -5.22000 29.60900 25.91300
H  -3.81300 31.09200 30.67400
H  -7.01000 31.06800 33.50900
H  -7.04700 32.71400 33.13800
H  -5.89700 32.23800 34.24300

