158

Mg 36.37900 49.34900 26.23500
C  36.64800 47.48500 29.34200
C  35.43500 52.06300 28.04500
C  36.06600 50.81900 23.28700
C  37.66000 46.44600 24.59400
N  36.06000 49.68900 28.49600
C  36.31700 48.86200 29.54600
C  36.25900 49.61600 30.87900
C  35.86200 51.08200 30.41100
C  35.84900 50.98200 28.88000
C  34.64800 51.77200 31.09700
C  37.61400 49.59000 31.75200
C  37.70000 49.29700 33.31000
H  36.53200 49.60500 34.21300
N  35.68700 51.22600 25.75400
C  35.41500 52.21600 26.61500
C  35.11200 53.42300 25.89100
C  35.25900 53.09100 24.48100
C  35.68000 51.67900 24.42900
C  34.79400 54.77500 26.55200
C  35.21600 53.99500 23.27200
O  35.17000 53.50200 22.17500
C  35.16300 55.42400 23.51100
N  36.77600 48.63700 24.22200
C  36.64200 49.52600 23.17800
C  37.05600 48.87800 21.91700
C  37.80400 47.52800 22.30400
C  37.43600 47.54100 23.82000
C  36.01200 48.80900 20.77200
C  39.39100 47.47900 22.06500
C  39.94400 46.05800 21.85100
N  36.81800 47.37000 26.75000
C  37.35900 46.35600 25.95900
C  37.44300 45.16600 26.79600
C  37.20900 45.57900 28.07700
C  36.78500 46.92400 28.01500
C  37.94800 43.83000 26.38100
C  37.20600 45.11900 29.45400
O  37.59400 44.05800 29.93700
C  36.89600 46.35500 30.34700
C  35.83300 45.94500 31.27800
O  34.67600 45.43700 31.01500
O  36.16200 46.32400 32.54100
C  35.08100 46.20100 33.55600
H  35.20200 52.97100 28.60400
H  35.94500 51.38800 22.36300
H  38.03400 45.51900 24.15500
H  35.50100 49.11500 31.48200
H  36.75700 51.65700 30.64900
H  34.87700 52.62000 31.74300
H  34.06000 51.05300 31.66800
H  33.90900 52.16800 30.40100
H  38.15800 50.52800 31.64100
H  38.18900 48.77400 31.31300
H  38.57400 49.82400 33.69300
H  37.94300 48.24100 33.43000
H  35.65600 55.41400 26.74000
H  34.35100 54.58300 27.52900
H  34.05500 55.32800 25.97200
H  34.13700 55.72200 23.72400
H  35.54900 55.91300 22.61700
H  35.89600 55.66400 24.28100
H  37.87300 49.49400 21.54200
H  37.26300 46.69600 21.85400
H  35.62600 47.80300 20.61000
H  36.45900 49.03200 19.80300
H  35.15200 49.45800 20.93600
H  39.92200 47.82500 22.95200
H  39.68200 47.99700 21.15200
H  39.11600 45.35000 21.82000
H  40.63300 45.77100 22.64600
H  40.58100 45.83600 20.99500
H  37.71600 43.75800 25.31800
H  37.40700 43.11600 27.00200
H  39.03600 43.80100 26.43800
H  37.81000 46.56700 30.90100
H  34.71100 45.23100 33.88600
H  34.24900 46.79100 33.17200
H  35.35800 46.69500 34.48700
Mg 27.10300 51.41900 27.02700
C  24.89500 52.49000 29.34700
C  29.19200 50.30600 29.57000
C  29.27100 50.43000 24.67900
C  25.14100 52.96600 24.53100
N  26.96400 51.36600 29.22200
C  25.93000 51.79200 29.99900
C  26.21600 51.63200 31.50800
C  27.67800 51.06700 31.46100
C  27.99300 50.87700 29.97400
C  28.78200 51.87400 32.18800
C  25.19800 50.62800 32.18300
C  24.44300 51.14600 33.43800
H  25.26400 51.26900 34.77900
N  29.01000 50.54700 27.11300
C  29.64300 50.06000 28.19000
C  30.85300 49.42300 27.77500
C  30.85800 49.35500 26.38600
C  29.60900 50.10200 25.97500
C  31.89600 48.95500 28.81800
C  31.84900 48.70700 25.48400
O  31.66700 48.61900 24.24900
C  33.14800 48.28900 25.98700
N  27.22000 51.68500 24.93700
C  28.20800 51.16100 24.14000
C  27.88300 51.25500 22.66800
C  26.63400 52.21100 22.62200
C  26.36400 52.40300 24.09300
C  29.10600 51.87800 21.93500
C  25.41100 51.67700 21.81800
C  24.79100 50.38900 22.43100
N  25.27100 52.46900 26.89900
C  24.55100 53.00000 25.79000
C  23.34900 53.53800 26.27600
C  23.40800 53.39100 27.68100
C  24.63700 52.74500 27.98700
C  22.29200 54.27700 25.58000
C  22.71700 53.65700 29.00700
O  21.70300 54.25400 29.23100
C  23.66900 52.98100 30.08300
C  24.07900 53.98100 31.07500
O  25.04500 54.66500 31.02100
O  23.16300 54.02100 32.06500
C  23.47700 54.93800 33.22500
H  29.94600 50.08400 30.32700
H  29.88300 50.05900 23.85400
H  24.62400 53.55300 23.76900
H  26.20100 52.58900 32.02900
H  27.72000 50.04900 31.84600
H  29.30600 52.43100 31.41100
H  29.53100 51.20500 32.61200
H  28.33300 52.57700 32.89100
H  25.64500 49.68400 32.49400
H  24.41900 50.48600 31.43300
H  23.56300 50.54600 33.66700
H  24.00300 52.12100 33.22600
H  32.49500 49.83500 29.05100
H  32.52700 48.12000 28.51100
H  31.40700 48.64400 29.74100
H  33.88200 48.32400 25.18100
H  33.13400 47.27000 26.37300
H  33.45600 48.99200 26.76100
H  27.59200 50.26400 22.32100
H  26.90600 53.20000 22.25400
H  29.75500 52.23400 22.73500
H  28.80500 52.68600 21.26800
H  29.53400 51.04200 21.38300
H  25.73900 51.36500 20.82700
H  24.64000 52.44400 21.73800
H  23.70400 50.43800 22.36800
H  25.12800 50.18900 23.44800
H  25.13500 49.48200 21.93200
H  22.05500 53.82700 24.61600
H  22.54800 55.31900 25.39200
H  21.50000 54.28000 26.32900
H  23.08000 52.25200 30.64000
H  24.34100 54.57200 33.78100
H  22.58600 55.14600 33.81800
H  23.72000 55.92000 32.82100

