158

Mg 25.35800 -6.30900 46.83200
C  27.08500 -3.53800 45.76200
C  22.74300 -5.54200 44.73200
C  24.09400 -9.41300 47.46400
C  28.37300 -7.27900 48.59000
N  25.02000 -4.84500 45.24200
C  25.85600 -3.74500 45.06000
C  25.12100 -2.64300 44.15800
C  23.76900 -3.42400 43.85500
C  23.81200 -4.64200 44.66000
C  22.50700 -2.48300 44.12400
C  25.99000 -2.46100 42.80200
C  26.61700 -1.09400 42.51300
H  26.56400 -0.60400 41.06400
N  23.58400 -7.21000 46.35100
C  22.71300 -6.79100 45.42200
C  21.60500 -7.73100 45.34100
C  21.83400 -8.75100 46.30200
C  23.20400 -8.49200 46.75800
C  20.44800 -7.64500 44.29800
C  20.85200 -9.87300 46.64600
O  19.72300 -9.95100 46.17300
C  21.16500 -10.73400 47.79000
N  26.15900 -8.16900 47.82000
C  25.42900 -9.25400 47.92000
C  26.28600 -10.41000 48.50700
C  27.42800 -9.58900 49.21700
C  27.35200 -8.22200 48.48900
C  25.46600 -11.21100 49.57400
C  28.83700 -10.27700 49.24200
C  29.48900 -10.34600 50.58700
N  27.38700 -5.66900 47.12600
C  28.40100 -6.12900 47.88200
C  29.49700 -5.10800 47.92000
C  28.96000 -3.98900 47.18900
C  27.72300 -4.47300 46.59100
C  30.84100 -5.19700 48.68100
C  29.17000 -2.64500 46.74600
O  30.05800 -1.85400 46.99200
C  28.01100 -2.30900 45.77500
C  27.34500 -1.03200 46.31100
O  27.13200 -0.04900 45.62700
O  26.95600 -1.18900 47.67200
C  26.28400 -0.01700 48.31200
H  21.95100 -5.24500 44.04100
H  23.76300 -10.45200 47.52800
H  29.24400 -7.54100 49.19400
H  24.88700 -1.74700 44.73300
H  23.67300 -3.81400 42.84200
H  22.67600 -1.47400 43.74800
H  22.22700 -2.50800 45.17700
H  21.76700 -2.89200 43.43600
H  25.35400 -2.50800 41.91900
H  26.81100 -3.16100 42.64800
H  27.65500 -1.23000 42.81600
H  26.19300 -0.35500 43.19300
H  20.74500 -8.02700 43.32200
H  20.02200 -6.64200 44.28600
H  19.60900 -8.33700 44.36900
H  20.30300 -11.27800 48.17500
H  21.50600 -10.17600 48.66200
H  21.89600 -11.40900 47.34500
H  26.49300 -11.12600 47.71300
H  27.02800 -9.59200 50.23100
H  25.98400 -11.47800 50.49500
H  25.22200 -12.21300 49.22100
H  24.50300 -10.73100 49.74500
H  29.53700 -9.64800 48.69200
H  28.86200 -11.24300 48.73800
H  29.90800 -11.35200 50.54400
H  28.80500 -10.28800 51.43300
H  30.28800 -9.60700 50.65500
H  31.62700 -4.67300 48.13700
H  31.08500 -6.25200 48.81100
H  30.84500 -4.65900 49.62800
H  28.51400 -2.13800 44.82400
H  25.29100 -0.26900 48.68500
H  26.24000 0.86800 47.67700
H  26.90500 0.18700 49.18400
Mg 49.37200 45.04200 42.77500
C  45.97900 45.43000 41.39000
C  49.17900 41.73900 41.75700
C  52.65300 44.94700 43.02600
C  49.36900 48.54500 43.04700
N  47.77700 43.80800 41.69900
C  46.44400 44.12500 41.31300
C  45.86100 42.85200 40.68500
C  46.71500 41.67900 41.26300
C  47.96900 42.43300 41.62500
C  46.07200 40.94100 42.42600
C  45.84900 42.92500 39.05900
C  44.44100 42.85300 38.41800
H  44.08700 43.88400 37.33900
N  50.70200 43.47000 42.58100
C  50.39400 42.17000 42.15800
C  51.65000 41.43300 42.34200
C  52.69600 42.30900 42.75400
C  52.03900 43.68000 42.85700
C  51.77400 39.92600 41.97800
C  54.08100 41.87400 43.26200
O  54.47800 40.77300 43.10500
C  54.97500 42.74800 44.15400
N  50.86800 46.55500 42.99300
C  52.16300 46.26400 43.08600
C  53.10000 47.54000 43.10500
C  52.02200 48.69600 43.22200
C  50.63100 47.92200 43.05700
C  54.10100 47.40800 44.36300
C  52.12700 49.83500 42.23500
C  52.65200 51.22500 42.82900
N  47.99400 46.69400 42.41000
C  48.06800 47.99900 42.68600
C  46.73000 48.64700 42.66800
C  45.96300 47.74000 42.09200
C  46.70100 46.50800 41.94700
C  46.36300 50.00700 42.99600
C  44.66600 47.52700 41.53100
O  43.73500 48.27500 41.34600
C  44.56000 45.99200 41.13500
C  43.51900 45.35200 42.03500
O  42.77400 44.39100 41.74900
O  43.26900 46.02800 43.17700
C  41.88800 45.86600 43.72100
H  49.13900 40.68700 41.46600
H  53.74200 44.94000 42.94500
H  49.34800 49.63400 43.12300
H  44.80900 42.83700 40.97000
H  46.88200 40.89600 40.52300
H  45.99900 39.86400 42.27200
H  45.07100 41.33400 42.60200
H  46.69400 41.09700 43.30700
H  46.30800 42.01300 38.67800
H  46.40500 43.80400 38.73400
H  43.69100 43.06000 39.18100
H  44.17900 41.93200 37.89800
H  52.58600 39.81400 41.26000
H  50.89100 39.43000 41.57600
H  52.13500 39.26500 42.76700
H  55.38000 43.59700 43.60100
H  55.82100 42.10900 44.40700
H  54.37300 43.06400 45.00600
H  53.76700 47.61500 42.24600
H  52.05200 49.12400 44.22400
H  53.83400 46.52900 44.95100
H  54.02200 48.26600 45.03100
H  55.10100 47.31200 43.94100
H  51.18800 50.01300 41.71000
H  52.81400 49.60300 41.42100
H  52.25200 52.06700 42.26500
H  53.73600 51.18700 42.72000
H  52.37500 51.37200 43.87200
H  45.29200 50.19700 42.92200
H  46.92600 50.69600 42.36700
H  46.60500 50.12400 44.05200
H  44.31000 46.04300 40.07600
H  41.18600 46.03400 42.90400
H  41.63200 46.62300 44.46300
H  41.78000 44.97900 44.34500

