158

Mg 16.68000 -2.18100 27.71800
C  15.40900 0.02300 30.17400
C  18.77500 -3.47700 30.04800
C  18.09100 -3.99700 25.30000
C  14.80600 -0.31600 25.34700
N  16.98200 -1.79900 29.85000
C  16.31900 -0.94500 30.64000
C  16.63400 -1.17800 32.07200
C  17.93900 -2.04400 32.05100
C  17.96000 -2.49500 30.55500
C  19.30200 -1.32200 32.47600
C  15.46500 -1.71600 32.96400
C  15.11800 -0.86400 34.18000
H  16.19300 -0.05800 34.89100
N  18.10900 -3.59000 27.73100
C  18.89800 -4.03600 28.77100
C  19.80900 -5.04000 28.38700
C  19.56400 -5.23300 27.01000
C  18.52900 -4.25000 26.58800
C  20.80600 -5.71500 29.25100
C  20.24000 -6.14200 26.00000
O  20.08400 -6.10000 24.80000
C  21.04500 -7.43100 26.43200
N  16.53200 -2.07600 25.66300
C  17.20500 -2.97400 24.83400
C  16.94800 -2.75500 23.32200
C  15.75900 -1.77000 23.39600
C  15.70900 -1.27900 24.86500
C  18.16700 -2.13700 22.65800
C  14.38700 -2.20400 22.76800
C  14.21300 -2.02800 21.18200
N  15.34000 -0.50300 27.70000
C  14.68700 0.17700 26.65900
C  13.88200 1.24900 27.19600
C  14.15700 1.24800 28.57900
C  15.01100 0.19800 28.80400
C  12.86400 2.03700 26.42000
C  13.89400 1.90900 29.86400
O  13.24800 2.88900 30.12100
C  14.66900 1.10000 30.89500
C  15.54500 2.10100 31.61600
O  16.69300 2.40900 31.32100
O  14.78500 2.65500 32.59000
C  15.56300 3.78500 33.22500
H  19.44600 -3.96400 30.75900
H  18.43300 -4.53400 24.41300
H  14.28000 0.34200 24.65100
H  16.97800 -0.24400 32.51800
H  17.98700 -2.94700 32.65900
H  20.00000 -1.26400 31.64100
H  19.73200 -1.89500 33.29700
H  19.13300 -0.29400 32.79700
H  15.73400 -2.69800 33.35400
H  14.53000 -1.77300 32.40700
H  14.85100 -1.57100 34.96600
H  14.17900 -0.32400 34.05400
H  21.81200 -5.85000 28.85300
H  20.46000 -6.70400 29.55200
H  20.95200 -5.18400 30.19200
H  20.98200 -8.19000 25.65300
H  20.53700 -7.89100 27.27900
H  22.10900 -7.27400 26.60700
H  16.68700 -3.60900 22.69800
H  15.91700 -0.80300 22.91700
H  18.08800 -2.36300 21.59400
H  19.12100 -2.50500 23.03600
H  18.08600 -1.05100 22.71400
H  13.54100 -1.69400 23.22900
H  14.16600 -3.27000 22.80900
H  14.98900 -1.35700 20.81400
H  13.26600 -1.54400 20.94400
H  14.26100 -2.99900 20.68900
H  12.71500 1.66100 25.40800
H  13.11900 3.09600 26.38000
H  11.89800 1.91200 26.91100
H  13.95500 0.67800 31.60200
H  16.58500 3.52400 33.49800
H  15.06500 4.01700 34.16700
H  15.58100 4.72100 32.66600
Mg 42.89900 4.91000 47.29000
C  41.07000 7.99900 47.33600
C  39.93600 3.27200 46.97400
C  44.63800 2.21700 46.50200
C  45.82200 6.86800 47.24100
N  40.72900 5.62300 47.28300
C  40.21000 6.85400 47.22500
C  38.68300 6.81000 47.22300
C  38.33000 5.30400 47.44300
C  39.72700 4.68900 47.17100
C  37.76700 5.03300 48.85500
C  38.07900 7.46700 45.95600
C  38.93100 7.47500 44.71000
H  38.22600 7.74300 43.37900
N  42.34300 2.96800 46.83300
C  41.06600 2.49400 46.78300
C  41.09400 1.10500 46.43000
C  42.46100 0.67500 46.24900
C  43.22400 1.95500 46.55400
C  39.81400 0.29300 46.36800
C  42.99500 -0.76100 45.81800
O  42.30600 -1.71900 45.37400
C  44.39900 -1.02200 45.88700
N  44.89000 4.64900 46.77000
C  45.34400 3.36900 46.74200
C  46.87700 3.34800 46.80200
C  47.32600 4.84100 47.02800
C  45.95400 5.51400 47.02600
C  47.41600 2.27800 47.86700
C  48.26300 5.21200 45.98000
C  49.78700 5.19600 46.47500
N  43.37200 6.97100 47.28600
C  44.62300 7.60600 47.20000
C  44.42200 8.98500 47.36500
C  43.04600 9.19600 47.46800
C  42.46700 7.96600 47.30800
C  45.59400 9.96800 47.31300
C  42.04100 10.20600 47.55800
O  42.20600 11.39500 47.59500
C  40.63600 9.49700 47.42400
C  39.97300 9.72800 48.71200
O  39.97200 8.92200 49.63400
O  39.28300 10.96500 48.66000
C  38.23200 11.13000 49.70500
H  39.02000 2.68400 46.89200
H  45.27700 1.34500 46.34300
H  46.74700 7.40500 47.46300
H  38.46600 7.43000 48.09300
H  37.79800 4.81100 46.63000
H  37.14600 5.89800 49.08800
H  38.58800 4.98700 49.57000
H  37.23900 4.08300 48.93800
H  38.00900 8.54500 46.09500
H  37.05800 7.10400 45.83700
H  39.31900 6.45800 44.63500
H  39.73300 8.19300 44.88300
H  39.36900 0.28000 45.37300
H  39.16300 0.53400 47.20900
H  40.13100 -0.71400 46.63600
H  44.87900 -0.74500 46.82600
H  44.85600 -0.48800 45.05400
H  44.57900 -2.09600 45.85600
H  47.18000 2.87500 45.86900
H  47.70200 5.12900 48.01000
H  46.94600 2.16600 48.84500
H  48.45400 2.55100 48.05500
H  47.39300 1.24500 47.51800
H  48.11800 6.22800 45.61500
H  48.22500 4.60900 45.07300
H  50.00800 4.57100 47.34000
H  50.22900 6.18700 46.57400
H  50.46900 4.80700 45.71800
H  46.04400 9.75800 46.34300
H  46.28700 9.75400 48.12600
H  45.29400 11.01600 47.31200
H  40.00600 9.91100 46.63700
H  37.93200 10.32300 50.37300
H  37.31800 11.39700 49.17500
H  38.59400 11.79500 50.48900

