158

Mg 40.11600 41.25300 27.49200
C  39.23200 43.65800 29.90800
C  41.12500 39.18000 30.10900
C  41.10200 39.22000 25.18500
C  39.34200 43.74600 25.08400
N  40.12100 41.38000 29.74100
C  39.63800 42.43300 30.47800
C  39.72300 42.13000 32.01600
C  40.37500 40.70100 32.06100
C  40.50000 40.35200 30.56800
C  41.65600 40.75000 32.92200
C  38.36300 42.14900 32.79900
C  38.21700 41.27200 34.02700
H  37.32800 41.86800 35.15100
N  41.00500 39.38600 27.65000
C  41.31300 38.73300 28.77300
C  42.00900 37.46800 28.38700
C  42.00800 37.41800 26.92100
C  41.35100 38.69400 26.50900
C  42.34200 36.42200 29.44700
C  42.63000 36.39200 25.97900
O  42.56500 36.53000 24.73800
C  43.35800 35.22800 26.59400
N  40.16600 41.44100 25.40400
C  40.65600 40.44100 24.66000
C  40.54400 40.76400 23.21300
C  39.62100 42.04000 23.21800
C  39.62200 42.43400 24.67600
C  41.90100 40.93400 22.39200
C  38.20700 41.82400 22.70900
C  37.16500 40.87200 23.49500
N  39.56600 43.27900 27.49000
C  39.43200 44.24900 26.42700
C  39.21300 45.54100 26.95700
C  39.06100 45.28600 28.29300
C  39.26500 43.96900 28.56600
C  38.97300 46.84000 26.20900
C  38.67000 46.06100 29.55000
O  38.35300 47.21700 29.75400
C  38.76600 44.94400 30.67400
C  39.74000 45.38500 31.61700
O  40.95400 45.54500 31.33600
O  39.14400 45.84600 32.78700
C  40.00400 46.69900 33.67800
H  41.36400 38.46400 30.89800
H  41.43400 38.50200 24.43300
H  38.98100 44.32300 24.23000
H  40.37900 42.87300 32.47000
H  39.68500 39.96300 32.47100
H  41.48100 40.20000 33.84700
H  42.00500 41.73400 33.23500
H  42.46200 40.24400 32.39100
H  37.67100 41.89200 31.99800
H  38.10700 43.15300 33.13700
H  39.23700 41.13300 34.38500
H  37.85300 40.30900 33.66700
H  43.41200 36.23600 29.54700
H  41.82400 35.52200 29.11700
H  42.07700 36.59500 30.49000
H  44.26300 35.48200 27.14600
H  43.59000 34.63000 25.71300
H  42.64500 34.62300 27.15500
H  39.94200 39.98000 22.75500
H  40.20100 42.83800 22.75600
H  41.95000 40.17800 21.60900
H  42.66600 40.78900 23.15600
H  42.02600 41.95300 22.02500
H  38.30400 41.44700 21.69100
H  37.72600 42.80200 22.68300
H  36.93100 39.99100 22.89700
H  36.22000 41.40100 23.61700
H  37.69400 40.63000 24.41700
H  39.03500 46.82300 25.12100
H  39.67500 47.59900 26.55500
H  37.96900 47.17000 26.47500
H  37.83100 44.74900 31.20000
H  40.74800 47.32000 33.17800
H  40.57800 46.04500 34.33400
H  39.33700 47.25400 34.33800
Mg 34.64400 49.36200 25.93900
C  34.44400 47.29500 28.66500
C  33.39600 51.92700 27.61300
C  34.58200 51.06600 23.00900
C  35.67300 46.46500 24.01700
N  33.81500 49.51400 27.86900
C  34.08000 48.63600 28.86500
C  33.87100 49.36900 30.21200
C  33.16200 50.69700 29.81300
C  33.47300 50.73000 28.32200
C  31.69400 50.84000 30.24500
C  35.17000 49.64000 31.08100
C  35.04000 50.26300 32.44700
H  33.61300 50.32100 33.08000
N  34.20400 51.29900 25.42900
C  33.79800 52.21800 26.30600
C  33.74600 53.48700 25.59100
C  34.03000 53.26100 24.24900
C  34.28600 51.82600 24.15000
C  33.21300 54.79300 26.26400
C  34.04600 54.24300 23.04000
O  34.19100 53.87900 21.88300
C  33.94800 55.69700 23.29200
N  34.93000 48.79800 23.77400
C  34.82700 49.74400 22.77500
C  35.23800 49.11500 21.47500
C  35.79900 47.71900 21.87000
C  35.48200 47.63700 23.29500
C  34.03300 49.08900 20.43200
C  37.23700 47.48700 21.41900
C  38.41500 47.78300 22.39200
N  34.92400 47.26900 26.21600
C  35.32900 46.26900 25.36300
C  35.30400 45.00200 26.10500
C  35.09400 45.37900 27.45000
C  34.76200 46.76400 27.42400
C  35.79600 43.76000 25.51400
C  35.06400 44.99800 28.89100
O  35.31400 43.95400 29.38900
C  34.66400 46.25500 29.69200
C  33.43200 45.90800 30.46400
O  32.38400 45.64300 29.90900
O  33.64600 45.87900 31.81900
C  32.63300 45.28600 32.64300
H  33.26500 52.83200 28.20900
H  34.74300 51.69000 22.12800
H  36.16400 45.65700 23.47100
H  33.24000 48.74600 30.84600
H  33.51700 51.53000 30.42000
H  31.40900 50.01900 30.90200
H  31.12400 50.59300 29.34900
H  31.41800 51.64100 30.93100
H  35.78600 50.19900 30.37700
H  35.62200 48.65900 31.22100
H  35.26500 51.31400 32.27200
H  35.72900 49.75200 33.12000
H  33.84700 55.66300 26.09500
H  33.12700 54.57800 27.33000
H  32.22900 55.07900 25.89300
H  33.12600 56.01800 23.93200
H  33.93100 56.12800 22.29100
H  34.86500 56.00900 23.79300
H  36.00600 49.78400 21.08700
H  35.25600 46.91100 21.37900
H  33.95000 49.88300 19.69000
H  33.17200 48.86200 21.06000
H  34.29100 48.20300 19.85100
H  37.39000 48.15600 20.57300
H  37.31800 46.43200 21.15700
H  38.89300 46.85900 22.71800
H  38.16200 48.30900 23.31200
H  39.18500 48.39100 21.91800
H  36.30600 44.08600 24.60800
H  34.89400 43.15100 25.44900
H  36.47000 43.31900 26.24800
H  35.49000 46.55500 30.33700
H  31.71100 45.74700 32.28900
H  32.79400 45.50900 33.69800
H  32.77500 44.20700 32.59900

