158

Mg 35.65500 48.56200 25.87400
C  36.03400 46.63300 28.80300
C  34.65000 51.10400 27.79400
C  34.95900 50.10700 23.07700
C  36.80900 45.82300 23.98600
N  35.10600 48.72200 28.09200
C  35.55100 47.88100 29.07500
C  35.39900 48.43500 30.49400
C  34.64400 49.79500 30.16700
C  34.82500 49.95400 28.59400
C  33.17900 49.91900 30.61800
C  36.66200 48.52700 31.34800
C  36.44300 48.07800 32.86800
H  36.53200 49.33500 33.78700
N  34.79500 50.34300 25.44900
C  34.58300 51.36000 26.39000
C  34.35800 52.67400 25.71300
C  34.21400 52.30200 24.33000
C  34.64000 50.88200 24.25200
C  34.04600 53.92700 26.46500
C  33.79500 53.11800 23.14200
O  33.87400 52.76600 21.95500
C  33.36100 54.52800 23.38600
N  35.85100 48.03200 23.81100
C  35.44400 48.85500 22.87300
C  35.67700 48.30000 21.45500
C  36.50800 47.03200 21.85500
C  36.42200 46.94300 23.25700
C  34.36300 48.07900 20.66800
C  37.86900 46.85200 21.10900
C  39.05200 47.58300 21.60500
N  36.15500 46.59000 26.25800
C  36.67400 45.54500 25.37300
C  36.90900 44.35500 26.20200
C  36.72100 44.72700 27.59400
C  36.22200 46.05200 27.56000
C  37.51600 43.04700 25.76000
C  36.90500 44.35800 28.91300
O  37.24800 43.30600 29.39700
C  36.39300 45.54500 29.77600
C  35.21000 44.95600 30.55200
O  34.16800 44.56300 30.01300
O  35.51100 44.99500 31.86600
C  34.60200 44.32700 32.82600
H  34.47000 51.92400 28.49300
H  34.93400 50.61900 22.11300
H  37.24700 44.99700 23.42300
H  34.68600 47.72800 30.91800
H  35.09700 50.72800 30.50300
H  32.55600 49.79200 29.73300
H  33.02200 50.90700 31.05000
H  33.04700 49.05400 31.26900
H  36.94700 49.57500 31.25600
H  37.49100 47.97500 30.90500
H  37.14200 47.31000 33.19800
H  35.42000 47.70400 32.82300
H  34.38800 54.85500 26.00800
H  34.42500 53.80100 27.47900
H  32.97000 54.01400 26.61700
H  32.98400 54.90300 22.43500
H  34.15200 55.08600 23.88700
H  32.46000 54.49500 23.99800
H  36.35400 49.04300 21.03400
H  35.78300 46.26500 21.58400
H  33.46300 48.48500 21.13100
H  34.09700 47.03100 20.53000
H  34.43400 48.49900 19.66500
H  37.76500 47.21500 20.08600
H  38.05100 45.77900 21.03700
H  39.49200 48.15100 20.78500
H  39.86900 46.89300 21.81700
H  38.83200 48.08100 22.54800
H  38.20600 43.07400 24.91600
H  36.79000 42.23500 25.73200
H  38.11000 42.77800 26.63400
H  37.17000 45.91400 30.44600
H  33.91700 43.70800 32.24700
H  33.99500 45.04000 33.38400
H  35.18700 43.69000 33.49000
Mg -9.63400 38.69200 40.78100
C  -8.85900 35.40900 40.09000
C  -6.53600 39.69100 39.75200
C  -10.77700 41.84200 40.76400
C  -12.85400 37.57100 41.68400
N  -7.89300 37.66000 39.96900
C  -7.88000 36.29400 39.67600
C  -6.48300 35.95000 39.11500
C  -5.62500 37.29700 39.27300
C  -6.71300 38.29800 39.70900
C  -4.60100 37.19900 40.44700
C  -6.69500 35.49300 37.64000
C  -7.31900 36.42900 36.61000
H  -8.28600 35.87600 35.54500
N  -8.77500 40.55400 40.33900
C  -7.49100 40.76000 39.98300
C  -7.26900 42.16300 39.77300
C  -8.45400 42.85300 39.99900
C  -9.41000 41.75700 40.41600
C  -5.88500 42.77600 39.51200
C  -8.75500 44.33200 39.90900
O  -7.91300 45.13200 39.48700
C  -10.16900 44.90300 40.13000
N  -11.48700 39.55200 41.17400
C  -11.70100 40.92600 41.15200
C  -13.17700 41.29700 41.50800
C  -13.82300 39.90800 41.91900
C  -12.65000 38.93100 41.58500
C  -13.46300 42.48100 42.48300
C  -15.21200 39.57000 41.22600
C  -16.21600 38.83400 42.09200
N  -10.64100 36.87100 40.97800
C  -11.92000 36.52600 41.37900
C  -12.12400 35.21000 41.38700
C  -10.92600 34.65300 40.85200
C  -10.10500 35.73900 40.58700
C  -13.45900 34.57500 41.51100
C  -10.24400 33.40700 40.48500
O  -10.61000 32.25800 40.53400
C  -8.88000 33.88600 39.95600
C  -7.86500 33.10300 40.79000
O  -7.92900 32.78000 41.99000
O  -6.83300 32.69100 39.89600
C  -5.74900 31.81400 40.39100
H  -5.56400 39.94300 39.32300
H  -11.23400 42.82300 40.90400
H  -13.81800 37.12300 41.93200
H  -6.04200 35.12500 39.67500
H  -5.17500 37.68200 38.35800
H  -3.65100 37.54600 40.04100
H  -4.42000 36.19400 40.82800
H  -4.85300 37.79400 41.32500
H  -7.29500 34.58300 37.67000
H  -5.69500 35.22700 37.29800
H  -6.44500 36.88600 36.14700
H  -7.75700 37.21500 37.22600
H  -5.69600 43.37600 38.62100
H  -5.16300 41.96000 39.50400
H  -5.67700 43.44000 40.35100
H  -10.60600 44.68300 41.10400
H  -10.75900 44.74500 39.22700
H  -9.93200 45.96400 40.05300
H  -13.70600 41.45800 40.56900
H  -13.89900 39.79400 43.00100
H  -12.54600 43.02300 42.71300
H  -13.82600 42.02700 43.40500
H  -14.22700 43.20400 42.19700
H  -15.04700 38.88700 40.39300
H  -15.63500 40.44200 40.72700
H  -17.10900 39.45600 42.03200
H  -15.95900 38.79300 43.15000
H  -16.48800 37.83800 41.74200
H  -14.00500 34.71400 40.57800
H  -14.10200 34.94700 42.30800
H  -13.30700 33.51300 41.70100
H  -8.89900 33.50200 38.93600
H  -4.74100 32.17700 40.19100
H  -5.70500 30.84600 39.89200
H  -5.94200 31.62400 41.44600

