158

Mg 2.76000 -1.09800 44.19200
C  6.07600 -0.63700 43.45600
C  1.98100 1.39800 41.88400
C  -0.52500 -2.01400 44.54000
C  3.64600 -4.23100 45.71000
N  3.89300 0.10200 42.75200
C  5.24000 0.26600 42.79600
C  5.70600 1.54800 42.05600
C  4.38300 2.07200 41.41100
C  3.32200 1.15100 42.09000
C  4.16600 3.52800 41.75800
C  6.77900 1.30600 40.84500
C  7.67200 2.56600 40.52200
H  7.37800 3.39200 39.23900
N  0.99500 -0.17500 43.49000
C  0.88800 0.69600 42.53000
C  -0.59300 0.89500 42.26400
C  -1.28600 0.11200 43.10000
C  -0.31400 -0.75600 43.76500
C  -1.05900 1.87200 41.19800
C  -2.80600 -0.05100 43.19600
O  -3.60400 0.58800 42.50600
C  -3.50200 -1.06400 43.96600
N  1.70800 -2.84000 45.03700
C  0.34400 -2.93200 45.11000
C  -0.14200 -4.24300 45.66300
C  1.20300 -5.11800 45.84400
C  2.30000 -4.04200 45.49200
C  -0.95100 -4.01800 46.93100
C  1.35600 -6.37500 44.90700
C  2.33400 -7.50600 45.27800
N  4.44400 -2.20700 44.58900
C  4.65800 -3.37200 45.22800
C  6.08500 -3.60800 45.40300
C  6.69600 -2.53800 44.81000
C  5.64900 -1.74500 44.22900
C  6.81700 -4.75800 46.08500
C  7.94600 -1.83100 44.54800
O  9.06100 -2.13100 44.87700
C  7.59200 -0.58900 43.67000
C  7.97100 0.57600 44.41000
O  7.56100 0.69800 45.54300
O  8.68700 1.47500 43.67800
C  9.08700 2.75100 44.40900
H  1.71800 2.16700 41.15500
H  -1.55500 -2.37400 44.51100
H  3.82400 -5.19000 46.20000
H  6.19300 2.31400 42.66000
H  4.45600 1.95000 40.33000
H  4.99000 4.12200 41.36200
H  4.10400 3.63300 42.84100
H  3.23100 3.82600 41.28300
H  6.26100 0.92500 39.96500
H  7.48100 0.52500 41.13600
H  8.66200 2.11200 40.48200
H  7.75300 3.25300 41.36500
H  -0.50600 1.58500 40.30400
H  -0.88000 2.88100 41.57000
H  -2.11100 1.85000 40.91400
H  -4.52000 -0.76300 44.21300
H  -3.16400 -1.10600 45.00100
H  -3.43000 -2.07700 43.57100
H  -0.74000 -4.67700 44.86100
H  1.34500 -5.44200 46.87600
H  -2.01800 -4.15300 46.75800
H  -0.82900 -2.95700 47.14900
H  -0.70900 -4.73900 47.71200
H  1.79400 -5.98800 43.98700
H  0.34100 -6.71300 44.69900
H  1.77000 -8.42300 45.11100
H  2.42800 -7.53100 46.36400
H  3.33800 -7.46800 44.85500
H  6.21500 -5.29600 46.81800
H  7.50200 -4.16300 46.68900
H  7.31200 -5.47600 45.43200
H  7.99100 -0.67700 42.65900
H  9.03000 3.57700 43.70000
H  10.13500 2.68200 44.70000
H  8.32200 2.99800 45.14500
Mg 35.21200 1.43500 29.26500
C  33.13200 2.85800 31.67600
C  37.75300 1.49400 31.60900
C  37.36700 0.48000 26.80200
C  32.71100 1.91800 26.93500
N  35.44900 2.21900 31.31000
C  34.37900 2.53900 32.14800
C  34.87000 2.63200 33.59900
C  36.39100 2.52800 33.47400
C  36.58600 2.11100 32.04400
C  37.15200 3.84500 33.83700
C  34.14400 1.45200 34.41600
C  33.56400 2.00900 35.78000
H  34.21300 3.17300 36.38400
N  37.21500 0.89800 29.28400
C  38.05000 0.91100 30.34800
C  39.27400 0.31000 29.92200
C  39.13800 -0.06500 28.56400
C  37.87000 0.47900 28.14100
C  40.40000 0.19100 30.89600
C  40.18500 -0.76700 27.62500
O  39.98500 -1.07700 26.44100
C  41.47600 -1.31600 28.14700
N  35.16900 1.47200 27.17700
C  36.10500 0.92800 26.40200
C  35.69100 0.80500 24.98800
C  34.13200 0.91200 25.03600
C  33.97000 1.43000 26.48000
C  36.39100 1.82600 24.01700
C  33.24400 -0.43300 24.84700
C  32.18700 -0.29200 23.70400
N  33.30700 2.38900 29.19400
C  32.41600 2.46100 28.17600
C  31.16400 2.95600 28.74100
C  31.38300 3.15400 30.07100
C  32.75000 2.75100 30.30500
C  29.95300 3.13700 27.96000
C  30.81200 3.58700 31.32800
O  29.66300 3.96500 31.49000
C  31.87900 3.33200 32.37200
C  32.05100 4.62100 33.09100
O  32.61200 5.59100 32.60700
O  31.49900 4.54900 34.38100
C  31.39800 5.87200 35.02200
H  38.49100 1.34100 32.40000
H  38.00300 0.04300 26.02900
H  31.94900 1.97300 26.15500
H  34.58300 3.59500 34.02100
H  36.70600 1.63600 34.01500
H  37.83500 4.15700 33.04600
H  37.71100 3.62000 34.74500
H  36.42200 4.60700 34.10900
H  34.86100 0.64800 34.57600
H  33.38500 1.01500 33.76600
H  33.76000 1.24400 36.53100
H  32.50600 2.24500 35.66400
H  41.13400 -0.55900 30.60200
H  39.93600 0.01600 31.86700
H  40.89700 1.16000 30.95600
H  41.22500 -1.99100 28.96500
H  42.01500 -0.41300 28.43500
H  42.00400 -1.89900 27.39300
H  35.90800 -0.21700 24.67700
H  33.86400 1.74100 24.38100
H  37.16800 1.36900 23.40400
H  36.91800 2.53500 24.65600
H  35.68700 2.28900 23.32600
H  32.80200 -0.63400 25.82300
H  33.87600 -1.31300 24.72500
H  32.46200 -0.93800 22.87100
H  31.90300 0.69400 23.33800
H  31.23500 -0.62200 24.11900
H  29.76900 2.29400 27.29400
H  29.95400 4.11100 27.47000
H  29.07100 3.08200 28.59900
H  31.45600 2.53900 32.98900
H  31.01000 6.61700 34.32700
H  32.24700 6.19700 35.62400
H  30.71900 5.88900 35.87500

