158

Mg 2.35300 -1.07200 43.88500
C  5.77600 -0.39200 43.33000
C  1.51800 1.51400 41.97600
C  -0.78400 -2.27200 43.99400
C  3.38300 -4.00500 45.68900
N  3.55900 0.26500 42.58500
C  4.91400 0.50300 42.65200
C  5.31000 1.67000 41.70700
C  3.94600 2.39900 41.47400
C  2.91200 1.40100 42.08000
C  3.83500 3.79000 42.25300
C  5.96100 1.22100 40.40400
C  7.32700 1.75400 40.12800
H  7.43500 2.23300 38.67200
N  0.58200 -0.40200 43.18500
C  0.43700 0.71000 42.41600
C  -0.96200 0.95500 42.14300
C  -1.69000 -0.10700 42.70300
C  -0.65500 -0.96000 43.35700
C  -1.41700 2.09700 41.35500
C  -3.25200 -0.26000 42.75800
O  -3.97500 0.61800 42.32600
C  -3.79700 -1.48400 43.45600
N  1.40400 -2.82700 45.04400
C  0.11200 -3.11800 44.66300
C  -0.29100 -4.48500 45.14100
C  1.00800 -5.11000 45.66300
C  1.99100 -3.93500 45.49000
C  -1.51300 -4.48200 46.10500
C  1.55800 -6.43500 44.97700
C  1.90900 -7.56100 45.90700
N  4.24200 -2.02900 44.46100
C  4.46200 -3.16000 45.24300
C  5.94900 -3.34400 45.36700
C  6.49300 -2.23900 44.71200
C  5.42000 -1.48000 44.16800
C  6.62700 -4.51700 46.03400
C  7.73700 -1.53100 44.40300
O  8.91500 -1.90800 44.63800
C  7.28600 -0.23100 43.56800
C  7.68900 0.92300 44.31400
O  6.98800 1.65800 45.03500
O  9.09600 1.04000 44.23600
C  9.71800 2.03800 45.15200
H  1.26100 2.42700 41.43600
H  -1.72700 -2.81700 43.90900
H  3.58500 -4.90600 46.27100
H  5.98100 2.35800 42.22100
H  3.80600 2.57500 40.40800
H  3.12300 3.66800 43.06900
H  3.42400 4.49500 41.53100
H  4.80100 4.18100 42.57100
H  5.35800 1.38900 39.51100
H  6.02900 0.13300 40.40300
H  8.02700 0.92200 40.19800
H  7.56900 2.55100 40.83100
H  -2.46200 2.13100 41.04700
H  -0.71500 2.38100 40.57100
H  -1.31300 2.93900 42.04000
H  -4.85000 -1.31900 43.68300
H  -3.31900 -1.70000 44.41200
H  -3.61100 -2.41100 42.91400
H  -0.61300 -5.00100 44.23600
H  0.92700 -5.31700 46.73000
H  -1.31900 -4.81200 47.12600
H  -2.38500 -4.97400 45.67500
H  -1.79200 -3.45600 46.34900
H  2.44200 -6.13800 44.41400
H  0.82500 -6.74700 44.23300
H  2.98800 -7.70700 45.85100
H  1.48600 -8.52600 45.62700
H  1.72100 -7.44700 46.97400
H  7.39100 -3.96000 46.57600
H  7.09700 -5.25700 45.38600
H  5.99900 -5.03400 46.75900
H  7.85900 -0.31300 42.64400
H  9.58300 1.69500 46.17700
H  9.35100 3.06400 45.11000
H  10.78900 2.03200 44.95200
Mg 47.83700 34.80100 27.61900
C  46.16600 32.89800 30.06100
C  47.94600 37.46000 29.90400
C  49.16000 36.77000 25.25700
C  46.84500 32.46300 25.27300
N  47.24800 35.07200 29.69300
C  46.60400 34.10900 30.47200
C  46.68700 34.58300 31.96000
C  46.78100 36.15300 31.79600
C  47.38800 36.25500 30.41000
C  45.45500 37.02400 31.89200
C  48.09400 34.02400 32.48700
C  48.24100 33.44500 33.91600
H  47.40100 34.03300 35.14300
N  48.56500 36.82500 27.62500
C  48.62900 37.66800 28.67500
C  49.39500 38.82300 28.36000
C  49.77900 38.67600 27.01700
C  49.15800 37.40800 26.54100
C  49.58200 39.93500 29.26800
C  50.50300 39.61300 26.14300
O  50.75700 39.35500 24.97500
C  50.88100 40.98000 26.68900
N  48.00300 34.66100 25.55100
C  48.55000 35.60700 24.73400
C  48.42400 35.22300 23.21700
C  47.70900 33.82400 23.33600
C  47.56600 33.61100 24.78700
C  47.67100 36.22000 22.31400
C  48.34100 32.69800 22.47600
C  47.59200 32.23800 21.22000
N  46.91200 32.98600 27.64500
C  46.57500 32.14000 26.59500
C  45.90700 30.94400 27.10800
C  45.76500 31.27800 28.50700
C  46.27000 32.48800 28.72700
C  45.45700 29.76500 26.32700
C  45.13300 30.80800 29.66500
O  44.44700 29.80600 29.86400
C  45.46200 31.82600 30.76400
C  46.25800 31.15700 31.88500
O  47.40600 30.83300 31.86700
O  45.27000 30.70300 32.81100
C  45.76600 29.93200 33.97800
H  48.05400 38.28000 30.61600
H  49.52300 37.40400 24.44500
H  46.70000 31.66200 24.54400
H  45.80000 34.19800 32.46400
H  47.54400 36.49300 32.49700
H  44.58600 36.36800 31.83500
H  45.47400 37.71800 31.05200
H  45.35200 37.58100 32.82300
H  48.77800 34.87200 32.47600
H  48.46400 33.24900 31.81500
H  49.31300 33.44700 34.11500
H  47.95300 32.41200 34.10800
H  49.40700 39.68700 30.31500
H  49.07500 40.83500 28.91900
H  50.62400 40.25200 29.22700
H  51.80500 41.04100 27.26400
H  50.04200 41.50400 27.14800
H  50.89600 41.69400 25.86500
H  49.39300 34.98300 22.77900
H  46.65600 33.87700 23.05900
H  46.92700 35.77200 21.65500
H  48.36600 36.92300 21.85400
H  47.16200 36.91400 22.98300
H  48.56300 31.88100 23.16300
H  49.16400 33.19400 21.96200
H  47.87000 32.77200 20.31200
H  46.51100 32.29200 21.34800
H  47.80600 31.18400 21.04400
H  44.45800 30.08700 26.03200
H  45.50600 28.95200 27.05100
H  46.18300 29.56400 25.53900
H  44.61500 32.30900 31.25200
H  46.32900 30.59600 34.63400
H  46.37300 29.13000 33.55900
H  44.88600 29.55700 34.50100

