158

Mg 6.90100 54.12300 40.91000
C  6.55400 50.53000 40.52200
C  10.24100 53.61700 40.09900
C  7.20600 57.38800 40.25800
C  3.52400 54.34300 41.18400
N  8.19700 52.27600 40.35700
C  7.83300 50.95100 40.18900
C  9.08300 50.10200 39.72500
C  10.25900 51.06500 40.08700
C  9.56300 52.47200 40.15000
C  11.08400 50.73000 41.36600
C  8.98500 49.55200 38.26000
C  8.14400 50.25500 37.14900
H  7.25100 49.38100 36.13100
N  8.58800 55.40700 40.42700
C  9.87100 54.99400 40.17600
C  10.64700 56.18400 39.98400
C  9.77800 57.30100 39.96100
C  8.48900 56.74400 40.28800
C  12.17300 56.08200 39.76500
C  10.15000 58.77600 39.63700
O  11.30700 59.03800 39.36800
C  9.29100 59.86100 39.62100
N  5.56900 55.54900 40.55200
C  5.92900 56.89300 40.47600
C  4.69100 57.74500 40.59600
C  3.64600 56.90800 41.30200
C  4.27700 55.51700 41.04300
C  4.95900 59.19700 41.26100
C  2.24000 57.08600 40.72700
C  1.15800 57.41100 41.71200
N  5.34000 52.70100 40.89200
C  3.94200 52.97600 41.04700
C  3.22900 51.73900 41.18900
C  4.26100 50.76500 41.05000
C  5.47500 51.36700 40.83200
C  1.79600 51.58000 41.50600
C  4.49400 49.28600 41.06700
O  3.77400 48.38000 41.31000
C  5.99900 49.14300 40.65600
C  5.83400 48.43200 39.34700
O  5.45600 49.03000 38.32200
O  5.98300 47.10200 39.48300
C  5.67600 46.29800 38.29400
H  11.30800 53.44000 39.94200
H  7.28800 58.42700 39.93200
H  2.45500 54.40900 41.39300
H  9.09700 49.19000 40.32200
H  10.96800 51.12100 39.26100
H  10.67000 49.86500 41.88300
H  10.96500 51.61900 41.98600
H  12.10700 50.47900 41.08400
H  8.70400 48.50100 38.32800
H  9.98000 49.49300 37.81900
H  8.82200 50.83700 36.52600
H  7.48800 51.01000 37.58200
H  12.73400 56.69600 40.46900
H  12.44200 56.30800 38.73300
H  12.47900 55.03600 39.77100
H  9.77100 60.79600 39.33300
H  8.80700 60.02500 40.58300
H  8.54500 59.79000 38.82900
H  4.44700 57.91500 39.54800
H  3.64600 57.16300 42.36200
H  4.16400 59.32100 41.99600
H  5.02200 59.93500 40.46100
H  5.84400 59.26900 41.89300
H  1.93800 56.19400 40.17700
H  2.12100 57.89300 40.00400
H  0.75200 58.42200 41.71800
H  1.48400 57.20300 42.73200
H  0.32400 56.74900 41.48100
H  1.27400 51.76200 40.56600
H  1.49800 52.29200 42.27500
H  1.46300 50.57600 41.76900
H  6.53800 48.60800 41.43700
H  6.43600 46.40800 37.52000
H  4.74900 46.51500 37.76300
H  5.61100 45.27300 38.66000
Mg -5.89900 25.17400 26.38400
C  -4.61100 26.64500 29.38700
C  -7.66500 23.08200 28.55800
C  -6.60700 23.49400 23.65400
C  -3.93400 27.42300 24.55800
N  -6.14000 24.96200 28.75800
C  -5.53200 25.69500 29.71400
C  -6.02500 25.28200 31.12000
C  -6.70200 23.94300 30.77100
C  -6.97800 24.00400 29.31600
C  -5.85900 22.65000 31.14300
C  -6.88900 26.40200 31.68600
C  -7.27700 26.51300 33.17600
H  -6.81000 25.52700 34.26400
N  -7.16200 23.62100 26.08700
C  -7.78900 22.86400 27.06100
C  -8.73200 21.95000 26.33200
C  -8.34700 21.96000 25.02900
C  -7.31600 23.04900 24.87400
C  -9.78200 21.00200 27.06200
C  -8.86200 21.12500 23.89900
O  -8.45500 21.33400 22.78900
C  -9.94000 20.07500 24.03700
N  -5.20100 25.30400 24.45600
C  -5.67800 24.47100 23.45900
C  -5.05000 24.89300 22.08700
C  -4.50300 26.26200 22.37600
C  -4.51300 26.32900 23.92400
C  -4.27700 23.72000 21.39300
C  -5.46100 27.37800 21.76200
C  -5.21100 27.81800 20.27600
N  -4.50300 26.75700 26.86400
C  -3.79100 27.56100 25.98200
C  -2.89000 28.45300 26.72700
C  -3.20400 28.17800 28.08200
C  -4.17100 27.11300 28.09300
C  -1.82500 29.44300 26.15500
C  -2.81700 28.48100 29.46800
O  -1.91300 29.20300 29.93800
C  -3.82400 27.64100 30.37500
C  -3.00900 26.97400 31.39900
O  -2.16400 26.09100 31.26700
O  -3.42400 27.42100 32.62100
C  -2.96700 26.78800 33.78700
H  -8.19000 22.28700 29.09200
H  -6.73000 22.84900 22.78200
H  -3.38700 28.19600 24.01500
H  -5.13400 25.14300 31.73200
H  -7.64400 23.82700 31.30600
H  -5.65000 22.13800 30.20400
H  -6.48300 22.13700 31.87500
H  -4.91800 22.87400 31.64400
H  -7.76200 26.33800 31.03700
H  -6.38100 27.34700 31.49200
H  -8.36100 26.45100 33.27000
H  -6.97000 27.51900 33.46200
H  -10.80100 21.29600 26.81000
H  -9.74500 21.08900 28.14800
H  -9.69800 19.94300 26.81900
H  -9.47300 19.37000 24.72500
H  -10.13700 19.52400 23.11800
H  -10.81500 20.59300 24.43100
H  -5.91400 24.99200 21.43000
H  -3.49700 26.36600 21.97000
H  -3.21300 23.95700 21.40300
H  -4.68800 23.45300 20.42000
H  -4.37800 22.85000 22.04100
H  -5.41000 28.31700 22.31300
H  -6.50000 27.05800 21.84900
H  -4.67400 27.01400 19.77200
H  -4.49700 28.63200 20.39500
H  -6.10400 28.03400 19.68900
H  -1.43600 28.86200 25.31900
H  -1.01800 29.63000 26.86400
H  -2.25000 30.39600 25.83900
H  -4.43700 28.40400 30.85400
H  -1.90400 27.02700 33.79300
H  -3.08400 25.70800 33.69500
H  -3.38300 27.18000 34.71500

