158

Mg 1.74200 -2.00100 44.65100
C  4.89100 -0.99200 43.70800
C  0.34800 0.36100 42.50300
C  -1.29900 -3.47600 44.98300
C  3.26000 -4.82300 46.26000
N  2.62000 -0.61000 42.99400
C  3.91300 -0.27100 42.92500
C  4.12500 0.95900 41.98000
C  2.66600 1.35600 41.72500
C  1.79300 0.33100 42.47800
C  2.33000 2.83000 42.12900
C  4.91600 0.65400 40.65500
C  6.22700 1.35300 40.56000
H  6.56200 2.09800 39.21300
N  -0.27000 -1.56600 43.99300
C  -0.60700 -0.55900 43.04900
C  -2.07700 -0.42700 43.02900
C  -2.62100 -1.52900 43.80500
C  -1.43200 -2.24500 44.32600
C  -2.90100 0.60400 42.36300
C  -3.99000 -1.92200 43.99600
O  -4.90000 -1.35500 43.45400
C  -4.43400 -3.02100 44.87100
N  1.11900 -3.82900 45.54600
C  -0.24500 -4.13000 45.67800
C  -0.48200 -5.39700 46.42600
C  0.94400 -5.81500 46.81100
C  1.87700 -4.71200 46.23100
C  -1.56000 -5.49900 47.56500
C  1.34100 -7.35400 46.47000
C  1.46900 -8.26700 47.69900
N  3.75500 -2.78100 45.01600
C  4.16100 -3.85500 45.73200
C  5.58900 -3.86100 45.69900
C  6.00300 -2.70200 44.96600
C  4.81400 -2.19000 44.54600
C  6.52000 -4.80800 46.40900
C  7.07400 -1.91400 44.49000
O  8.27200 -2.01300 44.69200
C  6.43300 -0.82200 43.53400
C  6.89900 0.52200 43.94400
O  7.75100 1.22200 43.42300
O  6.13200 0.96400 45.03800
C  6.51500 2.31100 45.46900
H  -0.10500 1.17500 41.93300
H  -2.18200 -4.05800 45.25600
H  3.76000 -5.68500 46.70600
H  4.63800 1.66000 42.63800
H  2.36000 1.29300 40.68100
H  1.62900 2.74600 42.96000
H  1.84900 3.38500 41.32400
H  3.20500 3.40700 42.42800
H  4.29500 0.92300 39.80100
H  5.07400 -0.42100 40.56000
H  7.00500 0.59200 40.62700
H  6.34400 2.07200 41.37100
H  -2.28300 1.46600 42.11200
H  -3.64700 0.91100 43.09600
H  -3.43100 0.19500 41.50300
H  -3.97300 -3.09700 45.85600
H  -4.30400 -4.01700 44.44800
H  -5.51000 -2.94200 45.02900
H  -0.72800 -6.08000 45.61300
H  1.01300 -5.67600 47.89000
H  -1.15300 -5.48400 48.57600
H  -2.15500 -6.41100 47.50500
H  -2.32500 -4.73100 47.45400
H  2.11600 -7.47800 45.71300
H  0.62000 -7.89700 45.86000
H  0.90900 -9.16400 47.43400
H  1.14100 -7.89300 48.66900
H  2.49100 -8.63800 47.77600
H  7.48200 -4.32000 46.56100
H  6.67500 -5.72400 45.83900
H  6.22300 -5.03200 47.43400
H  6.70300 -1.10700 42.51700
H  7.48900 2.18000 45.94000
H  5.75000 2.57000 46.20000
H  6.57400 3.01800 44.64200
Mg 48.42200 34.10500 27.43700
C  46.36200 32.62800 29.98900
C  48.38900 36.99300 29.46500
C  49.22800 35.89200 24.78400
C  47.78200 31.28200 25.57500
N  47.58300 34.68700 29.47100
C  47.02800 33.82000 30.36600
C  47.03300 34.39200 31.78400
C  47.21200 35.96500 31.48000
C  47.73900 35.90500 30.02100
C  45.80200 36.74300 31.59300
C  48.22400 33.88300 32.62400
C  48.15500 34.21700 34.12300
H  47.03000 35.10300 34.75500
N  48.93100 36.13300 27.17900
C  48.83600 37.13800 28.12400
C  49.47100 38.35800 27.50600
C  49.67600 38.10500 26.10000
C  49.29900 36.67700 25.95300
C  49.71000 39.62100 28.30000
C  50.04600 39.01000 24.98100
O  50.28900 38.48000 23.90300
C  50.26400 40.43400 25.24400
N  48.57400 33.62200 25.47100
C  49.00100 34.53000 24.52600
C  48.96500 33.84500 23.10100
C  48.83200 32.29800 23.44500
C  48.42400 32.39800 24.93900
C  47.84500 34.48000 22.18300
C  50.04300 31.33200 23.03400
C  51.25300 31.10300 23.93900
N  47.43700 32.27000 27.65000
C  47.19400 31.30600 26.77700
C  46.41700 30.27200 27.44300
C  45.85700 30.88200 28.53300
C  46.58200 32.04200 28.72200
C  46.13100 28.90200 26.96200
C  44.96100 30.67400 29.67400
O  44.26700 29.68700 29.98600
C  45.16700 31.91300 30.63400
C  45.43900 31.38800 31.99800
O  46.47300 30.90800 32.43300
O  44.29700 31.62900 32.61200
C  44.14600 31.22300 34.03800
H  48.50300 37.86500 30.11300
H  49.35500 36.44700 23.85200
H  47.74700 30.44000 24.88100
H  46.09300 34.16500 32.28600
H  47.88500 36.54800 32.10800
H  45.67200 37.27500 30.65100
H  45.89200 37.42300 32.44000
H  44.92100 36.11400 31.72700
H  49.18500 34.26100 32.27600
H  48.32400 32.80300 32.51100
H  49.08000 34.72500 34.39500
H  48.26200 33.29000 34.68600
H  48.75600 39.88800 28.75500
H  50.05400 40.48100 27.72600
H  50.39300 39.38900 29.11800
H  49.40800 40.90400 25.72900
H  50.63500 40.92700 24.34500
H  51.07500 40.54000 25.96500
H  49.91600 33.87000 22.57000
H  47.98800 31.85700 22.91500
H  48.41100 34.69400 21.27600
H  47.47800 35.38900 22.66100
H  47.00600 33.80500 22.01300
H  50.43700 31.53100 22.03800
H  49.48900 30.39300 23.04100
H  52.10300 31.42700 23.33800
H  51.38800 30.09200 24.32300
H  51.06800 31.79000 24.76400
H  46.02300 28.13500 27.72900
H  46.88900 28.58400 26.24500
H  45.23200 28.92800 26.34600
H  44.26400 32.51900 30.56100
H  43.95900 30.15200 33.95900
H  43.21300 31.62300 34.43500
H  44.98300 31.51500 34.67300

