158

Mg 48.03800 34.91200 27.55800
C  46.28300 33.02700 29.98300
C  48.22100 37.53100 29.68000
C  49.19100 36.77800 24.98300
C  47.24500 32.28900 25.17500
N  47.38800 35.16800 29.57500
C  46.86800 34.22500 30.47100
C  47.09900 34.72000 31.96200
C  47.31300 36.30500 31.80500
C  47.71200 36.34500 30.26700
C  46.15200 37.29100 32.22600
C  48.34600 34.01100 32.54200
C  48.24100 33.55900 34.11800
H  47.56000 34.57300 34.99900
N  48.80700 36.86600 27.43500
C  48.71700 37.80500 28.40900
C  49.34100 39.00300 27.91800
C  49.70800 38.76400 26.52800
C  49.17800 37.47200 26.26300
C  49.54800 40.15000 28.85200
C  50.46000 39.64300 25.51800
O  50.66400 39.21300 24.40700
C  50.96400 41.01500 25.91200
N  48.10900 34.62600 25.44600
C  48.79400 35.45900 24.66500
C  49.00200 34.99000 23.22000
C  48.73300 33.43400 23.36300
C  47.90600 33.44900 24.73200
C  48.01200 35.71000 22.26900
C  49.93400 32.40400 23.37900
C  49.91100 31.25500 22.27900
N  47.05700 33.03900 27.53900
C  46.73800 32.15400 26.48300
C  45.99500 30.99300 27.01300
C  45.81900 31.33900 28.36300
C  46.37600 32.59600 28.61000
C  45.62500 29.68200 26.32000
C  45.18800 30.85300 29.55000
O  44.47300 29.88500 29.71200
C  45.38700 31.94900 30.72100
C  45.87900 31.20600 32.03000
O  47.05500 30.92700 32.17100
O  44.82200 31.05800 32.94700
C  45.18200 30.80100 34.31900
H  48.51700 38.30700 30.38900
H  49.69800 37.32700 24.18600
H  47.06700 31.39100 24.57900
H  46.26900 34.51000 32.63600
H  48.17000 36.57800 32.42100
H  46.37500 38.07000 32.95600
H  45.40600 36.70700 32.76600
H  45.80300 37.89200 31.38700
H  49.24200 34.63100 32.51900
H  48.53900 33.10100 31.97400
H  49.23700 33.32100 34.49100
H  47.66800 32.63500 34.03000
H  49.47500 40.99900 28.17300
H  50.55600 40.13300 29.26900
H  48.83200 40.25400 29.66700
H  51.28200 40.93900 26.95200
H  50.25000 41.83800 25.94300
H  51.89500 41.29200 25.41900
H  50.04000 35.20100 22.96500
H  48.04400 33.16000 22.56400
H  48.62400 36.41500 21.70700
H  47.25000 36.33900 22.73000
H  47.59700 35.16100 21.42300
H  50.00500 31.99000 24.38500
H  50.83900 32.94000 23.09100
H  50.65400 31.24900 21.48200
H  48.92900 31.28500 21.80700
H  49.99700 30.27900 22.75700
H  44.76000 29.80700 25.66800
H  45.35000 28.89700 27.02500
H  46.55100 29.33400 25.86100
H  44.46100 32.38000 31.10100
H  46.23600 30.72200 34.58400
H  44.56200 30.00800 34.73700
H  44.76400 31.69000 34.79200
Mg 35.75400 48.59900 25.27000
C  35.74400 46.60700 28.26900
C  34.66400 51.25200 27.15400
C  35.36700 50.32700 22.42200
C  36.73800 45.80200 23.45400
N  35.22500 48.80200 27.52700
C  35.26600 47.91100 28.52600
C  35.08100 48.59700 29.91100
C  34.63700 50.01700 29.45900
C  34.69600 50.03100 27.93500
C  33.26600 50.42700 29.93800
C  36.29700 48.57100 30.79200
C  36.09800 48.56600 32.30800
H  34.71600 48.67100 32.97800
N  35.34000 50.58200 24.83900
C  34.83800 51.51500 25.77700
C  34.63800 52.80200 25.09300
C  34.82000 52.50100 23.74700
C  35.20600 51.09900 23.61900
C  34.16400 54.06100 25.77800
C  34.80000 53.43200 22.57500
O  35.06900 53.02900 21.47300
C  34.52800 54.85900 22.76500
N  35.85000 48.08000 23.20900
C  35.78900 49.03000 22.23800
C  36.28500 48.46700 20.85300
C  36.67100 47.03100 21.22700
C  36.50500 47.00800 22.76300
C  35.22200 48.55500 19.65200
C  38.07700 46.63600 20.74700
C  39.24000 47.17700 21.52900
N  36.00600 46.55700 25.65600
C  36.54200 45.56300 24.85600
C  36.69700 44.34900 25.70800
C  36.45200 44.75700 26.96700
C  35.99600 46.08300 26.93600
C  37.16000 42.92200 25.18700
C  36.35500 44.22100 28.30500
O  36.33800 43.05900 28.59000
C  36.03600 45.39100 29.23700
C  34.90500 45.17400 30.14500
O  33.74900 45.39300 29.91800
O  35.47300 44.72900 31.30700
C  34.45700 44.56900 32.40200
H  34.33200 52.09500 27.76400
H  35.30000 50.83900 21.46000
H  37.07400 45.02300 22.76600
H  34.27600 48.07700 30.43100
H  35.42200 50.72100 29.73500
H  33.32900 51.31400 30.56800
H  32.82900 49.66800 30.58800
H  32.57500 50.73500 29.15400
H  36.98100 49.40900 30.65600
H  36.85400 47.67900 30.50500
H  36.70800 49.35000 32.75700
H  36.52100 47.64900 32.71900
H  35.02900 54.72000 25.85300
H  33.78600 53.69300 26.73200
H  33.36000 54.57900 25.25500
H  34.84300 55.46000 21.91200
H  35.10500 55.22500 23.61400
H  33.46100 55.04100 22.89100
H  37.13900 49.08000 20.56400
H  35.91600 46.34600 20.84000
H  35.10500 47.65000 19.05500
H  35.50200 49.28500 18.89300
H  34.23700 48.85200 20.01200
H  38.05700 47.11000 19.76600
H  38.13900 45.54800 20.76400
H  39.67500 46.38100 22.13400
H  38.80000 47.92700 22.18600
H  40.08000 47.59000 20.97100
H  36.73300 42.73600 24.20200
H  36.76900 42.13100 25.82800
H  38.24600 42.97300 25.26600
H  36.90900 45.62200 29.84700
H  34.17500 43.53300 32.58700
H  33.57700 45.17500 32.18900
H  34.82100 44.85500 33.38900

