158

Mg 24.64600 -6.48500 46.47200
C  26.93300 -4.22800 45.20000
C  22.41600 -5.37500 44.16800
C  22.70600 -9.14800 47.29100
C  27.38100 -8.19700 48.08900
N  24.80600 -5.08900 44.82600
C  25.72100 -4.17400 44.55900
C  25.35000 -3.21500 43.40600
C  23.82600 -3.37200 43.33100
C  23.66300 -4.75100 44.14400
C  22.91400 -2.28500 43.88300
C  26.06400 -3.65600 42.12400
C  26.79200 -2.68600 41.24200
H  26.32700 -2.62500 39.81400
N  22.65300 -7.05500 45.92100
C  21.91600 -6.44800 44.93100
C  20.67800 -7.20200 44.81000
C  20.74000 -8.26600 45.70100
C  22.05300 -8.17600 46.37200
C  19.53700 -6.92800 43.78700
C  19.73100 -9.33100 45.77400
O  18.71900 -9.25700 45.11900
C  19.85600 -10.43900 46.78900
N  25.07900 -8.50400 47.39900
C  24.04600 -9.33000 47.67800
C  24.49500 -10.57700 48.42400
C  25.99300 -10.26900 48.71800
C  26.14900 -8.87500 48.09400
C  23.66100 -11.03900 49.72500
C  27.04500 -11.33200 48.13000
C  27.52000 -12.41600 49.15100
N  26.74200 -6.28000 46.62900
C  27.68000 -6.98500 47.42100
C  28.92000 -6.20700 47.43900
C  28.68300 -5.08800 46.59400
C  27.35400 -5.23100 46.07100
C  30.13700 -6.83000 48.13400
C  29.29000 -4.01200 45.94100
O  30.46100 -3.54300 46.00400
C  28.23100 -3.36500 44.97900
C  28.06700 -1.92500 45.23200
O  28.42700 -0.97500 44.47700
O  27.36300 -1.75100 46.31200
C  27.19200 -0.39200 46.82200
H  21.72900 -4.84000 43.51000
H  22.22800 -10.09600 47.54600
H  28.13900 -8.64300 48.73700
H  25.73900 -2.21800 43.61500
H  23.40900 -3.69700 42.37800
H  23.59100 -1.57500 44.35800
H  22.27200 -2.62800 44.69400
H  22.27400 -2.00600 43.04600
H  25.42100 -4.18700 41.42200
H  26.78800 -4.39400 42.47000
H  27.85100 -2.84700 41.43900
H  26.40900 -1.74000 41.62600
H  19.73000 -6.13300 43.06600
H  18.55500 -6.63800 44.16000
H  19.28700 -7.80600 43.19100
H  20.15500 -10.07000 47.77100
H  20.73600 -10.89100 46.33100
H  19.16600 -11.28300 46.80400
H  24.45700 -11.46400 47.79100
H  26.12600 -10.18700 49.79700
H  23.38200 -10.11800 50.23700
H  24.23800 -11.61500 50.44800
H  22.89800 -11.69600 49.30800
H  27.89300 -10.78700 47.71500
H  26.67700 -11.88300 47.26400
H  27.12800 -12.48200 50.16500
H  28.61000 -12.38500 49.16500
H  27.28200 -13.36500 48.67100
H  30.89500 -6.04600 48.14400
H  30.42500 -7.70500 47.55100
H  29.93000 -6.98900 49.19200
H  28.50200 -3.36500 43.92300
H  27.51600 0.40200 46.15000
H  27.59700 -0.27500 47.82800
H  26.12500 -0.17000 46.84400
Mg -5.26600 24.89900 25.98500
C  -3.72700 26.53600 28.53700
C  -6.33900 22.44100 28.22600
C  -6.86100 23.37600 23.48500
C  -3.64300 27.13700 23.78600
N  -5.21500 24.76700 28.09900
C  -4.62900 25.56800 28.96200
C  -4.88000 25.23700 30.40400
C  -5.52000 23.79700 30.26500
C  -5.69100 23.62200 28.76700
C  -4.72200 22.68200 30.94500
C  -5.78000 26.27000 31.06900
C  -5.50700 26.78400 32.49400
H  -5.00200 25.71400 33.42300
N  -6.49100 23.17700 25.89100
C  -6.65900 22.21200 26.89800
C  -7.30700 21.09800 26.39100
C  -7.54300 21.40100 24.95300
C  -7.03300 22.76700 24.72100
C  -7.65100 19.94300 27.27700
C  -8.11900 20.38500 23.91300
O  -8.24400 20.76400 22.74300
C  -8.53300 19.02700 24.39700
N  -5.27000 25.26300 23.92700
C  -6.06900 24.48500 23.08800
C  -5.97900 24.91300 21.59200
C  -4.87400 26.02900 21.72200
C  -4.62700 26.23900 23.23300
C  -5.68300 23.81200 20.53500
C  -5.20400 27.28400 20.94800
C  -4.05900 27.86000 20.05100
N  -3.71000 26.36400 26.04200
C  -3.15700 27.15900 25.07200
C  -2.21300 28.05200 25.77300
C  -2.36600 27.84000 27.12900
C  -3.36900 26.84400 27.22400
C  -1.34200 29.06700 25.13600
C  -1.99100 28.26800 28.43900
O  -1.15000 29.11400 28.87800
C  -2.84700 27.41400 29.42100
C  -1.85400 26.72700 30.31700
O  -0.91800 26.08700 29.87800
O  -2.06700 27.12100 31.59300
C  -1.03400 26.71700 32.53200
H  -6.67000 21.83800 29.07400
H  -7.29700 22.83800 22.64100
H  -3.25700 27.90400 23.11100
H  -3.91800 25.19000 30.91500
H  -6.49500 23.71600 30.74600
H  -4.26800 23.11900 31.83500
H  -3.96100 22.23100 30.30800
H  -5.36600 21.83900 31.19600
H  -6.72000 25.75000 31.25300
H  -5.97400 27.14100 30.44300
H  -6.25300 27.39500 33.00200
H  -4.61600 27.37700 32.28900
H  -7.10900 19.08500 26.87900
H  -8.71000 19.69500 27.22100
H  -7.52800 19.87300 28.35800
H  -9.14500 18.55200 23.63000
H  -9.28100 19.15000 25.18000
H  -7.82300 18.27400 24.73800
H  -6.93300 25.38700 21.36300
H  -3.94900 25.53100 21.43100
H  -5.39900 22.87400 21.01300
H  -4.86200 24.11500 19.88500
H  -6.58500 23.77700 19.92300
H  -5.81300 28.00500 21.49200
H  -5.83800 26.88900 20.15400
H  -4.47700 28.41600 19.21100
H  -3.39100 27.17100 19.53400
H  -3.31500 28.38300 20.65300
H  -0.31400 28.92900 25.47000
H  -1.61000 30.04600 25.53400
H  -1.48800 29.08100 24.05600
H  -3.30700 28.16000 30.06900
H  -1.42400 27.28600 33.37500
H  -0.01400 27.08000 32.40500
H  -0.99800 25.64400 32.72100

