158

Mg 47.09000 15.82500 28.70700
C  44.57700 15.75900 31.33100
C  49.30000 16.95400 30.96700
C  48.88100 16.93200 26.12400
C  44.59300 14.79900 26.53700
N  46.85700 16.47400 30.89900
C  45.87600 16.23700 31.82900
C  46.42600 16.31600 33.32600
C  47.75700 17.00000 33.05600
C  48.00400 16.78300 31.53300
C  47.88900 18.45300 33.42400
C  46.40200 14.98400 34.23100
C  45.92400 15.09600 35.74100
H  45.64000 16.44800 36.38100
N  48.92800 16.64000 28.54000
C  49.71400 16.99900 29.62900
C  50.95700 17.33400 29.16100
C  50.93900 17.33500 27.74500
C  49.54700 17.00900 27.36200
C  52.10700 17.73000 30.11500
C  52.02300 17.60500 26.82700
O  51.89000 17.60500 25.60600
C  53.42400 17.85400 27.33000
N  46.71800 15.92600 26.69300
C  47.65400 16.34600 25.76700
C  47.34900 15.92700 24.35900
C  46.16500 15.00400 24.53000
C  45.77800 15.21800 26.00600
C  47.23600 17.05500 23.25900
C  46.26500 13.48300 24.15800
C  45.40600 12.85100 23.05900
N  44.97500 15.28700 28.87700
C  44.13600 14.93400 27.92700
C  42.89200 14.60200 28.41800
C  43.04100 14.90400 29.76900
C  44.29700 15.34500 30.00800
C  41.78500 14.02100 27.69900
C  42.29300 14.87400 30.97800
O  41.15300 14.49900 31.20400
C  43.36000 15.38600 32.05900
C  42.71800 16.55700 32.75700
O  42.36900 17.62300 32.22900
O  42.55600 16.34300 34.06700
C  41.84800 17.39800 34.81100
H  50.02900 17.14000 31.75900
H  49.56000 17.28400 25.34400
H  43.81800 14.39400 25.88300
H  45.81300 16.95000 33.96700
H  48.46400 16.32600 33.54100
H  47.30200 18.87200 34.24100
H  47.66400 19.04200 32.53600
H  48.94200 18.64100 33.63300
H  47.32500 14.41700 34.11200
H  45.63800 14.46600 33.65100
H  46.62700 14.46800 36.28700
H  45.01600 14.49400 35.77200
H  52.90200 16.98500 30.08300
H  51.75100 17.70400 31.14500
H  52.39000 18.77100 29.96100
H  53.34100 18.68600 28.02900
H  53.99700 18.11100 26.43900
H  53.79500 16.97800 27.86400
H  48.17000 15.23800 24.16100
H  45.29400 15.29300 23.94100
H  46.44100 16.79300 22.56200
H  48.24500 17.19200 22.87000
H  46.84300 17.97200 23.70000
H  46.17000 12.78700 24.99000
H  47.29000 13.37800 23.80200
H  45.00300 11.87400 23.32500
H  45.92500 12.71700 22.11000
H  44.56300 13.52100 22.89000
H  41.92600 13.09000 27.15100
H  41.24100 14.69400 27.03700
H  41.09000 13.67500 28.46400
H  43.44900 14.55900 32.76300
H  41.35400 18.08600 34.12600
H  42.49200 17.95600 35.49100
H  41.09900 16.93500 35.45400
Mg 41.70700 42.12700 26.00000
C  40.98700 44.36100 28.77100
C  42.71700 39.94100 28.38800
C  42.67300 40.22600 23.52300
C  40.90500 44.67400 23.84600
N  41.94300 42.19700 28.42400
C  41.49600 43.13200 29.27500
C  41.71000 42.68300 30.76300
C  42.06200 41.19000 30.57600
C  42.17100 41.06100 29.08100
C  43.25700 40.59500 31.44400
C  40.46900 43.15100 31.63700
C  40.13500 42.41100 32.94900
H  41.16800 42.67400 34.08300
N  42.47600 40.25100 25.94000
C  42.92100 39.58000 27.04800
C  43.52700 38.33300 26.62200
C  43.41100 38.35100 25.18900
C  42.83300 39.58200 24.77500
C  44.17500 37.23800 27.52800
C  43.82300 37.32700 24.12500
O  43.56800 37.52300 22.94300
C  44.51200 36.14300 24.56000
N  41.89100 42.50100 23.98900
C  42.07200 41.44400 23.10100
C  42.04600 41.88200 21.56200
C  41.14900 43.14100 21.81800
C  41.35500 43.48000 23.25900
C  43.38200 42.18400 20.84700
C  39.65300 43.03700 21.30300
C  38.85300 41.76700 21.50800
N  41.14200 44.11600 26.24500
C  40.81200 45.03100 25.22400
C  40.34900 46.30600 25.82400
C  40.42400 46.06400 27.20000
C  40.94400 44.73600 27.39300
C  39.98400 47.56000 25.08700
C  40.12600 46.69600 28.47800
O  39.60200 47.81300 28.70100
C  40.47200 45.56700 29.52400
C  41.35700 46.10600 30.57000
O  42.58600 46.24000 30.41800
O  40.64700 46.47700 31.64600
C  41.39300 46.68900 32.86900
H  42.93300 39.11200 29.06600
H  43.03900 39.68100 22.65000
H  40.58000 45.42600 23.12500
H  42.62400 43.22400 31.00600
H  41.13000 40.66600 30.78900
H  43.92700 40.01000 30.81500
H  42.83900 39.86400 32.13600
H  43.77400 41.43000 31.91700
H  39.56000 43.02500 31.04900
H  40.43900 44.19800 31.94100
H  40.00100 41.33000 32.91900
H  39.18000 42.87000 33.20500
H  45.16100 37.12500 27.07600
H  43.71600 36.26700 27.34100
H  44.10400 37.39000 28.60500
H  44.69000 35.53400 23.67400
H  43.88100 35.64800 25.29800
H  45.45100 36.47200 25.00700
H  41.47100 41.16500 20.97700
H  41.52900 44.06800 21.38800
H  43.73700 43.14300 21.22500
H  43.37700 42.12900 19.75900
H  44.14700 41.44700 21.09200
H  39.81400 43.13100 20.22900
H  39.20400 43.97400 21.63300
H  37.85500 42.10700 21.78500
H  39.37000 41.20500 22.28500
H  38.83700 41.28500 20.53000
H  39.31300 47.19300 24.31000
H  40.93900 47.92700 24.71200
H  39.64700 48.26100 25.85100
H  39.56600 45.29000 30.06400
H  41.14200 45.80800 33.45900
H  40.93000 47.50300 33.42700
H  42.45900 46.87500 32.73800

