158

Mg 17.55500 50.82900 26.63200
C  19.48200 49.27800 29.09100
C  15.21900 51.71800 28.93000
C  15.42500 51.45500 24.09300
C  19.72100 49.30700 24.14500
N  17.31000 50.39400 28.73700
C  18.35800 49.98500 29.57300
C  17.98100 50.18300 31.00000
C  16.45600 50.68800 30.88800
C  16.28900 50.99900 29.41800
C  15.43600 49.64900 31.47200
C  18.94900 51.24500 31.53700
C  18.74500 51.73400 32.95900
H  17.83700 50.89800 33.91200
N  15.74000 51.79000 26.50500
C  14.92500 52.03700 27.56800
C  13.76600 52.68400 27.13600
C  13.80900 52.64800 25.71900
C  15.05000 51.91900 25.37900
C  12.85800 53.36800 28.16700
C  12.88700 53.34100 24.76200
O  13.14400 53.54100 23.57600
C  11.60200 53.95900 25.24900
N  17.50200 50.27600 24.48200
C  16.46700 50.66300 23.70400
C  16.79800 50.46300 22.18000
C  18.25800 50.05300 22.26000
C  18.56200 49.88300 23.70100
C  15.78900 49.46200 21.45300
C  19.25100 51.04700 21.55100
C  20.24900 50.40300 20.51400
N  19.25800 49.54400 26.55200
C  20.02400 49.03300 25.53100
C  21.07700 48.18300 26.11700
C  20.93600 48.29000 27.48800
C  19.87800 49.16400 27.74200
C  22.18000 47.57000 25.20700
C  21.46200 47.77800 28.79100
O  22.41200 47.07600 29.02200
C  20.61200 48.52800 29.87800
C  20.10600 47.62200 30.95800
O  19.33400 46.69700 30.79400
O  20.73700 48.02400 32.16200
C  20.21300 47.30000 33.32400
H  14.61900 52.13400 29.74200
H  14.69500 51.54700 23.28500
H  20.42100 48.99300 23.36800
H  18.03200 49.23400 31.53400
H  16.34800 51.56500 31.52700
H  15.89300 48.83200 32.03100
H  14.97600 49.10200 30.64900
H  14.70400 50.07200 32.16000
H  18.81200 52.15000 30.94600
H  20.01400 51.05100 31.41500
H  18.34700 52.74300 32.85300
H  19.74000 51.82400 33.39500
H  13.31600 54.33500 28.37600
H  12.76800 52.83700 29.11400
H  11.83000 53.35300 27.80500
H  10.89200 53.29100 25.73700
H  11.19000 54.41000 24.34700
H  11.85800 54.77300 25.92800
H  16.73200 51.43400 21.68900
H  18.25300 49.07300 21.78200
H  14.98700 49.27900 22.16700
H  16.36100 48.56100 21.23000
H  15.43000 49.84300 20.49700
H  19.95700 51.55400 22.21000
H  18.73700 51.83300 20.99700
H  20.16400 50.76800 19.49100
H  19.95700 49.35600 20.43400
H  21.29300 50.35300 20.82300
H  23.00000 47.19600 25.81900
H  22.55300 48.34900 24.54200
H  21.70400 46.78700 24.61600
H  21.22500 49.27900 30.37600
H  20.01800 46.23600 33.19200
H  19.43000 47.84600 33.85200
H  21.13100 47.27700 33.91000
Mg -6.23100 25.40800 25.98300
C  -4.50800 26.68400 28.76900
C  -8.04200 23.52600 28.03200
C  -7.48900 24.03400 23.24100
C  -3.74500 26.94500 23.91200
N  -6.42000 25.34000 28.15300
C  -5.61700 25.85900 29.13000
C  -6.05200 25.37300 30.55000
C  -6.92100 24.13300 30.19200
C  -7.12300 24.34500 28.68200
C  -6.15800 22.73200 30.43000
C  -6.84800 26.52300 31.33600
C  -7.14200 26.24500 32.88700
H  -6.30100 25.13200 33.55000
N  -7.71700 24.08900 25.69100
C  -8.40800 23.43200 26.67400
C  -9.37900 22.56000 26.05400
C  -9.15700 22.66400 24.69500
C  -8.10900 23.65800 24.47800
C  -10.38900 21.67300 26.92100
C  -9.95500 21.97500 23.60500
O  -9.60700 22.04000 22.41200
C  -11.02000 20.95800 23.87300
N  -5.68300 25.53700 23.85800
C  -6.32200 24.68200 22.96500
C  -5.74000 24.84800 21.53500
C  -4.67300 25.95500 21.66700
C  -4.70300 26.21500 23.21500
C  -5.30600 23.49600 20.89400
C  -5.08100 27.28100 20.95000
C  -4.37300 27.54000 19.57300
N  -4.56800 26.61600 26.23400
C  -3.67100 27.10200 25.32100
C  -2.53700 27.77700 26.00900
C  -2.85000 27.66000 27.31600
C  -4.03900 26.91500 27.44400
C  -1.38100 28.49100 25.37100
C  -2.38700 28.01200 28.64500
O  -1.34400 28.54500 28.97300
C  -3.48600 27.47100 29.70100
C  -2.87700 26.59100 30.71400
O  -2.30900 25.56400 30.40900
O  -3.05200 27.05000 32.01600
C  -2.54100 26.19000 33.10400
H  -8.68100 22.88000 28.63700
H  -7.88800 23.65100 22.29900
H  -2.89000 27.40200 23.40800
H  -5.12700 25.07300 31.04200
H  -7.79800 24.15300 30.83900
H  -5.91900 22.12000 29.56000
H  -6.81600 22.10600 31.03200
H  -5.23300 22.90000 30.98200
H  -7.77900 26.60400 30.77600
H  -6.34100 27.48700 31.30800
H  -8.20300 26.06500 33.05600
H  -6.69100 27.10300 33.38600
H  -9.97800 20.66400 26.92200
H  -11.33700 21.50200 26.41100
H  -10.53500 22.08300 27.92000
H  -11.30900 20.51600 22.92000
H  -11.90800 21.45000 24.26900
H  -10.71700 20.24800 24.64300
H  -6.63700 25.21700 21.03800
H  -3.72300 25.54300 21.32700
H  -5.20900 22.79700 21.72500
H  -4.31200 23.56900 20.45200
H  -6.05600 23.14000 20.18800
H  -4.71100 28.15300 21.49000
H  -6.16800 27.32100 20.88000
H  -4.95100 27.53200 18.65000
H  -3.64500 26.74200 19.42500
H  -3.78000 28.45400 19.60600
H  -1.69300 28.86200 24.39500
H  -0.49600 27.88000 25.19400
H  -1.05300 29.35500 25.94900
H  -3.85700 28.35700 30.21700
H  -1.49900 26.50900 33.12200
H  -2.77900 25.16900 32.80600
H  -3.02500 26.40500 34.05600

