158

Mg 17.09100 -2.32600 27.17900
C  16.17700 -0.36700 29.85900
C  18.94200 -4.26200 29.31600
C  18.36000 -3.90400 24.48500
C  15.73100 0.02300 25.00100
N  17.43800 -2.34200 29.44600
C  16.97100 -1.45100 30.31400
C  17.35000 -1.84700 31.69100
C  18.51000 -2.97400 31.49900
C  18.28900 -3.22200 30.02700
C  19.96600 -2.58000 31.98200
C  16.20600 -2.30700 32.59500
C  16.19800 -1.66000 33.99400
H  17.40300 -1.05600 34.63900
N  18.29800 -3.93400 26.92500
C  18.99400 -4.61300 27.93100
C  19.83100 -5.70200 27.31000
C  19.56700 -5.62700 25.89400
C  18.69300 -4.47000 25.71100
C  20.62900 -6.66100 28.09900
C  20.17600 -6.54200 24.76100
O  19.99300 -6.29300 23.54600
C  21.08700 -7.73700 25.15200
N  16.85500 -2.11200 25.03400
C  17.59100 -2.82000 24.14300
C  17.74300 -2.14100 22.79000
C  16.55900 -1.09600 22.87700
C  16.31800 -1.04300 24.37800
C  19.13800 -1.50100 22.44800
C  15.24700 -1.46600 22.14600
C  14.93100 -0.49200 21.02100
N  15.93600 -0.59400 27.27800
C  15.52600 0.31900 26.36100
C  14.86000 1.41800 27.00900
C  15.10100 1.23900 28.35600
C  15.74100 -0.04400 28.47600
C  14.23900 2.64700 26.30400
C  14.89400 1.83200 29.68300
O  14.25200 2.82000 29.99000
C  15.52600 0.81700 30.64100
C  16.41800 1.52900 31.56500
O  17.62200 1.64000 31.32500
O  15.81000 2.06000 32.65000
C  16.72300 2.96800 33.44300
H  19.56800 -4.84600 29.99400
H  18.78300 -4.36100 23.58800
H  15.37700 0.76700 24.28400
H  17.80000 -0.91600 32.03700
H  18.23800 -3.86800 32.06000
H  19.97400 -1.56900 32.38900
H  20.73600 -2.83200 31.25400
H  20.07000 -3.16600 32.89600
H  16.22900 -3.38100 32.78300
H  15.30400 -1.98900 32.07300
H  15.94100 -2.43600 34.71500
H  15.36600 -0.96000 34.06000
H  20.82200 -6.25800 29.09300
H  21.56200 -6.92600 27.60200
H  20.00900 -7.55100 28.20700
H  20.37500 -8.33200 25.72400
H  22.00300 -7.51600 25.70000
H  21.43800 -8.30200 24.28800
H  17.44400 -2.98000 22.16200
H  16.92400 -0.12800 22.53400
H  20.03500 -2.05100 22.73100
H  19.30800 -0.55000 22.95300
H  19.07200 -1.58700 21.36300
H  14.37800 -1.57000 22.79600
H  15.37700 -2.45800 21.71300
H  13.98000 -0.01800 21.26300
H  14.70700 -1.13400 20.16900
H  15.69200 0.26200 20.82000
H  13.23500 2.35100 25.99900
H  14.85100 2.91600 25.44300
H  14.07300 3.43700 27.03600
H  14.84600 0.37400 31.36700
H  16.22600 3.14600 34.39700
H  16.71800 3.88800 32.85900
H  17.74800 2.61400 33.55600
Mg 53.35900 24.45700 45.11000
C  50.52400 26.41700 44.17300
C  51.76700 21.72400 43.72100
C  56.24600 22.67400 45.43200
C  54.87300 27.31700 46.15800
N  51.48700 24.15600 43.98900
C  50.44100 25.04800 43.83200
C  49.20700 24.44100 43.16500
C  49.47000 22.94700 43.48700
C  51.00200 22.90000 43.78300
C  48.50400 22.29100 44.52300
C  49.18500 24.77400 41.69200
C  47.68000 24.88400 41.10900
H  46.98000 23.56400 40.70000
N  53.97600 22.48200 44.52400
C  53.09100 21.51400 44.08800
C  53.74200 20.23300 44.05000
C  55.07800 20.43500 44.50000
C  55.20900 21.89100 44.75900
C  53.08100 18.89500 43.85500
C  56.13500 19.33200 44.80800
O  55.99200 18.14600 44.48500
C  57.42600 19.62500 45.39000
N  55.30400 24.94700 45.70500
C  56.26900 24.03000 45.80200
C  57.62800 24.72800 46.17900
C  57.21800 26.23200 46.38900
C  55.68000 26.14700 46.07100
C  58.14500 24.12300 47.47900
C  57.98000 27.32200 45.57300
C  58.52700 28.48500 46.47100
N  52.78100 26.43500 45.32900
C  53.56300 27.47600 45.74600
C  52.76800 28.66300 45.85800
C  51.54300 28.32000 45.18100
C  51.65800 26.91900 44.88100
C  53.13500 29.95500 46.42500
C  50.20400 28.76800 44.81600
O  49.67200 29.88700 45.01900
C  49.51000 27.62200 44.06800
C  49.17500 28.08700 42.67800
O  49.95100 28.13200 41.71400
O  47.87900 28.38200 42.63000
C  47.24500 28.48300 41.35600
H  51.26800 20.76700 43.55400
H  57.05700 22.02700 45.77400
H  55.26800 28.25500 46.55500
H  48.25800 24.72800 43.61700
H  49.27800 22.34800 42.59700
H  48.55900 21.22500 44.74400
H  47.54200 22.71000 44.22900
H  48.78300 22.69900 45.49500
H  49.64200 23.91900 41.19400
H  49.73700 25.65700 41.37100
H  47.68500 25.55200 40.24700
H  46.98100 25.18100 41.89100
H  53.67700 18.40900 43.08400
H  52.05500 18.94500 43.48900
H  53.03100 18.20500 44.69800
H  58.10300 18.77400 45.46600
H  57.37700 19.99500 46.41400
H  57.90900 20.35000 44.73500
H  58.41600 24.62900 45.43300
H  57.28500 26.56300 47.42500
H  59.12200 23.70900 47.23100
H  57.42500 23.40100 47.86100
H  58.19300 24.87700 48.26500
H  57.32900 27.77700 44.82600
H  58.80900 26.87400 45.02400
H  58.54400 29.40400 45.88400
H  59.56000 28.24500 46.72200
H  57.96300 28.54700 47.40100
H  54.01300 29.95200 47.07200
H  52.27200 30.40500 46.91600
H  53.48500 30.44100 45.51400
H  48.57100 27.25400 44.48000
H  46.59200 27.62000 41.22900
H  47.98000 28.55100 40.55300
H  46.60500 29.36500 41.35300

