158

Mg 40.68300 10.07500 29.73300
C  42.49600 10.69700 32.81400
C  38.21000 8.70600 31.79700
C  38.92200 9.28300 27.07100
C  43.44500 11.02100 27.99100
N  40.48000 9.60000 32.04300
C  41.23200 10.22300 33.01800
C  40.57800 10.07600 34.41300
C  39.30400 9.17400 34.02900
C  39.31600 9.18300 32.52100
C  39.43800 7.74500 34.59700
C  40.32700 11.36300 35.22900
C  39.72600 11.26800 36.63900
H  40.46300 11.87900 37.82600
N  38.73200 9.25600 29.49600
C  37.91100 8.72300 30.46800
C  36.71000 8.15000 29.81700
C  36.80700 8.58600 28.43400
C  38.20800 9.02900 28.26600
C  35.78100 7.33100 30.64600
C  35.71700 8.40400 27.34100
O  35.91800 8.66600 26.15900
C  34.35700 7.96700 27.67700
N  41.25300 10.02500 27.71400
C  40.23800 9.69800 26.79400
C  40.86300 9.88400 25.39000
C  42.28800 10.40200 25.67500
C  42.37200 10.52800 27.22700
C  40.86900 8.61800 24.37400
C  42.81900 11.60800 24.77900
C  42.10700 12.93800 25.09900
N  42.56000 10.72500 30.25400
C  43.63400 11.12400 29.42300
C  44.75500 11.49300 30.12500
C  44.37000 11.31700 31.50700
C  43.03900 10.83400 31.54400
C  46.01300 11.94400 29.45500
C  44.84000 11.47900 32.86100
O  45.93300 11.78800 33.29000
C  43.59000 11.20000 33.76900
C  44.00200 10.26800 34.83000
O  44.19700 9.06400 34.64900
O  43.85000 10.87100 36.05700
C  44.09800 10.02700 37.23300
H  37.50000 8.29800 32.52000
H  38.25000 9.15200 26.22000
H  44.28100 11.24500 27.32600
H  41.39000 9.52000 34.88200
H  38.39100 9.68000 34.34100
H  40.37400 7.54800 35.11900
H  39.40700 7.07000 33.74100
H  38.57100 7.60100 35.24200
H  39.62500 11.95300 34.64000
H  41.21900 11.98900 35.20700
H  39.26500 10.32300 36.92600
H  38.83300 11.88300 36.52800
H  36.40100 6.60500 31.17300
H  35.13200 6.73800 30.00200
H  35.27700 7.98500 31.35800
H  33.77100 7.98900 26.75800
H  33.89900 8.58100 28.45300
H  34.47500 6.95300 28.05800
H  40.30600 10.62400 24.81600
H  42.91700 9.52700 25.51000
H  40.33900 7.77100 24.81000
H  41.82800 8.37700 23.91700
H  40.30300 8.91600 23.49100
H  42.71100 11.43400 23.70900
H  43.86400 11.78000 25.03600
H  41.46500 13.25900 24.27800
H  42.78000 13.75400 25.36400
H  41.42300 12.79700 25.93600
H  46.74500 12.04800 30.25600
H  45.81100 12.84900 28.88200
H  46.28500 11.19000 28.71700
H  43.20700 12.10600 34.23800
H  43.50000 9.12000 37.13800
H  43.93800 10.45300 38.22300
H  45.12000 9.65200 37.18200
Mg 48.33400 25.07700 30.01200
C  49.27000 27.32100 32.35100
C  46.65900 23.27600 32.69200
C  47.53200 22.46700 27.97200
C  50.22500 26.35200 27.54300
N  47.94900 25.26200 32.23900
C  48.41800 26.33300 32.95900
C  48.09200 26.18500 34.48700
C  47.33100 24.79300 34.53200
C  47.30100 24.41500 33.08600
C  47.98600 23.75600 35.49200
C  47.21600 27.37100 34.92600
C  47.40300 27.77500 36.41400
H  46.20100 27.65500 37.42900
N  47.09000 23.24200 30.28200
C  46.47700 22.71400 31.42500
C  45.83900 21.41900 31.04200
C  45.94500 21.25100 29.63300
C  46.85200 22.36900 29.21200
C  44.91800 20.62200 32.00600
C  45.29400 20.26600 28.65500
O  45.45500 20.28800 27.45800
C  44.36100 19.28000 29.17800
N  48.75700 24.51800 27.95000
C  48.38000 23.40700 27.35400
C  48.85100 23.23800 25.90600
C  49.81300 24.48400 25.86200
C  49.52000 25.21600 27.13000
C  49.53200 21.86000 25.48700
C  49.70100 25.42500 24.60000
C  50.97600 25.45400 23.85600
N  49.59700 26.52300 29.93200
C  50.24900 27.04300 28.81500
C  50.87000 28.28500 29.33400
C  50.54800 28.41000 30.67300
C  49.72400 27.31200 30.98300
C  51.69500 29.23600 28.40700
C  50.75100 29.23600 31.83900
O  51.41000 30.28100 32.05500
C  50.09100 28.43000 33.00400
C  51.13100 28.00000 34.01400
O  51.99800 27.25200 33.79400
O  51.05400 28.68400 35.15900
C  52.09700 28.59500 36.22000
H  46.14100 22.68100 33.44700
H  47.31900 21.59600 27.35000
H  50.92900 26.84300 26.86800
H  49.04600 26.09500 35.00800
H  46.30200 24.86600 34.88500
H  48.50800 22.95000 34.97800
H  47.23200 23.25600 36.09900
H  48.66000 24.32100 36.13700
H  46.21100 26.96100 34.82600
H  47.26800 28.25400 34.29000
H  47.74900 28.80500 36.32200
H  48.26300 27.23400 36.81000
H  43.90900 20.82900 31.64900
H  44.98800 21.06000 33.00100
H  45.02700 19.53800 32.04700
H  43.46000 19.82400 29.46000
H  44.70000 18.74000 30.06200
H  44.11100 18.43900 28.53100
H  48.01300 23.38400 25.22400
H  50.85100 24.17000 25.75900
H  50.58400 22.07300 25.67700
H  49.51300 21.50600 24.45600
H  49.28800 21.05800 26.18300
H  49.40000 26.45900 24.77100
H  48.95200 24.94800 23.96800
H  51.79500 25.89700 24.42200
H  50.73700 26.03800 22.96700
H  51.35400 24.50400 23.47700
H  51.12300 29.95900 27.82600
H  52.24400 28.64500 27.67400
H  52.36500 29.78100 29.07100
H  49.47100 29.14900 33.54000
H  51.68300 28.02900 37.05400
H  52.34200 29.60300 36.55300
H  53.05000 28.17600 35.89500

