158

Mg 43.51100 3.79700 48.59500
C  41.28000 6.27500 47.67700
C  41.06300 1.47100 48.13100
C  45.93200 1.34800 48.28300
C  46.17600 6.24100 48.41500
N  41.45400 3.91800 47.81200
C  40.71900 5.06600 47.59200
C  39.22100 4.69100 47.31000
C  39.16100 3.20400 47.84800
C  40.67400 2.83100 47.93300
C  38.55400 3.01400 49.28600
C  38.93400 4.69500 45.76000
C  37.75300 5.47600 45.19800
H  37.91500 6.46200 44.07200
N  43.49400 1.69200 48.50200
C  42.33300 0.95400 48.23700
C  42.66500 -0.42900 48.28800
C  44.09200 -0.55700 48.37700
C  44.60200 0.83400 48.40300
C  41.59000 -1.53800 48.27400
C  44.85000 -1.83000 48.45000
O  44.31900 -2.89800 48.32300
C  46.33900 -1.87500 48.71700
N  45.69500 3.79500 48.36600
C  46.45200 2.67100 48.29100
C  47.95300 2.93200 48.21700
C  48.03500 4.47100 48.41800
C  46.53600 4.89300 48.46400
C  48.77900 2.10500 49.23400
C  48.85500 5.27700 47.32800
C  49.88300 6.22900 47.93700
N  43.70700 5.81200 48.21300
C  44.86000 6.61300 48.17500
C  44.43100 7.94900 48.03400
C  43.02800 7.88300 47.82000
C  42.65900 6.53400 47.90700
C  45.28600 9.22400 48.00300
C  41.76000 8.67600 47.53900
O  41.54800 9.90600 47.45700
C  40.56600 7.59700 47.44200
C  39.60400 7.93700 48.46200
O  39.54700 7.56100 49.64700
O  38.60800 8.59500 47.85500
C  37.40400 8.81100 48.55900
H  40.27900 0.73400 48.31700
H  46.66300 0.55200 48.13000
H  46.95900 6.99700 48.50400
H  38.61400 5.36600 47.91400
H  38.67900 2.48300 47.18800
H  39.30400 3.23500 50.04600
H  38.12400 2.01200 49.29000
H  37.77200 3.73800 49.51800
H  38.80200 3.63100 45.56100
H  39.78700 5.05500 45.18500
H  37.38100 6.05000 46.04600
H  37.02000 4.76400 44.81800
H  41.84100 -2.13100 47.39500
H  40.55100 -1.25200 48.43900
H  41.81900 -2.11800 49.16800
H  46.75200 -1.55400 47.76100
H  46.64000 -2.92100 48.77800
H  46.44700 -1.35800 49.67100
H  48.23400 2.62800 47.20900
H  48.30700 4.82100 49.41300
H  48.10700 1.71400 49.99800
H  49.45100 2.71900 49.83400
H  49.35700 1.30400 48.77300
H  48.18300 5.93900 46.78000
H  49.40700 4.50100 46.79700
H  49.53500 7.25300 47.80900
H  50.78000 6.14700 47.32200
H  50.09300 6.14600 49.00300
H  45.61800 9.42400 46.98400
H  46.18300 9.24300 48.62200
H  44.60300 9.99900 48.35000
H  40.16000 7.64200 46.43100
H  36.66800 9.14300 47.82700
H  37.41200 9.56400 49.34700
H  36.87200 7.92600 48.90800
Mg 36.08000 1.13800 30.68000
C  33.53600 2.46500 32.78600
C  38.29100 1.44500 33.10800
C  38.42100 0.37200 28.45100
C  33.63600 1.21900 28.09100
N  35.87700 1.84700 32.73100
C  34.73300 2.14900 33.43600
C  34.98600 2.31200 34.98800
C  36.58400 2.28900 35.03100
C  36.98300 1.89100 33.52500
C  37.18800 3.66800 35.38300
C  34.36900 1.11300 35.81500
C  33.79900 1.45000 37.16900
H  34.29500 2.69800 37.99200
N  38.08400 0.94900 30.76700
C  38.88200 1.03000 31.88600
C  40.18600 0.43300 31.66900
C  40.23200 0.25800 30.23400
C  38.89700 0.56000 29.75000
C  41.28200 0.20300 32.79200
C  41.36400 -0.20600 29.38200
O  41.25200 -0.46700 28.19100
C  42.74800 -0.35100 29.99600
N  36.10000 1.06400 28.49600
C  37.15100 0.56600 27.85900
C  36.81200 0.50700 26.38800
C  35.33000 0.40100 26.34000
C  34.96600 0.87700 27.73700
C  37.46600 1.55200 25.56200
C  34.67000 -1.04700 26.06600
C  33.43800 -0.93000 25.16000
N  33.98500 1.73800 30.38100
C  33.20700 1.73000 29.32200
C  31.91800 2.23800 29.64400
C  31.93300 2.45100 30.98500
C  33.27700 2.25000 31.40600
C  30.75500 2.44800 28.68600
C  31.20700 2.89300 32.14500
O  30.12700 3.39600 32.26300
C  32.17700 2.81900 33.38600
C  32.20800 4.07700 34.10400
O  32.95400 5.01000 33.82900
O  31.28900 4.06300 35.15500
C  31.17300 5.27900 35.97700
H  39.00900 1.47900 33.93000
H  39.06900 -0.04000 27.67500
H  32.91700 1.11300 27.27600
H  34.47800 3.18800 35.39100
H  37.08100 1.53800 35.64500
H  37.99600 3.64700 36.11500
H  36.38200 4.24700 35.83400
H  37.58300 4.19800 34.51700
H  35.15200 0.35500 35.80700
H  33.57100 0.65800 35.22700
H  33.91200 0.63700 37.88600
H  32.75300 1.60700 36.90600
H  42.12200 0.89600 32.76100
H  41.68100 -0.80600 32.68900
H  40.82400 0.12300 33.77800
H  43.45300 -0.58100 29.19700
H  42.83100 -1.06200 30.81800
H  43.04200 0.57000 30.50000
H  37.16200 -0.48200 26.09200
H  34.86000 1.19900 25.76600
H  38.20800 2.09200 26.15100
H  36.78500 2.32700 25.21100
H  37.97600 1.17700 24.67400
H  34.24900 -1.35300 27.02400
H  35.42200 -1.75600 25.72100
H  33.17300 0.09800 24.91600
H  32.61400 -1.35300 25.73600
H  33.57700 -1.43300 24.20300
H  31.03100 2.60500 27.64400
H  30.33400 3.42600 28.91700
H  29.92100 1.75000 28.76700
H  31.88400 1.95000 33.97600
H  32.11700 5.60000 36.41800
H  30.44300 5.10400 36.76700
H  30.82000 6.11800 35.37700

