158

Mg 17.37500 -2.15100 27.11500
C  16.06600 -0.22900 29.82900
C  19.35800 -3.76300 29.57400
C  18.84500 -3.68700 24.66200
C  15.66000 -0.03300 24.97100
N  17.56400 -2.04400 29.41000
C  16.92300 -1.15900 30.28400
C  17.45800 -1.34600 31.70600
C  18.64500 -2.32700 31.54000
C  18.53800 -2.77500 30.07200
C  20.07000 -1.76300 31.79200
C  16.36200 -2.05000 32.58000
C  16.39100 -1.60400 34.04100
H  17.63800 -0.85000 34.61500
N  18.78300 -3.68600 27.13500
C  19.52900 -4.18600 28.22500
C  20.24100 -5.34600 27.77700
C  20.15900 -5.29000 26.35500
C  19.32600 -4.14900 25.94300
C  20.93200 -6.38000 28.66700
C  20.73700 -6.23700 25.24800
O  20.53600 -6.07700 24.07300
C  21.47600 -7.46600 25.67500
N  17.39800 -1.70900 25.06000
C  17.99900 -2.60600 24.23800
C  17.85300 -2.15800 22.78600
C  16.61000 -1.25500 22.94300
C  16.52500 -0.95600 24.43500
C  19.12100 -1.48800 22.22800
C  15.22900 -1.75300 22.40500
C  14.42000 -0.77400 21.50300
N  16.15300 -0.41500 27.23900
C  15.44400 0.24900 26.32000
C  14.62100 1.29200 26.89600
C  14.76300 1.05600 28.28200
C  15.80400 0.08700 28.46700
C  13.60800 2.06800 26.05900
C  14.32600 1.54800 29.59100
O  13.50200 2.40800 29.88000
C  15.19100 0.76600 30.61300
C  16.08300 1.74400 31.24900
O  17.03500 2.27800 30.74400
O  15.55100 1.98900 32.47600
C  16.27800 3.00500 33.24700
H  19.99800 -4.31100 30.26900
H  19.15700 -4.19800 23.74900
H  15.04800 0.53500 24.26700
H  17.83900 -0.41800 32.13300
H  18.51900 -3.20700 32.17000
H  20.07100 -0.79300 32.29000
H  20.58000 -1.67300 30.83300
H  20.59600 -2.43400 32.47200
H  16.45700 -3.13200 32.49100
H  15.41300 -1.80100 32.10400
H  16.21400 -2.49000 34.65000
H  15.45900 -1.11200 34.32000
H  21.04900 -5.92800 29.65200
H  21.91300 -6.68100 28.30000
H  20.32700 -7.26900 28.84100
H  20.70600 -8.03700 26.19300
H  22.17000 -7.13700 26.44900
H  21.92700 -8.16300 24.96800
H  17.57100 -3.09800 22.31200
H  16.86700 -0.36300 22.37100
H  19.88100 -1.44800 23.00900
H  19.07900 -0.46900 21.84300
H  19.54100 -2.04800 21.39200
H  14.62700 -1.81200 23.31200
H  15.25400 -2.71600 21.89400
H  13.39100 -0.55200 21.78600
H  14.24100 -1.25800 20.54300
H  14.85800 0.20900 21.32900
H  12.66000 2.03900 26.59600
H  13.43000 1.57200 25.10600
H  13.74500 3.13700 25.89800
H  14.46000 0.28500 31.26200
H  15.69800 3.15100 34.15800
H  16.30000 3.98400 32.76600
H  17.27800 2.72500 33.57800
Mg 30.29600 58.96800 40.59400
C  27.31600 57.53700 39.29800
C  32.03700 56.38400 39.38100
C  33.06600 60.92500 40.91000
C  28.28900 61.94000 41.06300
N  29.73900 57.16400 39.57000
C  28.53900 56.80600 39.07900
C  28.62800 55.49300 38.27900
C  30.06200 55.03700 38.54600
C  30.68200 56.23900 39.24700
C  30.32400 53.72700 39.32900
C  28.15300 55.67200 36.77500
C  27.01800 54.75400 36.23300
H  26.13600 55.43300 35.30400
N  32.31900 58.54200 40.35900
C  32.86600 57.41700 39.92700
C  34.24500 57.43300 40.17600
C  34.62400 58.80800 40.63000
C  33.32200 59.53600 40.63300
C  35.10300 56.26200 40.07500
C  35.94300 59.27800 41.15000
O  36.94600 58.59700 41.14800
C  36.10700 60.67500 41.68300
N  30.64400 61.18400 40.73800
C  31.90600 61.65500 40.92500
C  31.89900 63.17000 41.13900
C  30.36200 63.51500 41.27100
C  29.70500 62.12900 41.07200
C  32.80000 63.86300 42.23100
C  29.92900 64.52000 40.20600
C  29.50100 65.94000 40.74600
N  28.17000 59.60900 40.45000
C  27.58000 60.78100 40.70000
C  26.11800 60.63700 40.48700
C  25.98400 59.31500 40.01700
C  27.26300 58.77700 39.97800
C  25.11400 61.73400 40.63900
C  25.05500 58.40900 39.42100
O  23.87100 58.59700 39.09900
C  25.86800 57.16100 38.95200
C  25.39500 56.02700 39.77200
O  25.55800 55.81500 40.93500
O  24.80600 55.13200 38.84900
C  24.15200 53.97400 39.39800
H  32.58200 55.48100 39.09800
H  33.82800 61.63900 41.23000
H  27.74700 62.88700 41.10500
H  27.99000 54.84500 38.88100
H  30.61400 54.81600 37.63300
H  30.92000 53.94200 40.21600
H  30.90300 53.02200 38.73200
H  29.31500 53.36300 39.52400
H  29.04700 55.32100 36.25900
H  27.88900 56.70500 36.54700
H  26.50500 54.28200 37.07100
H  27.54100 53.92800 35.75100
H  35.08700 55.87700 39.05500
H  34.87900 55.44400 40.75900
H  36.13000 56.56600 40.27700
H  37.02700 60.66400 42.26800
H  35.34600 60.62600 42.46200
H  36.07700 61.49000 40.96100
H  32.22200 63.55500 40.17200
H  30.20700 63.89400 42.28200
H  32.15500 64.33200 42.97500
H  33.36400 64.68700 41.79500
H  33.52000 63.15500 42.64100
H  29.00400 64.16100 39.75400
H  30.62700 64.60900 39.37400
H  29.58500 65.92000 41.83300
H  28.48900 66.18200 40.42200
H  30.10300 66.71500 40.27100
H  24.62800 62.06300 39.72000
H  25.51200 62.61300 41.14600
H  24.30800 61.30500 41.23400
H  25.68000 56.95000 37.89900
H  23.60000 54.31100 40.27500
H  25.00900 53.36400 39.68400
H  23.63500 53.56100 38.53300

