158

Mg -1.63200 17.33600 26.51900
C  -1.72300 14.88300 28.98000
C  -2.29400 19.72400 28.86100
C  -1.72500 19.72200 24.00800
C  -1.55400 14.84300 23.98000
N  -1.90100 17.25000 28.65600
C  -1.80100 16.16700 29.52400
C  -1.91200 16.55700 31.00700
C  -2.26700 18.07900 30.89600
C  -2.16900 18.36000 29.41300
C  -3.74600 18.37900 31.34100
C  -0.47400 16.30300 31.66400
C  -0.19500 17.15200 32.88200
H  0.24900 16.36400 34.16600
N  -1.97500 19.43700 26.49700
C  -2.17800 20.24500 27.56600
C  -2.24200 21.64900 27.22100
C  -2.15200 21.62800 25.77300
C  -1.96000 20.22000 25.35800
C  -2.50000 22.78000 28.19100
C  -2.21400 22.72900 24.83500
O  -2.22300 22.61200 23.59600
C  -2.35300 24.15900 25.30300
N  -1.69700 17.32300 24.28400
C  -1.58400 18.44800 23.50600
C  -1.62700 18.12800 21.99100
C  -1.54800 16.49600 22.06500
C  -1.56500 16.20300 23.47900
C  -2.90100 18.56500 21.24100
C  -0.33400 15.80700 21.31200
C  -0.76400 14.96000 20.07700
N  -1.71600 15.33500 26.44000
C  -1.57800 14.44200 25.33600
C  -1.62400 13.09100 25.87300
C  -1.62200 13.22000 27.26400
C  -1.70100 14.57400 27.52900
C  -1.71000 11.83700 25.07600
C  -1.53700 12.47600 28.52900
O  -1.26200 11.27600 28.62500
C  -1.46500 13.55300 29.67700
C  -0.10400 13.35900 30.16100
O  0.87100 14.07600 29.87700
O  -0.09800 12.45600 31.19800
C  1.17900 12.49400 31.97400
H  -2.39500 20.45600 29.66500
H  -1.56300 20.41300 23.17800
H  -1.43700 14.02000 23.27200
H  -2.68200 15.95600 31.49100
H  -1.60700 18.72300 31.47700
H  -4.25300 18.95000 30.56300
H  -3.72200 19.05900 32.19300
H  -4.30500 17.49500 31.64600
H  0.32300 16.29500 30.92100
H  -0.59800 15.27200 31.99500
H  -1.02200 17.75200 33.26100
H  0.65000 17.82600 32.74200
H  -1.65000 23.44100 28.36100
H  -2.71700 22.54700 29.23400
H  -3.33900 23.30200 27.73400
H  -1.68200 24.43600 26.11600
H  -3.36700 24.30100 25.67800
H  -2.31500 24.83100 24.44500
H  -0.75400 18.63800 21.58400
H  -2.47500 16.03500 21.72200
H  -2.66900 19.52400 20.77800
H  -3.79600 18.76900 21.82900
H  -3.23600 17.85300 20.48700
H  0.26200 15.13700 21.93100
H  0.28900 16.60700 20.91100
H  -0.16600 15.24200 19.20900
H  -1.81300 15.10100 19.81600
H  -0.62800 13.95100 20.46400
H  -1.54600 11.93000 24.00200
H  -2.69100 11.44100 25.33800
H  -0.85900 11.24200 25.40800
H  -2.32400 13.19200 30.24200
H  1.02200 12.84100 32.99600
H  1.94400 13.14700 31.55400
H  1.58400 11.48700 32.07900
Mg 46.76400 24.64900 28.94200
C  47.47500 26.87600 31.37800
C  45.87100 22.36900 31.41900
C  46.72200 22.21100 26.63600
C  48.43900 26.73600 26.63900
N  46.87400 24.62400 31.19300
C  47.07300 25.72400 31.94800
C  46.56300 25.51200 33.44400
C  46.41900 23.88500 33.48900
C  46.37000 23.59400 31.94100
C  47.58100 23.10400 34.19600
C  45.22100 26.18600 33.69600
C  44.91100 26.85900 34.98400
H  45.66700 26.50600 36.22700
N  46.27200 22.67500 29.03300
C  45.78600 21.91300 30.10400
C  45.30700 20.60400 29.67800
C  45.52700 20.52400 28.23200
C  46.20300 21.84900 27.90000
C  44.61800 19.60900 30.63500
C  45.23000 19.42200 27.24100
O  45.35300 19.45900 26.02100
C  44.67600 18.18400 27.75400
N  47.64100 24.51300 26.93800
C  47.39800 23.31800 26.20100
C  47.77900 23.50400 24.70200
C  48.26600 24.98500 24.67200
C  48.07500 25.46900 26.15600
C  48.79700 22.40400 24.18600
C  47.75800 25.85300 23.52000
C  46.70100 27.00500 23.80500
N  47.64400 26.51700 28.94400
C  48.29600 27.21500 27.91800
C  48.63400 28.48600 28.41300
C  48.36400 28.40400 29.75300
C  47.74000 27.16400 30.03100
C  49.28600 29.51800 27.60300
C  48.45900 29.09900 30.99000
O  48.78900 30.27200 31.20600
C  47.87400 28.14600 32.13400
C  48.97700 27.87800 33.15500
O  50.00400 27.25400 32.90600
O  48.68200 28.56400 34.30700
C  49.66900 28.35000 35.39600
H  45.50300 21.63000 32.13300
H  46.50900 21.54300 25.79900
H  48.80500 27.32400 25.79500
H  47.38300 25.75900 34.11900
H  45.53900 23.45800 33.97000
H  47.79700 22.13100 33.75400
H  47.29100 22.90100 35.22600
H  48.44900 23.76300 34.23000
H  44.41800 25.48900 33.45500
H  45.06200 27.05000 33.05200
H  43.92200 26.52800 35.30000
H  44.91200 27.93900 34.83700
H  44.20700 20.12400 31.50400
H  45.32600 18.87100 31.01100
H  43.82000 18.98400 30.23400
H  45.23000 17.94500 28.66200
H  44.47900 17.37400 27.05200
H  43.69400 18.50500 28.10200
H  46.87900 23.50900 24.08800
H  49.33800 24.89700 24.49300
H  48.46400 21.77400 23.36100
H  48.98000 21.70000 24.99700
H  49.72300 22.85600 23.83200
H  47.26800 25.22600 22.77500
H  48.64400 26.33300 23.10500
H  47.07800 27.97600 23.48600
H  46.39100 27.01900 24.84900
H  45.79300 26.85400 23.22100
H  48.84600 29.54000 26.60500
H  50.33000 29.22700 27.48800
H  49.12700 30.50400 28.04100
H  46.99800 28.53900 32.65000
H  50.48200 29.07300 35.33500
H  49.99800 27.31800 35.51600
H  49.16000 28.62400 36.32000

