158

Mg 9.11700 47.74900 25.48500
C  6.90400 48.12800 28.12600
C  11.65300 48.57800 27.63400
C  11.24100 47.05100 22.99700
C  6.38300 47.41500 23.28400
N  9.26700 48.10400 27.63800
C  8.23300 48.12100 28.55800
C  8.69800 48.37400 29.97800
C  10.12600 49.00700 29.69100
C  10.41700 48.46000 28.24100
C  10.26800 50.61500 29.87900
C  8.75100 47.12000 30.88500
C  9.06400 47.48800 32.35200
H  9.24600 46.33000 33.33500
N  11.14100 47.77300 25.32700
C  12.02700 48.24600 26.30700
C  13.34300 48.16400 25.79300
C  13.25400 47.53500 24.49400
C  11.83000 47.42300 24.22900
C  14.59500 48.50800 26.58900
C  14.41900 47.21900 23.60400
O  14.31400 46.65400 22.49000
C  15.79700 47.41700 24.04700
N  8.84800 47.36700 23.44800
C  9.87800 46.99400 22.68700
C  9.41300 46.50100 21.30200
C  7.91300 46.51200 21.42800
C  7.67400 47.21400 22.81200
C  9.99700 47.39100 20.17300
C  7.39600 45.06700 21.30800
C  6.01300 44.97500 20.72900
N  7.06900 47.93800 25.54900
C  6.02200 47.81500 24.57900
C  4.76400 48.01200 25.24800
C  5.09000 48.17300 26.57900
C  6.44600 48.06300 26.78400
C  3.38600 47.86800 24.67100
C  4.48400 48.45300 27.85700
O  3.29300 48.58800 28.08600
C  5.63600 48.32600 28.96100
C  5.46500 47.27500 29.85900
O  5.47300 46.05100 29.54800
O  5.26500 47.68700 31.10500
C  5.29800 46.71900 32.19700
H  12.40700 49.00900 28.29500
H  11.90400 46.62100 22.24200
H  5.53900 47.28200 22.60400
H  8.06200 49.10400 30.47900
H  10.93300 48.59800 30.30000
H  9.26500 51.00700 30.05300
H  10.67600 51.17000 29.03400
H  10.98500 50.85800 30.66300
H  9.54700 46.47800 30.50800
H  7.87400 46.48900 30.74200
H  8.18400 48.06600 32.63500
H  9.92600 48.14900 32.44100
H  14.38700 48.79900 27.61800
H  15.09800 49.38500 26.18300
H  15.32200 47.69900 26.67300
H  16.14000 46.88100 24.93200
H  15.83500 48.48100 24.28200
H  16.40300 47.09000 23.20200
H  9.85300 45.52900 21.08000
H  7.57300 47.24800 20.69900
H  11.03500 47.69900 20.29700
H  9.30500 48.23100 20.11400
H  9.86800 46.90800 19.20400
H  7.25800 44.78900 22.35300
H  8.09600 44.43400 20.76300
H  5.25300 44.44500 21.30200
H  6.07700 44.51200 19.74400
H  5.53100 45.93600 20.55000
H  3.24300 48.73700 24.03000
H  2.74300 47.86800 25.55100
H  3.33600 46.97500 24.04700
H  5.76500 49.29200 29.44900
H  4.34300 46.61800 32.71300
H  5.97800 47.08900 32.96400
H  5.59700 45.68100 32.05500
Mg -10.26800 17.12300 41.05300
C  -6.77500 17.14300 41.13900
C  -10.18400 20.60200 40.24100
C  -13.53800 16.90100 40.36300
C  -10.23700 13.70300 41.74300
N  -8.69800 18.63800 40.63200
C  -7.35200 18.35700 40.73300
C  -6.57800 19.68700 40.52500
C  -7.64100 20.81500 40.62600
C  -8.94700 20.01600 40.49700
C  -7.59800 21.80400 41.89100
C  -5.81700 19.66000 39.16200
C  -4.38400 19.42600 39.14300
H  -3.81000 18.45700 38.04900
N  -11.70000 18.52400 40.41900
C  -11.46500 19.92500 40.18500
C  -12.68200 20.48300 39.75800
C  -13.61100 19.45300 39.66400
C  -13.01800 18.22100 40.16700
C  -12.85200 21.99100 39.38900
C  -15.03700 19.59600 39.15100
O  -15.43800 20.69000 38.74500
C  -16.07000 18.60200 39.12800
N  -11.65800 15.47800 40.86700
C  -12.95700 15.77600 40.82000
C  -13.81000 14.47200 41.17300
C  -12.77200 13.45200 41.62600
C  -11.49600 14.23100 41.43900
C  -14.94000 14.78700 42.26000
C  -12.70500 12.07700 40.82800
C  -13.07300 10.89100 41.72900
N  -8.81300 15.62900 41.46400
C  -8.96100 14.30000 41.78400
C  -7.58000 13.76100 41.98600
C  -6.69800 14.85800 41.84100
C  -7.46600 15.95600 41.46700
C  -7.36400 12.33000 42.37700
C  -5.23900 15.27700 41.87900
O  -4.24200 14.68400 42.15100
C  -5.25300 16.83500 41.45200
C  -4.70000 17.53200 42.68500
O  -3.49600 17.65800 42.98200
O  -5.71000 18.21900 43.34900
C  -5.19000 18.96400 44.49400
H  -10.11700 21.69000 40.19300
H  -14.60200 16.67000 40.28400
H  -10.29900 12.74000 42.25400
H  -5.71500 19.76400 41.18600
H  -7.67300 21.53900 39.81200
H  -7.20300 22.71600 41.44300
H  -6.81800 21.51800 42.59600
H  -8.55900 22.05200 42.34000
H  -6.09900 20.55700 38.61000
H  -6.19200 18.79500 38.61600
H  -4.21600 18.89400 40.07900
H  -3.75200 20.30800 39.24700
H  -11.87200 22.44500 39.24400
H  -13.33200 22.40100 40.27800
H  -13.41400 22.16200 38.47100
H  -15.77300 17.79600 38.45800
H  -17.01300 19.06700 38.83900
H  -16.11400 18.20700 40.14300
H  -14.31300 14.16200 40.25700
H  -12.90000 13.17100 42.67100
H  -14.95700 15.81200 42.62900
H  -14.91000 14.06700 43.07800
H  -15.87100 14.59600 41.72500
H  -11.80300 11.85300 40.25800
H  -13.47700 12.09100 40.05800
H  -14.13300 10.64000 41.76600
H  -12.73000 11.19100 42.71900
H  -12.63700 9.98900 41.29900
H  -7.86100 12.17700 43.33500
H  -6.33400 11.97600 42.34800
H  -7.93400 11.69700 41.69600
H  -4.59600 16.93600 40.58800
H  -4.36300 19.61500 44.21200
H  -4.80800 18.29600 45.26700
H  -5.97700 19.56700 44.94800

