158

Mg 46.96300 16.79800 27.97700
C  44.98800 16.90200 30.87800
C  49.33800 18.73900 29.69200
C  48.88800 17.08800 25.15600
C  44.45400 15.26800 26.26100
N  47.19700 17.71800 30.07000
C  46.23300 17.60700 31.05200
C  46.79100 18.11100 32.39600
C  48.01300 19.02200 31.90600
C  48.20600 18.54400 30.46600
C  47.84700 20.54600 31.98700
C  47.21700 16.98400 33.39000
C  47.43000 17.40800 34.85500
H  46.87700 18.76100 35.37000
N  48.86400 17.67100 27.50900
C  49.62400 18.43200 28.35800
C  50.83700 18.88800 27.73200
C  50.74200 18.54400 26.34600
C  49.45800 17.73900 26.25700
C  51.95800 19.69200 28.47300
C  51.61800 18.86500 25.23300
O  51.33700 18.77000 24.07200
C  52.91900 19.45300 25.51600
N  46.72400 16.33000 26.06800
C  47.63200 16.48900 25.09100
C  47.04700 16.09300 23.68400
C  45.67500 15.42100 24.05200
C  45.65000 15.56200 25.59300
C  46.95700 17.19800 22.62300
C  45.41300 13.95800 23.55800
C  44.26600 13.79100 22.53100
N  45.08100 16.31100 28.39900
C  44.18700 15.58600 27.63300
C  42.99500 15.27700 28.37000
C  43.29900 15.65700 29.66900
C  44.57200 16.32400 29.65500
C  41.78300 14.55900 27.94600
C  42.87300 15.59200 31.04900
O  41.96500 14.94100 31.58000
C  43.93400 16.50400 31.87900
C  43.24000 17.69300 32.49600
O  42.66600 18.61900 31.89400
O  43.35000 17.63200 33.86300
C  42.55200 18.64000 34.63900
H  50.14500 19.25800 30.21200
H  49.39800 17.22700 24.20000
H  43.76000 14.65000 25.68700
H  46.10200 18.81600 32.86200
H  48.84000 18.67900 32.52800
H  46.86900 20.86200 32.35100
H  47.82300 21.05400 31.02300
H  48.44900 21.03900 32.75000
H  48.12200 16.60700 32.91500
H  46.52600 16.15000 33.51000
H  48.51900 17.42500 34.89800
H  46.99900 16.65700 35.51800
H  51.98200 19.76600 29.56000
H  51.65500 20.69500 28.17300
H  52.98300 19.54600 28.13300
H  52.78400 20.37700 26.07800
H  53.41900 19.54700 24.55200
H  53.50200 18.77300 26.13600
H  47.71700 15.30000 23.34900
H  44.83600 15.99200 23.65400
H  45.93600 17.57300 22.54400
H  47.36800 16.84700 21.67600
H  47.61700 18.00100 22.94900
H  45.27400 13.32100 24.43100
H  46.24700 13.56400 22.97700
H  43.87800 12.77800 22.43000
H  44.62100 14.03800 21.53000
H  43.49800 14.52900 22.76200
H  41.59600 14.97800 26.95700
H  41.01800 14.72500 28.70400
H  41.95200 13.48200 27.95300
H  44.31100 15.90700 32.71000
H  41.75300 18.99700 33.99000
H  43.10200 19.51400 34.98600
H  42.08600 18.13200 35.48400
Mg 26.94700 51.34800 26.36100
C  24.98800 52.09000 29.20100
C  29.32200 50.05400 28.70800
C  29.00600 50.67300 23.75000
C  24.64300 52.62100 24.27800
N  27.17700 51.05600 28.69300
C  26.17100 51.47600 29.57500
C  26.46700 50.98800 30.99700
C  28.03900 50.67800 30.87200
C  28.22900 50.58200 29.31000
C  29.01600 51.63500 31.57300
C  25.53700 49.87100 31.55400
C  25.02400 49.93700 32.99300
H  25.86400 50.64500 34.07800
N  28.91300 50.55300 26.21100
C  29.72300 50.03800 27.23600
C  30.91000 49.50400 26.71800
C  30.84700 49.81700 25.33100
C  29.57500 50.44000 25.03000
C  31.77800 48.64100 27.56800
C  31.90100 49.57500 24.35000
O  31.74300 49.91000 23.16500
C  33.12900 48.83900 24.64800
N  26.84300 51.56600 24.32800
C  27.76800 51.20900 23.39000
C  27.30200 51.34600 21.87300
C  25.81800 51.79400 22.07100
C  25.74400 52.08400 23.65400
C  28.18200 52.25800 21.05700
C  24.74500 50.75600 21.66400
C  23.49200 51.41600 21.01900
N  25.19100 52.24100 26.62000
C  24.36400 52.77200 25.66700
C  23.18600 53.33600 26.37300
C  23.44100 53.11500 27.75500
C  24.61000 52.42700 27.87200
C  21.99300 53.97600 25.62700
C  22.89000 53.41100 29.05700
O  21.91900 54.01000 29.41200
C  23.82300 52.57100 30.04300
C  24.23700 53.69000 30.97900
O  25.17600 54.33400 30.88900
O  23.32300 53.83900 31.95600
C  23.72100 54.73200 33.06700
H  29.93700 49.63800 29.50800
H  29.55500 50.47200 22.82700
H  23.81900 52.90000 23.61800
H  26.33500 51.89200 31.59200
H  28.17100 49.66100 31.24000
H  29.71300 51.86000 30.76600
H  29.38900 51.19300 32.49700
H  28.43100 52.50100 31.88500
H  26.15500 48.97300 31.55900
H  24.78200 49.83400 30.76800
H  24.79900 48.93600 33.36100
H  24.04800 50.40100 32.85100
H  32.68100 49.24900 27.52200
H  31.84100 47.67200 27.07100
H  31.49800 48.46000 28.60500
H  33.77200 48.75400 23.77200
H  32.72500 47.86000 24.90600
H  33.63200 49.34600 25.47200
H  27.33200 50.33700 21.46100
H  25.59700 52.77700 21.65500
H  28.71300 52.93700 21.72400
H  27.58300 52.68100 20.25100
H  28.95700 51.67200 20.56300
H  24.39000 50.22400 22.54700
H  25.14500 50.02100 20.96600
H  23.58700 51.60100 19.94900
H  23.42100 52.43900 21.38900
H  22.55000 50.97200 21.34100
H  21.73800 53.32600 24.79000
H  22.23200 54.97100 25.25400
H  21.22100 54.02400 26.39600
H  23.20400 51.98900 30.72600
H  23.85600 55.73200 32.65700
H  24.57500 54.35700 33.63200
H  22.86700 54.71300 33.74300

