158

Mg 40.10800 8.65700 29.29300
C  41.84900 9.75800 32.20000
C  37.82900 7.03900 31.45800
C  38.58400 7.58700 26.70500
C  42.87400 9.56800 27.52600
N  39.96100 8.33900 31.67600
C  40.65300 9.10000 32.60500
C  40.00800 8.85500 33.97100
C  38.76100 8.00200 33.79100
C  38.83500 7.76900 32.24100
C  38.74200 6.77300 34.66300
C  39.74400 10.18700 34.70300
C  40.01900 10.29900 36.19200
H  40.38500 11.62500 36.88100
N  38.47900 7.46100 29.13200
C  37.73800 6.83100 30.07800
C  36.60300 6.14300 29.41700
C  36.78900 6.32400 28.03300
C  37.97700 7.18200 27.92300
C  35.53400 5.44400 30.09500
C  35.92900 5.78500 26.85400
O  36.36100 5.82600 25.69200
C  34.56800 5.12500 27.13200
N  40.84800 8.23400 27.38000
C  39.89000 8.01600 26.45400
C  40.45500 8.06600 25.03600
C  41.79300 8.96400 25.29600
C  41.85200 8.95200 26.81600
C  40.89300 6.71800 24.38900
C  41.59900 10.40200 24.80200
C  40.44300 11.22400 25.27500
N  41.88900 9.57900 29.66200
C  42.94200 9.83600 28.85800
C  43.94200 10.56200 29.52800
C  43.54800 10.54000 30.83500
C  42.31200 9.90700 30.90000
C  45.19600 11.06200 28.92100
C  43.98100 10.92800 32.14700
O  44.91200 11.57300 32.54300
C  42.84500 10.41300 33.10500
C  43.34700 9.33200 34.06200
O  43.53900 8.19500 33.68400
O  43.34800 9.72100 35.38400
C  43.96800 8.91200 36.46700
H  37.01500 6.70300 32.10300
H  38.06100 7.32900 25.78200
H  43.73500 9.90500 26.94500
H  40.75000 8.30600 34.55100
H  37.84400 8.57400 33.93600
H  39.56600 6.76200 35.37700
H  38.78200 5.83300 34.11100
H  37.93200 6.76300 35.39300
H  38.69800 10.42900 34.51700
H  40.29800 11.03100 34.29000
H  40.76000 9.51800 36.36600
H  39.07100 10.19300 36.72000
H  35.79700 5.33200 31.14700
H  35.31200 4.44500 29.72100
H  34.56500 5.91900 29.94100
H  34.07300 5.88600 27.73600
H  34.74300 4.22000 27.71300
H  34.04000 4.82600 26.22600
H  39.72200 8.54600 24.38800
H  42.75000 8.58400 24.93800
H  41.89100 6.76100 23.95300
H  40.38000 6.29400 23.52500
H  40.76300 5.91800 25.11800
H  41.56100 10.24700 23.72400
H  42.52100 10.88200 25.13000
H  39.93300 10.74000 26.10800
H  39.74100 11.52200 24.49500
H  40.75200 12.20100 25.64600
H  45.64800 10.30100 28.28500
H  45.87700 11.31700 29.73300
H  44.96400 11.86200 28.21800
H  42.33900 11.12700 33.75400
H  45.01100 9.22100 36.39600
H  43.79200 7.84000 36.38400
H  43.48500 9.26300 37.37900
Mg 0.39800 43.01100 26.53700
C  2.49600 42.24600 29.21000
C  -2.24600 41.89300 28.43900
C  -1.59400 43.39600 23.89100
C  3.12300 44.02000 24.60700
N  0.18600 41.94200 28.57100
C  1.17500 41.88400 29.52300
C  0.55000 41.78000 30.88400
C  -0.96500 41.52300 30.62400
C  -1.03900 41.84500 29.09900
C  -1.54900 40.17800 30.85000
C  0.80700 43.06400 31.75200
C  1.08700 42.83600 33.27800
H  0.53000 41.59800 33.94600
N  -1.63900 42.65100 26.19600
C  -2.60000 42.25600 27.12800
C  -3.89500 42.15600 26.46100
C  -3.72100 42.53400 25.07400
C  -2.29000 42.88600 24.98400
C  -5.14400 41.75200 27.19600
C  -4.67000 42.70500 23.97000
O  -4.44400 43.22700 22.90900
C  -6.05100 42.22800 24.15900
N  0.68100 43.62000 24.55900
C  -0.32200 43.81100 23.65400
C  0.07100 44.49800 22.35100
C  1.52200 44.79300 22.73600
C  1.83700 44.11700 24.05000
C  -0.07300 43.61000 21.12800
C  2.09500 46.24400 22.42900
C  1.98200 47.29500 23.51500
N  2.40400 43.08700 26.75100
C  3.38600 43.51100 25.88400
C  4.67100 43.38900 26.55100
C  4.36800 42.89600 27.81300
C  2.94100 42.74200 27.96400
C  6.03800 43.75000 25.89700
C  4.95500 42.54300 29.05900
O  6.10200 42.34300 29.39700
C  3.74900 42.30200 30.04300
C  4.03800 41.07300 30.85200
O  3.79600 39.92500 30.49300
O  4.64300 41.41400 32.01200
C  5.03000 40.25100 32.86500
H  -3.17300 41.62700 28.95000
H  -2.26600 43.41800 23.03000
H  3.94000 44.45700 24.02900
H  1.08300 40.94000 31.33000
H  -1.60600 42.26800 31.09600
H  -1.08800 39.66100 31.69100
H  -1.28800 39.58100 29.97600
H  -2.63900 40.16700 30.89200
H  -0.09600 43.66900 31.67200
H  1.66600 43.67900 31.48400
H  0.74400 43.71800 33.82000
H  2.17500 42.86600 33.33600
H  -5.87100 42.55800 27.30000
H  -5.03600 41.40300 28.22300
H  -5.61900 40.91500 26.68400
H  -6.42200 42.19100 23.13400
H  -6.61900 42.96500 24.72800
H  -6.05400 41.21300 24.55400
H  -0.53800 45.38600 22.17900
H  2.15000 44.04400 22.25400
H  0.88600 43.29400 20.71800
H  -0.66100 44.14300 20.38100
H  -0.65800 42.71400 21.33900
H  1.51800 46.61400 21.58200
H  3.05400 46.03300 21.95400
H  1.75400 46.90800 24.50800
H  1.36600 48.16000 23.27200
H  3.05400 47.47100 23.60600
H  6.25500 43.02400 25.11300
H  6.73100 43.64800 26.73200
H  6.01700 44.74300 25.44700
H  3.64400 43.05600 30.82300
H  5.00500 40.54400 33.91400
H  6.10500 40.09500 32.77300
H  4.54200 39.31100 32.60700

