158

Mg 0.26700 7.93200 26.81100
C  1.20800 9.92900 29.56600
C  -0.26600 5.44100 29.06300
C  -0.46300 6.00600 24.15700
C  0.77900 10.60800 24.67200
N  0.44900 7.74500 29.06700
C  0.75000 8.70100 29.98900
C  0.71500 8.08700 31.42600
C  0.57100 6.52400 31.15900
C  0.12600 6.57500 29.67500
C  1.83500 5.68900 31.40200
C  -0.39600 8.70100 32.40800
C  0.08500 8.59400 33.88200
H  -0.59000 7.46100 34.76800
N  -0.26800 6.02100 26.66300
C  -0.38000 5.11700 27.66900
C  -0.75100 3.84000 27.09800
C  -0.73400 3.94300 25.66500
C  -0.41700 5.38300 25.42300
C  -1.15300 2.74200 27.99200
C  -1.05200 2.93400 24.61700
O  -0.97400 3.21400 23.41900
C  -1.49000 1.53200 24.92800
N  0.33600 8.28300 24.69000
C  -0.17100 7.30700 23.82800
C  -0.34100 7.85600 22.36500
C  -0.13000 9.37000 22.65100
C  0.43900 9.43300 24.09300
C  0.68900 7.30400 21.43600
C  -1.40400 10.18500 22.37600
C  -1.52500 10.66100 20.90100
N  1.03800 9.82000 27.00700
C  1.19600 10.83400 26.03100
C  1.68800 12.02200 26.68700
C  1.84800 11.72600 28.08800
C  1.31300 10.41700 28.21200
C  1.90700 13.46300 26.02800
C  2.12600 12.23200 29.38800
O  2.56500 13.34900 29.70600
C  1.67100 11.17600 30.41700
C  2.75900 10.89400 31.37900
O  3.75200 10.27800 31.15500
O  2.43700 11.40700 32.57900
C  3.25100 11.13700 33.70800
H  -0.49200 4.54800 29.65000
H  -0.72500 5.51000 23.22000
H  0.77500 11.46300 23.99200
H  1.68900 8.34100 31.84500
H  -0.24500 6.11000 31.75100
H  1.51400 4.84200 32.00900
H  2.63100 6.17900 31.96400
H  2.24500 5.31800 30.46300
H  -1.30100 8.10800 32.27500
H  -0.66200 9.72600 32.15100
H  0.01600 9.61600 34.25600
H  1.15600 8.45800 34.03000
H  -2.19500 2.93300 28.25200
H  -0.52900 2.71500 28.88600
H  -1.24700 1.72000 27.62700
H  -1.70600 1.03100 23.98400
H  -2.41800 1.65100 25.48700
H  -0.69100 1.11100 25.53900
H  -1.31300 7.72600 21.88900
H  0.71600 9.65700 22.02600
H  0.94700 8.09700 20.73400
H  0.31000 6.51000 20.79200
H  1.56300 7.04800 22.03500
H  -1.43400 10.98900 23.11200
H  -2.27100 9.53300 22.48800
H  -2.37800 10.12500 20.48400
H  -0.59200 10.52200 20.35500
H  -1.81900 11.70700 20.81900
H  1.01100 14.06700 25.88500
H  2.33100 13.34400 25.03000
H  2.59300 14.06200 26.62600
H  0.82400 11.46700 31.03700
H  3.93400 10.29700 33.57700
H  2.54600 10.80000 34.46800
H  3.79000 12.05200 33.95600
Mg 35.36300 3.01500 29.92100
C  33.13500 4.24500 32.43500
C  37.90900 3.44300 32.11100
C  37.44100 2.01400 27.47600
C  32.75400 2.93200 27.69400
N  35.47100 3.90500 32.03700
C  34.39000 3.93900 32.88000
C  34.86800 3.90500 34.38200
C  36.44700 3.69200 34.21800
C  36.65500 3.72100 32.68500
C  37.30700 4.73600 34.86000
C  34.10200 2.84600 35.19100
C  33.42300 3.34900 36.48100
H  34.13600 4.44000 37.24200
N  37.40500 2.65200 29.84300
C  38.30400 2.96000 30.80400
C  39.67100 2.73000 30.42900
C  39.53600 2.37800 29.03400
C  38.09500 2.35800 28.70700
C  40.81500 2.88900 31.43400
C  40.57200 1.82600 28.12000
O  40.35000 1.50600 26.99600
C  42.02000 1.72300 28.61100
N  35.13100 2.54900 27.80700
C  36.08300 2.10200 27.03200
C  35.57700 1.88800 25.63800
C  34.00400 1.72100 25.85800
C  33.93700 2.41800 27.23000
C  35.99700 3.03700 24.75000
C  33.59900 0.21000 26.00200
C  32.43100 -0.28000 24.97400
N  33.46100 3.58600 29.95100
C  32.50300 3.48500 28.95500
C  31.28400 4.06400 29.37600
C  31.53500 4.39300 30.73500
C  32.85200 4.02900 31.02000
C  29.99200 4.19100 28.60500
C  30.78200 4.78500 31.91000
O  29.60300 5.12100 32.17300
C  31.82600 4.63800 33.07100
C  31.97400 5.81700 33.87300
O  32.69400 6.75700 33.49800
O  31.21200 5.80300 34.99900
C  31.18500 7.09500 35.70600
H  38.65500 3.30100 32.89700
H  38.06600 1.52700 26.72400
H  31.91400 2.82500 27.00500
H  34.65600 4.87600 34.82900
H  36.60700 2.64700 34.48500
H  38.02900 4.14800 35.42600
H  36.65600 5.33800 35.49300
H  37.79500 5.36500 34.11600
H  34.82100 2.07200 35.46000
H  33.42800 2.34100 34.49900
H  33.34300 2.47800 37.13200
H  32.41000 3.70700 36.30100
H  40.64600 3.61600 32.22700
H  41.70400 3.27500 30.93600
H  40.93500 1.87100 31.80400
H  42.07700 1.01000 29.43400
H  42.41500 2.70300 28.87800
H  42.49200 1.39300 27.68600
H  35.86600 0.93800 25.18800
H  33.67700 2.20200 24.93600
H  35.12200 3.51800 24.31400
H  36.60500 2.77800 23.88300
H  36.52300 3.82900 25.28300
H  33.11600 0.07100 26.96900
H  34.43100 -0.49300 26.03600
H  32.61800 -1.31800 24.69700
H  32.44100 0.18700 23.98900
H  31.43100 -0.21500 25.40300
H  29.79700 3.20900 28.17400
H  30.09700 4.90700 27.79000
H  29.16000 4.54200 29.21500
H  31.40800 3.88700 33.74100
H  30.78500 7.88600 35.07100
H  32.23100 7.28700 35.94100
H  30.70100 7.03700 36.68100

