158

Mg -3.37500 17.15900 26.70200
C  -3.75000 14.95900 29.31500
C  -3.48500 19.76300 28.87400
C  -3.30500 19.33600 24.10700
C  -3.72400 14.51300 24.50700
N  -3.65700 17.21600 28.84000
C  -3.70700 16.22200 29.74400
C  -3.66100 16.75100 31.26300
C  -3.61300 18.28800 31.06900
C  -3.60600 18.45900 29.48800
C  -4.74700 19.11600 31.73500
C  -2.43800 16.14400 32.08500
C  -1.88400 16.95800 33.28300
H  -1.49000 16.29500 34.60800
N  -3.23100 19.19300 26.53000
C  -3.30500 20.12900 27.52300
C  -2.96100 21.44200 26.96500
C  -2.73900 21.28200 25.55800
C  -3.07200 19.85200 25.36800
C  -2.74100 22.69200 27.80200
C  -2.17900 22.16700 24.46900
O  -2.02900 21.77500 23.36700
C  -1.67900 23.59500 24.82000
N  -3.72600 16.92200 24.61400
C  -3.56100 18.00500 23.77000
C  -3.63400 17.54100 22.31500
C  -3.83600 16.03300 22.46000
C  -3.68900 15.78900 23.97100
C  -4.76300 18.24700 21.51200
C  -2.77700 15.21800 21.67200
C  -1.24100 15.23700 22.11900
N  -3.59300 15.09500 26.79400
C  -3.80900 14.17000 25.88600
C  -3.90900 12.86800 26.43100
C  -3.75800 13.06100 27.81200
C  -3.69600 14.48100 27.96200
C  -4.15100 11.54200 25.77300
C  -3.67000 12.45500 29.05300
O  -3.63700 11.24900 29.19600
C  -3.84900 13.66700 30.13200
C  -2.74800 13.37700 31.03700
O  -1.60000 13.63300 30.70200
O  -3.16200 12.72300 32.14700
C  -2.08800 12.35000 33.14600
H  -3.47900 20.68400 29.46100
H  -3.54000 20.05300 23.31800
H  -3.84100 13.58300 23.94800
H  -4.59800 16.46100 31.73900
H  -2.69800 18.79100 31.38300
H  -5.22400 19.76200 30.99800
H  -4.39000 19.88000 32.42600
H  -5.39700 18.45900 32.31200
H  -1.60500 15.91400 31.42000
H  -2.73300 15.21700 32.57600
H  -2.59000 17.73400 33.58000
H  -1.00400 17.46800 32.89300
H  -3.29600 23.54300 27.40800
H  -1.68700 22.96800 27.83500
H  -3.12000 22.55500 28.81500
H  -0.74600 23.57600 25.38200
H  -2.52100 24.08800 25.30600
H  -1.44300 24.15600 23.91600
H  -2.68200 17.84900 21.88200
H  -4.82500 15.64600 22.21300
H  -5.29600 19.00400 22.08800
H  -5.45600 17.56700 21.01700
H  -4.25100 18.79400 20.72100
H  -2.79800 15.67700 20.68400
H  -3.20800 14.21700 21.64700
H  -1.04300 15.93500 22.93300
H  -0.70800 15.69400 21.28600
H  -0.77800 14.27000 22.31800
H  -3.18000 11.11500 25.52200
H  -4.76500 11.67000 24.88100
H  -4.65800 10.90200 26.49500
H  -4.84700 13.65400 30.57000
H  -1.83100 11.30300 32.98400
H  -2.55700 12.56400 34.10700
H  -1.16700 12.92800 33.06700
Mg 36.62400 49.67700 25.43400
C  36.80300 47.68300 28.40800
C  35.06800 52.07000 27.29600
C  36.12000 51.29700 22.59100
C  38.24200 47.12800 23.71000
N  36.00200 49.85500 27.61400
C  36.23900 48.96200 28.62100
C  35.95100 49.61100 29.98800
C  35.17900 50.90800 29.64200
C  35.46300 50.98600 28.12300
C  33.66600 50.89100 30.01000
C  37.22100 49.88500 30.85500
C  37.10100 49.84200 32.43100
H  35.68600 49.88400 33.08900
N  35.80100 51.45600 24.96200
C  35.22300 52.27100 25.89600
C  34.76300 53.46400 25.17000
C  34.96200 53.29900 23.73300
C  35.64700 51.98600 23.69900
C  34.22700 54.68600 25.88000
C  34.64400 54.21900 22.60500
O  34.85400 53.96400 21.43800
C  33.97600 55.54100 22.78100
N  37.08600 49.23300 23.42400
C  36.75600 50.05100 22.38600
C  37.16300 49.42100 20.98300
C  38.12000 48.25200 21.43800
C  37.85400 48.18600 22.93400
C  36.00500 49.03900 20.03900
C  39.52800 48.40600 20.91300
C  40.54100 48.92400 21.86400
N  37.30800 47.78800 25.86500
C  37.93600 46.93500 25.11900
C  38.24900 45.69300 25.86900
C  37.86000 46.01600 27.12400
C  37.24800 47.25700 27.11600
C  38.77600 44.43000 25.22800
C  37.77300 45.48600 28.42400
O  38.25700 44.41800 28.86400
C  37.19900 46.58100 29.29800
C  36.22700 45.96400 30.23500
O  35.05600 45.79800 30.06100
O  36.86400 45.55500 31.40200
C  36.01800 44.98900 32.45300
H  34.45900 52.78300 27.85700
H  35.97500 51.84300 21.65600
H  38.76700 46.34500 23.15900
H  35.32300 48.89000 30.51200
H  35.59500 51.78300 30.14200
H  33.14100 50.97100 29.05800
H  33.35000 51.76000 30.58800
H  33.34400 49.93800 30.43000
H  37.59100 50.88200 30.61500
H  38.02600 49.17900 30.65400
H  37.74400 50.61800 32.84700
H  37.69800 49.00000 32.78200
H  33.34500 55.07000 25.36800
H  34.97900 55.44600 26.09400
H  33.75200 54.37500 26.81000
H  33.74600 55.92800 21.78900
H  34.55200 56.28600 23.33000
H  32.98300 55.32900 23.17800
H  37.70500 50.23900 20.50900
H  37.65100 47.36200 21.01700
H  35.40900 48.26800 20.52700
H  36.43500 48.55800 19.16100
H  35.31700 49.83800 19.76600
H  39.58100 49.00500 20.00400
H  39.88100 47.40100 20.68200
H  40.15100 49.74300 22.46700
H  41.41300 49.32800 21.34900
H  40.80000 48.06600 22.48400
H  38.17700 44.17300 24.35400
H  38.58400 43.68200 25.99700
H  39.82700 44.63700 25.02100
H  38.03900 46.91000 29.91000
H  35.47200 44.08000 32.20000
H  35.21400 45.68100 32.70300
H  36.61200 44.85000 33.35700

