158

Mg 7.38700 53.97900 41.96600
C  6.72600 50.34800 41.57800
C  10.55800 53.38300 41.03000
C  7.81300 57.27600 41.91800
C  3.89300 54.45600 41.87500
N  8.42400 52.07800 41.28500
C  8.09700 50.74600 41.22300
C  9.35600 49.87700 41.14100
C  10.51700 50.86400 41.32700
C  9.78800 52.23100 41.21900
C  11.24400 50.73800 42.73100
C  9.40900 49.13100 39.74900
C  9.10300 50.08800 38.52800
H  8.05300 49.56900 37.53600
N  8.98800 55.21600 41.54400
C  10.21300 54.80600 41.14200
C  11.16200 55.92900 40.99200
C  10.37600 57.09800 41.29800
C  8.99800 56.61700 41.62800
C  12.61600 55.83500 40.53400
C  10.94000 58.52700 41.36100
O  12.08400 58.77300 41.05100
C  10.09700 59.72700 41.81200
N  6.11300 55.55300 41.79800
C  6.50900 56.86600 41.97700
C  5.39000 57.85800 41.83500
C  4.11100 56.97100 41.91500
C  4.73400 55.58400 41.77700
C  5.29800 59.13000 42.72600
C  3.09500 57.21900 40.78600
C  1.63400 57.16800 41.22500
N  5.65600 52.65400 41.93600
C  4.27500 53.01700 41.97300
C  3.50700 51.75900 42.16800
C  4.41600 50.71300 42.05800
C  5.65900 51.29300 41.78900
C  2.03400 51.72700 42.54900
C  4.62900 49.26800 42.06300
O  3.83300 48.37300 42.45100
C  6.09000 48.95500 41.59800
C  6.03700 48.22500 40.30500
O  5.38100 48.61300 39.35900
O  6.59800 46.93800 40.51400
C  6.31900 45.99800 39.36500
H  11.61500 53.11100 41.00000
H  7.83000 58.35500 42.08500
H  2.84000 54.71600 41.99800
H  9.26500 49.00500 41.78800
H  11.28700 50.74600 40.56500
H  12.29300 50.47000 42.60600
H  10.79400 50.21400 43.57500
H  11.31200 51.75500 43.11600
H  8.89700 48.16900 39.77600
H  10.43400 48.76400 39.68900
H  10.02900 50.19800 37.96300
H  8.87700 51.10000 38.86400
H  12.74200 54.95500 39.90200
H  13.28500 55.73800 41.38900
H  13.00500 56.69400 39.98700
H  9.33800 59.86100 41.04000
H  10.67900 60.64900 41.79600
H  9.69000 59.47000 42.79000
H  5.43100 58.30600 40.84200
H  3.69000 56.89600 42.91800
H  6.21400 59.16600 43.31600
H  4.45800 58.98400 43.40600
H  5.20200 59.95200 42.01700
H  3.14400 56.61300 39.88100
H  3.25700 58.24200 40.44800
H  1.08800 56.44400 40.62000
H  1.13700 58.10600 40.97700
H  1.50000 57.02100 42.29700
H  1.72300 52.76600 42.65900
H  1.71700 51.27900 43.49000
H  1.48500 51.25700 41.73300
H  6.49400 48.33300 42.39600
H  5.88800 45.07700 39.75800
H  7.27300 45.70200 38.92600
H  5.66800 46.36700 38.57200
Mg -1.37300 34.64100 26.79800
C  -3.14500 33.06700 29.19900
C  -0.42600 37.06300 29.10700
C  -0.45600 36.70700 24.27600
C  -2.66900 32.28700 24.49700
N  -1.80000 35.05600 28.87500
C  -2.45300 34.14800 29.69500
C  -2.30000 34.54300 31.20600
C  -1.66000 35.92500 31.13500
C  -1.28300 36.00600 29.63900
C  -2.62400 37.14900 31.60000
C  -1.44200 33.50200 32.01000
C  -2.21700 32.73200 33.10800
H  -1.34400 32.62900 34.47200
N  -0.49500 36.55500 26.75300
C  -0.05000 37.34900 27.76700
C  0.64100 38.42400 27.26500
C  0.61300 38.45300 25.84200
C  -0.14000 37.16900 25.54000
C  1.38100 39.37600 28.25200
C  1.05700 39.45600 24.84300
O  0.99700 39.40900 23.62100
C  1.70400 40.65700 25.41100
N  -1.51900 34.52700 24.71000
C  -0.98500 35.44600 23.82600
C  -1.05600 34.96600 22.32600
C  -1.57600 33.42900 22.48100
C  -2.03200 33.41100 23.97200
C  -1.99900 35.98700 21.52100
C  -0.56600 32.29500 22.05500
C  0.50100 31.95600 23.02100
N  -2.54800 32.97700 26.82400
C  -3.02100 32.11600 25.80300
C  -3.83500 31.06600 26.34200
C  -3.90700 31.34100 27.72800
C  -3.18400 32.59800 27.92500
C  -4.60500 30.07000 25.54800
C  -4.41300 31.02400 28.97500
O  -5.04300 29.98000 29.27300
C  -3.99600 32.07200 29.94200
C  -5.17100 32.66300 30.68800
O  -5.91900 33.51200 30.26200
O  -5.30300 32.11600 31.91500
C  -6.53100 32.39800 32.65400
H  -0.07500 37.75400 29.87600
H  -0.06500 37.21000 23.38900
H  -3.18200 31.64100 23.78200
H  -3.29800 34.62000 31.63800
H  -0.79900 36.04400 31.79300
H  -3.67800 36.97700 31.81800
H  -2.58300 37.93300 30.84300
H  -2.19700 37.64900 32.46900
H  -0.52500 33.85900 32.47900
H  -1.01700 32.71800 31.38300
H  -2.43600 31.69200 32.86500
H  -3.13400 33.28900 33.29600
H  2.32000 39.66200 27.77700
H  1.58000 39.14800 29.30000
H  0.77300 40.27900 28.28300
H  1.64900 41.34800 24.57000
H  2.72600 40.33400 25.61300
H  1.15400 40.96700 26.30000
H  -0.09800 35.08300 21.82000
H  -2.43500 33.27900 21.82700
H  -2.90900 35.39400 21.43600
H  -1.57400 36.09300 20.52300
H  -2.21800 36.90600 22.06700
H  -0.11200 32.70300 21.15200
H  -1.13700 31.39000 21.84500
H  0.38000 32.50700 23.95400
H  1.43600 32.29000 22.57200
H  0.55000 30.88200 23.19700
H  -4.13000 29.76100 24.61700
H  -5.52800 30.55700 25.23500
H  -4.88100 29.24400 26.20300
H  -3.34300 31.70800 30.73500
H  -6.28400 32.94100 33.56600
H  -6.97700 31.53900 33.15500
H  -7.31300 32.78000 31.99700

