158

Mg 24.59600 -6.99900 46.98900
C  26.95600 -4.50900 45.86700
C  22.21700 -5.39500 45.13800
C  22.65900 -9.57100 47.62900
C  27.37200 -8.72000 48.22300
N  24.66800 -5.08900 45.67800
C  25.69200 -4.35800 45.26100
C  25.33500 -3.33300 44.13600
C  23.76500 -3.56200 44.03700
C  23.54800 -4.76700 44.99600
C  22.95000 -2.30900 44.40500
C  26.11800 -3.56400 42.79000
C  27.14600 -2.45100 42.19900
H  27.04400 -2.04300 40.62800
N  22.64900 -7.40300 46.58000
C  21.83200 -6.60800 45.80100
C  20.56700 -7.21600 45.71600
C  20.62400 -8.38900 46.50500
C  21.99000 -8.51700 46.97200
C  19.32900 -6.62800 44.97500
C  19.53100 -9.39400 46.65800
O  18.37700 -9.12500 46.26800
C  19.70400 -10.80400 47.30400
N  24.96200 -8.88600 47.78200
C  23.95600 -9.79000 48.01700
C  24.52200 -11.05900 48.70100
C  26.09000 -10.81200 48.63800
C  26.13500 -9.41100 48.13900
C  24.06400 -11.16700 50.14300
C  26.94700 -11.84500 47.84300
C  27.32300 -13.13900 48.61400
N  26.71000 -6.66000 47.16700
C  27.71300 -7.44700 47.74600
C  28.94200 -6.80800 47.80300
C  28.67700 -5.62700 47.06100
C  27.34100 -5.58100 46.65900
C  30.23400 -7.24300 48.36700
C  29.25400 -4.40600 46.55400
O  30.27800 -3.83700 46.83300
C  28.20400 -3.69100 45.65000
C  27.99200 -2.36400 46.33000
O  27.50700 -2.06100 47.37700
O  28.32000 -1.43200 45.39900
C  28.02900 -0.06200 45.68200
H  21.44400 -4.96700 44.49600
H  21.93800 -10.33100 47.93500
H  28.26500 -9.27800 48.51400
H  25.61100 -2.37200 44.57000
H  23.41100 -3.88700 43.05900
H  23.33800 -1.53300 43.74500
H  23.02700 -2.10000 45.47200
H  21.88300 -2.37900 44.19300
H  25.35200 -3.80200 42.05200
H  26.70000 -4.45900 43.01200
H  28.16400 -2.81000 42.35000
H  27.14600 -1.50100 42.73400
H  19.16800 -7.05800 43.98700
H  19.42500 -5.56000 44.77700
H  18.43600 -6.71900 45.59300
H  18.75900 -11.31900 47.13000
H  19.76500 -10.67400 48.38400
H  20.50300 -11.39000 46.84900
H  24.29800 -11.93400 48.09000
H  26.61300 -10.87900 49.59200
H  24.39100 -12.11400 50.57200
H  22.97600 -11.22800 50.16000
H  24.35500 -10.28100 50.70800
H  27.90400 -11.45700 47.49600
H  26.41200 -12.16600 46.94900
H  26.75600 -13.27200 49.53600
H  28.37800 -13.16800 48.88500
H  27.05900 -13.91900 47.90000
H  30.74700 -6.32000 48.63600
H  30.75700 -7.73000 47.54300
H  30.13800 -7.95700 49.18500
H  28.61800 -3.62800 44.64400
H  26.99800 0.23200 45.48600
H  28.66400 0.53700 45.02900
H  28.33000 0.17000 46.70300
Mg -5.46000 25.40600 25.54200
C  -3.55800 26.91100 28.19500
C  -6.64800 23.09400 27.82700
C  -6.93400 23.73600 23.08700
C  -3.80100 27.52000 23.30400
N  -5.00200 24.97000 27.67100
C  -4.34100 25.81100 28.55200
C  -4.68800 25.48300 30.02100
C  -5.38200 24.10600 29.96800
C  -5.71700 23.99300 28.40500
C  -4.44500 22.87400 30.29200
C  -5.66400 26.49900 30.68600
C  -5.23600 26.96100 32.07400
H  -4.50700 25.94400 32.91600
N  -6.62000 23.71700 25.44600
C  -7.07300 22.93000 26.52100
C  -8.09200 21.95000 26.05300
C  -8.14400 22.10400 24.70500
C  -7.19700 23.19700 24.33400
C  -8.90200 21.03200 27.09600
C  -9.20900 21.56400 23.74400
O  -9.29400 21.98700 22.60700
C  -10.12500 20.45600 24.21400
N  -5.30600 25.53500 23.45100
C  -6.10700 24.77400 22.61500
C  -5.96200 25.15900 21.18200
C  -5.10100 26.44800 21.28500
C  -4.65300 26.55900 22.78000
C  -5.26400 23.93600 20.47900
C  -5.72100 27.81600 20.76800
C  -5.16300 28.48200 19.53100
N  -3.93100 26.92000 25.70000
C  -3.42200 27.66800 24.66000
C  -2.56300 28.66000 25.28500
C  -2.61200 28.43400 26.67700
C  -3.40800 27.31800 26.85600
C  -1.74100 29.68700 24.50100
C  -2.16300 28.84600 28.02100
O  -1.34200 29.65300 28.30300
C  -2.84000 27.89900 29.06700
C  -1.78100 27.25800 29.81400
O  -0.99400 26.37500 29.39300
O  -1.85400 27.62700 31.14500
C  -0.78600 27.08400 32.00600
H  -7.05000 22.36300 28.53100
H  -7.34100 23.26000 22.19300
H  -3.46500 28.26600 22.58100
H  -3.79800 25.30400 30.62300
H  -6.28200 23.97600 30.57000
H  -4.68700 22.53300 31.29800
H  -3.39900 23.18100 30.32000
H  -4.43900 22.13700 29.48900
H  -6.61300 25.98900 30.85100
H  -5.64100 27.43500 30.12900
H  -6.01700 27.38200 32.70700
H  -4.55700 27.81300 32.04600
H  -9.11300 19.98600 26.87200
H  -9.80300 21.53100 27.45200
H  -8.40700 20.89900 28.05800
H  -10.81700 20.07300 23.46400
H  -10.78000 20.93500 24.94300
H  -9.58500 19.63400 24.68300
H  -6.92300 25.44400 20.75400
H  -4.14500 26.30500 20.78200
H  -6.00500 23.66100 19.72800
H  -5.10300 23.05300 21.09900
H  -4.35700 24.24400 19.95900
H  -5.58500 28.54400 21.56800
H  -6.79600 27.82600 20.59000
H  -4.23500 28.87700 19.94600
H  -5.88400 29.22700 19.19500
H  -4.93100 27.74800 18.76000
H  -0.93300 29.20600 23.95000
H  -1.22800 30.31000 25.23300
H  -2.33800 30.29900 23.82600
H  -3.41000 28.55600 29.72400
H  0.19800 27.26400 31.57200
H  -0.93500 26.03200 32.24900
H  -0.80200 27.62600 32.95200

