158

Mg 47.53300 16.05900 28.76600
C  45.40400 15.89900 31.58700
C  49.60900 18.13800 30.61600
C  48.94600 16.94200 25.85700
C  45.04400 14.48500 27.00100
N  47.47500 17.05100 30.85900
C  46.57200 16.60400 31.91200
C  47.09800 17.14600 33.25400
C  48.44100 17.96900 32.82800
C  48.55100 17.65600 31.38200
C  48.31700 19.49100 33.16200
C  47.44600 16.14900 34.34300
C  46.87700 16.27100 35.83000
H  46.78600 17.74300 36.41600
N  49.11700 17.23700 28.31900
C  49.86400 17.98700 29.21700
C  51.02900 18.53800 28.51700
C  50.85600 18.21300 27.14400
C  49.58300 17.39900 27.01700
C  51.98800 19.40200 29.17300
C  51.67000 18.54900 25.95900
O  51.38100 18.43100 24.79800
C  53.01800 19.29500 26.12400
N  47.15800 15.67400 26.73300
C  47.81700 16.16600 25.71000
C  47.36700 15.71600 24.39700
C  46.14600 14.90300 24.73800
C  46.07500 15.00200 26.20800
C  47.11000 16.99900 23.34600
C  46.04100 13.47100 24.12300
C  45.15300 13.24800 22.96100
N  45.64200 15.31800 29.18300
C  44.79600 14.61400 28.35600
C  43.61100 14.24100 29.04200
C  43.81100 14.60100 30.37900
C  45.04400 15.32900 30.36800
C  42.38500 13.52900 28.41100
C  43.28300 14.59000 31.69500
O  42.28900 14.03100 32.12400
C  44.28500 15.48900 32.52000
C  43.51300 16.56400 33.20100
O  42.72600 17.34700 32.72500
O  43.82000 16.51200 34.57100
C  43.04100 17.46900 35.40800
H  50.19200 18.81700 31.24300
H  49.49300 17.09900 24.92400
H  44.19600 13.97600 26.53700
H  46.35100 17.88600 33.54200
H  49.29400 17.63700 33.41900
H  47.48700 19.70800 33.83400
H  48.07000 20.14200 32.32400
H  49.28100 19.82800 33.54200
H  48.51700 15.94900 34.36300
H  46.99800 15.19500 34.06500
H  47.48200 15.65300 36.49300
H  45.88600 15.84400 35.98300
H  52.96100 18.91100 29.19200
H  51.63000 19.90900 30.06800
H  52.02900 20.20600 28.43800
H  53.62100 19.20200 25.22000
H  53.49000 18.87100 27.01000
H  52.98500 20.36600 26.32200
H  48.12300 15.05500 23.97300
H  45.25800 15.42400 24.38200
H  46.07100 17.16500 23.06000
H  47.75200 16.81700 22.48400
H  47.51900 17.87700 23.84500
H  45.81200 12.75200 24.90900
H  47.06200 13.24600 23.81700
H  44.79200 14.19600 22.56100
H  44.25800 12.72300 23.29300
H  45.55500 12.58400 22.19500
H  42.44100 12.45900 28.60900
H  42.28900 13.75000 27.34800
H  41.56300 14.01400 28.93700
H  44.74500 14.86700 33.28700
H  41.98500 17.20000 35.40400
H  43.17300 18.51300 35.12400
H  43.29400 17.23100 36.44100
Mg 48.70900 46.89900 42.64400
C  45.33900 47.22000 41.78300
C  48.79800 43.96100 41.05400
C  51.96600 47.06000 42.94300
C  48.51500 50.38600 43.77200
N  47.20500 45.74100 41.48200
C  45.86300 45.97600 41.37400
C  45.15100 44.79500 40.69200
C  46.35000 43.76900 40.52400
C  47.52700 44.51300 41.07700
C  46.12800 42.47800 41.47800
C  44.59200 45.21400 39.27500
C  43.13100 44.76100 39.04600
H  42.84600 43.93700 37.75000
N  50.16200 45.51100 42.26100
C  50.02500 44.34400 41.60700
C  51.32800 43.72900 41.57000
C  52.20600 44.52100 42.34100
C  51.45500 45.73700 42.57100
C  51.68900 42.38900 40.89300
C  53.56200 44.06100 42.76300
O  54.06200 43.01000 42.38500
C  54.43200 44.78800 43.68000
N  50.04000 48.60600 43.07700
C  51.37500 48.29800 43.25900
C  52.21100 49.55400 43.83600
C  51.03000 50.63400 43.96000
C  49.77100 49.86500 43.55800
C  52.94500 49.27600 45.14200
C  51.19400 51.91000 43.01200
C  50.52000 53.17200 43.56500
N  47.25100 48.50400 42.87700
C  47.30500 49.83800 43.33800
C  45.96900 50.37000 43.34600
C  45.15700 49.37500 42.77700
C  46.01600 48.28400 42.44100
C  45.58800 51.72000 43.90400
C  43.77200 49.08500 42.30300
O  42.74600 49.75000 42.39900
C  43.85700 47.59000 41.72100
C  43.08300 46.74600 42.66000
O  43.46300 46.34700 43.72800
O  41.82200 46.26900 42.18100
C  41.07900 45.39800 43.06300
H  48.78300 42.98500 40.56500
H  53.01000 46.98000 43.25500
H  48.58000 51.42600 44.09800
H  44.49000 44.31900 41.41700
H  46.53800 43.40400 39.51400
H  46.05500 41.64100 40.78300
H  45.19300 42.56600 42.03200
H  46.88500 42.37700 42.25500
H  45.20200 44.88700 38.43300
H  44.70800 46.29500 39.19800
H  42.45500 45.58200 38.80600
H  42.67600 44.34500 39.94500
H  52.36600 42.53900 40.05200
H  50.75100 42.14200 40.39700
H  51.98600 41.55200 41.52500
H  54.87400 45.66400 43.20500
H  55.28300 44.13800 43.88200
H  53.94900 45.02400 44.62900
H  52.89700 50.06600 43.16100
H  50.93000 51.03700 44.96700
H  53.82200 48.71000 44.82900
H  52.22100 48.70400 45.72100
H  53.29400 50.09900 45.76600
H  50.74000 51.71200 42.04200
H  52.21100 52.18800 42.73700
H  49.67200 53.57100 43.00700
H  51.28500 53.94900 43.57400
H  50.28300 53.00400 44.61500
H  46.31100 52.46100 43.56200
H  45.46900 51.95900 44.96100
H  44.68700 51.98300 43.34900
H  43.45700 47.57400 40.70800
H  41.18500 45.76600 44.08400
H  41.46800 44.38100 43.00900
H  40.02900 45.33400 42.78100

