158

Mg 8.82400 3.46100 27.51100
C  10.12200 2.01200 30.35300
C  6.79200 5.40500 29.50600
C  7.28200 4.78500 24.76800
C  10.08300 0.92200 25.60800
N  8.46700 3.62800 29.71000
C  9.15700 2.93900 30.69000
C  8.81200 3.44300 32.07000
C  7.65500 4.42800 31.71900
C  7.58700 4.48400 30.21800
C  6.29800 4.00200 32.34800
C  10.07000 4.05600 32.79600
C  10.38500 3.48400 34.20400
H  9.21600 2.91700 34.88100
N  7.25400 4.94700 27.17700
C  6.69800 5.69500 28.13800
C  5.95400 6.76900 27.58900
C  6.03100 6.59800 26.14900
C  6.90700 5.41500 25.93900
C  5.21300 7.86000 28.32300
C  5.41400 7.43800 25.00100
O  5.52600 7.10700 23.81100
C  4.59600 8.74700 25.39200
N  8.55500 2.87500 25.51700
C  7.99000 3.56900 24.53500
C  8.16700 2.95800 23.10900
C  9.10800 1.70400 23.40600
C  9.29500 1.85300 24.94400
C  6.83300 2.54900 22.51200
C  10.48900 1.60800 22.65600
C  10.66000 0.37000 21.73000
N  9.95400 1.88700 27.81900
C  10.49600 0.95800 26.94000
C  11.33400 0.07900 27.67900
C  11.23300 0.43100 28.99000
C  10.45700 1.61200 29.00300
C  11.92700 -1.17500 27.12900
C  11.71000 0.11000 30.32900
O  12.41000 -0.78400 30.74400
C  11.09500 1.22200 31.22000
C  10.54600 0.46100 32.36500
O  9.52200 -0.22000 32.30100
O  11.34200 0.59600 33.50100
C  11.18800 -0.01500 34.85200
H  6.22800 6.05300 30.18000
H  7.05600 5.32700 23.84700
H  10.40200 0.11600 24.94400
H  8.34000 2.59200 32.56000
H  7.95300 5.42200 32.05300
H  5.56500 3.74500 31.58400
H  5.93500 4.85700 32.91800
H  6.32500 3.10400 32.96500
H  9.98300 5.14200 32.82100
H  10.97800 3.97900 32.19900
H  10.70400 4.39300 34.71400
H  11.24600 2.82800 34.07100
H  5.48900 8.84400 27.94600
H  5.45400 7.87900 29.38600
H  4.14900 7.70200 28.15100
H  3.96000 9.09600 24.57800
H  5.21100 9.57900 25.73300
H  3.93700 8.47000 26.21600
H  8.71100 3.67300 22.49200
H  8.54000 0.81700 23.12800
H  6.72500 1.51500 22.18400
H  6.66100 3.27800 21.72000
H  6.02700 2.71400 23.22800
H  11.24900 1.47000 23.42500
H  10.73800 2.55600 22.18000
H  11.19700 -0.36400 22.33100
H  11.25700 0.58900 20.84500
H  9.65500 0.02800 21.48200
H  11.24500 -1.99900 27.34000
H  12.92700 -1.36300 27.51900
H  11.98100 -1.06800 26.04500
H  11.87200 1.86700 31.63100
H  10.91900 0.85000 35.45900
H  12.06500 -0.49300 35.28800
H  10.30200 -0.64800 34.80900
Mg 25.76300 0.53100 29.86600
C  27.65500 0.25300 32.83600
C  22.91400 0.89300 31.84200
C  23.74900 0.64400 27.15500
C  28.47700 -0.32200 27.96400
N  25.37400 0.58900 32.03600
C  26.27900 0.49800 33.08100
C  25.70500 0.76400 34.41100
C  24.18900 0.97400 34.13700
C  24.15700 0.78400 32.60000
C  23.13600 -0.10800 34.74400
C  26.38700 1.90400 35.19000
C  26.70900 1.57900 36.66200
H  26.24700 2.69700 37.60600
N  23.59400 0.73300 29.58200
C  22.60800 0.90400 30.49000
C  21.37400 1.21600 29.91800
C  21.62000 1.10700 28.52400
C  22.99500 0.88700 28.37000
C  20.14400 1.58600 30.69500
C  20.70900 1.04400 27.34800
O  21.01100 0.67900 26.18400
C  19.24400 1.33000 27.59200
N  26.12700 0.13000 27.85500
C  25.11700 0.28100 26.90200
C  25.67200 0.17400 25.44900
C  27.22000 0.08100 25.67200
C  27.31700 -0.03400 27.24000
C  25.00800 -0.99500 24.73700
C  28.08900 1.31000 25.14600
C  27.75200 2.72300 25.69600
N  27.68400 0.12100 30.25800
C  28.63900 -0.30700 29.37800
C  29.87700 -0.62800 30.21100
C  29.48300 -0.30300 31.49700
C  28.20500 0.02200 31.52000
C  31.16500 -1.04600 29.77800
C  29.99900 -0.32400 32.87100
O  31.07300 -0.70200 33.33600
C  28.87600 0.12200 33.82300
C  28.75500 -1.01900 34.74300
O  28.47700 -2.11300 34.39800
O  29.23800 -0.65100 35.95800
C  29.07000 -1.56900 37.09200
H  22.07400 1.16500 32.48500
H  23.30700 1.04600 26.24100
H  29.43400 -0.52000 27.47800
H  25.80800 -0.05800 35.11900
H  23.89500 1.99300 34.38600
H  22.28800 0.37000 35.23300
H  23.65800 -0.59500 35.56700
H  22.66400 -0.88400 34.14000
H  25.74000 2.77900 35.12100
H  27.25600 2.32100 34.68200
H  27.79300 1.59200 36.77500
H  26.35400 0.59600 36.96900
H  19.95900 2.64200 30.49600
H  20.18500 1.54700 31.78400
H  19.24600 1.04400 30.39900
H  19.21900 2.20600 28.24000
H  18.82600 0.49000 28.14700
H  18.65100 1.61600 26.72300
H  25.33700 1.14800 25.09200
H  27.65600 -0.82300 25.24700
H  24.58900 -1.67600 25.47800
H  25.81600 -1.48800 24.19600
H  24.27900 -0.75600 23.96300
H  27.95100 1.44900 24.07300
H  29.12800 0.98300 25.19100
H  28.52300 3.25500 26.25400
H  26.95500 2.71700 26.44000
H  27.47400 3.30100 24.81400
H  31.28500 -1.26900 28.71800
H  31.43300 -2.03600 30.14600
H  31.90900 -0.29600 30.04400
H  29.06800 1.01900 34.41200
H  28.21100 -1.27800 37.69500
H  30.00100 -1.61200 37.65700
H  28.84700 -2.59200 36.78600

