158

Mg 27.69400 49.87900 26.46600
C  25.38100 51.08200 29.03000
C  29.75400 49.04100 28.83700
C  29.58800 48.87100 23.99400
C  25.25300 51.02800 24.17600
N  27.48300 50.08100 28.69800
C  26.53600 50.52300 29.54300
C  26.90200 50.27300 31.00000
C  28.45800 49.97000 30.87100
C  28.56800 49.62700 29.37000
C  29.41000 51.15700 31.34400
C  26.06600 49.20900 31.68900
C  25.08500 49.75200 32.76800
H  25.35000 49.21500 34.21000
N  29.47800 49.14900 26.46800
C  30.19000 48.84500 27.53000
C  31.38700 48.03800 27.11200
C  31.41000 48.06500 25.69600
C  30.13600 48.69600 25.32100
C  32.35800 47.43100 28.09300
C  32.36800 47.48900 24.70100
O  32.37300 47.87400 23.55400
C  33.46200 46.53600 25.17200
N  27.53400 50.15800 24.31900
C  28.41500 49.51400 23.53300
C  27.98500 49.56400 22.07900
C  26.48300 50.00000 22.21600
C  26.42100 50.46000 23.67900
C  28.77400 50.62900 21.21800
C  25.46400 48.92500 21.85500
C  24.22800 49.48700 21.13600
N  25.74400 51.02500 26.51300
C  24.83300 51.35000 25.52600
C  23.55300 51.94300 26.06800
C  23.78800 51.89600 27.42800
C  25.10200 51.33000 27.67500
C  22.43000 52.53700 25.33800
C  23.23400 52.27000 28.73500
O  22.14200 52.82300 29.03600
C  24.22500 51.70000 29.81100
C  24.67000 52.88400 30.58000
O  25.63000 53.60300 30.37600
O  23.83500 53.10400 31.66100
C  24.05500 54.28700 32.43600
H  30.34100 48.56600 29.62700
H  30.07900 48.26700 23.22800
H  24.50800 51.18400 23.39300
H  26.85700 51.24300 31.49500
H  28.81800 49.11300 31.44000
H  28.87100 52.04000 31.68900
H  29.98700 51.52400 30.49500
H  30.11000 50.89900 32.13800
H  26.71400 48.53200 32.24500
H  25.42000 48.67700 30.99100
H  24.08400 49.42800 32.48500
H  25.04000 50.84100 32.78800
H  32.05500 47.60600 29.12600
H  33.34200 47.87100 27.93100
H  32.31000 46.36000 27.90000
H  34.35600 46.93500 25.65100
H  33.81000 46.14100 24.21700
H  33.01100 45.66700 25.65200
H  28.04300 48.60500 21.56400
H  26.22800 50.87500 21.61700
H  29.64000 50.97300 21.78200
H  28.12700 51.40100 20.80300
H  29.29300 50.23000 20.34600
H  25.18200 48.53300 22.83200
H  26.00800 48.17800 21.27600
H  23.37500 49.52300 21.81300
H  24.03400 48.83900 20.28100
H  24.42800 50.48300 20.74000
H  22.62600 53.60400 25.43900
H  21.45600 52.19900 25.69000
H  22.54300 52.22400 24.30000
H  23.70100 51.04200 30.50400
H  23.24300 54.44700 33.14600
H  24.14700 55.20000 31.84800
H  25.00300 54.11500 32.94500
Mg 1.30700 42.65000 26.80800
C  2.63600 42.44400 30.07800
C  -1.73100 41.88300 28.14700
C  0.26300 42.36600 23.78200
C  4.64000 43.24800 25.66100
N  0.50200 42.42400 28.86300
C  1.22500 42.45300 30.00900
C  0.25000 42.26400 31.21200
C  -0.96700 41.66600 30.57100
C  -0.75100 42.06900 29.13200
C  -1.21900 40.16900 30.79600
C  0.06000 43.59300 31.92500
C  0.36200 43.72100 33.47200
H  0.14500 42.60000 34.44100
N  -0.52000 42.37000 26.02400
C  -1.68300 42.04300 26.73700
C  -2.77600 41.82100 25.80700
C  -2.20200 41.95300 24.51100
C  -0.77900 42.21400 24.74300
C  -4.19700 41.63900 26.20900
C  -2.78300 41.63600 23.12800
O  -2.11100 41.63200 22.09800
C  -4.20700 41.07800 23.02700
N  2.37000 42.65300 25.03800
C  1.66100 42.57300 23.85800
C  2.58300 42.53600 22.63700
C  3.88900 43.07000 23.22900
C  3.62600 43.05900 24.76700
C  2.60600 41.13200 22.00100
C  4.55800 44.44600 22.71100
C  3.65900 45.72200 22.54600
N  3.25700 42.91100 27.65900
C  4.55800 43.13400 27.04100
C  5.55900 43.17300 28.04800
C  4.87500 42.82100 29.28200
C  3.49900 42.66000 28.94900
C  6.98800 43.60500 27.97500
C  5.03300 42.62200 30.73300
O  6.07400 42.57000 31.41000
C  3.50400 42.50700 31.31300
C  3.53600 41.25000 32.20000
O  3.45100 40.08400 31.83500
O  3.62600 41.66000 33.48700
C  3.89000 40.63400 34.52100
H  -2.64300 41.49700 28.60600
H  -0.02000 42.33200 22.72800
H  5.58800 43.50700 25.18500
H  0.69200 41.57400 31.93000
H  -1.92600 42.12600 30.81100
H  -0.45500 39.69500 31.41300
H  -1.33000 39.62900 29.85600
H  -2.10500 40.12900 31.43000
H  -0.99100 43.88100 31.89600
H  0.45400 44.40100 31.30900
H  -0.24100 44.51500 33.91200
H  1.41800 43.98600 33.42200
H  -4.44400 40.57900 26.16200
H  -4.96500 42.18300 25.65800
H  -4.18400 41.95600 27.25200
H  -4.45700 40.67900 22.04400
H  -4.85400 41.92500 23.25700
H  -4.28000 40.38800 23.86700
H  2.15000 43.25800 21.94400
H  4.52900 42.18900 23.18000
H  1.84400 40.51800 22.48100
H  3.56700 40.61900 22.04200
H  2.39100 41.32200 20.95000
H  5.27700 44.28000 21.90800
H  5.19700 44.68500 23.56100
H  3.93600 46.36300 23.38400
H  2.60000 45.50300 22.68700
H  3.84000 46.22800 21.59800
H  7.16800 44.01300 26.98100
H  7.69800 42.84400 28.29800
H  7.05600 44.55400 28.50700
H  3.35000 43.47900 31.78100
H  4.67000 39.94600 34.19600
H  2.94600 40.09200 34.57200
H  4.09000 41.06200 35.50300

