158

Mg -1.96900 18.12500 26.94100
C  -2.56700 16.11900 29.57900
C  -2.56600 20.86800 28.95200
C  -2.08000 20.02600 24.17200
C  -2.00900 15.24600 24.74000
N  -2.49700 18.39800 28.99800
C  -2.59000 17.44100 29.94700
C  -2.73100 18.02600 31.41000
C  -3.18600 19.50800 30.99300
C  -2.67600 19.59300 29.55700
C  -4.65400 19.82400 31.29000
C  -1.42500 17.94500 32.24200
C  -1.70900 17.25300 33.58200
H  -0.52900 17.05700 34.53800
N  -2.14000 20.17500 26.63500
C  -2.28400 21.17600 27.58500
C  -2.35600 22.45600 26.94800
C  -2.12900 22.19700 25.49200
C  -2.07300 20.76000 25.37100
C  -2.80700 23.67200 27.69900
C  -2.01200 23.30700 24.35500
O  -1.88200 22.98800 23.20900
C  -1.71100 24.67600 24.70700
N  -2.08700 17.66000 24.81700
C  -2.04600 18.65600 23.90000
C  -1.88800 18.18200 22.42400
C  -1.76300 16.62900 22.65600
C  -1.94400 16.50900 24.14000
C  -2.95100 18.70300 21.47100
C  -0.46300 16.10700 21.90700
C  0.88500 16.56000 22.44500
N  -2.16800 16.04300 27.10400
C  -2.10900 15.01400 26.15700
C  -2.19600 13.72600 26.88100
C  -2.40000 14.19900 28.24900
C  -2.41500 15.56400 28.31900
C  -2.31500 12.31700 26.28700
C  -2.65600 13.77000 29.55500
O  -2.74700 12.62100 29.95400
C  -2.57900 14.95100 30.51400
C  -1.26900 14.76900 31.30900
O  -0.18300 14.96900 30.85300
O  -1.54100 14.06000 32.46300
C  -0.38500 13.56800 33.26000
H  -2.78400 21.70100 29.62300
H  -1.87100 20.70900 23.34600
H  -1.89600 14.45100 24.00000
H  -3.57500 17.51100 31.86800
H  -2.63100 20.25200 31.56400
H  -5.03400 19.79900 30.26800
H  -4.83300 20.82500 31.68300
H  -5.17400 19.07300 31.88500
H  -1.20100 18.95600 32.58200
H  -0.62100 17.51700 31.64400
H  -2.20400 16.31600 33.32900
H  -2.42800 17.83400 34.16000
H  -3.62600 23.30300 28.31700
H  -3.21800 24.49800 27.11900
H  -2.09000 23.97200 28.46300
H  -1.47800 25.24600 23.80800
H  -0.93400 24.63900 25.47100
H  -2.54500 25.14800 25.22800
H  -0.94500 18.58500 22.05500
H  -2.58500 16.04200 22.24500
H  -2.47400 19.29100 20.68600
H  -3.71800 19.23800 22.03100
H  -3.32300 17.84800 20.90700
H  -0.58800 16.42500 20.87200
H  -0.56100 15.02300 21.95700
H  0.79100 17.32700 23.21300
H  1.43900 17.03700 21.63700
H  1.44800 15.71700 22.84600
H  -1.81900 11.65300 26.99500
H  -1.77900 12.14400 25.35400
H  -3.38900 12.21500 26.13200
H  -3.45200 15.05000 31.16100
H  -0.25100 14.02200 34.24200
H  0.51500 13.79400 32.68800
H  -0.62000 12.51200 33.38700
Mg -10.17600 17.20400 40.66300
C  -6.60100 16.93900 40.48400
C  -9.93800 20.55200 39.91400
C  -13.45200 17.20700 40.25300
C  -10.22000 13.54000 40.30700
N  -8.47100 18.55100 40.09500
C  -7.07100 18.23100 40.23500
C  -6.35700 19.57800 39.91500
C  -7.39600 20.64300 40.24700
C  -8.73000 19.89800 40.13100
C  -7.21200 21.28400 41.67200
C  -5.93200 19.57000 38.42200
C  -4.43700 19.41200 38.26700
H  -3.89200 18.33200 37.26700
N  -11.59300 18.68300 40.08600
C  -11.26100 19.97900 39.81200
C  -12.53500 20.68400 39.38300
C  -13.63000 19.79800 39.57200
C  -12.97700 18.50600 40.01800
C  -12.56600 22.07800 38.94500
C  -15.16300 20.01800 39.36900
O  -15.57000 21.18300 39.12500
C  -16.18300 18.97300 39.58400
N  -11.58600 15.66400 40.46400
C  -12.86000 15.93200 40.41400
C  -13.72100 14.68600 40.45800
C  -12.71200 13.51800 40.16400
C  -11.40900 14.27800 40.26900
C  -14.49400 14.58300 41.77400
C  -12.94900 12.94400 38.69000
C  -12.82900 11.37300 38.58400
N  -8.69800 15.55000 40.62100
C  -8.92100 14.18600 40.42400
C  -7.64700 13.54400 40.43000
C  -6.64800 14.58300 40.48800
C  -7.38400 15.77100 40.58200
C  -7.46000 12.04600 40.15100
C  -5.24900 14.95000 40.55000
O  -4.21000 14.29700 40.72400
C  -5.19700 16.50500 40.68600
C  -4.52900 16.80000 41.96100
O  -4.78000 16.34400 43.05900
O  -3.75800 17.87600 41.72400
C  -3.45600 18.66700 42.87000
H  -9.74300 21.62600 39.88300
H  -14.53800 17.32000 40.22400
H  -10.37200 12.50300 39.99900
H  -5.51000 19.77000 40.57300
H  -7.29600 21.43100 39.50100
H  -7.47400 22.33300 41.53000
H  -6.31800 20.97100 42.21100
H  -8.03300 20.93300 42.29700
H  -6.25900 20.56000 38.10600
H  -6.52800 18.83600 37.88000
H  -4.04700 18.99200 39.19500
H  -3.90700 20.29600 37.91300
H  -11.64900 22.46300 38.49800
H  -12.81800 22.75300 39.76300
H  -13.20400 21.95300 38.07000
H  -17.14100 19.27200 39.15800
H  -16.32200 19.00800 40.66500
H  -15.90700 18.07100 39.03800
H  -14.47000 14.85800 39.68500
H  -12.77500 12.67900 40.85600
H  -14.77000 13.54900 41.98200
H  -15.45900 15.07600 41.89700
H  -13.77500 14.82000 42.55800
H  -12.32400 13.50400 37.99400
H  -13.95600 13.19700 38.35800
H  -13.75600 10.81800 38.44100
H  -12.35500 10.98000 39.48300
H  -12.07500 11.22000 37.81200
H  -6.47600 11.71000 40.47800
H  -7.53000 12.03100 39.06300
H  -8.30000 11.52200 40.60700
H  -4.49500 16.75500 39.89100
H  -2.81200 19.48100 42.53700
H  -2.91400 18.02400 43.56300
H  -4.40700 18.96100 43.31500

