158

Mg 9.09200 3.66300 28.13700
C  10.41200 2.16100 30.92300
C  7.35000 5.85200 30.32600
C  8.43300 5.75700 25.57500
C  10.67800 1.48700 25.98500
N  8.81100 3.86500 30.40300
C  9.54800 3.20700 31.35100
C  9.19700 3.68300 32.84300
C  8.13600 4.80400 32.61100
C  8.02100 4.83100 30.99500
C  6.67500 4.56100 33.23000
C  10.42700 4.20100 33.69900
C  10.88100 3.23100 34.82700
H  11.48600 3.90000 36.01400
N  7.92500 5.52500 27.94600
C  7.27100 6.17900 28.94700
C  6.65900 7.40900 28.43700
C  7.00900 7.44200 27.06000
C  7.82000 6.22500 26.78500
C  5.81800 8.34200 29.18500
C  6.83200 8.57000 25.94300
O  7.27300 8.44500 24.78400
C  6.23900 9.89500 26.34000
N  9.22000 3.43700 26.03700
C  9.01300 4.53200 25.20000
C  9.24600 4.14100 23.77300
C  10.05900 2.81800 23.89900
C  9.96100 2.55100 25.36700
C  7.89000 3.96800 22.99200
C  11.52100 3.04000 23.39600
C  12.22000 1.85100 22.82900
N  10.14400 2.08600 28.37800
C  10.75700 1.26900 27.38600
C  11.52300 0.29500 28.10500
C  11.37900 0.59300 29.46900
C  10.59400 1.69000 29.56900
C  12.44900 -0.75100 27.57900
C  11.81500 0.11900 30.82300
O  12.61300 -0.76900 31.20500
C  11.15700 1.22200 31.79600
C  10.32700 0.65000 32.85600
O  9.14100 0.30800 32.68600
O  11.04200 0.34800 33.97400
C  10.38500 -0.43800 34.96500
H  6.91300 6.49800 31.09000
H  8.38900 6.49000 24.76600
H  11.33000 0.83700 25.39900
H  8.66500 2.84200 33.28800
H  8.49700 5.76100 32.98700
H  6.06200 4.12900 32.43900
H  6.39800 5.56500 33.55100
H  6.75300 3.76800 33.97300
H  10.11300 5.13500 34.16600
H  11.25300 4.37400 33.00900
H  11.76400 2.78100 34.37400
H  10.12300 2.49900 35.10700
H  4.81800 8.45500 28.76900
H  6.28700 9.30700 28.99400
H  5.82500 8.17000 30.26200
H  6.90300 10.29400 27.10700
H  5.23900 9.71500 26.73300
H  6.18300 10.68000 25.58500
H  9.81000 5.00300 23.41700
H  9.60900 2.02500 23.30200
H  7.76600 4.82000 22.32400
H  7.03500 3.96300 23.66700
H  7.67500 3.06300 22.42500
H  12.07800 3.39500 24.26300
H  11.64700 3.83100 22.65600
H  12.15200 1.80400 21.74200
H  11.78600 0.86400 22.98900
H  13.26600 1.88200 23.13500
H  12.02500 -1.71500 27.85800
H  13.39200 -0.55700 28.09100
H  12.64800 -0.68000 26.50900
H  11.99000 1.67000 32.33700
H  10.04200 0.27000 35.71800
H  11.12500 -1.10900 35.40300
H  9.53500 -1.05200 34.66800
Mg 49.18400 44.90200 43.12900
C  45.83100 45.43900 42.20500
C  48.92900 41.67900 41.79800
C  52.57400 44.58100 43.48600
C  49.33400 48.09700 44.36800
N  47.51900 43.71400 41.91200
C  46.25600 44.10400 41.81400
C  45.50800 42.90700 41.34600
C  46.44700 41.69700 41.46300
C  47.71100 42.37600 41.77900
C  45.95000 40.70700 42.45000
C  44.88200 43.16200 39.94500
C  43.48600 42.72100 39.55000
H  43.25900 41.87400 38.28600
N  50.53800 43.39300 42.69000
C  50.25600 42.13600 42.16500
C  51.42900 41.44100 41.92400
C  52.53800 42.26200 42.38300
C  51.91500 43.44100 42.98200
C  51.39700 40.05700 41.20000
C  53.99100 41.88900 42.19500
O  54.35900 40.81000 41.79800
C  55.11500 42.74700 42.73600
N  50.85400 46.28600 43.70400
C  52.11700 45.84500 43.94600
C  52.95700 47.04300 44.46100
C  51.82700 48.01800 44.98800
C  50.59000 47.43700 44.31100
C  54.04300 46.66700 45.46400
C  52.13300 49.48000 44.79500
C  51.67200 50.39900 46.00900
N  47.83700 46.49300 43.33500
C  48.08100 47.73500 43.78400
C  46.83600 48.47700 43.75800
C  45.90400 47.64900 43.13100
C  46.58000 46.45900 42.87600
C  46.60800 49.88400 44.08200
C  44.56700 47.49900 42.57500
O  43.62400 48.28500 42.52100
C  44.47200 46.11400 41.95600
C  43.25000 45.40100 42.37100
O  42.14600 45.49400 41.78500
O  43.46400 44.54200 43.43600
C  42.33600 43.66500 43.77100
H  48.93700 40.64600 41.44300
H  53.65400 44.56600 43.64200
H  49.28900 49.10100 44.79300
H  44.62300 42.77600 41.96800
H  46.57800 41.18300 40.51100
H  45.47200 39.82300 42.02900
H  45.26300 41.06000 43.21800
H  46.73500 40.21700 43.02600
H  45.48100 42.51500 39.30500
H  45.03200 44.19800 39.64000
H  42.92500 43.63800 39.37000
H  42.93600 42.12700 40.28100
H  52.36500 39.57600 41.06000
H  50.88000 40.15300 40.24500
H  50.65200 39.37000 41.59900
H  54.98800 42.77500 43.81800
H  55.16500 43.70200 42.21300
H  56.08200 42.32300 42.46400
H  53.40300 47.54200 43.60000
H  51.45700 47.92700 46.00900
H  55.07200 46.92100 45.20800
H  54.04500 45.65100 45.85700
H  53.83700 47.39800 46.24600
H  51.80600 49.81800 43.81200
H  53.20200 49.67400 44.88000
H  50.92500 51.12100 45.67800
H  52.52800 50.97400 46.36200
H  51.42600 49.81200 46.89400
H  47.07700 50.10700 45.04000
H  45.54500 50.11400 44.00800
H  47.10400 50.48500 43.31900
H  44.47100 46.12600 40.86700
H  41.79400 44.27900 44.49000
H  42.75300 42.70600 44.07700
H  41.69400 43.35800 42.94400

