158

Mg 17.73300 -0.91500 27.46000
C  16.29200 0.45100 30.40100
C  19.59900 -2.96800 29.43400
C  18.86000 -2.21600 24.71600
C  15.67400 1.29400 25.51300
N  17.99500 -1.12300 29.67100
C  17.30800 -0.47400 30.70400
C  17.74800 -0.90400 32.11500
C  19.00900 -1.81000 31.73200
C  18.92600 -1.99600 30.18800
C  20.37000 -1.23800 32.21900
C  16.60200 -1.59100 32.86300
C  16.49200 -1.22600 34.38100
H  17.82000 -0.64900 35.11600
N  19.12100 -2.40300 27.12700
C  19.67400 -3.21300 28.02800
C  20.36200 -4.32000 27.35400
C  20.08900 -4.16500 25.95800
C  19.33300 -2.88900 25.88300
C  20.99400 -5.44400 28.11200
C  20.57200 -4.98700 24.81400
O  20.14800 -4.87100 23.68100
C  21.46200 -6.06400 25.23000
N  17.16000 -0.52700 25.43900
C  18.01000 -1.10900 24.53600
C  17.78800 -0.54800 23.12400
C  16.77000 0.62800 23.35800
C  16.48000 0.47600 24.81500
C  19.03600 -0.24600 22.22300
C  15.55400 0.59000 22.39000
C  15.90900 0.63900 20.86900
N  16.30400 0.54000 27.80000
C  15.51600 1.29000 26.94600
C  14.46400 1.99600 27.68500
C  14.77600 1.66000 29.07700
C  15.87000 0.79200 29.08800
C  13.40200 2.99300 27.13700
C  14.30400 1.91700 30.43900
O  13.36700 2.55800 30.92500
C  15.34200 1.14200 31.29200
C  16.12600 2.18800 32.03900
O  17.04300 2.83800 31.58400
O  15.57000 2.27000 33.31400
C  16.05400 3.41800 34.08800
H  20.14600 -3.66700 30.07100
H  19.28700 -2.54900 23.76700
H  15.08900 2.09800 25.06100
H  17.97500 -0.00900 32.69400
H  18.84900 -2.76800 32.22800
H  20.87400 -1.99500 32.82000
H  20.23700 -0.29700 32.75300
H  21.02800 -1.17200 31.35300
H  16.72200 -2.65300 32.64800
H  15.68000 -1.23300 32.40600
H  16.10500 -2.03000 35.00700
H  15.72700 -0.47000 34.20800
H  20.29900 -6.27400 28.23700
H  21.24900 -5.20100 29.14300
H  21.97000 -5.79800 27.78200
H  22.34900 -5.60300 25.66500
H  21.78900 -6.47700 24.27600
H  20.90800 -6.79000 25.82600
H  17.28100 -1.40100 22.67200
H  17.27300 1.59400 23.30900
H  18.95200 0.73200 21.75000
H  19.04900 -1.03300 21.46900
H  19.90800 -0.32900 22.87200
H  14.90400 1.43200 22.62800
H  15.00200 -0.32900 22.58600
H  15.11500 1.24600 20.43300
H  15.90200 -0.41500 20.59200
H  16.90700 0.98300 20.59900
H  12.96000 3.52200 27.98200
H  12.67400 2.38500 26.59900
H  13.78400 3.80800 26.52300
H  14.70000 0.49400 31.88900
H  17.08000 3.70100 33.85300
H  16.11700 3.18200 35.15100
H  15.41400 4.29600 34.00500
Mg -11.52200 38.27500 42.33400
C  -9.03600 35.83500 41.74700
C  -9.55900 40.53900 40.77500
C  -14.10200 40.42500 42.43300
C  -13.59900 35.71600 43.34300
N  -9.44300 38.11200 41.24300
C  -8.77100 36.96300 40.99800
C  -7.53200 37.26400 40.13900
C  -7.67500 38.89800 39.90400
C  -9.02100 39.23500 40.62800
C  -6.47100 39.65700 40.46300
C  -7.70600 36.42200 38.85300
C  -6.43100 35.62400 38.55600
H  -5.67700 36.16600 37.34000
N  -11.70000 40.26500 41.84300
C  -10.69900 41.05300 41.36000
C  -11.10400 42.45100 41.54000
C  -12.45700 42.43700 41.88400
C  -12.81100 41.02600 42.12700
C  -10.31500 43.64500 41.03300
C  -13.32700 43.67200 42.04600
O  -12.87900 44.79400 42.00700
C  -14.83000 43.57600 42.32000
N  -13.64700 38.05400 42.62200
C  -14.52200 39.10900 42.58300
C  -15.92700 38.64600 42.59400
C  -15.76900 37.08600 42.98100
C  -14.21000 36.87400 42.99900
C  -16.96600 39.35000 43.52600
C  -16.54400 36.36300 41.85700
C  -15.92700 35.64800 40.61400
N  -11.36500 36.17600 42.68600
C  -12.26800 35.32400 43.26200
C  -11.58800 34.03900 43.50000
C  -10.32000 34.18600 42.87500
C  -10.23300 35.50400 42.53500
C  -12.24700 32.77500 43.85800
C  -9.05200 33.52900 42.51900
O  -8.64600 32.38900 42.74700
C  -8.18800 34.52300 41.73300
C  -6.88700 34.53800 42.49500
O  -6.00700 33.72100 42.43700
O  -6.76500 35.78700 43.20400
C  -5.51300 35.95300 43.95100
H  -8.87300 41.30600 40.41000
H  -14.88400 41.18700 42.40800
H  -14.17300 34.86800 43.72300
H  -6.58500 37.08900 40.65000
H  -7.94000 39.20700 38.89300
H  -6.21900 40.27300 39.60000
H  -5.56100 39.15400 40.79100
H  -6.70300 40.38500 41.24100
H  -7.85200 37.17500 38.07900
H  -8.59400 35.80500 38.99100
H  -6.66600 34.57600 38.37100
H  -5.66100 35.53000 39.32200
H  -10.74600 44.19400 40.19600
H  -9.28800 43.34400 40.82500
H  -10.25600 44.34500 41.86600
H  -15.44600 43.20000 41.50300
H  -15.22500 44.58700 42.41700
H  -15.03100 43.07300 43.26600
H  -16.21700 38.84300 41.56200
H  -16.04800 36.79300 43.99300
H  -16.53900 40.17200 44.10100
H  -17.40300 38.57600 44.15700
H  -17.72500 39.68600 42.81900
H  -17.32700 37.07800 41.60200
H  -17.13900 35.65700 42.43700
H  -16.03200 34.56400 40.65900
H  -14.84200 35.71200 40.54000
H  -16.37000 36.09600 39.72400
H  -12.72000 32.83900 44.83800
H  -11.49600 32.00000 44.00800
H  -12.83000 32.56000 42.96200
H  -7.97100 34.16700 40.72600
H  -5.69600 36.65500 44.76400
H  -4.66300 36.18100 43.30700
H  -5.21100 35.00800 44.40300

