158

Mg -1.49400 16.99200 26.04600
C  -1.79600 15.02400 28.92600
C  -1.86400 19.82500 28.10500
C  -1.67300 18.90600 23.33100
C  -1.55900 14.18800 24.11300
N  -1.78900 17.33900 28.27800
C  -1.92400 16.32500 29.23400
C  -2.32800 16.93000 30.59800
C  -2.35100 18.48800 30.29600
C  -2.00000 18.57400 28.79300
C  -3.78900 19.24000 30.47800
C  -1.41500 16.50300 31.71200
C  -1.83000 17.04800 33.04700
H  -1.63400 16.28100 34.33200
N  -1.49900 19.10000 25.81100
C  -1.68300 20.12000 26.77600
C  -1.63600 21.36400 26.05500
C  -1.34600 21.14100 24.70000
C  -1.57300 19.65100 24.55700
C  -1.71500 22.68300 26.77800
C  -0.95700 22.11000 23.65900
O  -0.97200 21.86000 22.46900
C  -0.58200 23.47600 23.98000
N  -1.76000 16.62000 24.03500
C  -1.65300 17.59300 23.09700
C  -1.81100 17.01000 21.70800
C  -1.30800 15.51100 21.97300
C  -1.59600 15.39900 23.45300
C  -3.27500 17.04800 21.10400
C  0.18500 15.25800 21.57000
C  0.44200 15.12300 20.09500
N  -1.57800 15.03500 26.40200
C  -1.68200 14.01500 25.49000
C  -1.92000 12.79200 26.17100
C  -1.88100 13.13400 27.50600
C  -1.68600 14.54400 27.62800
C  -2.22700 11.53800 25.50300
C  -2.06500 12.51000 28.78000
O  -2.14300 11.32100 29.15300
C  -2.04500 13.77300 29.75700
C  -0.90900 13.33700 30.60800
O  0.18600 13.77300 30.46200
O  -1.39400 12.59900 31.68300
C  -0.47400 12.32100 32.79600
H  -2.05700 20.72900 28.68800
H  -1.57000 19.59600 22.49100
H  -1.53400 13.35100 23.41200
H  -3.30500 16.62200 30.97000
H  -1.62400 19.08900 30.84300
H  -3.52100 20.21600 30.88100
H  -4.61200 18.79800 31.04000
H  -4.25800 19.28900 29.49600
H  -0.41100 16.67000 31.32000
H  -1.49000 15.42900 31.88300
H  -2.87100 17.33600 32.90400
H  -1.23400 17.96000 33.07300
H  -2.12500 22.55300 27.77900
H  -2.36800 23.37800 26.25100
H  -0.72300 23.11100 26.92500
H  -1.15900 24.07000 24.69000
H  -0.29000 24.04500 23.09700
H  0.35900 23.17800 24.44100
H  -1.16600 17.58300 21.04200
H  -1.90900 14.82900 21.37200
H  -3.75800 16.07300 21.04700
H  -3.14400 17.53900 20.13900
H  -3.92300 17.72600 21.66000
H  0.56700 14.44000 22.18200
H  0.74200 16.13500 21.90000
H  1.41800 15.58400 19.94500
H  -0.32100 15.59600 19.47700
H  0.40000 14.05700 19.87100
H  -1.35000 10.89200 25.45700
H  -2.52400 11.73700 24.47300
H  -2.92000 10.91400 26.06700
H  -2.95300 13.79000 30.36000
H  0.57200 12.23000 32.50500
H  -0.86900 11.46000 33.33600
H  -0.53500 13.21200 33.42200
Mg 7.15400 54.30200 40.94900
C  6.87100 50.69700 41.00300
C  10.43700 53.75600 40.11300
C  7.30500 57.50300 40.08900
C  3.86900 54.45000 41.87700
N  8.46800 52.38600 40.55200
C  8.12900 51.06600 40.65600
C  9.39600 50.15900 40.47400
C  10.59200 51.16800 40.65300
C  9.84000 52.55800 40.50100
C  11.53500 51.04900 41.84200
C  9.39300 49.38600 39.08200
C  9.12000 50.30100 37.85000
H  7.72100 50.36400 37.20500
N  8.67400 55.52000 40.20800
C  9.89600 55.09100 39.83200
C  10.58300 56.14900 39.18200
C  9.80900 57.32100 39.21100
C  8.53000 56.83600 39.85900
C  11.99300 56.01200 38.55900
C  10.11800 58.79700 38.75900
O  11.27300 59.05200 38.41100
C  9.07700 59.92700 38.73300
N  5.81000 55.68900 40.83600
C  6.13000 57.03300 40.59900
C  4.95200 57.93400 40.99100
C  3.82500 56.94400 41.49800
C  4.51000 55.62800 41.36500
C  5.33000 59.09000 41.96400
C  2.47900 57.12800 40.70900
C  1.31400 57.84400 41.39500
N  5.58400 52.93900 41.28900
C  4.28300 53.12100 41.74300
C  3.69100 51.82700 42.18700
C  4.66700 50.90400 41.89100
C  5.80300 51.62500 41.32500
C  2.41000 51.68600 42.90200
C  4.93800 49.50500 41.95800
O  4.31600 48.68500 42.54000
C  6.33700 49.27600 41.30100
C  6.07900 48.47700 40.06100
O  5.92400 48.83400 38.90400
O  5.93700 47.19800 40.41500
C  5.36500 46.25700 39.45700
H  11.45300 53.46700 39.83600
H  7.29300 58.58600 39.94400
H  2.92300 54.70900 42.35500
H  9.35900 49.47200 41.31900
H  11.25700 51.11000 39.79100
H  12.57700 50.94600 41.54000
H  11.27300 50.33900 42.62700
H  11.44700 51.98200 42.39900
H  8.79300 48.47900 39.16100
H  10.43000 49.08500 38.92700
H  9.91900 49.97000 37.18600
H  9.22400 51.34100 38.16100
H  12.15700 54.96100 38.31800
H  12.81300 56.36000 39.18700
H  11.85200 56.61900 37.66400
H  8.17400 59.68000 38.17600
H  9.43800 60.83700 38.25400
H  8.73500 60.21600 39.72700
H  4.55600 58.37000 40.07400
H  3.61900 57.14500 42.54900
H  6.36100 59.40200 41.79700
H  5.04300 58.84800 42.98800
H  4.61500 59.89800 41.81300
H  2.11900 56.15500 40.37600
H  2.63400 57.69300 39.78900
H  1.58700 58.23000 42.37600
H  0.45600 57.18400 41.52200
H  0.92900 58.69200 40.82800
H  2.49600 52.21000 43.85400
H  2.00900 50.72500 43.22500
H  1.59200 52.17000 42.36900
H  7.08100 48.74300 41.89400
H  4.94700 45.40700 39.99700
H  6.11800 45.91400 38.74700
H  4.49400 46.65700 38.93900

