158

Mg -12.46600 16.49300 42.30200
C  -9.70000 14.51400 41.62800
C  -10.96300 18.98500 40.55100
C  -15.27400 18.00300 42.38000
C  -14.04400 13.49000 43.68700
N  -10.61300 16.64200 40.91800
C  -9.56700 15.69700 40.94600
C  -8.31200 16.31400 40.24500
C  -8.76000 17.80400 39.98900
C  -10.20900 17.82300 40.50700
C  -7.76200 18.78300 40.73200
C  -7.93400 15.66100 38.89300
C  -6.44200 15.48500 38.52700
H  -5.87000 16.34900 37.42700
N  -12.99600 18.29700 41.65200
C  -12.26300 19.23400 41.07000
C  -13.00800 20.44400 40.92300
C  -14.30400 20.22400 41.39000
C  -14.25200 18.80400 41.85600
C  -12.35900 21.69000 40.24900
C  -15.39700 21.19400 41.43800
O  -15.20700 22.32100 40.94300
C  -16.74000 20.93900 41.99100
N  -14.44800 15.80800 42.93800
C  -15.41200 16.72100 42.82100
C  -16.78300 16.04700 43.12000
C  -16.42400 14.53600 43.45100
C  -14.85500 14.61200 43.43300
C  -17.44200 16.90900 44.28900
C  -17.04600 13.58600 42.41800
C  -17.63400 12.16800 42.87000
N  -12.03100 14.46800 42.75300
C  -12.68500 13.39200 43.33400
C  -11.78800 12.29100 43.53000
C  -10.54800 12.72800 42.99400
C  -10.77200 14.03800 42.40500
C  -12.04800 11.00200 44.30000
C  -9.18200 12.31600 42.74500
O  -8.66800 11.28500 43.14900
C  -8.55200 13.44800 41.88200
C  -7.50700 14.03000 42.78300
O  -7.71500 14.62600 43.80300
O  -6.23200 13.80000 42.33500
C  -5.18700 14.48000 43.12400
H  -10.42200 19.87900 40.23300
H  -16.19500 18.56900 42.22200
H  -14.40500 12.53100 44.06400
H  -7.46300 16.17300 40.91400
H  -8.76000 18.10400 38.94100
H  -8.14300 19.27300 41.62800
H  -7.45500 19.53600 40.00700
H  -6.93500 18.24600 41.19600
H  -8.40200 16.12900 38.02700
H  -8.50600 14.73800 38.79900
H  -6.19300 14.45200 38.28100
H  -5.78700 15.83400 39.32400
H  -12.77200 22.60800 40.66800
H  -12.50300 21.62000 39.17100
H  -11.29700 21.70100 40.49300
H  -16.62000 20.50000 42.98200
H  -17.34100 20.35300 41.29600
H  -17.22100 21.90600 42.13500
H  -17.50700 16.00800 42.30600
H  -16.83600 14.38300 44.44900
H  -16.81300 17.72500 44.64400
H  -17.59800 16.15800 45.06400
H  -18.46800 17.23000 44.10800
H  -16.31500 13.42800 41.62600
H  -17.99200 14.03700 42.11900
H  -17.20100 11.89400 43.83200
H  -17.27500 11.39100 42.19500
H  -18.72200 12.22200 42.82800
H  -11.33300 10.80200 45.09800
H  -11.98700 10.19200 43.57300
H  -13.04800 10.97000 44.73100
H  -8.00800 12.98300 41.06100
H  -4.23400 14.01700 42.86900
H  -5.32000 14.34600 44.19700
H  -5.23800 15.52800 42.82800
Mg -6.40700 24.71200 26.19000
C  -4.85100 25.80000 29.24500
C  -8.50800 22.78500 28.03000
C  -7.45500 23.35500 23.25800
C  -4.16900 26.70700 24.48800
N  -6.74200 24.44100 28.37500
C  -6.00000 24.93700 29.45500
C  -6.66500 24.57900 30.79600
C  -7.74900 23.51200 30.41200
C  -7.76300 23.66700 28.85500
C  -7.48800 22.08600 30.99000
C  -7.06200 25.84300 31.65800
C  -6.53000 26.01300 33.04700
H  -5.87000 24.85500 33.85100
N  -7.82100 23.22600 25.73400
C  -8.58300 22.55700 26.63900
C  -9.44800 21.66100 25.90500
C  -9.18700 21.83900 24.48800
C  -8.09300 22.79500 24.45000
C  -10.45500 20.80000 26.59100
C  -9.94000 21.29000 23.28700
O  -9.51700 21.37600 22.13400
C  -11.13400 20.37500 23.56600
N  -5.82600 24.90400 24.23200
C  -6.38800 24.25300 23.17200
C  -5.78200 24.65800 21.81800
C  -4.71100 25.71700 22.26900
C  -4.86800 25.82300 23.74500
C  -5.17000 23.43400 21.01700
C  -4.81300 27.00200 21.51900
C  -4.11900 27.00900 20.12900
N  -4.86400 25.94400 26.70800
C  -4.06100 26.76000 25.85300
C  -3.10800 27.51600 26.66100
C  -3.42500 27.17000 27.94700
C  -4.45000 26.23700 27.95800
C  -2.06000 28.38700 26.10200
C  -3.02000 27.41700 29.31900
O  -2.15200 28.09200 29.74700
C  -3.92000 26.48800 30.20700
C  -3.06500 25.55900 30.93500
O  -2.67100 24.45000 30.52000
O  -2.65900 26.10500 32.12400
C  -1.58800 25.49100 32.83300
H  -9.04300 22.05900 28.64500
H  -7.88400 22.95900 22.33500
H  -3.40200 27.29800 23.98300
H  -5.93800 24.12400 31.46900
H  -8.75500 23.79400 30.72500
H  -7.31300 21.26900 30.29100
H  -8.30800 21.79400 31.64700
H  -6.58000 22.15300 31.58800
H  -8.15100 25.84700 31.71200
H  -6.76700 26.73000 31.09800
H  -7.32600 26.44200 33.65500
H  -5.73500 26.74400 32.90000
H  -11.44500 21.23900 26.46900
H  -10.30500 20.77400 27.67000
H  -10.49700 19.75900 26.27200
H  -11.45400 19.97100 22.60500
H  -11.92400 21.01500 23.96000
H  -11.01900 19.50300 24.21000
H  -6.60600 25.12600 21.28000
H  -3.69900 25.31300 22.23000
H  -5.19900 22.47600 21.53700
H  -4.09000 23.53300 20.91000
H  -5.58700 23.36000 20.01300
H  -4.51300 27.85100 22.13300
H  -5.88300 27.17300 21.39800
H  -3.54700 27.92900 20.00700
H  -4.89600 26.85400 19.38000
H  -3.45200 26.15700 20.00100
H  -1.57100 29.01300 26.84700
H  -2.35100 29.08000 25.31200
H  -1.24900 27.80100 25.67000
H  -4.44200 27.21100 30.83400
H  -1.33100 24.49500 32.47100
H  -1.95700 25.40200 33.85500
H  -0.59300 25.93500 32.84400

