158

Mg 54.52400 24.39800 44.89800
C  51.93000 26.33500 43.87000
C  52.83900 21.62500 43.81600
C  57.34900 22.52600 45.28700
C  56.43600 27.29500 45.41100
N  52.71300 24.05600 43.84100
C  51.83500 24.98500 43.44000
C  50.66600 24.34900 42.67800
C  50.67900 22.94000 43.31200
C  52.18900 22.82200 43.69600
C  49.66000 22.64100 44.50500
C  50.93600 24.53200 41.13300
C  49.68500 24.71600 40.33400
H  49.59300 23.96800 39.03200
N  54.93900 22.36700 44.67800
C  54.09000 21.36800 44.21900
C  54.73700 20.07000 44.41600
C  56.05700 20.33200 44.87700
C  56.17800 21.79400 45.01600
C  54.05300 18.75400 44.02700
C  57.09000 19.19700 45.25500
O  56.80800 17.99500 45.16600
C  58.60300 19.49700 45.50800
N  56.57800 24.84600 44.99000
C  57.52700 23.94500 45.21100
C  58.96400 24.55700 45.31900
C  58.67300 26.08300 45.51500
C  57.06400 26.08300 45.32100
C  59.61900 24.01100 46.56700
C  59.35500 26.98900 44.46900
C  60.37500 28.05500 44.93000
N  54.24800 26.44900 44.79500
C  55.04000 27.51100 45.15300
C  54.22700 28.72100 45.15300
C  52.91200 28.32900 44.65700
C  53.05400 26.90100 44.46500
C  54.68200 30.09000 45.62500
C  51.60100 28.77500 44.25800
O  51.05600 29.84900 44.26200
C  50.92800 27.45700 43.75300
C  50.39400 27.91700 42.47000
O  50.94200 27.97100 41.39400
O  49.08800 28.26300 42.67400
C  48.32400 28.52400 41.47700
H  52.31400 20.68400 43.64000
H  58.27900 21.95300 45.27900
H  57.04200 28.14900 45.72100
H  49.81300 24.90900 43.06000
H  50.45700 22.19800 42.54500
H  50.17900 22.15500 45.33100
H  48.96300 21.87900 44.15400
H  49.25800 23.61100 44.79500
H  51.57100 23.72800 40.76100
H  51.47200 25.47900 41.07400
H  49.47900 25.77200 40.15600
H  48.89900 24.33000 40.98300
H  54.79500 18.00000 43.76500
H  53.57400 19.07700 43.10200
H  53.26900 18.28100 44.61700
H  59.06900 19.92100 44.61800
H  59.09600 18.53000 45.60500
H  58.73200 20.06700 46.42800
H  59.49700 24.35400 44.39000
H  58.75200 26.28800 46.58200
H  59.01000 23.28700 47.10900
H  60.10200 24.67800 47.28200
H  60.45800 23.47100 46.12900
H  58.60400 27.55000 43.91300
H  59.91500 26.32900 43.80700
H  60.50500 28.87800 44.22800
H  61.38900 27.65500 44.91100
H  60.21300 28.51200 45.90600
H  54.27400 30.77700 44.88400
H  55.75100 30.07100 45.84100
H  54.22000 30.25400 46.59800
H  50.12100 27.17600 44.42900
H  48.75000 27.97800 40.63500
H  48.37800 29.57200 41.18400
H  47.28300 28.22900 41.60600
Mg -9.85200 39.88400 39.86500
C  -8.90200 36.51700 39.13600
C  -6.57000 40.86400 39.32200
C  -10.78800 43.08200 39.65700
C  -13.17000 38.73600 39.95900
N  -8.08400 38.77800 39.23400
C  -7.83100 37.42800 39.02300
C  -6.40200 37.11700 38.53800
C  -5.65200 38.45100 38.96600
C  -6.83400 39.50100 39.14800
C  -4.69900 38.39100 40.20800
C  -6.27400 36.84400 36.89000
C  -7.39300 37.39300 35.96600
H  -8.08000 36.57100 34.87900
N  -8.82500 41.74400 39.56700
C  -7.48700 41.87100 39.40900
C  -7.17100 43.35000 39.36800
C  -8.35300 43.99000 39.35200
C  -9.38200 42.96600 39.53700
C  -5.74100 43.84000 39.33500
C  -8.56100 45.43900 39.07600
O  -7.61100 46.21100 39.06200
C  -9.96400 46.03300 38.78200
N  -11.71500 40.74100 39.75600
C  -11.83900 42.11500 39.65900
C  -13.27400 42.51300 39.43300
C  -14.05100 41.09900 39.54800
C  -12.95000 40.13900 39.76000
C  -13.94300 43.62100 40.28800
C  -14.95500 40.85400 38.32200
C  -16.42000 40.37600 38.45800
N  -10.87900 38.00200 39.77100
C  -12.21200 37.67700 39.86200
C  -12.42200 36.26300 39.85300
C  -11.14400 35.74500 39.51600
C  -10.23900 36.86600 39.53400
C  -13.61700 35.38600 40.16100
C  -10.40700 34.55100 39.21800
O  -10.73600 33.39000 39.14700
C  -8.91100 35.06800 38.96300
C  -8.02400 34.34900 39.88500
O  -8.23800 34.07500 41.07500
O  -6.89200 33.93200 39.25200
C  -5.88200 33.16200 40.04300
H  -5.49400 41.04700 39.27300
H  -11.22100 44.08300 39.59900
H  -14.20000 38.37900 39.88500
H  -5.96900 36.29600 39.10900
H  -5.08100 38.75800 38.09100
H  -3.69400 38.74600 39.98000
H  -4.70900 37.38700 40.63000
H  -5.13700 38.98900 41.00700
H  -6.39500 35.76600 36.78800
H  -5.27400 36.97800 36.47800
H  -6.95300 38.29200 35.53400
H  -8.23900 37.85100 36.47800
H  -5.40000 44.03300 38.31800
H  -5.06400 43.15900 39.85100
H  -5.53000 44.79900 39.80800
H  -10.58900 46.09100 39.67300
H  -10.59900 45.62500 37.99500
H  -9.74700 47.04500 38.44100
H  -13.10200 42.91600 38.43500
H  -14.68500 41.04400 40.43300
H  -14.72300 43.27700 40.96800
H  -14.43400 44.34100 39.63300
H  -13.23100 44.10900 40.95300
H  -14.46200 39.95700 37.94900
H  -14.70700 41.62200 37.58900
H  -17.08700 40.95600 37.82100
H  -16.84900 40.31300 39.45800
H  -16.56000 39.42100 37.95100
H  -14.16000 36.00000 40.87900
H  -13.29100 34.44700 40.60800
H  -14.15100 35.11200 39.25100
H  -8.71800 34.79800 37.92500
H  -5.49700 32.26600 39.55700
H  -6.35100 32.68300 40.90300
H  -5.03900 33.83200 40.21500

