158

Mg 54.61900 23.94300 45.03400
C  52.11100 26.26500 44.20900
C  52.67700 21.45000 43.80600
C  57.48800 22.01800 45.08800
C  56.64400 26.80000 46.09400
N  52.72300 23.95500 43.96500
C  51.82700 24.91800 43.75400
C  50.58900 24.46400 42.94500
C  50.71500 22.94100 43.37500
C  52.13800 22.74700 43.74700
C  49.83700 22.60900 44.61800
C  50.64200 24.81100 41.44400
C  49.27300 25.26800 40.88900
H  48.94500 24.70500 39.48100
N  55.00100 22.00100 44.55800
C  54.02100 21.13300 44.10400
C  54.71100 19.79400 43.91600
C  56.08200 19.94400 44.31700
C  56.29600 21.37300 44.69800
C  54.05500 18.53800 43.36900
C  57.12600 18.87200 44.11100
O  56.82800 17.75100 43.65100
C  58.58100 19.02100 44.58700
N  56.77400 24.32200 45.68700
C  57.70700 23.34500 45.54200
C  59.09100 23.94500 45.75800
C  58.86400 25.36100 46.33700
C  57.36300 25.57800 45.98400
C  60.02000 23.14700 46.69600
C  59.94500 26.40600 45.98300
C  60.90500 26.97400 47.01900
N  54.35800 26.09900 45.24400
C  55.24500 27.09200 45.71000
C  54.59500 28.35900 45.71000
C  53.36100 28.08700 45.10300
C  53.28900 26.70000 44.83000
C  55.08100 29.62100 46.27100
C  52.10200 28.67900 44.71600
O  51.71900 29.85100 44.83100
C  51.35300 27.56300 43.97600
C  51.49100 27.90400 42.49900
O  52.60900 27.91200 41.95500
O  50.31100 28.38000 41.98700
C  50.36300 29.17500 40.81400
H  52.03400 20.60900 43.53600
H  58.38000 21.41900 44.89100
H  57.20900 27.64300 46.49500
H  49.75400 25.02900 43.35800
H  50.43700 22.22600 42.59900
H  49.14500 23.39200 44.92900
H  50.58500 22.49600 45.40300
H  49.39500 21.62800 44.44500
H  51.03100 23.92200 40.94900
H  51.40500 25.58700 41.38700
H  49.20900 26.35500 40.84100
H  48.49400 24.98500 41.59700
H  54.20800 17.80600 44.16200
H  54.52400 17.94800 42.58200
H  52.98200 18.64400 43.21100
H  59.18700 19.65300 43.93800
H  59.02800 18.02700 44.61100
H  58.75100 19.42700 45.58400
H  59.46400 23.94400 44.73400
H  58.72800 25.37300 47.41800
H  60.54200 23.85300 47.34200
H  60.69000 22.44200 46.20400
H  59.40600 22.54400 47.36600
H  59.54800 27.26900 45.44700
H  60.66300 25.95300 45.29900
H  61.83000 26.48500 47.32400
H  60.23500 27.06300 47.87500
H  61.24700 27.96800 46.73100
H  54.19300 30.24800 46.34900
H  55.81800 30.14300 45.66100
H  55.64800 29.66400 47.20100
H  50.35400 27.56200 44.41300
H  51.36500 29.58400 40.68800
H  49.78700 30.06700 41.05800
H  49.89800 28.62500 39.99600
Mg -10.01800 16.96600 40.44500
C  -6.60900 16.84400 40.54400
C  -9.76700 20.35800 39.57300
C  -13.40000 17.04400 39.95900
C  -10.05800 13.48900 40.44500
N  -8.35200 18.34600 39.96100
C  -7.07600 18.05000 40.10500
C  -6.26500 19.22300 39.53500
C  -7.17000 20.43900 39.74400
C  -8.50400 19.71300 39.75300
C  -6.95000 21.30900 40.98700
C  -5.79100 18.94200 38.07100
C  -4.37800 18.61500 37.66000
H  -4.14500 17.22900 37.01400
N  -11.38200 18.53400 39.92200
C  -11.08300 19.86600 39.54600
C  -12.30800 20.56900 39.28300
C  -13.37600 19.61400 39.44900
C  -12.72100 18.33200 39.82200
C  -12.27700 22.02200 38.99900
C  -14.79100 19.91200 39.36000
O  -15.10400 21.08400 39.13600
C  -15.87000 18.96200 39.59200
N  -11.47900 15.49300 40.18700
C  -12.85600 15.76700 40.06300
C  -13.68500 14.47500 39.98300
C  -12.51000 13.33500 39.95300
C  -11.25600 14.16500 40.19800
C  -14.67100 14.23600 41.10800
C  -12.33000 12.57000 38.58200
C  -12.39500 11.00400 38.63600
N  -8.67500 15.36900 40.57100
C  -8.82700 14.09400 40.64100
C  -7.46200 13.46200 40.98600
C  -6.58300 14.54100 41.06600
C  -7.37000 15.63200 40.70800
C  -7.30300 11.99400 41.20600
C  -5.20900 14.94900 41.25600
O  -4.25700 14.26300 41.66500
C  -5.10900 16.42700 40.82400
C  -4.62600 17.36500 41.93400
O  -5.30200 18.17500 42.53600
O  -3.32900 17.10800 42.24300
C  -2.73800 18.01100 43.24000
H  -9.60500 21.38900 39.25100
H  -14.44700 17.01300 39.65100
H  -10.18500 12.40500 40.47200
H  -5.38000 19.24900 40.17100
H  -7.25700 21.17200 38.94200
H  -6.04800 21.00600 41.51800
H  -7.80200 21.18000 41.65500
H  -6.75600 22.34300 40.70500
H  -6.02300 19.79500 37.43400
H  -6.41600 18.16000 37.64000
H  -3.75500 18.72000 38.54800
H  -4.14500 19.32500 36.86700
H  -12.25200 22.59300 39.92700
H  -13.03100 22.25300 38.24700
H  -11.32800 22.28300 38.52900
H  -15.70100 18.51800 40.57300
H  -15.86100 18.20200 38.81000
H  -16.84600 19.44500 39.56600
H  -14.27800 14.46100 39.06800
H  -12.67200 12.64200 40.77900
H  -14.47300 14.93900 41.91700
H  -14.55400 13.20300 41.43400
H  -15.71100 14.48300 40.89200
H  -11.34200 12.78700 38.17400
H  -13.00900 12.91400 37.80200
H  -12.00800 10.70800 39.61100
H  -11.63900 10.58200 37.97300
H  -13.39800 10.62300 38.44500
H  -6.47100 11.66100 41.82700
H  -7.15100 11.46600 40.26500
H  -8.12200 11.51300 41.74100
H  -4.53100 16.53800 39.90700
H  -2.80400 18.98600 42.75700
H  -1.69400 17.91700 43.54100
H  -3.36100 17.99200 44.13400

