158

Mg 8.46100 4.50500 27.99800
C  9.77000 2.89300 30.74000
C  6.61500 6.45200 30.12700
C  7.05100 5.90700 25.27400
C  10.15600 2.24500 25.92200
N  8.12600 4.55300 30.25000
C  8.87500 3.91500 31.18400
C  8.58900 4.41500 32.61900
C  7.41400 5.51400 32.34100
C  7.37200 5.51900 30.77400
C  6.09400 5.15400 33.08300
C  9.88000 5.07000 33.25800
C  9.54200 5.77000 34.55700
H  10.37400 5.24700 35.81400
N  6.98700 5.94700 27.79100
C  6.40900 6.67300 28.79200
C  5.41800 7.61100 28.20200
C  5.65900 7.56700 26.76500
C  6.61000 6.46200 26.53900
C  4.53800 8.55500 29.06000
C  4.90900 8.27600 25.67300
O  5.12300 8.13900 24.47700
C  3.68600 9.10100 25.98800
N  8.43900 3.99200 25.89400
C  7.85100 4.80900 24.97200
C  8.20700 4.37500 23.52700
C  9.33900 3.35400 23.71700
C  9.31400 3.09500 25.26500
C  7.02000 3.98400 22.64000
C  10.69600 3.82100 23.23400
C  11.66200 2.61400 22.85900
N  9.71100 2.92300 28.24000
C  10.31600 2.06100 27.33800
C  11.08600 1.05400 27.97700
C  10.96700 1.35200 29.40300
C  10.12900 2.55300 29.43300
C  11.85900 -0.01100 27.27100
C  11.33900 0.99500 30.62300
O  12.17800 0.14100 30.96600
C  10.64000 1.95200 31.57300
C  9.88000 1.15800 32.60300
O  8.92300 0.42000 32.41000
O  10.45900 1.48900 33.82800
C  9.82600 0.98800 35.04000
H  6.19500 7.18300 30.82200
H  6.68000 6.37100 24.35700
H  10.74800 1.67600 25.20300
H  8.34300 3.55500 33.24200
H  7.73300 6.53500 32.54800
H  5.34400 4.92800 32.32400
H  5.85400 6.10300 33.56100
H  6.20800 4.31100 33.76500
H  10.37500 5.74600 32.56200
H  10.51100 4.19800 33.43100
H  8.48900 5.67200 34.81900
H  9.58300 6.85800 34.51900
H  4.79000 8.68700 30.11200
H  3.52000 8.17600 28.97000
H  4.60500 9.51000 28.53900
H  2.90200 8.55200 26.51000
H  3.27100 9.57500 25.09900
H  3.94600 9.94200 26.63100
H  8.58900 5.31000 23.11700
H  9.00200 2.41300 23.28200
H  6.17400 4.12800 23.31200
H  7.10700 2.89800 22.68400
H  6.95900 4.27900 21.59300
H  11.26900 4.41000 23.95000
H  10.63500 4.51000 22.39200
H  11.72900 2.74300 21.77900
H  11.27500 1.62400 23.09900
H  12.65900 2.80500 23.25600
H  12.78700 0.45800 26.94600
H  11.26600 -0.38300 26.43500
H  12.11900 -0.79600 27.98100
H  11.40600 2.49600 32.12500
H  10.63400 0.82300 35.75300
H  9.15800 0.12700 34.99400
H  9.21800 1.80800 35.42400
Mg -10.34200 39.88500 39.53600
C  -9.53900 36.53200 38.69800
C  -7.29000 40.80100 38.52900
C  -11.44500 43.07400 39.50400
C  -13.60000 38.84600 40.31800
N  -8.57800 38.68900 38.82100
C  -8.45200 37.34200 38.53300
C  -7.02000 37.04800 37.96100
C  -6.26600 38.41500 38.31100
C  -7.42600 39.37200 38.57300
C  -5.27300 38.37700 39.55500
C  -7.08500 36.60300 36.43900
C  -7.52800 37.66700 35.45800
H  -8.80000 37.52500 34.67500
N  -9.47700 41.71200 39.05400
C  -8.20900 41.90300 38.63200
C  -7.93700 43.28200 38.45400
C  -9.18800 43.98800 38.69900
C  -10.13300 42.90200 39.16400
C  -6.67400 43.83800 37.90900
C  -9.46200 45.48100 38.38100
O  -8.57700 46.15500 37.80000
C  -10.69700 46.30800 38.67400
N  -12.36200 40.83700 39.76600
C  -12.49000 42.17900 39.77400
C  -13.85800 42.50900 40.24700
C  -14.34400 41.20100 40.96000
C  -13.43500 40.26300 40.25200
C  -14.13300 43.87000 41.12100
C  -15.88900 40.99000 40.89000
C  -16.45200 40.42900 39.67800
N  -11.40400 38.10700 39.53100
C  -12.72800 37.83100 39.79400
C  -13.04900 36.40600 39.62700
C  -11.84400 35.90500 39.19700
C  -10.88500 36.93100 39.14300
C  -14.33100 35.75200 39.93500
C  -11.18400 34.61700 38.78200
O  -11.65600 33.49100 38.59700
C  -9.66300 35.03100 38.57000
C  -8.87000 34.34300 39.59300
O  -9.04600 34.31700 40.79500
O  -7.96100 33.50100 38.92400
C  -6.89100 32.81700 39.70600
H  -6.32300 41.21400 38.23300
H  -11.72700 44.12800 39.55400
H  -14.61000 38.47300 40.50500
H  -6.68100 36.23500 38.60300
H  -5.64900 38.63300 37.44000
H  -5.58200 38.96700 40.41800
H  -4.32300 38.64800 39.09400
H  -5.31600 37.38200 39.99700
H  -7.68000 35.69100 36.49900
H  -6.04800 36.29700 36.30600
H  -6.82900 37.66100 34.62200
H  -7.47500 38.70300 35.79100
H  -6.77200 44.30000 36.92600
H  -5.92900 43.07000 37.70200
H  -6.34300 44.63200 38.57800
H  -10.77900 46.36600 39.76000
H  -11.59900 45.83300 38.28600
H  -10.57200 47.32100 38.29300
H  -14.38200 42.55100 39.29200
H  -14.09600 41.15100 42.02000
H  -13.18800 44.37300 41.32200
H  -14.70200 43.55000 41.99400
H  -14.87000 44.52400 40.65500
H  -16.17700 42.03800 40.96600
H  -16.18500 40.45300 41.79200
H  -17.13500 41.15400 39.23400
H  -17.03300 39.58800 40.05800
H  -15.69600 40.14800 38.94500
H  -14.82500 36.41900 40.64100
H  -14.21500 34.75800 40.36500
H  -14.84500 35.64300 38.98000
H  -9.50800 34.67200 37.55200
H  -7.32500 32.11200 40.41500
H  -6.30100 33.57600 40.22100
H  -6.36100 32.23400 38.95300

