158

Mg 46.32000 24.83500 28.23500
C  47.32400 26.91300 30.95900
C  45.57900 22.42900 30.55800
C  46.36100 22.65900 25.76500
C  47.38200 27.43400 26.10800
N  46.32400 24.77400 30.47900
C  46.71300 25.74100 31.34600
C  46.25800 25.35600 32.81600
C  45.88500 23.83900 32.68000
C  45.92300 23.65200 31.14200
C  46.88000 22.81300 33.32700
C  45.22700 26.32900 33.48600
C  45.54800 27.01100 34.80500
H  44.49800 27.08700 35.92900
N  45.94100 22.87700 28.20700
C  45.57800 22.03600 29.22300
C  45.18300 20.77900 28.67600
C  45.45600 20.76700 27.26600
C  46.00200 22.16800 27.00500
C  44.53600 19.66200 29.44400
C  45.11600 19.69000 26.19500
O  45.32200 19.85300 25.02400
C  44.59400 18.41000 26.58600
N  46.77600 25.02500 26.23700
C  46.72600 23.97200 25.37300
C  47.23900 24.36200 23.95800
C  47.21300 25.92500 24.05300
C  47.14600 26.16900 25.53500
C  48.57300 23.81400 23.39400
C  46.06600 26.61100 23.24000
C  46.46700 27.59800 22.18600
N  47.17300 26.74400 28.37100
C  47.53300 27.74600 27.46800
C  48.17800 28.85200 28.06100
C  47.97300 28.57800 29.47300
C  47.47200 27.24700 29.60700
C  48.91600 29.91200 27.38400
C  48.26800 29.14600 30.77300
O  48.86600 30.18600 30.99400
C  47.73900 28.10800 31.90700
C  48.95100 27.77100 32.75200
O  50.12900 27.63700 32.37000
O  48.59400 27.64800 34.08900
C  49.52500 27.29200 35.12500
H  45.29100 21.66700 31.28600
H  46.34900 21.90500 24.97500
H  47.65200 28.14200 25.32200
H  47.12000 25.36900 33.48200
H  44.85300 23.67300 32.99000
H  47.02000 23.18800 34.34100
H  47.82200 22.87700 32.78300
H  46.56700 21.77600 33.45000
H  44.31600 25.73900 33.58900
H  45.06500 27.12900 32.76400
H  45.77600 28.07000 34.68200
H  46.38400 26.48200 35.26300
H  45.04900 18.70900 29.31600
H  43.48100 19.52500 29.20600
H  44.51600 19.93000 30.50000
H  45.26000 17.88200 27.26800
H  44.31500 17.75600 25.76000
H  43.69800 18.71300 27.12800
H  46.57500 24.07600 23.14300
H  48.09800 26.47100 23.72600
H  48.42200 23.49800 22.36200
H  49.01000 23.03300 24.01500
H  49.34200 24.58600 23.36800
H  45.29900 27.04600 23.88100
H  45.55700 25.85600 22.64200
H  47.51000 27.53300 21.87700
H  46.26100 28.57200 22.63200
H  45.84900 27.46500 21.29800
H  49.11200 29.72000 26.32900
H  49.92800 30.02500 27.77200
H  48.39300 30.86100 27.50400
H  46.90600 28.49800 32.49200
H  49.62500 28.16300 35.77200
H  50.51000 27.12500 34.68900
H  49.17900 26.44100 35.71100
Mg 36.49100 50.08200 24.97200
C  36.12000 48.52100 28.19800
C  35.83900 53.05900 26.37000
C  36.46400 51.19600 21.97700
C  37.12100 46.72900 23.68000
N  35.95800 50.59200 27.11000
C  35.93700 49.89000 28.29900
C  35.73100 50.79300 29.50000
C  35.42000 52.19000 28.83700
C  35.81300 51.93900 27.34700
C  33.89200 52.63100 29.00900
C  36.92500 50.79100 30.48200
C  36.68000 50.47700 32.01900
H  35.51400 51.10400 32.80900
N  36.16400 51.91400 24.26300
C  36.04900 53.03200 25.00700
C  36.01500 54.17100 24.08300
C  36.15200 53.64500 22.78200
C  36.23300 52.24700 22.94400
C  35.86600 55.58700 24.57200
C  36.18500 54.40200 21.47000
O  36.19100 53.79700 20.39400
C  36.17300 55.87400 21.42400
N  36.66800 49.04900 23.04700
C  36.57800 49.79200 22.00900
C  36.92600 48.99800 20.70800
C  37.26600 47.58400 21.21400
C  37.02800 47.80300 22.71900
C  35.72900 48.94800 19.65400
C  38.75700 47.17200 21.12800
C  39.39600 47.05600 19.68300
N  36.56500 48.08700 25.66600
C  36.86600 46.87500 25.03800
C  36.88600 45.76400 26.02300
C  36.58800 46.38700 27.22600
C  36.36500 47.75800 26.99400
C  37.21100 44.31400 25.85800
C  36.53000 46.10200 28.67300
O  36.66400 45.05200 29.22200
C  36.24400 47.50600 29.26000
C  35.05100 47.26500 30.00300
O  33.90500 47.18900 29.56900
O  35.33500 47.04400 31.31800
C  34.34300 46.44800 32.22300
H  35.71100 54.05400 26.80200
H  36.80400 51.56900 21.00800
H  37.39300 45.78100 23.21300
H  34.82700 50.40100 29.96700
H  36.10000 52.93400 29.25100
H  33.35900 51.83400 29.52900
H  33.47600 52.69800 28.00400
H  33.92900 53.60400 29.49900
H  37.43400 51.74700 30.36100
H  37.68500 50.05100 30.23300
H  37.62200 50.73800 32.50000
H  36.54200 49.40900 32.18900
H  35.02800 56.14700 24.15700
H  36.83800 56.02800 24.34900
H  35.83600 55.67900 25.65800
H  35.19700 56.20600 21.77800
H  36.34400 56.28700 20.43100
H  36.89400 56.33300 22.10000
H  37.81200 49.41900 20.23400
H  36.70300 46.77000 20.75600
H  34.77300 48.93600 20.17800
H  35.79300 48.08000 18.99900
H  35.84600 49.89700 19.13000
H  38.86700 46.22700 21.65900
H  39.35600 47.84100 21.74600
H  39.84700 47.96900 19.29400
H  38.62400 46.65500 19.02700
H  40.13900 46.27000 19.54800
H  37.29800 43.77400 26.80100
H  38.03900 44.22200 25.15500
H  36.31400 43.91600 25.38400
H  37.05500 47.70900 29.95800
H  34.15000 47.21300 32.97500
H  34.86400 45.54200 32.53100
H  33.44300 46.09100 31.72000

