158

Mg 49.75100 35.58700 26.52700
C  47.68800 34.34500 29.27500
C  50.39600 38.39100 28.34800
C  51.62100 36.55000 23.93100
C  48.66000 32.74100 24.68400
N  49.02500 36.31300 28.60600
C  48.30600 35.60900 29.59200
C  48.40900 36.29100 30.92400
C  48.86700 37.79300 30.44400
C  49.46100 37.48500 29.06000
C  47.78800 38.84100 30.33200
C  49.44900 35.64700 31.77800
C  49.07300 35.49000 33.24000
H  48.02500 36.36300 33.87300
N  50.90000 37.25200 26.18000
C  51.08700 38.33500 27.04900
C  52.03600 39.23600 26.42800
C  52.49000 38.64500 25.18500
C  51.65700 37.42200 25.05100
C  52.37000 40.59900 27.08400
C  53.42200 39.34600 24.19900
O  53.68200 38.81400 23.09500
C  54.18800 40.64500 24.54200
N  50.00900 34.82100 24.54700
C  50.86200 35.37900 23.75100
C  51.07500 34.51900 22.44800
C  50.31400 33.28900 22.78200
C  49.60100 33.62700 24.05800
C  50.88700 35.13900 21.04900
C  51.22500 32.07200 23.08800
C  50.68800 30.68200 22.92900
N  48.37800 33.96100 26.81200
C  48.12300 32.86300 25.99900
C  47.33100 31.88400 26.72400
C  47.06900 32.47400 27.96000
C  47.79400 33.70800 28.01900
C  46.69700 30.68800 26.12000
C  46.37300 32.21100 29.19500
O  45.70400 31.28400 29.56900
C  46.64600 33.47800 30.07100
C  47.01100 32.98900 31.48700
O  48.13500 32.57000 31.78300
O  45.92200 32.84200 32.27900
C  46.20500 32.19700 33.60800
H  50.64400 39.16600 29.07600
H  52.28100 36.88400 23.12800
H  48.40500 31.84800 24.11000
H  47.40300 36.27500 31.34300
H  49.55000 38.28500 31.13600
H  48.14600 39.72000 30.86900
H  46.95400 38.41300 30.88800
H  47.52300 39.13100 29.31600
H  50.35000 36.25300 31.68400
H  49.53900 34.60400 31.47500
H  49.92500 35.38900 33.91200
H  48.70300 34.46500 33.24200
H  51.50800 40.84300 27.70600
H  52.37700 41.42500 26.37300
H  53.34900 40.62700 27.56200
H  53.76500 41.63200 24.35900
H  55.01200 40.60700 23.83000
H  54.44400 40.50800 25.59300
H  52.14500 34.31700 22.48600
H  49.55700 32.99400 22.05600
H  50.13200 34.58800 20.48800
H  51.81900 35.17900 20.48700
H  50.56700 36.16900 21.21000
H  51.74800 32.12100 24.04400
H  51.95300 32.06400 22.27700
H  51.14900 30.04700 23.68600
H  51.02700 30.30900 21.96200
H  49.61100 30.52000 22.95700
H  47.28700 30.19800 25.34600
H  45.71300 30.95500 25.73400
H  46.69900 29.97300 26.94300
H  45.65700 33.93600 30.06600
H  47.11200 31.59600 33.67800
H  45.36600 31.50500 33.68900
H  46.06900 32.86400 34.45900
Mg 9.34800 48.08800 25.96500
C  7.49900 47.71900 28.80200
C  12.07500 49.08400 27.70700
C  10.99800 48.39800 22.93400
C  6.38300 47.59800 24.07800
N  9.68700 48.42400 27.97600
C  8.83000 48.12800 29.01200
C  9.54100 48.28100 30.40600
C  10.90800 48.79700 29.92300
C  10.90300 48.71700 28.40300
C  11.29700 50.22200 30.58000
C  9.55000 46.98600 31.22400
C  10.48700 46.92300 32.41000
H  9.93400 46.38000 33.72800
N  11.23700 48.79900 25.40500
C  12.24000 49.05200 26.28300
C  13.50300 49.15700 25.57300
C  13.23800 48.96700 24.16600
C  11.73400 48.70100 24.14000
C  14.75000 49.43200 26.38700
C  14.14900 48.96700 22.98800
O  13.73800 48.86400 21.82700
C  15.59900 49.29600 23.12000
N  8.70000 48.14100 23.77100
C  9.61800 48.18800 22.79500
C  8.92100 47.85500 21.42300
C  7.41800 47.58200 21.77500
C  7.50000 47.76100 23.28400
C  9.10500 48.88000 20.20400
C  6.80500 46.28500 21.20200
C  7.41400 44.96200 21.75600
N  7.30000 47.83800 26.32500
C  6.23200 47.64500 25.48400
C  5.02800 47.39700 26.20300
C  5.46700 47.34200 27.59200
C  6.83700 47.69900 27.60600
C  3.64400 46.99200 25.75400
C  5.01000 47.15300 28.93900
O  3.90200 46.95400 29.38900
C  6.35400 47.31200 29.78200
C  6.52100 46.00100 30.45600
O  6.97000 44.99000 30.02200
O  6.09100 46.09200 31.80800
C  6.35800 44.96000 32.71900
H  13.01400 49.20400 28.25100
H  11.53300 48.40700 21.98200
H  5.44200 47.34500 23.58400
H  8.95200 48.96400 31.01900
H  11.76300 48.20800 30.25700
H  11.36700 51.07900 29.91100
H  12.29400 50.15100 31.01300
H  10.62000 50.50300 31.38600
H  9.76400 46.16600 30.53900
H  8.55500 46.90900 31.66400
H  10.68400 47.98000 32.58900
H  11.41700 46.39600 32.20000
H  15.42800 48.61500 26.14000
H  14.73400 49.56400 27.46900
H  15.17000 50.34600 25.96700
H  15.63100 50.19100 23.74100
H  16.04700 49.38600 22.13000
H  15.95600 48.34900 23.52400
H  9.46400 46.93500 21.20600
H  6.83400 48.37500 21.30900
H  9.09900 48.31400 19.27300
H  10.01000 49.45400 20.40500
H  8.25200 49.55800 20.22200
H  7.00600 46.29900 20.13100
H  5.73400 46.19600 21.38100
H  6.72100 44.12200 21.78200
H  7.77100 45.12900 22.77300
H  8.32200 44.68900 21.21700
H  3.20900 46.04300 26.06600
H  3.67800 46.90100 24.66800
H  3.01300 47.86400 25.92500
H  6.35000 48.05700 30.57700
H  7.24500 44.38100 32.45700
H  5.46600 44.34200 32.61600
H  6.30800 45.50000 33.66400

