158

Mg 41.46900 9.32600 29.83500
C  43.39200 10.55300 32.47500
C  39.34600 7.94600 32.18600
C  39.58100 8.24700 27.25200
C  43.90700 10.28100 27.59700
N  41.48400 9.09200 32.14100
C  42.27200 9.86500 32.94100
C  41.82400 9.81900 34.36200
C  40.65000 8.77400 34.28000
C  40.43200 8.57900 32.81300
C  41.04600 7.40100 34.86500
C  41.50500 11.21200 34.92400
C  40.39100 11.36800 36.03000
H  40.92000 11.89000 37.34300
N  39.73800 8.18100 29.74600
C  39.00700 7.74600 30.85100
C  37.83000 6.98100 30.34700
C  37.90100 7.11800 28.91900
C  39.11600 7.82100 28.60200
C  36.84600 6.27400 31.29500
C  36.83200 6.72500 27.89800
O  36.90100 6.90200 26.65000
C  35.66000 6.08900 28.49100
N  41.65000 9.25600 27.75900
C  40.66500 9.04000 26.92600
C  41.15300 9.11700 25.44900
C  42.40600 10.01400 25.52500
C  42.71700 9.78800 27.02900
C  41.50300 7.77200 24.85200
C  42.14100 11.45800 25.10900
C  41.19600 12.34400 25.89200
N  43.34000 10.10600 29.93800
C  44.21600 10.52400 28.96200
C  45.40200 11.04900 29.51600
C  45.09200 11.12300 30.89400
C  43.80100 10.58000 31.08800
C  46.51800 11.73400 28.83400
C  45.53000 11.59100 32.15200
O  46.55200 12.15100 32.54600
C  44.46900 11.21900 33.21200
C  45.16700 10.31200 34.19100
O  45.40000 9.10800 34.05700
O  45.58500 11.11600 35.26600
C  46.32300 10.41100 36.27300
H  38.62900 7.62300 32.94500
H  39.05600 7.79900 26.40600
H  44.71600 10.65900 26.96900
H  42.63600 9.47700 35.00300
H  39.64000 9.10500 34.52100
H  40.20300 6.80000 35.20600
H  41.77900 7.52500 35.66200
H  41.45900 6.79500 34.05800
H  41.16000 11.85900 34.11800
H  42.45200 11.63200 35.26600
H  39.91000 10.42200 36.27800
H  39.63200 12.07800 35.70300
H  35.83800 6.68900 31.26000
H  37.18800 6.37900 32.32400
H  36.86500 5.24400 30.94100
H  35.97500 5.17800 29.00100
H  34.91600 5.85800 27.72800
H  35.11600 6.76700 29.14900
H  40.43200 9.62300 24.80700
H  43.26800 9.60800 24.99600
H  42.47600 7.81100 24.36100
H  40.77700 7.52700 24.07700
H  41.54700 6.96100 25.57900
H  41.74500 11.31800 24.10300
H  43.08200 11.99500 24.99200
H  40.75100 11.85700 26.75900
H  40.38900 12.64500 25.22400
H  41.59500 13.31000 26.20100
H  46.89800 12.50300 29.50700
H  46.52600 12.04900 27.79100
H  47.21800 10.89900 28.82400
H  44.13700 12.11300 33.74000
H  47.31600 10.11200 35.93600
H  45.79800 9.54100 36.66900
H  46.52200 11.06600 37.12100
Mg 48.57600 45.23800 43.35600
C  45.39400 45.60200 41.81000
C  49.13000 42.61800 41.11900
C  51.94600 45.32000 43.90200
C  48.16100 48.47300 44.61700
N  47.39700 44.33300 41.63500
C  46.14800 44.60000 41.20200
C  45.69500 43.65700 40.12300
C  46.74200 42.51800 40.14500
C  47.88700 43.18400 41.02600
C  46.31500 41.15600 40.65900
C  45.47500 44.28400 38.65200
C  44.10100 43.90700 37.98900
H  44.24300 43.18000 36.65900
N  50.23100 43.95200 42.83300
C  50.20700 42.98300 41.94300
C  51.50200 42.28200 41.95200
C  52.36300 43.04100 42.80300
C  51.51700 44.15400 43.27900
C  51.78100 41.06000 41.16100
C  53.84500 42.73000 43.06700
O  54.36600 41.77100 42.52700
C  54.71100 43.63100 43.99100
N  49.87000 46.63500 44.16700
C  51.22200 46.43700 44.40000
C  51.83100 47.58300 45.07100
C  50.59300 48.59100 45.37500
C  49.49400 47.87400 44.63100
C  52.75700 47.37400 46.26000
C  50.84100 50.09400 45.10900
C  51.98700 50.68900 45.85800
N  47.03200 46.67700 43.46600
C  47.00300 47.92600 44.01000
C  45.62800 48.41000 44.04000
C  44.94900 47.51600 43.16300
C  45.84300 46.47400 42.84500
C  45.18300 49.61700 44.82500
C  43.72300 47.23200 42.60100
O  42.68500 47.84200 42.65300
C  43.93100 46.01400 41.67200
C  42.90400 45.03100 42.06800
O  41.77900 44.86700 41.50600
O  43.23600 44.49700 43.34800
C  42.19800 43.85700 44.17500
H  49.18800 41.77500 40.42700
H  52.99800 45.30800 44.19200
H  47.99000 49.49800 44.95400
H  44.74500 43.31400 40.53300
H  47.09600 42.39900 39.12100
H  46.32400 40.38300 39.89100
H  45.25300 41.20200 40.90000
H  46.82200 40.75900 41.53900
H  46.30800 44.26200 37.94900
H  45.42200 45.36000 38.82000
H  43.56800 44.82200 37.73100
H  43.45200 43.28300 38.60400
H  50.94000 40.54400 40.69700
H  52.24200 40.34300 41.83900
H  52.55300 41.35600 40.45100
H  54.25000 43.74000 44.97300
H  54.86800 44.60300 43.52400
H  55.64600 43.08200 44.10400
H  52.42500 47.98400 44.25000
H  50.35300 48.48400 46.43200
H  53.49200 48.17800 46.28900
H  53.48500 46.56400 46.21200
H  52.27700 47.42200 47.23700
H  49.99700 50.75600 45.30400
H  51.02500 50.23100 44.04300
H  51.72200 51.71100 46.12900
H  52.89000 50.92400 45.29400
H  52.32100 50.03600 46.66400
H  45.93500 49.86600 45.57400
H  44.22200 49.37100 45.27500
H  45.09200 50.50900 44.20500
H  43.67900 46.33800 40.66200
H  42.51200 42.83700 44.39500
H  41.20200 43.82200 43.73500
H  42.11100 44.43400 45.09600

