158

Mg 52.88300 24.18100 45.45700
C  50.08800 26.33500 44.76600
C  51.14000 21.78200 43.88700
C  55.65600 22.53600 45.53400
C  54.52000 27.11200 46.58200
N  50.89300 24.22100 44.19700
C  49.97800 25.12900 44.04300
C  48.74400 24.51200 43.26800
C  48.89900 23.01100 43.52300
C  50.40700 22.98500 43.94800
C  48.12000 22.35000 44.60500
C  48.75400 24.93700 41.76200
C  47.30100 25.04200 41.16500
H  46.89700 23.87300 40.23400
N  53.34800 22.41000 44.76500
C  52.51500 21.50500 44.21200
C  53.22700 20.25900 44.09400
C  54.55900 20.51300 44.55400
C  54.58200 21.93700 44.98900
C  52.65900 19.04700 43.37100
C  55.72600 19.48200 44.52500
O  55.51600 18.33300 44.06500
C  57.15500 19.80900 44.87400
N  54.85200 24.79800 45.86400
C  55.78500 23.87600 45.98000
C  56.95300 24.39200 46.85400
C  56.73000 25.94900 46.73600
C  55.27400 25.94300 46.38500
C  57.04300 23.81700 48.31400
C  57.54300 26.63800 45.62300
C  58.49800 27.79300 45.98200
N  52.39200 26.28200 45.87400
C  53.16100 27.32700 46.37100
C  52.29400 28.50300 46.56500
C  51.09200 28.13300 45.94900
C  51.21700 26.76600 45.51600
C  52.74400 29.89900 47.13300
C  49.73500 28.57300 45.68200
O  49.20600 29.57900 46.08100
C  49.13700 27.58300 44.72300
C  49.04800 28.25800 43.44400
O  49.93600 28.49100 42.67800
O  47.66300 28.35100 43.25400
C  47.27100 28.84400 41.91900
H  50.55100 20.99100 43.41700
H  56.50300 21.90800 45.81800
H  55.14400 27.96000 46.87400
H  47.73400 24.77900 43.57800
H  48.70600 22.48100 42.59000
H  47.42500 23.05900 45.05600
H  48.81100 21.92100 45.33000
H  47.59700 21.47900 44.21000
H  49.28800 24.24800 41.10700
H  49.24600 25.90800 41.81100
H  47.38200 25.89200 40.48800
H  46.52000 25.17200 41.91400
H  52.96000 18.90200 42.33300
H  51.58900 19.25700 43.34500
H  52.77600 18.07000 43.84000
H  57.84200 19.07100 44.46100
H  57.06500 19.82500 45.96000
H  57.43000 20.75600 44.40900
H  57.88000 24.12000 46.34900
H  56.95400 26.31000 47.73900
H  56.43000 22.92100 48.42000
H  56.76800 24.61500 49.00400
H  58.10200 23.60900 48.46400
H  56.90300 27.06900 44.85300
H  58.00900 25.82600 45.06400
H  58.41900 27.92800 47.06000
H  58.31000 28.77100 45.53900
H  59.53700 27.50200 45.82800
H  52.06700 30.26000 47.90800
H  52.75400 30.59100 46.29000
H  53.75000 29.83100 47.54700
H  48.10600 27.28200 44.91100
H  47.07400 29.91400 41.99000
H  46.33600 28.35200 41.65000
H  48.00800 28.50200 41.19200
Mg -1.03600 34.50300 26.59400
C  -2.26600 32.93500 29.44000
C  0.64200 36.66900 28.70900
C  -0.53500 36.58300 24.01300
C  -3.11400 32.49500 24.60400
N  -0.86000 34.71600 28.91200
C  -1.43100 33.99700 29.86900
C  -0.98700 34.44500 31.28300
C  0.01600 35.61100 30.97800
C  -0.03000 35.69400 29.44900
C  -0.36200 36.82000 31.81600
C  -0.37800 33.19300 32.02600
C  0.51600 33.60900 33.18300
H  0.28600 32.94100 34.56300
N  -0.09500 36.32900 26.41900
C  0.63700 37.05900 27.35600
C  1.28900 38.25400 26.73500
C  0.80700 38.32700 25.37300
C  -0.03400 37.09000 25.23200
C  2.34500 39.10400 27.53800
C  1.16000 39.36100 24.31900
O  0.64200 39.41500 23.20600
C  2.28400 40.43300 24.59900
N  -1.82100 34.60100 24.47900
C  -1.19600 35.44000 23.61700
C  -1.66900 35.10100 22.22500
C  -2.35400 33.68800 22.36200
C  -2.50100 33.59300 23.90400
C  -2.36200 36.26100 21.38800
C  -1.57500 32.48100 21.79400
C  -0.05600 32.30200 22.01800
N  -2.34200 32.97300 26.90100
C  -3.09100 32.20400 25.97600
C  -3.84100 31.28200 26.68400
C  -3.59000 31.49600 28.02500
C  -2.58900 32.51200 28.11400
C  -4.79800 30.30100 26.13400
C  -3.84700 31.03300 29.39900
O  -4.58700 30.11100 29.79100
C  -3.01700 31.98500 30.39100
C  -4.00700 32.63200 31.30600
O  -4.67800 33.60100 31.04100
O  -4.09500 31.96200 32.55100
C  -4.77200 32.68900 33.63000
H  1.38100 37.16800 29.33900
H  -0.23100 37.21300 23.17400
H  -3.71100 31.91800 23.89500
H  -1.92700 34.69900 31.77200
H  0.96500 35.23600 31.36100
H  -0.90100 37.55600 31.21900
H  0.49500 37.24200 32.33900
H  -0.92100 36.51300 32.70000
H  0.06800 32.47600 31.33600
H  -1.23400 32.72600 32.51200
H  0.48500 34.68900 33.32100
H  1.54800 33.37200 32.92400
H  3.08000 39.46800 26.82000
H  2.83800 38.47400 28.27800
H  2.04700 40.03200 28.02500
H  2.08900 41.03900 25.48400
H  2.29000 41.14400 23.77200
H  3.26200 39.97400 24.74300
H  -0.72700 34.92000 21.70800
H  -3.32900 33.65900 21.87400
H  -1.69000 36.85200 20.76600
H  -2.79100 36.96400 22.10100
H  -3.15900 35.77900 20.82200
H  -1.81100 32.54400 20.73200
H  -2.08400 31.58000 22.13600
H  0.29400 32.80500 22.92000
H  0.40000 32.74300 21.13200
H  0.16700 31.23600 21.97500
H  -5.20400 30.65700 25.18700
H  -5.54400 30.15700 26.91500
H  -4.34300 29.32000 25.99700
H  -2.34600 31.36500 30.98500
H  -4.02900 33.27800 34.16800
H  -5.36700 31.99600 34.22400
H  -5.59000 33.29800 33.24500

