158

Mg 25.95700 0.66000 29.21100
C  27.73400 0.59600 32.15100
C  23.15000 0.81600 31.05200
C  24.21600 0.60700 26.38600
C  28.96300 -0.03300 27.42300
N  25.50300 0.58600 31.42900
C  26.39500 0.74400 32.46100
C  25.73400 0.91500 33.78900
C  24.17000 0.94200 33.37600
C  24.27900 0.83800 31.85200
C  23.25100 -0.15300 34.10800
C  26.23600 2.24800 34.42200
C  26.84000 2.08600 35.84300
H  26.26900 2.93500 36.95800
N  23.97300 0.78400 28.80500
C  22.93700 0.76000 29.71300
C  21.68000 0.83400 28.96700
C  21.96200 0.76100 27.57600
C  23.40000 0.74000 27.53700
C  20.39800 1.09300 29.71500
C  21.01200 0.84600 26.40600
O  21.37500 0.95900 25.23400
C  19.56600 0.76100 26.63000
N  26.46300 0.22800 27.14800
C  25.53800 0.38300 26.16500
C  26.24800 0.36900 24.85600
C  27.79000 0.36600 25.16700
C  27.74100 0.15500 26.64600
C  25.82200 -0.81000 23.91400
C  28.56800 1.68700 24.79800
C  28.69700 2.04600 23.23300
N  27.98500 0.28200 29.60700
C  29.04800 -0.02600 28.86100
C  30.14100 -0.35700 29.71100
C  29.77000 -0.05500 31.05700
C  28.41900 0.30100 30.91700
C  31.48200 -0.61100 29.26000
C  30.19300 0.09500 32.41600
O  31.30300 -0.03700 32.99900
C  28.86200 0.45900 33.25700
C  28.49900 -0.65100 34.05600
O  27.93200 -1.67800 33.69600
O  29.01900 -0.41700 35.32400
C  29.16400 -1.55500 36.26200
H  22.32600 0.95600 31.75500
H  23.73100 0.62000 25.40700
H  29.91900 -0.16700 26.91400
H  25.81000 0.02300 34.41100
H  23.68100 1.86100 33.70000
H  22.31600 0.24400 34.50200
H  23.77100 -0.53700 34.98600
H  22.98400 -1.03900 33.53200
H  25.40700 2.95400 34.37900
H  27.06400 2.67600 33.85800
H  27.89200 2.35800 35.76300
H  26.77200 1.09900 36.30200
H  19.64200 0.30800 29.67800
H  19.97700 2.01400 29.31300
H  20.49600 1.25700 30.78800
H  19.07500 0.50100 25.69200
H  19.16800 1.69000 27.03700
H  19.35000 -0.10200 27.26000
H  25.97600 1.29600 24.35100
H  28.30600 -0.51400 24.78300
H  26.66200 -1.43100 23.60000
H  25.43600 -0.41700 22.97400
H  24.93600 -1.27900 24.34200
H  29.57300 1.75500 25.21400
H  28.03100 2.48300 25.31400
H  28.01200 1.46600 22.61500
H  29.72900 1.89900 22.91200
H  28.32200 3.06500 23.13800
H  31.53600 -0.69300 28.17500
H  31.96900 -1.42000 29.80500
H  32.08600 0.27400 29.46000
H  28.95700 1.33400 33.89900
H  29.18300 -2.54800 35.81400
H  28.33000 -1.64100 36.95900
H  30.12000 -1.33400 36.73700
Mg 27.02000 50.18200 27.34600
C  24.82400 51.07600 29.98900
C  29.43000 49.71800 29.76500
C  29.12400 49.83000 24.90900
C  24.43100 51.04600 25.10300
N  27.08400 50.32400 29.68900
C  26.03700 50.60200 30.52000
C  26.49100 50.35800 31.99300
C  28.05900 50.23100 31.86900
C  28.22900 50.07300 30.33600
C  28.80700 51.35600 32.48900
C  25.84400 49.11000 32.79600
C  24.64800 49.46000 33.76600
H  24.58300 48.85400 35.16300
N  28.99400 49.74000 27.29700
C  29.86000 49.54400 28.38400
C  31.13800 49.20400 27.84500
C  31.07200 49.40900 26.40400
C  29.70700 49.71200 26.16000
C  32.35600 49.09100 28.80300
C  32.14600 49.27800 25.37600
O  31.94700 49.51600 24.17200
C  33.50300 48.94300 25.77800
N  26.81200 50.46400 25.26600
C  27.79500 50.07800 24.45400
C  27.41600 50.04600 22.95000
C  25.87400 50.30500 23.10300
C  25.64600 50.58600 24.55500
C  28.12900 51.00000 22.00600
C  24.89600 49.26100 22.53600
C  24.67400 49.48800 21.02000
N  25.04800 51.00200 27.45700
C  24.13800 51.30500 26.47500
C  22.96400 51.79300 27.05600
C  23.17100 51.70100 28.44300
C  24.45400 51.16500 28.63500
C  21.78600 52.45200 26.40700
C  22.59300 52.01500 29.78000
O  21.48600 52.41400 30.07700
C  23.71000 51.56000 30.80100
C  24.23900 52.78300 31.56400
O  24.95900 53.70600 31.14300
O  23.78700 52.70500 32.86300
C  24.33600 53.61500 33.85100
H  30.22500 49.61500 30.50700
H  29.68500 49.58400 24.00500
H  23.72300 51.22900 24.29300
H  26.22700 51.26800 32.53200
H  28.47400 49.28900 32.22800
H  29.49500 51.04000 33.27300
H  28.09300 52.01100 32.98700
H  29.41000 51.84400 31.72300
H  26.70900 48.60500 33.22700
H  25.49000 48.46100 31.99500
H  23.79200 49.04400 33.23400
H  24.41600 50.52400 33.80600
H  32.08300 49.77300 29.60900
H  33.33300 49.36100 28.40300
H  32.35700 48.03800 29.08300
H  33.81100 49.82500 26.34000
H  34.00700 48.78700 24.82500
H  33.61900 48.16500 26.53300
H  27.51600 49.03800 22.54700
H  25.59000 51.26600 22.67500
H  28.93700 51.45900 22.57700
H  27.51900 51.81800 21.62300
H  28.54200 50.46300 21.15200
H  23.92900 49.07400 23.00500
H  25.44200 48.32200 22.62900
H  25.38300 50.12800 20.49600
H  23.67500 49.86500 20.79800
H  24.78200 48.48100 20.61700
H  20.91900 52.03800 26.92000
H  21.92000 52.16700 25.36400
H  21.86400 53.50200 26.68900
H  23.40300 50.90700 31.61700
H  25.27300 54.02800 33.47500
H  24.71700 53.06100 34.70900
H  23.68400 54.46400 34.05600

