158

Mg 40.46100 9.89600 30.25800
C  42.12000 11.15700 33.00400
C  37.97900 8.85200 32.37200
C  39.01400 8.36200 27.63900
C  43.07300 10.85600 28.16400
N  40.16900 9.98200 32.56100
C  40.87400 10.67200 33.41200
C  40.26900 10.79000 34.79400
C  38.97600 9.89100 34.60400
C  38.97900 9.57600 33.07300
C  38.98800 8.58900 35.43100
C  39.97300 12.25400 35.25200
C  40.85600 12.78100 36.49400
H  40.12700 13.47100 37.66000
N  38.65000 8.89000 30.00100
C  37.76000 8.56900 30.99900
C  36.53100 7.97300 30.40400
C  36.85400 7.85000 28.99400
C  38.27600 8.27700 28.80100
C  35.38300 7.45700 31.26900
C  36.01800 7.31800 27.89000
O  36.39100 7.16100 26.72800
C  34.55000 7.00000 28.17000
N  40.90400 9.74400 28.11800
C  40.18300 8.98200 27.30800
C  40.68100 9.15100 25.80800
C  42.12700 9.80600 25.99100
C  42.06300 10.18000 27.51000
C  40.61800 7.89800 24.94000
C  42.36200 10.96700 25.08400
C  41.61600 12.31200 25.48000
N  42.22600 10.84400 30.46600
C  43.23100 11.14000 29.52700
C  44.23900 11.84400 30.25200
C  43.89000 11.84900 31.57000
C  42.65600 11.18900 31.66500
C  45.46000 12.49500 29.58600
C  44.28100 12.33200 32.94000
O  45.22900 13.05700 33.23200
C  43.15200 11.81300 33.87700
C  43.69700 10.82600 34.89800
O  43.73400 9.58900 34.79900
O  44.19500 11.58900 35.95600
C  44.94700 10.96200 36.99300
H  37.22400 8.54600 33.09900
H  38.53400 7.93000 26.75800
H  43.89600 11.13500 27.50300
H  40.96700 10.33000 35.49300
H  38.06000 10.42400 34.85700
H  39.67500 8.70200 36.27000
H  39.32100 7.68300 34.92500
H  37.97300 8.47400 35.81200
H  38.90400 12.37600 35.42800
H  40.23800 12.82900 34.36500
H  41.51700 13.55200 36.09700
H  41.36600 11.87400 36.81900
H  35.46200 7.54500 32.35300
H  35.31900 6.39400 31.03700
H  34.44900 7.93300 30.97100
H  34.00700 6.69800 27.27400
H  34.12900 7.94800 28.50200
H  34.54900 6.17700 28.88600
H  39.94400 9.87100 25.45300
H  42.97200 9.11700 25.97900
H  40.57400 7.04000 25.61100
H  41.47000 7.78100 24.27100
H  39.70900 7.82700 24.34200
H  42.10900 10.94800 24.02400
H  43.43400 11.16200 25.07400
H  41.44200 13.08000 24.72700
H  42.22200 12.75800 26.26900
H  40.72400 12.07900 26.06100
H  46.32100 11.82800 29.62400
H  45.42000 13.46300 30.08600
H  45.33100 12.63400 28.51300
H  42.74200 12.71600 34.33000
H  44.28000 10.18400 37.36500
H  45.18900 11.58900 37.85100
H  45.87000 10.50600 36.63700
Mg 46.83500 17.48900 28.64000
C  45.31500 16.93100 31.74800
C  49.26200 19.40600 30.02800
C  48.02800 17.87700 25.54600
C  44.28000 15.45000 27.20300
N  47.13400 18.11500 30.63000
C  46.45800 17.73700 31.76600
C  47.23400 18.30900 32.99300
C  48.36100 19.25500 32.36500
C  48.24800 18.93400 30.91000
C  48.17900 20.78700 32.70700
C  47.87500 17.16500 33.90000
C  47.67000 17.20800 35.44000
H  47.12700 18.54600 36.00300
N  48.46200 18.60700 27.86300
C  49.35500 19.30100 28.60700
C  50.41000 19.75100 27.71700
C  50.04800 19.33200 26.35800
C  48.81700 18.54000 26.54000
C  51.62600 20.60400 28.23400
C  50.63800 19.60900 25.04900
O  50.22800 19.10100 24.04900
C  51.86500 20.42100 25.05300
N  46.19700 16.77000 26.69500
C  46.81600 17.17600 25.59500
C  45.99900 16.82500 24.33200
C  45.05200 15.74400 24.86000
C  45.20700 15.95900 26.32100
C  45.27600 17.98500 23.59300
C  45.35000 14.31600 24.30200
C  44.16000 13.67000 23.56700
N  45.06200 16.48500 29.29400
C  44.15800 15.75500 28.60000
C  43.15300 15.23200 29.50400
C  43.58000 15.66900 30.86500
C  44.76100 16.38000 30.62600
C  41.92800 14.47800 29.04100
C  43.21600 15.71700 32.22100
O  42.21200 15.37800 32.80100
C  44.40000 16.59000 32.88400
C  43.78900 17.79300 33.55100
O  43.64900 18.92100 33.04000
O  43.35700 17.46500 34.79100
C  42.58700 18.58000 35.44300
H  50.04900 20.03800 30.44400
H  48.30700 18.09400 24.51300
H  43.42900 14.94000 26.74600
H  46.52100 18.85100 33.61400
H  49.31600 18.98300 32.81300
H  47.14000 20.97700 32.97400
H  48.59400 21.39700 31.90500
H  48.79000 20.96000 33.59300
H  48.95400 17.15600 33.74100
H  47.51200 16.20700 33.52600
H  48.57400 16.80200 35.89500
H  46.94000 16.43100 35.66500
H  52.59900 20.48200 27.75900
H  51.81600 20.38400 29.28500
H  51.29500 21.63900 28.15100
H  52.21100 20.66300 24.04700
H  52.66600 19.82600 25.49300
H  51.67800 21.33100 25.62100
H  46.73700 16.38300 23.66200
H  44.00400 16.01600 24.73300
H  45.17600 18.83700 24.26500
H  44.36900 17.58700 23.14000
H  45.83300 18.39100 22.74900
H  45.57500 13.63700 25.12500
H  46.20500 14.26700 23.62700
H  44.59400 13.47300 22.58600
H  43.26800 14.29600 23.52200
H  44.00900 12.65800 23.94100
H  42.19400 13.42400 28.96000
H  41.45800 14.89900 28.15200
H  41.21600 14.57400 29.86000
H  44.83500 15.87400 33.58100
H  41.56300 18.24300 35.28200
H  42.59100 19.58000 35.00900
H  42.93200 18.68500 36.47200

