158

Mg -2.89200 17.47200 26.60200
C  -3.30200 15.42600 29.43700
C  -3.61400 20.19100 28.67100
C  -2.91100 19.46700 24.00300
C  -3.03900 14.64900 24.67900
N  -3.22600 17.68400 28.80400
C  -3.23600 16.78500 29.84600
C  -3.50500 17.39500 31.26400
C  -3.90200 18.83400 30.85700
C  -3.56700 18.91400 29.29900
C  -5.34800 19.37300 31.18000
C  -2.29600 17.27200 32.18700
C  -2.71900 16.86400 33.57100
H  -1.84000 16.99500 34.92300
N  -2.98500 19.57100 26.42000
C  -3.26200 20.51900 27.34700
C  -3.17800 21.82600 26.70300
C  -2.85600 21.64200 25.36300
C  -2.98300 20.19900 25.14900
C  -3.44700 23.07600 27.40600
C  -2.51200 22.59200 24.27700
O  -2.61000 22.25700 23.08400
C  -1.96200 24.05700 24.57200
N  -2.98000 17.10200 24.66400
C  -2.95800 18.11500 23.74000
C  -3.01300 17.58800 22.26100
C  -2.93700 16.01700 22.57400
C  -2.91700 15.88000 24.06800
C  -4.30500 18.04000 21.55500
C  -1.64900 15.46100 21.97200
C  -0.28800 15.53700 22.68000
N  -3.07500 15.46900 26.94000
C  -3.13800 14.42600 26.03900
C  -3.17800 13.20200 26.70300
C  -3.26500 13.52400 28.07400
C  -3.22700 14.96500 28.13500
C  -3.30000 11.86800 26.02900
C  -3.40600 12.94900 29.35200
O  -3.37700 11.75400 29.73200
C  -3.57300 14.22300 30.26600
C  -2.73300 13.99800 31.45800
O  -1.50500 13.94700 31.43400
O  -3.50400 13.68000 32.56300
C  -2.80800 13.26600 33.75400
H  -3.67500 21.00200 29.40000
H  -2.72400 19.91200 23.02400
H  -3.08700 13.75200 24.05900
H  -4.34400 16.87500 31.72700
H  -3.26200 19.54600 31.37900
H  -5.78000 18.65100 31.87300
H  -6.06200 19.45600 30.36000
H  -5.42600 20.29100 31.76200
H  -1.92600 18.27400 32.40400
H  -1.59600 16.61600 31.66900
H  -3.13900 15.85900 33.62900
H  -3.53000 17.56000 33.78600
H  -2.45300 23.38500 27.72900
H  -4.14000 22.85400 28.21600
H  -3.89600 23.86700 26.80500
H  -1.11200 24.02400 25.25300
H  -2.65000 24.71800 25.09900
H  -1.79400 24.59700 23.64000
H  -2.11600 17.83600 21.69300
H  -3.88800 15.54700 22.32400
H  -4.84100 18.63900 22.29100
H  -4.96000 17.20800 21.29900
H  -4.13100 18.71600 20.71700
H  -1.58100 15.88900 20.97200
H  -1.89200 14.41600 21.78000
H  -0.10100 14.62700 23.24900
H  -0.16800 16.48500 23.20600
H  0.49500 15.60200 21.92500
H  -2.49600 11.14000 26.13600
H  -3.59400 11.88000 24.98000
H  -4.15800 11.48000 26.57800
H  -4.59500 14.17800 30.64200
H  -1.77400 13.00000 33.53500
H  -3.18400 12.31400 34.12800
H  -2.79800 13.95200 34.60200
Mg 44.88600 4.07000 46.33600
C  42.93100 7.09000 46.18900
C  41.73700 2.40600 45.72900
C  46.48200 1.43000 45.86600
C  47.68400 6.07800 45.99500
N  42.57500 4.73600 45.63000
C  42.10200 5.98700 45.81700
C  40.58400 6.04700 45.54700
C  40.17100 4.49100 45.61300
C  41.57300 3.80500 45.65500
C  39.27800 4.00300 46.76600
C  40.00800 6.93500 44.37500
C  40.65000 6.78100 42.93300
H  39.85700 6.86000 41.64400
N  44.20300 2.15500 45.82700
C  42.93100 1.62800 45.79600
C  43.07900 0.16500 45.73500
C  44.43100 -0.13700 45.49300
C  45.09300 1.16800 45.74200
C  41.79600 -0.72900 45.59700
C  45.04400 -1.46400 45.20800
O  44.37900 -2.44400 45.03000
C  46.49700 -1.67900 45.03600
N  46.78700 3.89900 45.69000
C  47.28000 2.63100 45.94500
C  48.81000 2.58300 45.99200
C  49.22600 4.10400 45.88900
C  47.77900 4.79200 45.76700
C  49.44600 1.76200 47.12900
C  50.10400 4.32300 44.67100
C  51.55500 4.53700 45.03400
N  45.26800 6.14500 46.38700
C  46.48600 6.78200 46.24700
C  46.33700 8.14300 46.52200
C  44.97100 8.33800 46.53200
C  44.34000 7.03400 46.41100
C  47.46700 9.11000 46.47000
C  43.96500 9.35000 46.72700
O  44.05500 10.57100 46.83100
C  42.57700 8.56700 46.47400
C  41.87500 8.85100 47.70300
O  41.88100 8.20000 48.71400
O  41.16500 9.99200 47.53300
C  40.57800 10.59900 48.69300
H  40.82300 1.82200 45.60000
H  47.18000 0.59100 45.83600
H  48.56500 6.69700 46.17700
H  40.02800 6.47500 46.38200
H  39.81400 4.16900 44.63400
H  38.55600 3.21200 46.56500
H  38.73800 4.72100 47.38300
H  39.96400 3.47300 47.42700
H  40.02700 8.00100 44.60300
H  38.97400 6.68500 44.13900
H  41.14400 5.81000 42.95600
H  41.35300 7.60900 42.84300
H  41.82100 -1.64700 46.18600
H  41.91300 -1.10600 44.58100
H  40.84100 -0.22700 45.74700
H  46.76600 -2.69600 44.75100
H  46.94000 -1.52900 46.02100
H  46.96900 -1.08200 44.25600
H  49.18700 2.02300 45.13600
H  49.69800 4.45700 46.80600
H  50.27100 1.13600 46.79000
H  48.70200 1.13000 47.61300
H  49.77600 2.40200 47.94700
H  49.58700 5.19200 44.26500
H  50.11900 3.44000 44.03200
H  51.78600 3.99700 45.95300
H  51.70100 5.61000 45.15800
H  52.16200 4.15100 44.21500
H  47.19700 10.06300 46.92400
H  47.78500 9.21000 45.43200
H  48.33700 8.76100 47.02800
H  41.94200 8.99200 45.69700
H  39.65700 10.07200 48.94300
H  40.39300 11.62600 48.37900
H  41.28700 10.62400 49.52100

