158

Mg 16.47000 -1.95000 28.30100
C  15.72000 0.14900 30.99900
C  18.54000 -3.79400 30.23400
C  17.86500 -3.55700 25.43300
C  14.99300 0.30900 26.15100
N  17.16900 -1.66700 30.35400
C  16.60700 -0.84800 31.28400
C  17.12200 -1.27500 32.68900
C  18.13300 -2.42600 32.42800
C  17.94800 -2.70900 30.92000
C  19.60900 -2.43300 32.87800
C  16.00700 -1.63600 33.68500
C  16.05400 -1.02800 35.12100
H  17.33200 -0.47900 35.64800
N  17.93900 -3.55300 27.87200
C  18.63900 -4.15500 28.90500
C  19.32800 -5.32500 28.35300
C  19.01100 -5.39500 26.94400
C  18.20300 -4.17000 26.68100
C  20.12200 -6.30700 29.23300
C  19.36200 -6.51600 26.02900
O  18.98500 -6.50800 24.86400
C  20.22700 -7.68000 26.51000
N  16.36000 -1.76000 26.11600
C  17.06900 -2.40700 25.20700
C  16.87500 -1.82400 23.77100
C  15.93100 -0.71100 23.99300
C  15.71100 -0.72400 25.49700
C  18.17900 -1.57700 22.89300
C  14.60100 -0.71000 23.12200
C  13.43000 -1.31700 23.78900
N  15.44100 -0.20800 28.50000
C  14.81100 0.58100 27.53700
C  14.01700 1.58100 28.16900
C  14.37900 1.48100 29.53600
C  15.26400 0.39100 29.68000
C  13.17300 2.65700 27.50400
C  14.15300 1.99100 30.91900
O  13.42200 2.89500 31.30600
C  15.06200 1.17500 31.88000
C  15.99700 2.13400 32.61600
O  16.93900 2.76400 32.20200
O  15.58000 2.15300 33.90900
C  16.16300 3.23700 34.75400
H  19.06700 -4.44400 30.93700
H  18.41100 -3.96900 24.58200
H  14.63000 1.16400 25.57600
H  17.76400 -0.47500 33.05900
H  17.71200 -3.33000 32.86700
H  20.25900 -2.12500 32.05900
H  19.94100 -3.37000 33.32500
H  19.63600 -1.66100 33.64700
H  15.88700 -2.71600 33.76300
H  15.02300 -1.30000 33.35700
H  15.73000 -1.83300 35.78200
H  15.28200 -0.27700 35.28500
H  21.14200 -6.27900 28.85100
H  19.76200 -7.33000 29.12600
H  20.22300 -6.03000 30.28200
H  20.31600 -8.39500 25.69200
H  19.95900 -8.21300 27.42200
H  21.21900 -7.33200 26.80100
H  16.37800 -2.70900 23.37400
H  16.44800 0.23500 23.83200
H  18.30300 -0.52700 22.62800
H  18.12500 -2.16200 21.97400
H  19.11900 -1.81100 23.39300
H  14.84500 -1.19900 22.17900
H  14.41400 0.32400 22.83200
H  13.62500 -2.19600 24.40200
H  12.74400 -1.63400 23.00400
H  12.97600 -0.56800 24.43800
H  12.13500 2.32300 27.47500
H  13.62200 2.82500 26.52500
H  13.22900 3.52400 28.16200
H  14.34700 0.67000 32.52900
H  15.92200 4.16900 34.24300
H  17.22400 3.10800 34.96800
H  15.68200 3.28100 35.73200
Mg 1.56800 41.59600 25.09800
C  2.22400 42.00100 28.40000
C  -1.48700 40.11100 25.95700
C  0.90300 41.01900 21.83500
C  4.55200 43.13700 24.21700
N  0.50400 41.04800 26.95000
C  0.97700 41.38000 28.20400
C  -0.14900 41.11200 29.28800
C  -1.22600 40.28300 28.45100
C  -0.64600 40.35000 27.02600
C  -1.46400 38.82700 28.88900
C  -0.73700 42.42300 29.83900
C  -1.13400 42.50400 31.28500
H  -1.84400 41.28700 31.88900
N  0.08800 40.72300 24.09100
C  -1.20200 40.29200 24.59300
C  -2.12600 39.95400 23.51400
C  -1.38100 40.05300 22.32500
C  -0.00700 40.56900 22.72200
C  -3.54800 39.50400 23.79800
C  -1.71400 39.65300 20.96600
O  -1.00300 39.90600 19.94300
C  -3.12500 39.17400 20.63300
N  2.54000 42.13300 23.31700
C  2.12300 41.61800 22.08800
C  3.18900 41.84700 20.98200
C  4.28100 42.67700 21.75500
C  3.76800 42.72300 23.20600
C  3.74500 40.59000 20.24500
C  4.37400 44.10700 21.06500
C  5.10300 44.22000 19.73400
N  2.99700 42.60400 26.11100
C  4.27600 43.02200 25.63300
C  5.04400 43.49600 26.82800
C  4.26200 43.16600 27.93800
C  3.12200 42.53600 27.43200
C  6.49500 44.09500 26.86300
C  4.21500 43.12900 29.38900
O  5.04000 43.46100 30.20400
C  2.84600 42.41900 29.72000
C  3.21200 41.24000 30.47300
O  4.08800 40.46400 30.23700
O  2.32800 41.14100 31.59500
C  2.72500 40.13300 32.59800
H  -2.40100 39.54500 26.14800
H  0.80400 40.87800 20.75700
H  5.50200 43.51100 23.83000
H  0.27900 40.45800 30.04800
H  -2.21800 40.73100 28.50200
H  -2.47300 38.61400 29.24200
H  -0.85400 38.72700 29.78600
H  -1.21100 38.06800 28.14900
H  -1.66200 42.72500 29.34700
H  0.04800 43.16600 29.69500
H  -1.62600 43.43600 31.56300
H  -0.18500 42.43500 31.81600
H  -3.88500 39.88900 24.76000
H  -3.56200 38.41500 23.85700
H  -4.24300 39.72000 22.98700
H  -3.80900 40.02300 20.60700
H  -3.48000 38.44800 21.36500
H  -3.27700 38.80000 19.62100
H  2.79500 42.46600 20.17600
H  5.22200 42.12800 21.72400
H  4.78000 40.47000 20.56500
H  3.56900 40.63800 19.17000
H  3.25200 39.68300 20.59600
H  4.86200 44.79300 21.75700
H  3.36200 44.47900 20.90500
H  4.31200 44.31200 18.99000
H  5.56400 43.25000 19.55000
H  5.83800 45.01600 19.61700
H  6.41600 44.75900 27.72300
H  6.75700 44.80800 26.08200
H  7.30600 43.38100 27.00700
H  2.16400 43.04000 30.29900
H  3.50400 40.57400 33.21900
H  3.04500 39.22500 32.08600
H  1.83200 39.92800 33.18900

