158

Mg 41.13400 41.01700 26.95400
C  40.38200 43.59200 29.32600
C  42.14600 39.11900 29.66300
C  41.70400 38.58800 24.76400
C  40.56700 43.24100 24.48400
N  41.21700 41.27400 29.22300
C  40.91600 42.41900 29.94400
C  41.02300 42.20500 31.54100
C  41.56600 40.74600 31.55500
C  41.70200 40.36600 30.03900
C  42.81400 40.50000 32.39100
C  39.67600 42.38900 32.26300
C  39.63800 43.31900 33.48800
H  38.89000 42.79200 34.76000
N  41.82800 39.12800 27.19300
C  42.19600 38.50100 28.35400
C  42.58900 37.12700 28.10100
C  42.53700 37.00200 26.62400
C  42.02800 38.26700 26.12100
C  43.17500 36.21800 29.17200
C  43.03400 35.73300 25.90500
O  43.10000 35.67200 24.70100
C  43.57500 34.55400 26.61300
N  41.40300 40.98400 24.86500
C  41.45200 39.81600 24.19000
C  41.06900 40.02300 22.68300
C  40.64500 41.48400 22.59600
C  40.83200 41.92000 24.07800
C  42.26200 39.75200 21.67300
C  39.19800 41.54900 22.21000
C  38.21900 40.94900 23.21600
N  40.57800 43.08100 26.90900
C  40.44700 43.80500 25.78500
C  40.04500 45.12700 26.19200
C  39.97600 45.14700 27.62800
C  40.31500 43.82500 27.93800
C  39.68800 46.31000 25.32100
C  39.67700 45.92300 28.76800
O  39.22000 47.04900 28.83600
C  39.77400 44.91700 29.89000
C  40.70400 45.63700 30.81500
O  41.91400 45.71600 30.69400
O  40.02600 46.08000 31.88800
C  40.89200 46.54600 33.00400
H  42.32700 38.53600 30.56900
H  41.77200 37.75900 24.05500
H  40.36900 43.77300 23.55100
H  41.77900 42.95800 31.76400
H  40.81700 40.08400 31.98800
H  43.45600 39.97500 31.68300
H  42.57300 39.85900 33.23800
H  43.32300 41.37200 32.80200
H  39.42000 41.40900 32.66400
H  38.83400 42.60000 31.60400
H  39.04600 44.20100 33.24200
H  40.67900 43.55900 33.70400
H  42.53900 35.33300 29.16700
H  43.11600 36.74000 30.12700
H  44.19200 35.89400 28.95200
H  42.81500 34.16600 27.29100
H  44.50900 34.83400 27.10100
H  44.00800 33.80600 25.94900
H  40.27900 39.32500 22.40600
H  41.34600 42.15600 22.10000
H  43.03500 39.14600 22.14600
H  42.69500 40.68500 21.31100
H  41.97400 39.11800 20.83500
H  39.19500 40.95600 21.29500
H  38.92500 42.59500 22.07000
H  38.40700 41.22200 24.25400
H  38.00600 39.90500 22.98600
H  37.25400 41.43000 23.05600
H  39.08600 46.02600 24.45700
H  40.63700 46.77800 25.06000
H  39.03400 46.87600 25.98500
H  38.82800 44.75500 30.40800
H  40.23400 46.77500 33.84200
H  41.53800 47.32800 32.60500
H  41.60700 45.82400 33.39700
Mg 0.23400 44.10600 26.62400
C  2.51400 43.96500 29.27200
C  -2.22100 43.39400 29.03100
C  -1.88500 43.47000 24.03900
C  2.78200 44.64600 24.33900
N  0.17600 43.90200 28.99000
C  1.22300 43.84700 29.84200
C  0.83600 43.78000 31.28500
C  -0.62500 43.37000 31.13700
C  -0.93800 43.63300 29.60200
C  -0.84400 41.85100 31.50500
C  1.09400 45.08900 32.09700
C  1.39300 44.82500 33.60500
H  0.98300 43.58500 34.35600
N  -1.73600 43.46200 26.55600
C  -2.56000 43.20800 27.62300
C  -3.85900 42.77300 27.17900
C  -3.80000 42.85800 25.68000
C  -2.45800 43.36800 25.35200
C  -5.06500 42.49200 28.12500
C  -4.95000 42.55000 24.67000
O  -4.74800 42.44600 23.47600
C  -6.33700 42.21100 25.15200
N  0.40100 43.93400 24.50400
C  -0.58700 43.65900 23.64700
C  -0.14300 43.80900 22.16200
C  1.32400 44.28100 22.30700
C  1.52400 44.31400 23.82600
C  -0.24500 42.44600 21.44200
C  1.74600 45.47500 21.41800
C  0.73500 46.60500 21.43600
N  2.22600 44.26100 26.75500
C  3.15300 44.48700 25.73200
C  4.47800 44.37600 26.28300
C  4.25700 44.13500 27.68300
C  2.91700 44.05600 27.91900
C  5.81500 44.44000 25.54500
C  4.89200 43.78400 28.85800
O  6.07900 43.58400 29.10500
C  3.83600 43.85100 29.99700
C  4.04200 42.70500 30.95400
O  3.69400 41.55800 30.79600
O  4.81900 43.15100 32.00700
C  4.86900 42.16800 33.10600
H  -2.98700 43.12400 29.76000
H  -2.43300 43.37100 23.09900
H  3.57200 44.72100 23.58900
H  1.36700 42.94900 31.75000
H  -1.37200 44.01600 31.59700
H  0.01000 41.18900 31.65300
H  -1.41300 41.33700 30.73000
H  -1.54800 41.74100 32.33000
H  0.20000 45.70100 31.97800
H  1.95200 45.55700 31.61500
H  1.10600 45.75500 34.09500
H  2.48100 44.79200 33.66300
H  -5.27100 43.50200 28.48000
H  -4.62000 42.08400 29.03200
H  -5.89100 41.89000 27.74600
H  -6.37300 41.29400 25.74000
H  -7.01100 42.18200 24.29600
H  -6.71900 43.03300 25.75800
H  -0.85300 44.53000 21.75800
H  1.88900 43.44600 21.89200
H  -0.36900 41.63800 22.16300
H  0.61000 42.16100 20.82800
H  -1.13600 42.53600 20.82100
H  1.89500 45.03200 20.43300
H  2.76600 45.78000 21.65300
H  0.01200 46.48400 22.24300
H  0.15300 46.60900 20.51400
H  1.27900 47.51300 21.69600
H  6.02200 43.41700 25.22900
H  6.59000 44.69100 26.26900
H  5.79200 45.03400 24.63100
H  3.96900 44.79100 30.53200
H  4.99900 41.13300 32.79000
H  3.98500 42.16600 33.74200
H  5.73800 42.52600 33.65800

