158

Mg 9.64000 3.82700 27.77400
C  10.85100 2.26900 30.57000
C  7.96100 6.11600 29.75900
C  8.18800 5.28100 25.00900
C  10.96500 1.30600 25.66300
N  9.49300 4.09000 29.91500
C  10.06200 3.40100 30.94000
C  9.66500 3.98300 32.32200
C  8.64200 5.06100 31.96500
C  8.78600 5.23300 30.41900
C  7.24000 4.72100 32.43800
C  10.98600 4.56300 32.95500
C  10.78700 5.37800 34.26000
H  11.68800 4.91300 35.42200
N  8.37100 5.58200 27.44500
C  7.76300 6.36800 28.41900
C  6.86100 7.25900 27.76200
C  6.92800 7.01700 26.33300
C  7.89200 5.90000 26.17300
C  5.89100 8.05400 28.54700
C  6.19500 7.71900 25.14600
O  6.18400 7.41200 23.94400
C  5.31700 8.91200 25.53100
N  9.43900 3.25700 25.71600
C  8.90600 4.06200 24.73800
C  9.28500 3.59200 23.35400
C  9.82600 2.16700 23.59000
C  10.21100 2.30400 25.02100
C  8.25100 3.72100 22.21400
C  11.09100 1.84300 22.76300
C  11.03800 0.58200 21.94200
N  10.66000 2.14700 27.97400
C  11.10500 1.21600 27.02900
C  11.77800 0.18400 27.77700
C  11.84400 0.66000 29.16000
C  11.01800 1.79400 29.26000
C  12.41800 -1.08300 27.26000
C  12.36300 0.30600 30.46900
O  13.07500 -0.61900 30.80000
C  11.77000 1.40300 31.45600
C  11.01100 0.73300 32.52400
O  10.23200 -0.16400 32.31600
O  11.50600 1.16300 33.73600
C  11.15000 0.33400 34.86000
H  7.50600 6.80200 30.47600
H  7.75800 5.74300 24.11700
H  11.30500 0.40100 25.15600
H  9.31500 3.18400 32.97500
H  8.77700 5.98300 32.53000
H  6.53300 5.02500 31.66500
H  7.12700 5.30300 33.35200
H  7.09200 3.66400 32.66100
H  11.57200 5.20400 32.29600
H  11.51100 3.64100 33.20100
H  9.73800 5.28900 34.54500
H  10.99800 6.43700 34.11100
H  6.25000 9.08300 28.55000
H  5.74800 7.78400 29.59300
H  4.89300 8.10100 28.11100
H  5.89700 9.56700 26.18100
H  4.51400 8.36600 26.02800
H  4.90800 9.44400 24.67200
H  10.17100 4.21000 23.21000
H  8.97600 1.51100 23.40400
H  7.24300 4.10000 22.38200
H  8.02800 2.74900 21.77500
H  8.64400 4.43000 21.48500
H  11.92600 1.81100 23.46300
H  11.16900 2.69400 22.08700
H  11.52400 0.67400 20.97100
H  10.02800 0.22600 21.73900
H  11.55800 -0.17100 22.53400
H  13.45600 -0.88400 26.99300
H  11.93700 -1.42000 26.34200
H  12.31900 -1.90000 27.97500
H  12.54700 1.99400 31.94200
H  10.64700 -0.61200 34.66000
H  10.62900 0.97900 35.56700
H  12.06200 0.02800 35.37300
Mg 48.49800 14.82900 28.39500
C  46.13800 14.90800 30.94500
C  50.67700 16.38100 30.43300
C  50.77600 14.71500 25.84000
C  46.15200 13.36800 26.29600
N  48.36700 15.61000 30.44900
C  47.33500 15.53800 31.34200
C  47.74900 16.10700 32.72100
C  49.15900 16.71700 32.40000
C  49.47700 16.21000 30.93800
C  49.30100 18.28400 32.52100
C  47.86500 14.84300 33.68800
C  47.18900 15.07400 35.08400
H  47.01700 16.44100 35.77000
N  50.42400 15.49600 28.20200
C  51.19700 16.09200 29.16100
C  52.49800 16.31300 28.63700
C  52.52200 15.72400 27.33000
C  51.24600 15.18100 27.07500
C  53.59300 17.02600 29.48700
C  53.65400 15.78800 26.25100
O  53.64600 15.17300 25.16600
C  54.88600 16.61400 26.57000
N  48.35200 14.37700 26.29800
C  49.50800 14.22000 25.55900
C  49.10300 13.61900 24.19100
C  47.70300 13.02400 24.43800
C  47.38600 13.62500 25.80500
C  49.22600 14.51000 22.91800
C  47.59900 11.49800 24.34600
C  46.38900 10.94700 23.60400
N  46.50700 14.38200 28.47300
C  45.71900 13.70900 27.56400
C  44.48600 13.36800 28.23400
C  44.62300 13.71000 29.61600
C  45.85400 14.40000 29.68400
C  43.34000 12.63100 27.66100
C  43.90500 13.76400 30.87200
O  42.79200 13.29500 31.29200
C  44.93400 14.49900 31.72800
C  44.14800 15.60400 32.40900
O  44.02800 16.78800 32.02200
O  43.55000 15.15100 33.53600
C  42.83600 16.10700 34.35400
H  51.47500 16.87900 30.98600
H  51.43000 14.55300 24.98100
H  45.43500 12.90600 25.61400
H  47.04600 16.86500 33.06700
H  49.90500 16.29900 33.07600
H  50.26800 18.48900 32.98000
H  48.49200 18.67400 33.14000
H  49.10500 18.73100 31.54700
H  48.92400 14.61200 33.80600
H  47.36700 13.99800 33.21300
H  47.83800 14.53500 35.77300
H  46.22600 14.56200 35.07600
H  54.01300 17.84200 28.90000
H  54.25100 16.21400 29.79600
H  53.38000 17.56000 30.41300
H  55.46500 16.51600 25.65100
H  55.45500 15.99800 27.26600
H  54.81900 17.67600 26.80700
H  49.84800 12.84000 24.02800
H  47.06200 13.47200 23.67900
H  49.63200 15.45900 23.26900
H  48.30900 14.65900 22.34900
H  50.01600 14.16300 22.25100
H  47.48600 11.15500 25.37400
H  48.53000 11.11500 23.92800
H  46.69700 10.87800 22.56100
H  45.55300 11.63700 23.72200
H  46.07100 9.98100 23.99600
H  43.37700 12.70000 26.57400
H  42.56000 13.18600 28.18300
H  43.39800 11.57500 27.92500
H  45.22600 13.78800 32.50100
H  41.77300 16.23900 34.15200
H  43.30700 17.08900 34.29800
H  42.97100 15.84100 35.40300

