158

Mg -12.07900 16.98400 41.56900
C  -9.05300 15.17500 41.20500
C  -10.50300 19.67400 40.18800
C  -15.05700 18.47200 41.15500
C  -13.71700 13.78500 41.98200
N  -10.04100 17.36800 40.71700
C  -8.95900 16.50300 40.68200
C  -7.78600 17.04400 39.92800
C  -8.18700 18.57100 39.94400
C  -9.64900 18.58000 40.32100
C  -7.24200 19.45300 40.75400
C  -7.58000 16.41900 38.50100
C  -6.32400 15.66700 38.14400
H  -5.65300 15.96300 36.77900
N  -12.69100 18.92700 41.01700
C  -11.86700 19.93600 40.51500
C  -12.65500 21.08400 40.32900
C  -14.02300 20.77700 40.60100
C  -13.99200 19.36200 40.97700
C  -12.08300 22.32500 39.87300
C  -15.18000 21.66700 40.47200
O  -15.11100 22.80000 40.10600
C  -16.65600 21.24400 40.75800
N  -14.03000 16.21400 41.57500
C  -15.05800 17.08700 41.43800
C  -16.36900 16.30500 41.53500
C  -15.93100 14.81400 41.84100
C  -14.41300 14.91000 41.73100
C  -17.40600 16.87000 42.54600
C  -16.71900 13.69900 41.02800
C  -17.05600 12.39700 41.85300
N  -11.56400 14.87000 41.68900
C  -12.30500 13.70500 41.93200
C  -11.41000 12.58900 42.14500
C  -10.13800 13.09900 41.87600
C  -10.30300 14.51400 41.60300
C  -11.93300 11.22900 42.45400
C  -8.77800 12.70500 41.72000
O  -8.25600 11.66100 41.83300
C  -8.00600 14.11900 41.38300
C  -7.06500 14.42800 42.53200
O  -7.39400 14.92200 43.63500
O  -5.75500 14.15900 42.23600
C  -4.73000 14.29100 43.30300
H  -9.91100 20.54400 39.89300
H  -16.06500 18.89200 41.14300
H  -14.30600 12.88300 42.16400
H  -6.83700 16.86200 40.43200
H  -8.13900 18.95700 38.92600
H  -6.28800 18.98900 41.00600
H  -7.71200 19.60600 41.72500
H  -7.05500 20.41400 40.27400
H  -7.78600 17.20400 37.77400
H  -8.37900 15.70100 38.32000
H  -6.49400 14.59000 38.13900
H  -5.52000 15.80700 38.86700
H  -12.19400 22.38400 38.79100
H  -10.99900 22.39800 39.97200
H  -12.55200 23.15900 40.39400
H  -17.29100 22.12300 40.64700
H  -16.82500 20.87100 41.76800
H  -16.94500 20.36500 40.18100
H  -16.80600 16.35200 40.53700
H  -16.13400 14.70600 42.90700
H  -18.25200 17.38400 42.09000
H  -16.95900 17.64400 43.17000
H  -17.87800 16.14500 43.20800
H  -16.29500 13.50800 40.04200
H  -17.69400 14.16400 40.88300
H  -18.12000 12.45700 42.08100
H  -16.57400 12.38500 42.83100
H  -16.94000 11.51300 41.22600
H  -12.28500 10.67200 41.58600
H  -12.71200 11.37300 43.20300
H  -11.03100 10.80200 42.89100
H  -7.53400 13.97100 40.41200
H  -4.14600 13.37200 43.23700
H  -5.11200 14.26000 44.32300
H  -4.10100 15.14500 43.05300
Mg -6.12100 24.85600 25.80500
C  -4.42800 26.12100 28.69100
C  -7.69500 22.66200 27.76100
C  -7.20300 23.36500 23.08400
C  -4.05200 27.05000 23.90400
N  -6.06700 24.56200 28.02800
C  -5.44900 25.19400 29.02700
C  -5.93300 24.73900 30.40200
C  -6.76200 23.50400 30.00600
C  -6.84300 23.56700 28.52300
C  -5.94100 22.18600 30.38500
C  -6.63300 25.87300 31.22300
C  -6.37900 25.98300 32.76400
H  -5.94800 24.72700 33.50900
N  -7.42500 23.28000 25.48600
C  -8.04000 22.59200 26.41000
C  -9.07900 21.74900 25.74600
C  -8.92600 21.94900 24.31700
C  -7.79100 22.87600 24.23200
C  -10.04900 20.84000 26.53700
C  -9.66300 21.40900 23.14100
O  -9.39700 21.62300 21.98100
C  -10.71100 20.44300 23.50100
N  -5.49700 24.99300 23.80700
C  -6.20600 24.30000 22.86100
C  -5.56300 24.65200 21.42400
C  -4.66100 25.87700 21.71200
C  -4.60900 25.93300 23.28400
C  -4.81500 23.53000 20.67500
C  -5.21600 27.23500 21.08000
C  -4.24600 28.24500 20.53400
N  -4.58700 26.32200 26.16700
C  -3.91400 27.18200 25.29200
C  -2.97800 28.02700 26.00400
C  -3.17000 27.63100 27.38400
C  -4.15800 26.61400 27.43300
C  -1.97800 28.88500 25.40800
C  -2.68900 27.90000 28.72500
O  -1.90100 28.71600 29.17100
C  -3.46100 26.88500 29.61600
C  -2.48400 26.03800 30.37500
O  -1.77700 25.17600 29.87500
O  -2.44900 26.41100 31.72200
C  -1.67100 25.52000 32.54100
H  -8.22600 21.89800 28.33300
H  -7.57500 22.89800 22.16900
H  -3.33300 27.60900 23.30200
H  -4.99600 24.54800 30.92500
H  -7.78200 23.55800 30.38400
H  -5.64700 22.30200 31.42900
H  -5.10200 22.18600 29.69000
H  -6.56400 21.29900 30.27400
H  -7.68100 25.80400 30.93100
H  -6.20100 26.80500 30.86000
H  -7.35700 26.22400 33.17900
H  -5.66200 26.76100 33.02700
H  -11.07000 20.95600 26.17500
H  -9.85600 20.99800 27.59800
H  -9.87400 19.77600 26.37600
H  -11.13400 20.12500 22.54800
H  -11.53600 21.03600 23.89400
H  -10.43300 19.52600 24.02100
H  -6.39400 24.98600 20.80200
H  -3.66900 25.70100 21.29500
H  -4.79700 22.75700 21.44300
H  -3.79700 23.88600 20.51500
H  -5.32800 23.26900 19.74900
H  -5.71400 27.72400 21.91700
H  -5.92500 27.04200 20.27400
H  -3.22000 27.87700 20.53000
H  -4.35000 29.15400 21.12700
H  -4.52300 28.47700 19.50500
H  -1.25900 29.25300 26.14100
H  -2.49700 29.73200 24.95900
H  -1.44000 28.37300 24.61100
H  -3.96100 27.56600 30.30500
H  -0.60300 25.71900 32.45300
H  -1.77000 24.43600 32.50300
H  -2.05600 25.79000 33.52400

