158

Mg 25.73700 1.69900 29.67300
C  27.87900 1.38600 32.28500
C  23.19400 2.20200 31.66400
C  23.86800 1.81100 26.88800
C  28.60400 0.89100 27.49600
N  25.62200 1.84300 31.75500
C  26.66200 1.81300 32.66500
C  26.13800 2.06000 34.09100
C  24.53600 2.03000 33.87300
C  24.40500 2.06400 32.34300
C  23.84800 0.84900 34.51800
C  26.64300 3.43100 34.77500
C  27.49000 3.29900 36.07200
H  27.35300 4.20300 37.34400
N  23.78900 2.03900 29.31700
C  22.84000 2.17400 30.31600
C  21.54300 2.20300 29.64000
C  21.73300 2.12300 28.25900
C  23.18300 2.01000 28.11000
C  20.21000 2.19300 30.34100
C  20.69100 1.88800 27.18600
O  21.00300 1.58300 26.02100
C  19.21400 2.16000 27.40700
N  26.21300 1.27400 27.39100
C  25.19500 1.46100 26.57200
C  25.77000 1.47800 25.18000
C  27.30300 1.17600 25.31400
C  27.40400 1.16300 26.84700
C  25.03800 0.53300 24.18400
C  28.33700 2.12500 24.61700
C  29.54700 1.45300 23.90000
N  27.69200 1.07600 29.75400
C  28.74200 0.85300 28.86800
C  29.95900 0.50000 29.59400
C  29.65600 0.72300 30.91200
C  28.27700 1.08800 30.97500
C  31.22000 -0.04400 29.02300
C  30.17400 0.57300 32.21200
O  31.24700 0.09300 32.54600
C  29.00700 1.06100 33.24400
C  28.62400 -0.01400 34.22700
O  28.07600 -1.05400 33.97300
O  29.13900 0.33700 35.42700
C  28.73000 -0.59200 36.48200
H  22.42800 2.61800 32.32200
H  23.27300 1.88100 25.97500
H  29.40700 0.76000 26.76900
H  26.35400 1.25700 34.79600
H  24.13600 2.90600 34.38400
H  23.19300 1.39600 35.19600
H  24.49200 0.04100 34.86600
H  23.13600 0.39300 33.82900
H  25.79000 4.05200 35.04900
H  27.28100 4.08000 34.17500
H  28.46300 3.39800 35.59200
H  27.49700 2.24800 36.36200
H  19.64700 3.09600 30.10200
H  20.32100 2.01500 31.41000
H  19.75100 1.30100 29.91500
H  19.06100 3.05800 28.00600
H  18.78400 1.30400 27.92800
H  18.70600 2.16500 26.44300
H  25.74600 2.52900 24.89400
H  27.49700 0.21300 24.84100
H  24.00900 0.89300 24.15400
H  25.03700 -0.50300 24.52100
H  25.37500 0.58100 23.14800
H  28.63400 2.83400 25.39000
H  27.81900 2.75200 23.89100
H  30.27900 1.34600 24.70100
H  30.00700 2.06400 23.12400
H  29.26500 0.49700 23.46000
H  31.54800 -0.71200 29.81900
H  31.93200 0.74500 28.77900
H  31.17100 -0.64900 28.11800
H  29.26500 1.95500 33.81000
H  27.98200 -0.03200 37.04400
H  29.59200 -0.70300 37.13900
H  28.30000 -1.53500 36.14500
Mg 27.31300 49.82300 25.88100
C  25.56100 51.10800 28.45000
C  29.90500 48.93600 28.16100
C  29.11200 48.50300 23.21400
C  25.05100 50.88700 23.58600
N  27.72600 49.99200 28.02800
C  26.72100 50.40800 28.91900
C  27.08000 50.03800 30.33900
C  28.62100 49.66500 30.23900
C  28.79900 49.54300 28.73200
C  29.55600 50.77400 30.75200
C  26.16900 48.88200 30.92200
C  25.53700 49.17100 32.33100
H  26.31700 49.66900 33.51500
N  29.21500 48.89000 25.72900
C  30.12200 48.58800 26.77100
C  31.27300 47.80400 26.20000
C  30.91800 47.57300 24.84300
C  29.62900 48.29100 24.56000
C  32.50200 47.36100 27.01900
C  31.68100 46.71900 23.91700
O  31.45200 46.55100 22.72900
C  32.78500 45.85200 24.34900
N  27.19500 49.89300 23.62900
C  27.98600 49.15400 22.83200
C  27.41400 49.11100 21.37400
C  26.09800 49.96800 21.55300
C  26.14000 50.33800 22.95800
C  28.36300 49.69000 20.27100
C  24.85100 49.18400 21.17100
C  24.52400 48.99700 19.67900
N  25.68800 50.89000 25.97200
C  24.79900 51.24600 24.95800
C  23.64400 51.93600 25.57600
C  23.92600 51.82200 26.98800
C  25.17300 51.20200 27.13200
C  22.56700 52.68000 24.79800
C  23.45400 52.17200 28.31200
O  22.46800 52.87200 28.62000
C  24.46000 51.60200 29.31800
C  24.92700 52.67900 30.26600
O  25.62200 53.65900 29.98400
O  24.43500 52.42700 31.53100
C  25.08700 53.09500 32.59800
H  30.66500 48.68700 28.90400
H  29.54200 47.88600 22.42300
H  24.20900 51.15200 22.94300
H  27.01100 50.91600 30.98200
H  28.84900 48.73200 30.75400
H  29.78500 50.57700 31.79900
H  28.99900 51.70100 30.62000
H  30.48200 50.79100 30.17600
H  26.78700 47.99600 31.06500
H  25.45100 48.63400 30.14000
H  25.04500 48.25700 32.66500
H  24.70100 49.87100 32.31300
H  32.46700 47.49000 28.10100
H  33.24200 48.04800 26.60800
H  32.78700 46.32400 26.84100
H  32.31300 45.05200 24.92000
H  33.51700 46.49500 24.83800
H  33.25400 45.40600 23.47200
H  27.16700 48.11000 21.01900
H  26.17700 50.81600 20.87300
H  29.34600 49.78900 20.73200
H  28.10800 50.70900 19.97900
H  28.44100 49.11300 19.34900
H  23.90900 49.50300 21.61600
H  25.00400 48.19900 21.61200
H  23.47000 49.03900 19.40500
H  24.82700 47.95200 19.62100
H  25.19900 49.53400 19.01200
H  22.54100 52.57400 23.71400
H  22.59300 53.75700 24.96000
H  21.63000 52.37500 25.26500
H  24.02100 50.81900 29.93600
H  24.87300 54.16200 32.53300
H  26.14400 52.83800 32.66500
H  24.67100 52.71900 33.53300

