158

Mg -0.71700 17.40400 27.48100
C  -1.74200 15.18300 29.97600
C  -1.83000 20.01600 29.43000
C  -0.46600 19.39600 24.77300
C  -0.20700 14.64200 25.35000
N  -1.71900 17.60100 29.53000
C  -1.83100 16.50500 30.44100
C  -2.26700 17.01000 31.82100
C  -2.52800 18.59500 31.56100
C  -1.94600 18.77700 30.12200
C  -3.94500 19.07700 31.91300
C  -1.22600 16.67300 32.91800
C  -1.14800 17.63800 34.19200
H  0.02000 17.39000 35.21700
N  -1.07800 19.45000 27.17100
C  -1.49900 20.37500 28.09300
C  -1.62100 21.73900 27.44200
C  -1.25100 21.49300 26.10700
C  -0.83400 20.10800 25.96400
C  -2.09900 23.01300 28.15000
C  -1.18400 22.53000 25.05900
O  -0.74500 22.26100 23.95000
C  -1.80800 23.82100 25.24900
N  -0.38700 17.03400 25.35400
C  -0.20300 18.06200 24.53900
C  -0.01700 17.57000 23.07000
C  0.41400 16.06500 23.35800
C  -0.05600 15.89100 24.77200
C  -1.26700 17.59600 22.17400
C  1.99300 15.81900 23.18200
C  2.97800 16.53000 24.13300
N  -0.97500 15.34800 27.58000
C  -0.61300 14.32100 26.66600
C  -0.85500 13.05900 27.26300
C  -1.20700 13.30600 28.55800
C  -1.40000 14.73600 28.69400
C  -0.58300 11.75100 26.57100
C  -1.52200 12.74000 29.77800
O  -1.58200 11.53800 30.04600
C  -1.89600 13.88100 30.80900
C  -0.93700 13.74900 31.82300
O  0.24300 14.13500 31.83700
O  -1.58000 13.21000 32.94300
C  -0.81900 12.86100 34.15700
H  -2.18700 20.92300 29.92200
H  -0.56600 19.99700 23.86600
H  0.01400 13.79300 24.70000
H  -3.20100 16.49100 32.03900
H  -1.96500 19.17300 32.29300
H  -4.25200 19.87900 31.24100
H  -4.09100 19.41300 32.94000
H  -4.65400 18.27000 31.73100
H  -0.24100 16.46200 32.50100
H  -1.47800 15.79400 33.51200
H  -2.14200 17.69300 34.63700
H  -0.86100 18.59500 33.75600
H  -1.59400 23.94800 27.90500
H  -1.83900 22.87200 29.20000
H  -3.18000 23.08400 28.02900
H  -1.85900 24.19500 24.22700
H  -1.06100 24.34200 25.84800
H  -2.78400 23.80200 25.73200
H  0.78100 18.15700 22.61600
H  0.01500 15.36500 22.62500
H  -1.96100 16.77300 22.34500
H  -0.93700 17.42000 21.15000
H  -1.70500 18.56200 22.42500
H  2.19400 16.06300 22.13900
H  2.12100 14.74000 23.25700
H  2.63100 17.34600 24.76700
H  3.80800 16.93800 23.55600
H  3.38100 15.79300 24.82800
H  -0.05200 11.81900 25.62100
H  -1.53200 11.23300 26.43400
H  -0.04800 11.10700 27.26900
H  -2.89900 13.59800 31.12800
H  -0.98200 13.58900 34.95200
H  0.25000 12.84400 33.94700
H  -1.15100 11.86300 34.44300
Mg 2.18400 8.20200 27.10800
C  2.30500 10.02200 30.09900
C  2.03100 5.31700 29.16700
C  2.27700 6.34000 24.29500
C  2.96200 11.14700 25.36100
N  2.19900 7.74300 29.42400
C  2.09800 8.67600 30.36500
C  1.71200 8.06200 31.70900
C  1.90800 6.51000 31.38700
C  2.07000 6.44900 29.93100
C  3.13300 5.81900 32.05300
C  0.32500 8.36900 32.30800
C  0.06300 8.04000 33.79700
H  1.22800 7.55500 34.74500
N  2.06400 6.07900 26.89000
C  2.05400 5.09400 27.80100
C  2.03400 3.86400 27.05700
C  2.09800 4.10300 25.66000
C  2.13900 5.54100 25.53100
C  1.93700 2.46900 27.75900
C  2.15200 3.15000 24.47500
O  2.30700 3.44800 23.31400
C  1.91800 1.68300 24.72100
N  2.49000 8.71100 25.11700
C  2.44100 7.70700 24.15600
C  2.79700 8.42500 22.79100
C  2.85300 9.96000 23.16000
C  2.80400 9.97000 24.63700
C  4.03300 7.87800 22.05100
C  1.87600 10.89400 22.49200
C  0.38500 10.88900 22.83100
N  2.47900 10.26000 27.57600
C  2.84300 11.34500 26.72000
C  2.86400 12.53100 27.56100
C  2.72400 12.07200 28.91200
C  2.50400 10.66000 28.84100
C  3.12500 13.87900 27.19300
C  2.71300 12.45400 30.27200
O  2.90000 13.58800 30.73000
C  2.41500 11.20100 31.08000
C  3.40900 11.01900 32.15200
O  4.52300 10.50900 32.07900
O  2.91300 11.50800 33.30300
C  3.71400 11.44300 34.50800
H  1.91100 4.41200 29.76600
H  2.17400 5.73300 23.39400
H  3.16100 12.05600 24.79000
H  2.53700 8.34600 32.36200
H  1.04200 5.89600 31.63500
H  3.66200 6.46500 32.75400
H  3.80900 5.42700 31.29300
H  2.76700 4.96200 32.61700
H  -0.30000 7.61900 31.82200
H  -0.05000 9.36900 32.09100
H  -0.74800 7.31800 33.88400
H  -0.41000 8.96000 34.13900
H  2.73700 1.74300 27.61200
H  0.98900 1.98400 27.52600
H  1.93100 2.71700 28.82000
H  2.66500 1.20600 25.35500
H  1.67700 1.10300 23.83000
H  0.95600 1.55200 25.21700
H  1.89900 8.43000 22.17300
H  3.82400 10.25500 22.76200
H  4.62400 7.39300 22.82700
H  4.61700 8.66400 21.57100
H  3.77600 7.13200 21.29900
H  1.87200 10.68800 21.42200
H  2.18600 11.93500 22.58800
H  -0.16900 10.64600 21.92500
H  0.11200 11.86900 23.22300
H  0.15600 10.15900 23.60700
H  3.21500 14.52800 28.06400
H  2.39000 14.28800 26.49900
H  4.01500 13.89400 26.56400
H  1.44600 11.19500 31.58000
H  4.27800 10.51300 34.57600
H  3.03700 11.59800 35.34800
H  4.44300 12.24800 34.41100

