158

Mg 43.08900 4.32200 47.14700
C  40.84600 7.04800 46.91300
C  40.33900 2.25100 47.26700
C  45.12000 1.77400 47.02400
C  45.73000 6.50000 46.82800
N  40.86500 4.65200 47.23500
C  40.25600 5.81500 47.05100
C  38.71000 5.62400 47.20900
C  38.54100 4.17100 47.63200
C  39.97100 3.59800 47.32800
C  37.92200 3.84300 49.01200
C  37.78400 6.09500 45.97800
C  38.31900 5.68900 44.53500
H  38.47500 6.63800 43.40300
N  42.74900 2.34000 47.02700
C  41.56900 1.64700 47.11500
C  41.78300 0.22100 47.11900
C  43.18600 0.06500 46.95200
C  43.77100 1.42400 47.02400
C  40.70500 -0.72400 47.06100
C  43.89900 -1.24700 46.70200
O  43.29500 -2.33200 46.80400
C  45.27100 -1.29000 46.18200
N  45.08900 4.15700 46.67500
C  45.73100 2.98100 46.96300
C  47.25700 3.08800 47.07000
C  47.42900 4.64600 46.90700
C  45.99600 5.15500 46.84400
C  47.85800 2.44000 48.31000
C  48.29800 5.09300 45.71000
C  49.76500 4.61100 45.70400
N  43.29000 6.37100 46.76100
C  44.45800 7.08600 46.77900
C  44.11900 8.52800 46.86300
C  42.64500 8.56000 46.85200
C  42.25600 7.20700 46.80400
C  45.06600 9.74200 46.60400
C  41.43600 9.43400 46.84400
O  41.30800 10.65300 47.02000
C  40.23800 8.49000 46.88700
C  39.35900 8.80100 47.99000
O  39.63600 8.52200 49.16400
O  38.20600 9.39600 47.53500
C  37.29700 9.84400 48.63900
H  39.44700 1.63900 47.41300
H  45.80100 0.92300 47.07200
H  46.53800 7.16800 47.13400
H  38.28900 6.24300 48.00200
H  37.88500 3.71000 46.89300
H  36.99900 3.28000 48.87100
H  37.60900 4.64500 49.68000
H  38.44800 3.11400 49.62900
H  37.50000 7.14500 46.03500
H  36.78600 5.66900 46.07700
H  37.58000 4.98400 44.15500
H  39.24100 5.14900 44.75200
H  39.79300 -0.34700 47.52500
H  40.84400 -1.64600 47.62600
H  40.52000 -0.93400 46.00700
H  45.97800 -1.06300 46.98000
H  45.48100 -0.61100 45.35500
H  45.64400 -2.18600 45.68600
H  47.59100 2.65400 46.12700
H  47.93700 4.95300 47.82100
H  47.12800 2.30000 49.10700
H  48.63700 3.12100 48.65500
H  48.20600 1.42500 48.12000
H  48.28700 6.18000 45.62600
H  47.82500 4.63300 44.84200
H  49.75200 3.72400 45.07000
H  50.21200 4.29700 46.64700
H  50.30500 5.46800 45.30100
H  45.76500 9.53300 45.79400
H  45.72100 9.89400 47.46200
H  44.47400 10.63800 46.41700
H  39.60400 8.49800 46.00000
H  37.80400 10.60300 49.23500
H  36.91800 9.01000 49.22900
H  36.48400 10.42900 48.21000
Mg 46.74400 24.93300 28.20400
C  47.72700 27.25300 30.68000
C  45.61000 22.82300 30.62000
C  46.34200 22.61800 25.72200
C  48.35100 27.03600 25.83500
N  46.64900 25.12700 30.41600
C  46.96300 26.21800 31.24600
C  46.52900 25.92100 32.73100
C  45.98600 24.45900 32.63600
C  46.06000 24.12600 31.10800
C  46.63700 23.36100 33.46500
C  45.47700 26.97300 33.27700
C  44.64200 26.75400 34.55400
H  45.49500 26.57600 35.89300
N  45.91700 23.05900 28.13600
C  45.60600 22.34100 29.27300
C  45.07600 21.01600 28.81700
C  45.24500 20.96800 27.41700
C  45.85200 22.26700 26.98100
C  44.51600 20.07700 29.83300
C  44.72400 19.95800 26.36500
O  45.01200 19.98000 25.16300
C  43.79600 18.99400 26.89100
N  47.18100 24.94400 26.06300
C  46.98800 23.80200 25.28600
C  47.68600 23.92700 23.87700
C  48.21000 25.37200 23.93600
C  47.85000 25.83800 25.37100
C  48.60900 22.74300 23.50000
C  47.85600 26.38900 22.74100
C  48.94100 27.38500 22.32600
N  47.69000 26.82700 28.19300
C  48.37400 27.51200 27.17100
C  49.03600 28.73300 27.66000
C  48.69300 28.68600 29.05700
C  47.93800 27.49400 29.35700
C  49.83000 29.75000 26.93000
C  48.77500 29.53500 30.27500
O  49.07600 30.71700 30.44000
C  48.17000 28.50000 31.43000
C  49.30700 28.16200 32.33500
O  50.39700 27.73100 32.01400
O  48.99100 28.60400 33.60900
C  50.17700 28.80300 34.41000
H  45.23100 22.07200 31.31600
H  46.30100 21.83100 24.96600
H  48.80400 27.70100 25.09600
H  47.40400 26.06900 33.36500
H  44.92700 24.44600 32.89400
H  47.41700 23.78600 34.09600
H  47.18900 22.66400 32.83500
H  45.96700 22.77500 34.09300
H  44.89500 27.21400 32.38700
H  45.95800 27.92100 33.52000
H  44.03400 25.85800 34.42500
H  43.98300 27.61300 34.68200
H  45.13900 19.18600 29.75700
H  43.49900 19.81300 29.54300
H  44.53000 20.40500 30.87200
H  43.32300 18.45900 26.06700
H  42.94000 19.51100 27.32300
H  44.36900 18.31300 27.52100
H  46.91700 23.88500 23.10500
H  49.29700 25.31100 23.90400
H  49.14800 22.31200 24.34400
H  49.17600 22.97800 22.60000
H  47.99000 21.87400 23.27300
H  46.98500 27.00700 22.95700
H  47.63700 25.75200 21.88400
H  49.65800 27.54600 23.13200
H  48.46100 28.36300 22.29200
H  49.42700 27.15600 21.37800
H  50.31900 29.54600 25.97800
H  50.52600 30.11800 27.68400
H  49.00300 30.44300 26.77500
H  47.29500 28.97600 31.87400
H  49.90300 28.89100 35.46100
H  50.60600 29.77800 34.17900
H  51.04400 28.16200 34.25300

