158

Mg 54.17700 24.28100 45.32000
C  51.55700 26.55700 44.27900
C  52.22100 21.73600 43.85800
C  56.80300 22.39900 45.10200
C  55.98700 27.13200 45.96500
N  52.22800 24.18400 44.13300
C  51.37900 25.24100 43.82600
C  50.29800 24.77600 42.81600
C  50.23800 23.28500 43.08600
C  51.62300 22.98400 43.77000
C  49.15700 22.84900 44.15200
C  50.61600 25.24300 41.34300
C  50.79900 24.19200 40.21200
H  51.85600 23.13500 40.36500
N  54.38600 22.22200 44.78900
C  53.48900 21.35800 44.22000
C  54.12700 20.13700 44.07900
C  55.46800 20.30800 44.35500
C  55.64100 21.67600 44.83900
C  53.43900 18.88500 43.42400
C  56.58400 19.20500 44.26800
O  56.29500 17.99800 44.01500
C  58.04800 19.46500 44.37500
N  56.13000 24.66100 45.40200
C  57.05900 23.76200 45.36200
C  58.42100 24.26800 45.79000
C  58.17200 25.79000 45.91800
C  56.66600 25.88300 45.80300
C  59.04300 23.63600 47.03500
C  58.83100 26.55500 44.78000
C  58.10500 26.56300 43.48800
N  53.75900 26.43300 45.51200
C  54.59100 27.41000 45.82600
C  53.82900 28.64600 45.95600
C  52.67500 28.40100 45.28500
C  52.64700 27.01200 45.03000
C  54.32700 29.96800 46.33500
C  51.43000 28.90300 44.73600
O  51.02400 30.07300 44.73100
C  50.68400 27.77600 44.03600
C  50.45200 28.27700 42.63000
O  51.28200 28.86000 41.95200
O  49.20800 28.00300 42.22400
C  48.73000 28.35300 40.87500
H  51.66700 20.93200 43.36800
H  57.80000 22.00100 44.90500
H  56.57300 28.05000 46.05100
H  49.41800 25.34600 43.11200
H  50.16300 22.57800 42.25900
H  49.69200 22.39200 44.98400
H  48.38200 22.24800 43.67600
H  48.60200 23.72900 44.47900
H  51.48600 25.87800 41.17400
H  49.75200 25.84100 41.05400
H  51.10000 24.67900 39.28500
H  49.80100 23.76800 40.09600
H  53.86200 17.98200 43.86300
H  53.40300 18.88700 42.33400
H  52.41800 18.91300 43.80600
H  58.43800 20.05700 43.54600
H  58.53400 18.49600 44.48000
H  58.27000 19.93900 45.33100
H  58.93100 23.93900 44.88500
H  58.51900 26.02600 46.92400
H  60.03600 23.25200 46.80200
H  58.31600 22.88400 47.34000
H  59.26600 24.37700 47.80300
H  59.83500 26.17900 44.58700
H  58.91200 27.57800 45.14800
H  57.67200 27.55200 43.33500
H  57.30200 25.83600 43.36900
H  58.85000 26.52700 42.69300
H  55.16700 30.21100 45.68500
H  54.75900 29.86600 47.33100
H  53.48400 30.64600 46.46600
H  49.67700 27.83000 44.44900
H  49.40600 28.89300 40.21300
H  47.79300 28.91000 40.89700
H  48.42700 27.38500 40.47800
Mg 17.79300 52.99900 25.76100
C  19.64600 51.59100 28.43700
C  15.19400 53.42500 27.93200
C  15.82800 53.83100 23.27000
C  20.32100 51.89700 23.52200
N  17.47000 52.73000 27.94500
C  18.37900 52.08100 28.80100
C  17.82200 52.06100 30.18400
C  16.26400 52.45500 30.00300
C  16.33400 52.93600 28.55800
C  15.20400 51.45400 30.44300
C  18.57900 53.14100 31.07500
C  18.45100 53.09300 32.61200
H  17.40600 52.21800 33.23200
N  15.98400 53.87700 25.72500
C  15.05800 53.94900 26.64500
C  13.91600 54.71900 26.18400
C  14.12000 54.91700 24.79600
C  15.33900 54.18600 24.51900
C  12.73900 55.07700 27.04200
C  13.30600 55.68000 23.74100
O  13.67800 55.94300 22.58100
C  11.91600 56.16800 24.06300
N  18.11900 52.88000 23.72900
C  17.08300 53.28200 22.87600
C  17.47900 53.18300 21.41700
C  19.02400 52.69800 21.57300
C  19.15000 52.41100 23.03500
C  16.58200 52.14300 20.69300
C  20.14100 53.70400 21.10500
C  20.36900 55.03600 21.94100
N  19.63200 51.89800 25.90900
C  20.58800 51.61500 24.89900
C  21.71800 51.05100 25.57300
C  21.43400 51.08600 26.99300
C  20.09200 51.51800 27.10500
C  22.98100 50.63300 25.03000
C  21.95900 50.73800 28.34300
O  23.00600 50.29400 28.65000
C  20.79000 51.08200 29.21800
C  20.45900 49.95300 30.12800
O  19.94300 48.91800 29.75200
O  20.73800 50.26800 31.43500
C  20.29700 49.20800 32.38300
H  14.35200 53.64800 28.59100
H  15.16100 53.98600 22.41900
H  21.12200 51.51300 22.88900
H  17.99300 51.09400 30.65700
H  16.21500 53.40000 30.54400
H  14.39800 51.92700 31.00500
H  15.55800 50.57400 30.98000
H  14.67600 51.06300 29.57400
H  18.23200 54.13900 30.80400
H  19.63600 53.06600 30.81900
H  18.30700 54.11800 32.95300
H  19.43800 52.86400 33.01400
H  12.08400 54.21600 27.17400
H  12.14500 55.91200 26.66900
H  12.97300 55.39100 28.05900
H  11.45000 56.48500 23.13000
H  12.08600 57.02400 24.71500
H  11.24300 55.46500 24.55400
H  17.42900 54.19400 21.01100
H  19.14600 51.77300 21.00900
H  15.76000 51.86000 21.35000
H  17.08200 51.26600 20.28100
H  16.00400 52.59900 19.88900
H  19.87300 53.81500 20.05400
H  21.07500 53.15400 20.99200
H  20.02100 54.81800 22.95000
H  19.81500 55.81200 21.41400
H  21.40100 55.38700 21.93400
H  23.28900 51.36900 24.28800
H  22.86300 49.62200 24.63800
H  23.71700 50.79000 25.81800
H  21.21500 51.98000 29.66700
H  20.97900 48.35800 32.37900
H  19.27000 48.84900 32.31100
H  20.21200 49.67100 33.36600

