158

Mg 24.56500 -7.97800 47.28600
C  27.09800 -5.47900 46.48500
C  22.56200 -6.41500 45.00200
C  22.40200 -10.32400 47.80000
C  26.94500 -9.42600 49.37700
N  24.72300 -6.06100 45.92300
C  25.87700 -5.28000 45.73900
C  25.60400 -4.22600 44.67100
C  24.05100 -4.42100 44.41900
C  23.77200 -5.70900 45.13900
C  23.15200 -3.20600 44.90300
C  26.53300 -4.46100 43.38800
C  27.21400 -3.17900 42.92600
H  26.90700 -2.83000 41.45800
N  22.78500 -8.36400 46.47900
C  22.12900 -7.59900 45.51600
C  20.80000 -8.16400 45.29500
C  20.67400 -9.29800 46.20800
C  21.96200 -9.37400 46.91400
C  19.66400 -7.48700 44.39700
C  19.40600 -10.06400 46.39100
O  18.37800 -9.85900 45.71600
C  19.22700 -11.02000 47.57500
N  24.70300 -9.69200 48.42900
C  23.61000 -10.44600 48.60800
C  23.77100 -11.56400 49.64300
C  25.25700 -11.30400 50.12200
C  25.70600 -10.10900 49.28900
C  22.75300 -11.61500 50.83700
C  26.23200 -12.56200 49.96500
C  27.41900 -12.65800 51.01600
N  26.55400 -7.51000 47.89200
C  27.35600 -8.25300 48.72600
C  28.70900 -7.66200 48.79700
C  28.58800 -6.56400 47.88100
C  27.26400 -6.50700 47.41300
C  29.88100 -8.20500 49.63200
C  29.37800 -5.49700 47.28200
O  30.55800 -5.13500 47.32600
C  28.43200 -4.71800 46.35300
C  28.30100 -3.30400 46.80800
O  28.12900 -2.79500 47.93600
O  28.52800 -2.57100 45.61100
C  28.20400 -1.12200 45.70800
H  21.92300 -5.88500 44.29200
H  21.70600 -11.14700 47.97900
H  27.67000 -9.95200 50.00100
H  25.67300 -3.23200 45.11200
H  23.84100 -4.52500 43.35500
H  23.68500 -2.28600 45.14100
H  22.61000 -3.54400 45.78700
H  22.43200 -2.88600 44.14900
H  26.00600 -4.96800 42.58000
H  27.30200 -5.17800 43.67500
H  28.29400 -3.32000 42.97300
H  27.01400 -2.29400 43.53100
H  18.98700 -8.18100 43.89900
H  20.15300 -6.85600 43.65500
H  19.16300 -6.79700 45.07500
H  19.32800 -10.58800 48.57100
H  19.90400 -11.85200 47.38100
H  18.19800 -11.37600 47.55100
H  23.72100 -12.46600 49.03300
H  25.33400 -10.93100 51.14300
H  21.98800 -10.90700 50.51600
H  23.22400 -11.16700 51.71100
H  22.50500 -12.66100 51.01600
H  26.78500 -12.45600 49.03200
H  25.63200 -13.46100 50.10700
H  27.37100 -13.60600 51.55100
H  27.45600 -11.80700 51.69700
H  28.35900 -12.75000 50.47000
H  30.48900 -7.39200 50.03000
H  30.53800 -8.81500 49.01200
H  29.56800 -8.80500 50.48600
H  28.79300 -4.67600 45.32500
H  28.90200 -0.70000 46.43100
H  27.19800 -0.85100 46.02800
H  28.48600 -0.58400 44.80300
Mg 6.91100 56.87600 41.37800
C  6.45200 53.27900 41.27900
C  9.91100 56.34700 39.70300
C  6.83300 60.03600 40.55600
C  3.66800 57.13800 42.80300
N  8.08800 55.00300 40.53200
C  7.70500 53.67700 40.65200
C  8.80500 52.81600 40.03300
C  10.06300 53.73000 40.02700
C  9.37000 55.12600 40.13700
C  10.93800 53.56400 41.26700
C  8.41000 52.33200 38.62600
C  8.63100 50.77400 38.28300
H  7.45800 50.10800 37.49500
N  8.22800 58.05800 40.36000
C  9.41600 57.64100 39.75700
C  10.03100 58.86200 39.21000
C  9.27900 59.95100 39.48700
C  7.99100 59.37800 40.09200
C  11.36700 58.80800 38.58800
C  9.59200 61.39500 39.25300
O  10.65900 61.65000 38.67100
C  8.77800 62.63900 39.70200
N  5.42900 58.31500 41.55500
C  5.71900 59.58500 41.23300
C  4.60200 60.54500 41.61800
C  3.54900 59.63900 42.29800
C  4.28000 58.30600 42.25300
C  4.88600 61.81000 42.47000
C  2.12000 59.59200 41.67800
C  0.95700 60.17200 42.57200
N  5.40900 55.46400 42.08900
C  4.22900 55.80800 42.74300
C  3.67000 54.54800 43.24900
C  4.47900 53.51100 42.67700
C  5.43400 54.14200 41.90900
C  2.47100 54.38300 44.10800
C  4.69700 52.06200 42.55200
O  4.13400 51.12700 43.08100
C  5.91200 51.89800 41.57100
C  5.43700 51.28000 40.31100
O  5.16300 51.85900 39.24400
O  5.38200 49.98800 40.56900
C  4.49600 49.17600 39.63800
H  10.89000 56.17900 39.24700
H  6.79800 61.12400 40.46500
H  2.73800 57.17000 43.37500
H  9.04600 51.96100 40.66500
H  10.63400 53.57900 39.11100
H  10.75000 54.18200 42.14400
H  11.90400 53.93000 40.91800
H  10.96300 52.50900 41.53900
H  8.99300 52.91300 37.91100
H  7.36000 52.55400 38.43500
H  8.94800 50.26300 39.19200
H  9.50700 50.71800 37.63700
H  11.91100 57.86300 38.59600
H  12.04600 59.42000 39.18300
H  11.34700 59.13800 37.55000
H  8.57500 62.39000 40.74400
H  7.82900 62.67700 39.16700
H  9.38700 63.53200 39.56400
H  4.30600 60.73900 40.58700
H  3.51200 59.92700 43.34900
H  4.75400 62.67100 41.81500
H  5.91000 61.69500 42.82500
H  4.17700 61.93600 43.28800
H  1.95400 58.52900 41.50400
H  2.21900 60.14000 40.74000
H  0.33300 60.86200 42.00300
H  1.34300 60.68200 43.45500
H  0.39800 59.32900 42.97700
H  1.56100 54.50100 43.51900
H  2.46200 54.96700 45.02800
H  2.46300 53.40300 44.58500
H  6.77800 51.34800 41.94000
H  3.48100 49.06300 40.02000
H  4.82900 48.13900 39.68100
H  4.42400 49.67700 38.67200

