158

Mg 16.13400 -1.46000 27.83500
C  14.81000 0.40800 30.47600
C  17.99800 -3.28000 30.09600
C  17.43200 -3.12600 25.35800
C  14.08300 0.38000 25.68600
N  16.45500 -1.38500 29.98600
C  15.76600 -0.57300 30.91500
C  16.22900 -0.82700 32.26400
C  17.36800 -1.88500 32.18300
C  17.32000 -2.20300 30.64700
C  18.77500 -1.47100 32.65900
C  15.04300 -1.08300 33.20400
C  15.05600 -0.27200 34.44600
H  16.35100 0.24600 35.14000
N  17.41800 -3.10500 27.73000
C  18.02700 -3.70700 28.73400
C  18.79200 -4.83200 28.21500
C  18.57800 -4.90300 26.84000
C  17.77100 -3.66900 26.56900
C  19.49600 -5.81200 29.14900
C  19.14400 -5.89700 25.90300
O  18.97300 -5.72700 24.73800
C  20.02500 -6.98000 26.28300
N  15.87500 -1.21400 25.85900
C  16.62300 -2.05000 25.04100
C  16.39300 -1.64300 23.48400
C  15.21700 -0.65000 23.61300
C  15.02900 -0.49800 25.13900
C  17.69200 -1.10400 22.77500
C  13.83300 -0.97100 22.95500
C  13.50600 -0.07800 21.79400
N  14.72900 0.09100 27.98700
C  13.98500 0.74100 27.02500
C  13.11400 1.72300 27.57800
C  13.36600 1.69100 28.92800
C  14.36400 0.63300 29.13600
C  12.13700 2.55400 26.86300
C  13.06900 2.22300 30.22800
O  12.35500 3.22000 30.55300
C  13.95900 1.43000 31.30700
C  14.87900 2.38300 32.05200
O  15.92100 2.85800 31.63500
O  14.28700 2.68700 33.30600
C  14.99700 3.70700 34.20400
H  18.59500 -3.86000 30.80400
H  18.02800 -3.49900 24.52200
H  13.41700 0.88300 24.98200
H  16.68300 0.04800 32.73000
H  17.06600 -2.75100 32.77200
H  18.69900 -0.63100 33.35000
H  19.29100 -1.30800 31.71300
H  19.31600 -2.21000 33.25200
H  15.23500 -2.05800 33.65100
H  14.04500 -1.09300 32.76600
H  14.65300 -0.84300 35.28300
H  14.26200 0.46200 34.30800
H  20.27000 -6.32100 28.57400
H  18.83300 -6.54600 29.60700
H  19.93800 -5.28200 29.99200
H  19.54200 -7.66700 26.97700
H  20.94500 -6.52700 26.65100
H  20.29900 -7.56200 25.40400
H  16.12400 -2.56500 22.96800
H  15.53900 0.32800 23.25700
H  18.40400 -0.92500 23.58000
H  17.48200 -0.11700 22.36100
H  18.01800 -1.86200 22.06300
H  13.03600 -1.00600 23.69700
H  13.93800 -1.96000 22.50700
H  13.71400 -0.56100 20.84000
H  13.94700 0.90100 21.98400
H  12.44200 0.10300 21.94800
H  11.44100 2.78200 27.67000
H  11.56700 1.96700 26.14300
H  12.61500 3.46500 26.50300
H  13.32600 0.95000 32.05300
H  16.08200 3.71500 34.09300
H  14.75300 3.37400 35.21300
H  14.68800 4.70300 33.88600
Mg 47.92400 25.70800 28.58800
C  48.86800 27.80600 31.13500
C  46.65300 23.55900 31.02400
C  47.41900 23.46400 26.23000
C  49.58300 27.84300 26.33600
N  47.74300 25.71000 30.76500
C  48.11600 26.77600 31.57200
C  47.85300 26.46700 33.02700
C  47.22600 25.00800 32.92100
C  47.25900 24.69300 31.49100
C  47.81100 23.86600 33.81200
C  46.81100 27.47600 33.66700
C  47.16600 27.92100 35.02100
H  46.06700 27.77600 36.11300
N  47.01000 23.82000 28.61700
C  46.58700 23.13100 29.69800
C  45.86200 21.96400 29.21500
C  45.94000 22.01400 27.80100
C  46.83900 23.13900 27.49200
C  45.21500 21.00700 30.06700
C  45.32300 21.11300 26.62900
O  45.36100 21.41700 25.40800
C  44.53200 19.95400 27.09000
N  48.76500 25.55100 26.64900
C  48.23000 24.52600 25.86300
C  48.50000 24.75900 24.32200
C  49.05500 26.17700 24.34700
C  49.11000 26.63000 25.86600
C  49.38100 23.57200 23.83100
C  48.26600 27.08100 23.37700
C  48.75200 27.20500 21.94900
N  49.08200 27.48300 28.63500
C  49.61600 28.28100 27.67000
C  50.09700 29.47000 28.26200
C  49.94800 29.30400 29.66400
C  49.26400 28.09300 29.78700
C  50.62300 30.66700 27.52600
C  50.16000 29.90500 30.95300
O  50.75900 30.93300 31.15000
C  49.43400 28.97500 32.00600
C  50.36900 28.54000 32.96500
O  51.25000 27.74200 32.76900
O  50.33300 29.30500 34.13400
C  51.35100 29.31500 35.15900
H  46.28800 22.90400 31.81800
H  47.19600 22.84000 25.36200
H  49.89300 28.53200 25.54700
H  48.78500 26.56000 33.58500
H  46.19500 25.02500 33.27700
H  48.47700 24.31500 34.54900
H  48.28200 23.05400 33.25700
H  46.96100 23.35900 34.27000
H  45.79000 27.11100 33.78200
H  46.72500 28.39800 33.09300
H  47.32300 29.00000 34.99700
H  48.02400 27.41000 35.45900
H  45.72300 20.04600 29.99000
H  44.19600 20.94200 29.68600
H  45.17200 21.28100 31.12100
H  44.16300 19.33000 26.27700
H  43.79200 20.51700 27.65900
H  45.12800 19.30800 27.73500
H  47.49500 24.74700 23.90100
H  50.04700 26.21000 23.89500
H  49.61800 22.94100 24.68800
H  50.31000 23.80000 23.30700
H  48.83400 22.87000 23.20200
H  48.19000 28.06700 23.83500
H  47.21600 26.79000 23.40100
H  49.43800 26.39400 21.70400
H  49.22000 28.16700 21.74100
H  47.88800 27.08000 21.29700
H  51.68900 30.69700 27.75300
H  50.19200 31.51400 28.06000
H  50.46100 30.62300 26.44900
H  48.71600 29.56900 32.57100
H  51.89200 30.21300 34.86000
H  51.98200 28.43000 35.24500
H  50.88700 29.58600 36.10700

