158

Mg 40.85000 8.35900 29.47800
C  42.59800 9.90900 32.13800
C  38.48000 7.22700 31.83300
C  39.43600 6.50500 27.08300
C  43.56100 9.07000 27.36500
N  40.59300 8.56300 31.75300
C  41.35800 9.36700 32.58900
C  40.78900 9.48300 33.95700
C  39.51100 8.46500 33.81600
C  39.48100 8.11600 32.35600
C  39.48200 7.30700 34.82900
C  40.44300 10.92800 34.48500
C  41.06000 11.22900 35.83300
H  40.17200 11.95200 36.80300
N  39.14200 7.11800 29.43200
C  38.29600 6.73900 30.50500
C  37.19500 6.06200 29.95500
C  37.36200 5.92300 28.56800
C  38.64600 6.49600 28.29200
C  36.09200 5.45300 30.76600
C  36.45200 5.23900 27.43100
O  36.77100 5.16900 26.19100
C  35.14500 4.77800 27.84200
N  41.36600 7.83700 27.46600
C  40.65500 7.07500 26.71300
C  41.27000 6.92900 25.31200
C  42.59800 7.68900 25.40600
C  42.49600 8.26000 26.82800
C  41.37800 5.47100 24.78800
C  42.84400 8.71700 24.28300
C  41.93200 9.95200 24.31100
N  42.64800 9.30800 29.62300
C  43.69900 9.49200 28.73300
C  44.73600 10.24800 29.32500
C  44.34600 10.43700 30.64600
C  43.06400 9.81800 30.80100
C  45.99300 10.73100 28.68100
C  44.83300 11.00400 31.90100
O  45.91800 11.47300 32.27300
C  43.59200 10.77500 32.89500
C  44.18000 10.12300 34.09800
O  44.55300 9.00500 34.23100
O  44.33900 11.13300 35.03100
C  44.98300 10.91100 36.28200
H  37.72800 7.19200 32.62400
H  38.96000 5.88500 26.32100
H  44.28800 9.40600 26.62200
H  41.60900 9.07700 34.55100
H  38.59100 9.03600 33.94300
H  39.44900 6.29200 34.43200
H  38.58500 7.30300 35.44700
H  40.33400 7.37400 35.50500
H  39.35500 10.93800 34.55000
H  40.68900 11.72000 33.77800
H  41.85700 11.87300 35.46100
H  41.55500 10.40300 36.34400
H  36.17200 4.36600 30.77200
H  35.05100 5.55800 30.46000
H  36.11500 5.72900 31.82000
H  34.71200 4.19600 27.02800
H  34.58700 5.61100 28.27000
H  35.28200 3.94100 28.52600
H  40.76800 7.54900 24.57000
H  43.34700 6.89700 25.43800
H  40.83000 5.41800 23.84800
H  40.95300 4.71300 25.44600
H  42.41200 5.27100 24.50700
H  42.85900 8.24800 23.29900
H  43.84700 9.13200 24.38100
H  41.15600 9.95400 25.07700
H  41.42700 10.11600 23.35900
H  42.56900 10.79200 24.58900
H  46.24200 9.89700 28.02400
H  46.74300 10.86900 29.46000
H  45.85000 11.71300 28.23000
H  43.17400 11.76400 33.08600
H  44.28400 10.44900 36.97900
H  45.36700 11.81400 36.75600
H  45.72200 10.19800 35.91600
Mg -2.45700 34.30600 26.31800
C  -4.04000 32.45600 28.96200
C  -1.36100 36.58900 28.72000
C  -1.16500 36.25200 23.75100
C  -4.16700 32.35800 24.01000
N  -2.87500 34.56100 28.49900
C  -3.42200 33.67500 29.42100
C  -3.25100 34.14500 30.90500
C  -2.71700 35.62400 30.73900
C  -2.19400 35.58700 29.22400
C  -3.78100 36.73800 31.02300
C  -2.37900 33.16900 31.68900
C  -3.00600 32.54600 32.94200
H  -2.18900 32.46600 34.24300
N  -1.30000 36.03300 26.18400
C  -0.96000 36.77900 27.29300
C  0.01300 37.69000 26.88000
C  0.07400 37.71200 25.48800
C  -0.79500 36.64600 25.03900
C  0.75400 38.58600 27.92100
C  0.78300 38.60500 24.48400
O  0.76800 38.43100 23.27300
C  1.54800 39.82700 25.01200
N  -2.71000 34.35200 24.16400
C  -2.02000 35.15600 23.35600
C  -2.34100 34.86800 21.89700
C  -3.02300 33.48400 22.02200
C  -3.39400 33.41100 23.47600
C  -3.38600 35.95500 21.22700
C  -2.00100 32.41200 21.63300
C  -0.88500 31.88600 22.61100
N  -3.74900 32.71600 26.43000
C  -4.23500 31.97000 25.40100
C  -5.06400 30.87100 25.93900
C  -4.96600 31.03900 27.31100
C  -4.15200 32.11200 27.60500
C  -5.91800 29.84700 25.29600
C  -5.39600 30.44800 28.52800
O  -6.11100 29.47800 28.74800
C  -4.75600 31.32400 29.73700
C  -5.78900 31.73600 30.62400
O  -6.56600 32.65300 30.43400
O  -5.85000 30.88900 31.61800
C  -6.87800 31.26100 32.61400
H  -0.75500 37.02100 29.51900
H  -0.85400 36.85200 22.89300
H  -4.62600 31.56600 23.41400
H  -4.25000 34.11700 31.34000
H  -1.81300 35.82100 31.31400
H  -3.53700 36.99600 32.05400
H  -4.76000 36.26400 30.94400
H  -3.61600 37.62200 30.40900
H  -1.49200 33.68700 32.05600
H  -2.12600 32.34400 31.02300
H  -3.26800 31.50200 32.76800
H  -3.92600 33.09600 33.13900
H  1.82800 38.59800 27.73100
H  0.59500 38.25600 28.94700
H  0.43100 39.62300 27.82800
H  0.82300 40.46600 25.51600
H  2.01700 40.35400 24.18100
H  2.25300 39.53900 25.79100
H  -1.46000 34.92800 21.25800
H  -3.93500 33.35300 21.43900
H  -3.44900 36.87400 21.81000
H  -4.39500 35.58500 21.04600
H  -2.93900 36.09600 20.24200
H  -1.48000 32.90100 20.81000
H  -2.57200 31.55600 21.27300
H  0.06300 32.27000 22.23400
H  -0.80300 30.80400 22.50100
H  -1.09100 32.22000 23.62800
H  -5.89100 29.62700 24.22900
H  -6.96100 30.12800 25.44400
H  -5.65500 28.97900 25.90100
H  -4.03000 30.77800 30.33900
H  -6.35800 31.83200 33.38300
H  -7.12500 30.31500 33.09500
H  -7.81000 31.71800 32.28400

