158

Mg 41.90000 41.33000 26.56200
C  41.24400 43.63600 28.93000
C  43.25500 39.20400 29.17500
C  43.04800 39.02400 24.28600
C  41.27400 43.56700 24.09800
N  42.27700 41.45500 28.81200
C  41.64000 42.43100 29.54600
C  41.71800 42.09300 31.06000
C  42.54100 40.75200 31.04200
C  42.66500 40.41800 29.56500
C  43.95900 40.80400 31.68300
C  40.40300 42.12100 31.88600
C  40.23100 43.23900 32.91000
H  39.33000 42.97900 34.10200
N  42.94600 39.30800 26.67200
C  43.37700 38.65900 27.85500
C  43.91700 37.35200 27.42800
C  43.72800 37.18800 26.00300
C  43.13700 38.51600 25.58700
C  44.39800 36.32100 28.42400
C  44.11200 35.99400 25.04300
O  43.98000 35.97600 23.83600
C  44.71500 34.82100 25.60800
N  42.01200 41.30000 24.58900
C  42.59100 40.23600 23.82500
C  42.70700 40.69500 22.39300
C  41.76200 41.88700 22.25200
C  41.70800 42.32200 23.70800
C  44.17300 41.11200 22.02300
C  40.37500 41.72500 21.60000
C  39.42300 40.80600 22.41900
N  41.31400 43.32500 26.40700
C  41.14200 44.11600 25.35200
C  40.83200 45.42200 25.80500
C  40.85200 45.32200 27.25600
C  41.16000 44.00400 27.54300
C  40.63900 46.60900 24.95000
C  40.70200 46.04000 28.53600
O  40.43100 47.20600 28.76300
C  40.87200 44.91400 29.70400
C  41.92900 45.40300 30.65700
O  43.14100 45.35500 30.52300
O  41.28600 45.90500 31.75500
C  42.23500 46.32000 32.85400
H  43.44200 38.50500 29.99300
H  43.38800 38.27300 23.57000
H  41.26400 44.31800 23.30500
H  42.50500 42.78400 31.36200
H  42.00000 39.94900 31.54300
H  43.83700 40.08400 32.49300
H  44.24900 41.77100 32.09400
H  44.76600 40.50500 31.01400
H  40.23900 41.23300 32.49600
H  39.55500 42.23500 31.21100
H  39.70800 44.06900 32.43400
H  41.18800 43.67000 33.20500
H  45.36400 35.96100 28.06900
H  43.77400 35.42700 28.39400
H  44.43000 36.79500 29.40500
H  45.65900 35.18700 26.01100
H  44.95200 34.13100 24.79800
H  44.05900 34.28900 26.29700
H  42.31900 39.98100 21.66700
H  42.22400 42.77700 21.82500
H  44.54900 42.00200 22.52700
H  44.03300 41.32600 20.96300
H  44.90900 40.32000 22.15800
H  40.51400 41.33300 20.59200
H  39.97100 42.72400 21.43700
H  38.40700 41.19900 22.38300
H  39.59800 40.79700 23.49500
H  39.32500 39.81200 21.98200
H  39.61000 46.87000 25.19700
H  40.84300 46.52100 23.88200
H  41.21200 47.43600 25.36900
H  39.94100 44.84800 30.26700
H  43.09500 46.90000 32.52000
H  42.48900 45.48200 33.50300
H  41.55800 46.97500 33.40200
Mg -10.89200 16.95900 42.08800
C  -7.44100 17.35800 42.46100
C  -11.22200 20.31900 41.50200
C  -13.98200 16.42200 41.39600
C  -10.18700 13.40200 41.78700
N  -9.45600 18.61600 41.83100
C  -8.14600 18.54200 42.26200
C  -7.52400 19.93000 42.13500
C  -8.76800 20.82900 42.48500
C  -9.92600 19.86100 41.92700
C  -9.06800 21.06100 43.97800
C  -6.90500 20.16800 40.66700
C  -5.44300 20.53600 40.57200
H  -4.75100 19.54600 39.76600
N  -12.38600 18.23100 41.38200
C  -12.37700 19.61300 41.30200
C  -13.65700 20.07800 41.01500
C  -14.57500 18.98500 41.03400
C  -13.68600 17.84800 41.29400
C  -13.91700 21.53300 40.70100
C  -16.10700 19.12300 40.88100
O  -16.74100 20.13700 40.71500
C  -16.93000 17.84900 41.10800
N  -11.81200 15.21800 41.45800
C  -13.14400 15.34400 41.49900
C  -13.82600 13.95000 41.74400
C  -12.65500 13.03200 41.57300
C  -11.43900 13.88200 41.61500
C  -14.61400 13.80200 43.07900
C  -12.76900 11.98200 40.41100
C  -12.74000 10.56700 40.87900
N  -9.21900 15.57100 42.18600
C  -9.08400 14.17300 42.03300
C  -7.72400 13.83100 42.30500
C  -7.06900 15.03700 42.51200
C  -8.00400 16.06400 42.41200
C  -7.14000 12.49300 42.33100
C  -5.76900 15.61400 42.65900
O  -4.63100 15.18500 42.65300
C  -5.94700 17.15600 42.67900
C  -5.49500 17.66100 44.03900
O  -5.84900 17.30400 45.15700
O  -4.44800 18.56700 43.79000
C  -3.88600 19.20000 44.99600
H  -11.32900 21.40300 41.57400
H  -15.02800 16.11000 41.43600
H  -10.02100 12.32400 41.74300
H  -6.72600 20.10700 42.85600
H  -8.89500 21.73000 41.88400
H  -8.14500 21.10800 44.55500
H  -9.73800 20.34000 44.44700
H  -9.61900 21.99300 44.10700
H  -7.33500 21.14100 40.43100
H  -7.25500 19.37100 40.01000
H  -4.92600 20.44600 41.52800
H  -5.27300 21.57700 40.29500
H  -13.55700 22.15300 41.52100
H  -14.98000 21.77400 40.67000
H  -13.37400 21.81000 39.79700
H  -18.01200 17.93200 41.21600
H  -16.46600 17.39800 41.98400
H  -16.72700 17.20700 40.25100
H  -14.54800 13.89800 40.92900
H  -12.58800 12.49000 42.51600
H  -14.33200 14.61400 43.74900
H  -14.44800 12.80300 43.48300
H  -15.68600 13.87800 42.89700
H  -11.84300 12.09800 39.84800
H  -13.69100 12.12300 39.84800
H  -12.50300 10.30500 41.91000
H  -11.93200 9.99300 40.42400
H  -13.62500 10.01000 40.57300
H  -6.65800 12.28900 41.37500
H  -7.88200 11.69800 42.39700
H  -6.56700 12.41400 43.25500
H  -5.42000 17.64800 41.86200
H  -3.23800 18.46200 45.46800
H  -4.70400 19.46900 45.66400
H  -3.27700 20.07700 44.77600

