158

Mg 2.97000 -1.51600 43.40300
C  6.53900 -0.68700 42.88200
C  2.24400 1.21800 41.44300
C  -0.26200 -2.53700 43.20700
C  3.90500 -4.50400 44.74000
N  4.33200 -0.04200 42.11000
C  5.71400 0.23100 42.26400
C  6.03700 1.62400 41.67100
C  4.65200 2.26900 41.53300
C  3.62600 1.09900 41.73700
C  4.31900 3.43000 42.61600
C  6.64600 1.47300 40.22500
C  6.05500 0.48600 39.19900
H  5.70900 1.17800 37.95500
N  1.29400 -0.74800 42.49500
C  1.18400 0.43400 41.81700
C  -0.19400 0.72500 41.56800
C  -0.98300 -0.25300 42.19900
C  -0.01800 -1.21600 42.76100
C  -0.73200 1.96500 40.84700
C  -2.56400 -0.22900 42.43000
O  -3.18800 0.62000 41.81000
C  -3.28500 -1.19100 43.35800
N  1.91600 -3.35400 43.73600
C  0.60100 -3.49000 43.67300
C  0.20200 -4.91000 44.20400
C  1.52500 -5.56300 44.67000
C  2.49900 -4.42200 44.34700
C  -0.96100 -4.81800 45.26100
C  1.89400 -6.89800 43.90000
C  1.52100 -8.15100 44.65400
N  4.83000 -2.45200 43.81900
C  5.05200 -3.68300 44.42700
C  6.44100 -3.83800 44.66600
C  7.07500 -2.70200 44.16000
C  6.08000 -1.89000 43.54700
C  7.13600 -5.00100 45.37500
C  8.39900 -2.13400 43.84100
O  9.53400 -2.56900 44.02600
C  8.02100 -0.77900 42.99000
C  8.58500 0.48000 43.60600
O  9.25100 1.30400 43.00700
O  8.22700 0.76600 44.91800
C  8.77900 2.01800 45.50400
H  2.03700 2.23500 41.10300
H  -1.25700 -2.98300 43.15400
H  4.09500 -5.52100 45.09100
H  6.68100 2.14900 42.37700
H  4.55000 2.68200 40.52900
H  4.99300 3.41200 43.47200
H  3.29200 3.43400 42.98100
H  4.44100 4.41500 42.16600
H  7.66500 1.14100 40.42000
H  6.73900 2.48300 39.82400
H  5.11900 0.12900 39.62800
H  6.72000 -0.35000 38.98200
H  -0.07900 2.39200 40.08600
H  -0.93500 2.63500 41.68200
H  -1.68400 1.72800 40.37100
H  -2.64200 -1.82400 43.96800
H  -3.93200 -1.77900 42.70700
H  -3.95200 -0.61500 44.00000
H  -0.14200 -5.41800 43.30300
H  1.54300 -5.73500 45.74700
H  -1.59700 -3.94300 45.13000
H  -0.49900 -4.68900 46.24000
H  -1.57100 -5.71800 45.34400
H  2.93700 -6.95800 43.59000
H  1.31800 -7.01700 42.98200
H  0.79400 -8.79400 44.15800
H  1.14800 -7.84800 45.63300
H  2.38600 -8.79100 44.82300
H  7.55900 -5.71300 44.66600
H  6.43600 -5.54300 46.01100
H  7.95800 -4.62700 45.98500
H  8.49900 -0.80500 42.01000
H  8.94300 1.82000 46.56300
H  7.99200 2.75700 45.35600
H  9.64800 2.37200 44.94900
Mg 47.16000 34.97400 28.30800
C  45.25100 33.04100 30.72200
C  47.39300 37.37100 30.65000
C  48.50800 36.85400 25.86500
C  46.68400 32.32300 26.01100
N  46.32700 35.10600 30.43400
C  45.81600 34.21400 31.26400
C  45.82600 34.68200 32.72500
C  46.19400 36.13300 32.59300
C  46.68700 36.22900 31.12700
C  45.03300 37.09900 32.79500
C  46.86100 33.74700 33.49300
C  46.92800 33.65000 35.05500
H  46.00800 34.59600 35.90700
N  47.93300 36.80100 28.32300
C  47.99300 37.66800 29.38200
C  48.76100 38.83300 29.01000
C  49.15200 38.70200 27.66600
C  48.60000 37.37000 27.22000
C  48.72400 40.02000 29.89400
C  49.76200 39.71400 26.78200
O  50.09000 39.48400 25.62500
C  50.06400 41.12300 27.28200
N  47.67400 34.61600 26.23100
C  48.02400 35.60600 25.37500
C  47.92700 35.20800 23.90900
C  47.69100 33.63700 24.05100
C  47.34600 33.50400 25.52900
C  46.78700 35.91300 23.15000
C  48.95900 32.68300 23.66200
C  50.34400 32.81500 24.45400
N  46.14900 33.13900 28.35400
C  46.01700 32.20800 27.27900
C  45.22700 31.05400 27.64800
C  44.87000 31.39400 28.99700
C  45.48700 32.63800 29.37200
C  44.96400 29.82900 26.82900
C  44.14600 30.90100 30.18100
O  43.61200 29.79300 30.36200
C  44.23900 31.98400 31.28400
C  44.50700 31.53000 32.65600
O  45.43500 30.84800 33.01200
O  43.41500 31.97900 33.42700
C  43.44300 31.57200 34.83900
H  47.61700 38.06800 31.46000
H  48.70400 37.58400 25.07600
H  46.37100 31.56500 25.28900
H  44.80100 34.52300 33.06100
H  47.00400 36.30500 33.30100
H  44.99100 37.86600 32.02300
H  45.19800 37.59900 33.75000
H  44.08900 36.55600 32.83100
H  47.77500 34.17100 33.07800
H  46.84800 32.72900 33.10400
H  47.92200 33.92300 35.40800
H  46.87900 32.59700 35.33400
H  48.16200 40.79900 29.38000
H  49.74400 40.40400 29.87300
H  48.33800 39.86100 30.90100
H  50.30600 41.62800 26.34700
H  50.87100 41.11100 28.01400
H  49.20100 41.56400 27.78200
H  48.88000 35.53200 23.49100
H  46.79600 33.26900 23.55000
H  47.18900 36.34100 22.23200
H  46.44300 36.73300 23.78200
H  45.95900 35.23600 22.94500
H  49.09800 32.96500 22.61800
H  48.56700 31.66600 23.68000
H  50.28700 33.55100 25.25700
H  51.11800 33.09200 23.73900
H  50.61600 31.86400 24.91200
H  45.70800 29.05000 26.99300
H  45.03000 30.11200 25.77900
H  43.98700 29.39400 27.03900
H  43.35000 32.59600 31.43500
H  44.06700 30.72700 35.13000
H  42.41900 31.25100 35.03300
H  43.74400 32.41200 35.46500

