158

Mg -1.96900 17.24100 26.68900
C  -2.27000 15.08400 29.30400
C  -3.13000 19.78700 28.82500
C  -1.84000 19.35600 24.10200
C  -1.28600 14.64000 24.51300
N  -2.81200 17.40400 28.90400
C  -2.66900 16.35800 29.76300
C  -2.93400 16.92800 31.15900
C  -3.63000 18.34300 30.88700
C  -3.23600 18.53200 29.43900
C  -5.19800 18.32000 31.00100
C  -1.62200 16.99900 32.09300
C  -1.76900 16.80300 33.63900
H  -0.41100 16.69500 34.41500
N  -2.14500 19.30400 26.54000
C  -2.67100 20.13700 27.53500
C  -2.60200 21.52400 26.99000
C  -2.18900 21.49100 25.65500
C  -2.03900 20.01300 25.34600
C  -2.97300 22.69300 27.83400
C  -1.94300 22.49600 24.64000
O  -1.60700 22.26000 23.50900
C  -1.95100 23.86300 24.93900
N  -1.54400 17.08900 24.62400
C  -1.65100 18.08400 23.74900
C  -1.64500 17.61300 22.27600
C  -1.14700 16.12200 22.43900
C  -1.35700 15.87200 23.97100
C  -2.94800 17.84000 21.45600
C  0.31600 15.90900 21.98500
C  1.34300 16.55200 22.86200
N  -1.85100 15.23800 26.84300
C  -1.56100 14.28100 25.90800
C  -1.55800 13.01100 26.53600
C  -1.76100 13.22500 27.87100
C  -2.00500 14.60800 28.00000
C  -1.34900 11.73700 25.82200
C  -1.78600 12.73600 29.15900
O  -1.52500 11.61100 29.52000
C  -2.28000 13.81200 30.18000
C  -1.27800 13.73200 31.27500
O  -0.08900 13.88200 31.19300
O  -1.93800 13.40700 32.46600
C  -1.14100 13.09100 33.66300
H  -3.51500 20.64400 29.38100
H  -1.85900 20.07300 23.27900
H  -1.01300 13.78700 23.88800
H  -3.55800 16.16200 31.62000
H  -3.14400 19.19400 31.36500
H  -5.65700 19.21600 30.58100
H  -5.36800 18.25900 32.07600
H  -5.50000 17.44100 30.43200
H  -1.19600 17.98400 31.89900
H  -0.89800 16.31400 31.65100
H  -2.35900 15.90700 33.82900
H  -2.27700 17.61900 34.15200
H  -2.36900 23.56100 27.57200
H  -2.89100 22.46500 28.89600
H  -4.02300 22.90500 27.63300
H  -2.95200 24.29300 24.90200
H  -1.38800 24.40000 24.17600
H  -1.48600 24.11500 25.89200
H  -0.89700 18.17800 21.72000
H  -1.84200 15.45700 21.92500
H  -2.88700 18.07400 20.39400
H  -3.51400 18.67000 21.88100
H  -3.55200 16.95300 21.64700
H  0.48300 16.17200 20.94000
H  0.49500 14.83800 22.07500
H  1.37600 16.20600 23.89500
H  1.57400 17.59300 22.63500
H  2.29600 16.13500 22.53600
H  -0.56600 11.78300 25.06600
H  -2.30200 11.34900 25.46300
H  -0.99200 11.01500 26.55600
H  -3.20800 13.49400 30.65500
H  -1.47100 12.23800 34.25700
H  -1.22400 13.90600 34.38100
H  -0.07900 12.92800 33.48300
Mg 45.93200 34.14200 28.00400
C  44.51200 32.06200 30.50000
C  45.67200 36.83400 30.12900
C  47.17900 36.18600 25.65300
C  45.95800 31.40000 25.87900
N  45.10900 34.38400 30.04900
C  44.84000 33.38400 30.92800
C  44.87600 33.90000 32.36400
C  44.88400 35.49500 32.17400
C  45.21400 35.58800 30.70600
C  43.65500 36.29000 32.63600
C  46.06600 33.25400 33.23900
C  46.96800 34.18300 33.97800
H  46.58000 34.67500 35.38000
N  46.32300 36.19800 27.93600
C  46.15200 37.09500 28.90800
C  46.66300 38.40700 28.53200
C  47.21200 38.31100 27.22600
C  46.89600 36.85600 26.87100
C  46.60200 39.55500 29.46400
C  47.91100 39.43700 26.28700
O  48.23300 39.25200 25.10100
C  48.07700 40.81600 26.86000
N  46.33600 33.90500 25.95000
C  46.89600 34.88800 25.24800
C  47.45800 34.30800 23.86500
C  47.12500 32.76300 23.98400
C  46.41900 32.66600 25.33700
C  46.87700 34.94000 22.62500
C  48.28100 31.80500 23.90100
C  48.28200 31.00000 22.64900
N  45.28600 32.17900 28.05000
C  45.44600 31.17300 27.16700
C  44.83500 29.94600 27.68600
C  44.54100 30.19300 29.01600
C  44.77500 31.59800 29.17600
C  44.66900 28.53200 26.96700
C  44.09800 29.59700 30.30600
O  43.92200 28.44600 30.63400
C  43.81900 30.84100 31.22500
C  44.14300 30.49500 32.63800
O  45.09200 29.83600 33.04300
O  43.15800 31.07700 33.41100
C  43.27700 30.89400 34.83800
H  45.81200 37.52800 30.96000
H  47.74100 36.82700 24.97100
H  45.86800 30.59200 25.14900
H  43.94200 33.62200 32.85100
H  45.74900 35.91600 32.68800
H  43.86500 36.85900 33.54200
H  42.78300 35.64800 32.76200
H  43.42800 37.11000 31.95500
H  46.66200 32.57100 32.63200
H  45.69400 32.64100 34.06000
H  47.51400 34.93800 33.41100
H  47.79800 33.50800 34.18700
H  47.59600 39.99400 29.38600
H  46.30500 39.26300 30.47100
H  45.84200 40.30600 29.24700
H  47.10400 41.27400 27.03600
H  48.77000 41.38800 26.24400
H  48.65800 40.79300 27.78200
H  48.54300 34.38000 23.93700
H  46.34300 32.48100 23.27900
H  47.32200 35.93000 22.52800
H  45.83400 35.17800 22.83100
H  47.05100 34.26600 21.78600
H  48.25700 31.12100 24.74900
H  49.18800 32.39300 24.04100
H  49.24700 30.58000 22.36300
H  47.87300 31.72100 21.94200
H  47.55300 30.19100 22.70200
H  45.43200 28.54800 26.18800
H  43.76600 28.33300 26.39000
H  44.93300 27.76900 27.69900
H  42.74400 31.00300 31.15000
H  43.51000 29.87600 35.15000
H  42.29400 30.99200 35.29700
H  43.97600 31.60400 35.27900

