158

Mg 17.36800 -1.84600 28.39300
C  16.33700 0.21900 30.92200
C  19.62600 -3.35300 30.66400
C  18.94000 -3.49800 25.81700
C  15.48400 -0.08100 26.05400
N  17.83400 -1.71700 30.59400
C  17.14600 -0.89000 31.39100
C  17.63000 -0.97100 32.85000
C  18.78000 -1.99700 32.76300
C  18.77900 -2.40900 31.30900
C  20.11000 -1.59000 33.47400
C  16.46700 -1.39400 33.86700
C  16.14600 -0.40900 34.99700
H  17.36000 0.09500 35.90000
N  19.06100 -3.29600 28.29300
C  19.69200 -3.86200 29.31300
C  20.53400 -4.89800 28.84700
C  20.46100 -4.89000 27.48800
C  19.39500 -3.92100 27.15000
C  21.46700 -5.68300 29.91400
C  21.32500 -5.62200 26.41500
O  21.16000 -5.66600 25.23400
C  22.40800 -6.47700 26.88100
N  17.32200 -1.64300 26.21900
C  17.98500 -2.52800 25.39800
C  17.65700 -2.34200 23.93600
C  16.43900 -1.30000 24.10000
C  16.31400 -1.05800 25.59600
C  18.84500 -1.87200 23.04700
C  15.13300 -1.76000 23.41100
C  13.93200 -2.35700 24.23200
N  16.07900 -0.32900 28.49000
C  15.38500 0.34000 27.45600
C  14.61300 1.43900 28.07600
C  14.94700 1.34200 29.46500
C  15.89100 0.32900 29.64600
C  13.66300 2.49100 27.56400
C  14.63800 1.79300 30.68900
O  13.74900 2.66100 30.92900
C  15.62100 1.20900 31.68300
C  16.52000 2.32400 32.30800
O  17.62600 2.60800 31.89500
O  15.81900 2.85900 33.33900
C  16.56200 3.91100 34.05000
H  20.36900 -3.67100 31.39800
H  19.37600 -4.15400 25.06000
H  14.97500 0.45000 25.24700
H  17.90800 0.03100 33.17500
H  18.44500 -2.90300 33.26700
H  20.14100 -2.31100 34.29000
H  19.96200 -0.60600 33.91800
H  21.06200 -1.57300 32.94300
H  16.69300 -2.30500 34.42100
H  15.65100 -1.54700 33.16000
H  15.35800 -0.68700 35.69800
H  15.80000 0.49100 34.48900
H  21.25400 -5.34800 30.92900
H  22.53800 -5.70400 29.71200
H  21.05000 -6.69000 29.94200
H  22.94400 -6.84100 26.00400
H  22.00000 -7.24800 27.53300
H  23.12500 -5.93500 27.49800
H  17.28100 -3.31800 23.63000
H  16.67700 -0.27700 23.80700
H  18.43800 -1.10000 22.39400
H  19.32900 -2.66500 22.47600
H  19.60200 -1.37900 23.65700
H  15.32600 -2.55100 22.68700
H  14.75700 -0.87800 22.89300
H  14.01900 -2.40700 25.31800
H  13.54700 -3.30900 23.86700
H  13.13200 -1.63900 24.04900
H  12.60300 2.23400 27.56700
H  14.01100 2.74600 26.56300
H  13.77700 3.44900 28.07000
H  14.92700 0.76900 32.39900
H  16.30900 4.02300 35.10500
H  16.62700 4.84200 33.48700
H  17.58200 3.54900 34.17900
Mg 25.87600 2.02000 28.81100
C  27.57100 1.79900 31.93500
C  22.94200 2.37200 30.66100
C  24.22500 1.88200 26.00700
C  28.85700 1.02900 27.13700
N  25.30500 2.02600 31.13300
C  26.21800 2.08700 32.12700
C  25.49800 2.37300 33.48900
C  23.97400 2.50300 33.05400
C  24.01700 2.34300 31.55100
C  22.97200 1.57300 33.74900
C  26.04500 3.60600 34.16600
C  25.36000 4.01500 35.51700
H  26.32600 4.12300 36.67700
N  23.82100 2.16400 28.43100
C  22.76300 2.30300 29.28000
C  21.53000 2.43900 28.51900
C  21.95700 2.22600 27.14200
C  23.37500 2.15500 27.15000
C  20.15500 2.62900 29.19500
C  21.03500 2.21700 25.87500
O  21.40300 2.01000 24.72900
C  19.63400 2.43800 26.09500
N  26.49600 1.38800 26.89900
C  25.59100 1.56400 25.90200
C  26.16500 1.29600 24.52000
C  27.68800 1.30500 24.80800
C  27.72800 1.28900 26.37000
C  25.59600 -0.03100 24.01700
C  28.37300 2.58500 24.17700
C  29.74100 2.46400 23.47000
N  27.91300 1.56900 29.36200
C  28.94300 1.10200 28.59000
C  30.14800 0.94900 29.48500
C  29.70700 1.19400 30.79200
C  28.35100 1.57400 30.64300
C  31.50600 0.65600 29.08200
C  30.04000 1.13800 32.19800
O  31.14000 0.82400 32.69200
C  28.81100 1.63100 32.92000
C  28.44500 0.78500 34.10000
O  27.76800 -0.17400 34.03000
O  28.87700 1.31000 35.32400
C  28.41300 0.67800 36.52800
H  22.10300 2.70800 31.27300
H  23.68400 1.90200 25.05800
H  29.84900 0.92300 26.69300
H  25.60200 1.46800 34.08700
H  23.69700 3.54100 33.24000
H  22.12400 2.09800 34.18800
H  23.47300 1.01700 34.54100
H  22.55600 0.82500 33.07500
H  25.99500 4.37900 33.39900
H  27.10300 3.41500 34.34600
H  24.64000 3.25900 35.83000
H  24.83800 4.96700 35.42500
H  20.25000 2.68100 30.27900
H  19.52600 1.74200 29.11500
H  19.61100 3.47900 28.78100
H  19.10300 1.54400 26.42400
H  19.14000 2.90900 25.24500
H  19.65400 3.29300 26.77100
H  25.74900 1.99800 23.79600
H  28.14200 0.39300 24.42100
H  25.05300 0.15400 23.09100
H  24.95200 -0.34800 24.83800
H  26.44200 -0.71500 23.94900
H  28.56600 3.32600 24.95300
H  27.69400 3.13500 23.52500
H  30.20400 1.47800 23.52100
H  30.46000 3.15100 23.91500
H  29.70900 2.78800 22.42900
H  32.18200 1.28100 29.66700
H  31.59700 0.76200 28.00100
H  31.71600 -0.38600 29.32200
H  29.11800 2.59700 33.32200
H  27.98200 1.49700 37.10300
H  29.33700 0.27500 36.94400
H  27.76600 -0.19700 36.46200

