158

Mg 49.38600 35.27800 27.53900
C  46.98500 34.36000 30.04900
C  49.76000 38.24800 29.26600
C  51.51400 36.21700 25.12200
C  48.13500 32.78100 25.53600
N  48.37600 36.21500 29.39200
C  47.57300 35.60300 30.29800
C  47.30800 36.53800 31.48400
C  47.93300 37.91000 31.02200
C  48.67900 37.47600 29.76300
C  46.91000 39.06400 30.77000
C  47.92600 36.06300 32.81700
C  46.97000 35.86900 33.98600
H  46.43400 37.15000 34.67400
N  50.65500 36.93900 27.33800
C  50.69900 38.02400 28.19500
C  51.90300 38.79100 27.72700
C  52.31600 38.25500 26.47200
C  51.48800 37.07700 26.25500
C  52.44900 40.03600 28.48800
C  53.51500 38.68900 25.63100
O  53.92200 38.05200 24.64200
C  54.20000 39.99100 25.98300
N  49.83900 34.55000 25.67600
C  50.74000 35.12000 24.80600
C  50.81800 34.38700 23.39800
C  49.74800 33.19000 23.63200
C  49.17500 33.54800 25.01800
C  50.42900 35.36000 22.23400
C  50.32200 31.71800 23.57700
C  49.41500 30.70500 22.85800
N  47.97300 33.74100 27.74600
C  47.58100 32.74400 26.85300
C  46.60500 31.85800 27.45600
C  46.32800 32.47100 28.68700
C  47.16500 33.61800 28.84100
C  45.91600 30.62000 26.86300
C  45.46900 32.42600 29.86900
O  44.49200 31.71400 30.19800
C  45.92600 33.51600 30.77000
C  46.46900 32.92300 32.04900
O  47.65500 32.76200 32.26600
O  45.45100 32.65700 32.95000
C  45.91600 32.07600 34.19900
H  49.99400 39.19900 29.74800
H  52.27600 36.45200 24.37600
H  47.68300 32.01200 24.90600
H  46.23400 36.71600 31.54400
H  48.63900 38.22000 31.79200
H  47.25500 39.93400 31.32900
H  45.94400 38.70300 31.12100
H  46.77200 39.20700 29.69800
H  48.75900 36.65200 33.19900
H  48.36300 35.07900 32.65200
H  47.54000 35.25500 34.68200
H  46.00700 35.49300 33.64100
H  53.53400 40.01500 28.59000
H  51.88300 40.14100 29.41400
H  52.20500 40.93300 27.91900
H  54.82800 40.24300 25.12800
H  54.91000 39.84900 26.79700
H  53.46600 40.79600 26.01300
H  51.79500 33.95700 23.17900
H  48.90700 33.19000 22.93800
H  51.36000 35.74000 21.81300
H  49.80500 36.08700 22.75400
H  49.91600 34.91500 21.38200
H  50.42700 31.41600 24.61900
H  51.34800 31.70100 23.20900
H  49.28100 30.04800 23.71700
H  49.90200 30.19400 22.02700
H  48.51200 31.16400 22.45400
H  45.44700 30.11500 27.70800
H  46.69400 30.02800 26.38100
H  45.16600 30.99700 26.16800
H  45.09300 34.15700 31.05500
H  45.00000 31.86300 34.75000
H  46.48200 32.75700 34.83400
H  46.47600 31.14200 34.14700
Mg -12.12500 16.63200 42.15300
C  -8.75000 15.30800 41.72200
C  -10.95500 19.53000 40.35200
C  -15.22000 17.43100 41.64300
C  -13.11700 13.21800 42.64500
N  -10.04600 17.31300 41.14100
C  -8.79500 16.63300 41.19900
C  -7.68900 17.47200 40.68600
C  -8.36200 18.91800 40.41700
C  -9.88700 18.61600 40.63600
C  -7.77800 20.21000 41.19000
C  -7.00700 16.91300 39.40300
C  -5.60000 16.47500 39.60300
H  -5.23500 15.16300 38.86100
N  -12.93300 18.35000 41.32900
C  -12.35400 19.36000 40.64600
C  -13.37600 20.31900 40.25200
C  -14.62500 19.85500 40.64200
C  -14.28900 18.49300 41.24900
C  -13.04400 21.70300 39.75500
C  -15.98900 20.52000 40.37600
O  -16.08000 21.59800 39.74700
C  -17.22700 19.81400 40.93900
N  -13.85000 15.48200 42.14200
C  -15.02200 16.09600 42.02700
C  -16.23900 15.18400 42.26400
C  -15.59800 13.81800 42.55100
C  -14.10400 14.15300 42.41200
C  -17.07800 15.71600 43.43300
C  -16.04300 12.71800 41.56100
C  -17.11800 11.86200 42.11300
N  -11.23000 14.71700 42.40000
C  -11.73400 13.42300 42.61300
C  -10.59800 12.53100 42.88100
C  -9.42500 13.24300 42.55300
C  -9.85500 14.54700 42.22800
C  -10.77000 11.09900 43.36700
C  -8.07200 13.12600 42.50000
O  -7.37300 12.17200 42.77300
C  -7.54300 14.51100 41.95700
C  -6.77200 15.06300 43.03700
O  -7.09300 16.03200 43.70800
O  -5.52700 14.45600 43.08000
C  -4.64000 14.86100 44.22500
H  -10.58700 20.46300 39.92000
H  -16.24900 17.78400 41.73500
H  -13.43500 12.17900 42.76300
H  -6.97900 17.53600 41.51100
H  -8.29900 19.17700 39.36000
H  -8.52500 20.56800 41.89800
H  -7.42900 21.00400 40.53000
H  -6.82000 19.88700 41.59700
H  -7.16400 17.57400 38.55000
H  -7.54700 16.03700 39.04400
H  -5.33800 16.28600 40.64400
H  -4.97000 17.20600 39.09500
H  -13.75800 22.18800 39.09000
H  -12.14100 21.77600 39.14900
H  -12.89800 22.37800 40.59900
H  -18.07400 20.47700 40.76600
H  -17.04200 19.77100 42.01200
H  -17.44700 18.85500 40.47100
H  -16.87300 15.15100 41.37800
H  -15.78600 13.68600 43.61700
H  -16.45000 16.43800 43.95400
H  -17.32600 14.91100 44.12500
H  -18.01600 16.12900 43.06200
H  -15.14500 12.10700 41.47400
H  -16.28800 13.11100 40.57400
H  -16.94100 10.82300 41.83700
H  -18.05900 12.09900 41.61600
H  -17.13200 11.95800 43.19900
H  -11.10000 10.49500 42.52200
H  -11.54900 11.16000 44.12700
H  -9.84100 10.71600 43.79100
H  -7.01900 14.42400 41.00500
H  -4.36700 15.90300 44.05900
H  -3.71600 14.30900 44.05500
H  -5.22200 14.69000 45.13100

