158

Mg 48.22500 34.66100 26.49300
C  46.32800 33.17000 29.20200
C  48.53800 37.47200 28.41300
C  49.57900 36.11500 23.83800
C  46.98300 32.07400 24.43100
N  47.62700 35.16200 28.66000
C  46.90300 34.40800 29.50200
C  46.86900 35.12400 30.82900
C  47.16300 36.61600 30.44800
C  47.85800 36.39800 29.09500
C  45.94500 37.64000 30.41400
C  47.89800 34.55400 31.81600
C  47.37200 34.39600 33.18300
H  46.49400 35.53900 33.69600
N  49.07500 36.45100 26.23500
C  49.22100 37.46400 27.14600
C  50.08200 38.50400 26.58800
C  50.33000 38.15200 25.26400
C  49.65400 36.86000 25.09800
C  50.53200 39.59700 27.42700
C  51.04800 38.87600 24.19600
O  51.24900 38.41600 23.06300
C  51.55900 40.22000 24.55400
N  48.25200 34.22400 24.33600
C  48.86600 34.97300 23.45800
C  48.88200 34.34300 22.11900
C  48.00700 33.08800 22.24800
C  47.75600 33.05300 23.75400
C  48.32700 35.32000 20.98700
C  48.64100 31.84000 21.63800
C  47.63100 30.82500 21.08900
N  47.03900 32.95100 26.71800
C  46.63500 31.99100 25.78300
C  45.77100 30.95900 26.49900
C  45.70000 31.42000 27.81000
C  46.45500 32.62200 27.91000
C  45.13400 29.67500 25.96900
C  45.13400 31.03900 29.09000
O  44.45900 30.09800 29.50700
C  45.40400 32.29200 29.93900
C  45.78700 31.86700 31.27200
O  46.84900 31.41900 31.63000
O  44.69600 31.98300 32.06300
C  44.90800 31.34200 33.33500
H  48.51000 38.42000 28.95500
H  50.03400 36.50500 22.92500
H  46.58300 31.25000 23.83700
H  45.81000 34.96700 31.03100
H  47.86500 37.11600 31.11500
H  45.09300 37.27500 30.98700
H  45.70300 37.64800 29.35100
H  46.23000 38.60800 30.82500
H  48.74000 35.24400 31.75200
H  48.29300 33.60500 31.45100
H  48.17400 34.37900 33.92200
H  46.89000 33.41800 33.17700
H  50.58400 39.36100 28.49000
H  49.88000 40.46900 27.48300
H  51.53200 39.88800 27.10700
H  50.99200 40.70600 25.34800
H  51.44400 40.85600 23.67700
H  52.59700 40.05300 24.84100
H  49.93400 34.08400 21.99700
H  46.99500 33.25300 21.87900
H  47.64200 34.84500 20.28500
H  49.20300 35.68200 20.44900
H  47.71100 35.91100 21.66500
H  49.18300 31.37900 22.46400
H  49.38800 32.09300 20.88600
H  47.66000 30.96400 20.00800
H  46.60100 31.04300 21.36900
H  47.84300 29.79700 21.38200
H  44.75100 29.04700 26.77400
H  45.82600 29.09700 25.35700
H  44.25000 29.93700 25.38800
H  44.43700 32.78900 30.02000
H  43.94500 31.18300 33.82100
H  45.57800 32.02800 33.85300
H  45.33900 30.34300 33.28000
Mg 6.50400 55.00700 41.67800
C  5.71300 51.53100 41.27200
C  9.70800 54.29600 40.80100
C  6.92600 58.18400 41.60500
C  3.04100 55.40800 42.21400
N  7.55400 53.10400 40.91100
C  7.03500 51.85600 40.80100
C  8.18900 50.85200 40.27200
C  9.47900 51.75600 40.42300
C  8.90600 53.14900 40.73100
C  10.49600 51.27900 41.57400
C  7.93100 50.24800 38.80900
C  7.47500 51.19600 37.69000
H  6.52700 50.68400 36.60000
N  8.13600 56.14100 41.26100
C  9.37200 55.68800 40.92800
C  10.16400 56.80500 40.54500
C  9.34900 57.96300 40.77800
C  8.08400 57.46800 41.23800
C  11.65700 56.76900 40.18200
C  9.84700 59.45200 40.71200
O  10.99300 59.67700 40.40200
C  9.02000 60.59100 40.84900
N  5.20600 56.53800 41.93100
C  5.59800 57.84000 41.88600
C  4.51800 58.83900 42.20600
C  3.30000 57.96700 42.17300
C  3.86800 56.52100 42.13400
C  4.85300 59.41300 43.57600
C  2.35900 58.19400 40.91400
C  0.79900 58.30100 41.01600
N  4.72400 53.77900 41.87600
C  3.41500 54.09100 42.10300
C  2.62600 52.91700 42.21100
C  3.50100 51.85500 42.02300
C  4.69500 52.47200 41.65000
C  1.13800 52.87200 42.58200
C  3.62900 50.46200 41.90700
O  2.71500 49.63200 42.04800
C  5.10500 50.20600 41.37600
C  4.76000 49.52400 40.11000
O  4.28900 50.01700 39.06700
O  4.99200 48.19800 40.25000
C  4.63600 47.26800 39.13200
H  10.79300 54.25300 40.91900
H  7.00700 59.25700 41.41600
H  1.98100 55.65000 42.30700
H  8.30600 50.04300 40.99300
H  9.99400 51.81500 39.46400
H  10.14500 50.42100 42.14700
H  10.70700 52.12000 42.23600
H  11.42300 51.14400 41.01900
H  7.23200 49.41300 38.85900
H  8.90200 49.93600 38.42200
H  8.47300 51.51800 37.39200
H  6.96900 52.02700 38.18200
H  11.87800 57.57100 39.47700
H  11.95400 55.83500 39.70600
H  12.23600 56.91700 41.09400
H  8.32100 60.47500 40.02100
H  9.49000 61.55900 40.67600
H  8.42800 60.67000 41.76200
H  4.39200 59.61200 41.44900
H  2.76700 58.06800 43.11800
H  5.12200 58.61000 44.26300
H  3.92000 59.85900 43.92000
H  5.70400 60.09400 43.58600
H  2.48500 57.37200 40.20900
H  2.60700 59.06900 40.31300
H  0.43100 58.73400 41.94600
H  0.50900 57.26900 40.82000
H  0.40200 58.97400 40.25600
H  0.42800 52.72600 41.76700
H  0.84500 53.77200 43.12100
H  1.06800 52.01900 43.25800
H  5.71700 49.66200 42.09500
H  3.61900 47.05200 38.80700
H  5.14900 46.37000 39.47600
H  5.26000 47.62800 38.31300

