158

Mg 26.26800 0.68400 28.89800
C  28.09000 0.61300 31.96100
C  23.46300 1.14300 30.72500
C  24.64500 1.09400 26.00200
C  29.21500 -0.16200 27.24900
N  25.85800 0.71400 31.15000
C  26.78300 0.91200 32.14200
C  26.04000 1.22700 33.46700
C  24.51800 1.38400 33.02500
C  24.62200 1.08900 31.51700
C  23.56200 0.49900 33.84600
C  26.65500 2.57500 34.03700
C  27.32000 2.47500 35.41500
H  26.87500 3.38500 36.50500
N  24.26200 0.97100 28.39800
C  23.20900 1.04400 29.32200
C  21.93700 1.18900 28.60200
C  22.34600 1.38800 27.21000
C  23.83700 1.21200 27.09800
C  20.66000 1.20500 29.31400
C  21.47300 1.68800 25.98500
O  21.94100 1.78300 24.84400
C  19.99200 1.79700 26.13000
N  26.86000 0.46200 26.92400
C  25.99400 0.76600 25.85000
C  26.69300 0.45500 24.44500
C  28.16500 0.11000 24.89100
C  28.12200 0.11200 26.44500
C  25.99300 -0.57900 23.63000
C  29.37200 0.89000 24.23500
C  29.78600 2.17300 24.98500
N  28.24900 0.22600 29.43500
C  29.31700 -0.03200 28.65100
C  30.50300 -0.30000 29.41900
C  30.05000 -0.01100 30.71900
C  28.67400 0.27400 30.71600
C  31.81600 -0.65400 28.84000
C  30.50800 0.25500 32.14000
O  31.62300 0.24500 32.55000
C  29.26000 0.62600 32.97300
C  29.09800 -0.52000 33.99900
O  28.92400 -1.68500 33.72200
O  29.20300 -0.09200 35.30600
C  29.01700 -1.11200 36.38300
H  22.47100 1.24900 31.16800
H  24.14000 1.19800 25.03900
H  30.11000 -0.48500 26.71400
H  26.12600 0.28100 34.00000
H  24.17000 2.40500 33.18000
H  23.32000 -0.43000 33.33100
H  22.64100 1.06400 33.98800
H  23.92600 0.16600 34.81800
H  25.81700 3.26900 34.09800
H  27.30500 2.96700 33.25500
H  28.39000 2.58600 35.24200
H  27.15700 1.45200 35.75300
H  20.38700 2.16900 29.74400
H  20.69000 0.42200 30.07100
H  19.82800 1.00000 28.63900
H  19.65800 2.52000 26.87500
H  19.63300 0.81300 26.43000
H  19.42500 2.07400 25.24200
H  26.65600 1.38900 23.88400
H  28.27900 -0.95600 24.69600
H  26.58200 -1.47600 23.43800
H  25.64400 -0.16500 22.68400
H  25.08600 -0.84100 24.17600
H  29.06400 1.10100 23.21200
H  30.16900 0.17900 24.45300
H  30.08200 2.84200 24.17700
H  30.71400 2.02300 25.53700
H  28.96000 2.52800 25.60200
H  31.82300 -1.47000 28.11700
H  32.44500 -1.05500 29.63500
H  32.29800 0.22900 28.42200
H  29.38500 1.60300 33.43900
H  29.66300 -0.84100 37.21900
H  29.09200 -2.13900 36.02500
H  27.99200 -1.06200 36.75000
Mg -10.28100 38.98600 40.93300
C  -8.39600 36.19400 39.88400
C  -7.84800 41.02600 39.34200
C  -12.41700 41.48700 41.24600
C  -12.63900 36.71800 42.23100
N  -8.43400 38.60700 39.61400
C  -7.79700 37.39400 39.39700
C  -6.46300 37.55500 38.54100
C  -6.24600 39.12800 38.76800
C  -7.60700 39.62300 39.29200
C  -5.00500 39.50000 39.63400
C  -6.63800 37.22000 37.05400
C  -5.73800 36.29100 36.33900
H  -5.33500 36.56800 34.95400
N  -10.10900 41.02000 40.48700
C  -9.07600 41.67200 39.87200
C  -9.33200 43.08700 40.00200
C  -10.69300 43.28200 40.46700
C  -11.12700 41.87100 40.78400
C  -8.27500 44.22300 39.69200
C  -11.36800 44.62000 40.67200
O  -10.73300 45.65800 40.45600
C  -12.78000 44.83000 41.30800
N  -12.37900 39.03300 41.38400
C  -12.99500 40.24200 41.51500
C  -14.52400 39.97500 41.87800
C  -14.54800 38.42800 42.22900
C  -13.10000 38.02500 41.93500
C  -15.11200 40.81000 43.07600
C  -15.61800 37.64500 41.42100
C  -16.14800 36.35000 42.09100
N  -10.48700 36.88700 41.10300
C  -11.44700 36.17500 41.83100
C  -11.01700 34.79100 41.87400
C  -9.82500 34.73600 41.13300
C  -9.62000 36.01700 40.62600
C  -11.65600 33.64500 42.55100
C  -8.79900 33.86400 40.55900
O  -8.62000 32.65000 40.67700
C  -7.83500 34.78700 39.74500
C  -6.56500 34.61100 40.35600
O  -5.78100 33.67900 40.08000
O  -6.20500 35.59200 41.34600
C  -5.03900 35.34300 42.17200
H  -7.02800 41.65900 38.99700
H  -13.05600 42.37200 41.21800
H  -13.25700 35.99100 42.76300
H  -5.70700 36.88300 38.94500
H  -5.96500 39.62200 37.83800
H  -4.20800 39.81900 38.96200
H  -4.59800 38.56800 40.02600
H  -5.22800 40.15000 40.48000
H  -6.50500 38.13800 36.48200
H  -7.66000 36.85100 36.97600
H  -6.23600 35.32400 36.26800
H  -4.88900 36.11700 37.00000
H  -8.33400 44.89600 38.83600
H  -7.42000 43.59900 39.43200
H  -7.99100 44.77600 40.58700
H  -12.94900 45.87300 41.57400
H  -12.93600 44.36700 42.28300
H  -13.45900 44.59600 40.48700
H  -15.13100 40.21200 41.00500
H  -14.71000 38.17700 43.27700
H  -14.32000 41.47300 43.42400
H  -15.40500 40.24800 43.96400
H  -15.91300 41.46200 42.72700
H  -15.13200 37.23000 40.53700
H  -16.40900 38.35300 41.17500
H  -17.23500 36.41300 42.04400
H  -15.85600 36.10700 43.11300
H  -15.66200 35.60100 41.46600
H  -12.72300 33.84600 42.64300
H  -11.27800 33.75700 43.56700
H  -11.40400 32.65200 42.17600
H  -7.68400 34.46500 38.71500
H  -5.08000 36.05000 43.00100
H  -4.13200 35.54500 41.60200
H  -5.11300 34.32200 42.54500

