158

Mg 40.62300 8.20300 28.99700
C  42.47500 9.51900 31.82400
C  38.40700 6.81700 31.07900
C  39.47300 6.28100 26.38500
C  43.33300 9.16400 26.92000
N  40.52300 8.14800 31.15700
C  41.28300 8.83700 32.14300
C  40.59800 8.72000 33.57600
C  39.43600 7.70300 33.23600
C  39.45600 7.46800 31.74900
C  39.52900 6.47400 34.05900
C  40.08900 10.12900 34.00500
C  39.89500 10.39200 35.54600
H  40.75200 11.39600 36.25300
N  39.00900 6.93700 28.68900
C  38.17800 6.49600 29.71900
C  37.13100 5.72400 29.12500
C  37.36800 5.73600 27.74800
C  38.63200 6.37900 27.50600
C  36.00600 4.98800 29.97400
C  36.55400 5.14300 26.57200
O  36.96900 5.17500 25.42800
C  35.15700 4.61900 26.87100
N  41.29300 7.77600 26.95100
C  40.70400 6.96500 26.12000
C  41.50300 6.78800 24.86000
C  42.50800 7.97600 24.86400
C  42.37800 8.38800 26.35100
C  42.25300 5.37100 24.85200
C  42.12700 9.15700 23.94200
C  41.32100 10.43800 24.46900
N  42.52900 9.16500 29.25500
C  43.45700 9.57900 28.30400
C  44.45800 10.38200 29.00400
C  44.13300 10.36900 30.38500
C  42.91800 9.65200 30.45000
C  45.69000 10.94900 28.28400
C  44.53600 10.83300 31.63500
O  45.49900 11.44600 32.02000
C  43.47500 10.29200 32.67600
C  44.05700 9.49300 33.76500
O  45.17200 8.95100 33.80800
O  43.31400 9.58300 34.90300
C  43.96500 9.10900 36.18000
H  37.71700 6.36700 31.79600
H  39.24000 5.75600 25.45600
H  44.20600 9.49600 26.35500
H  41.31200 8.32900 34.30100
H  38.48400 8.15300 33.51600
H  40.45600 6.41600 34.62900
H  39.44700 5.59100 33.42600
H  38.76100 6.52800 34.83000
H  39.13900 10.14400 33.47000
H  40.62800 10.92000 33.48400
H  39.89600 9.42000 36.04000
H  38.89600 10.82900 35.53000
H  35.04200 5.03700 29.46700
H  35.85000 5.33100 30.99700
H  36.20400 3.91700 29.99600
H  35.09500 3.88500 27.67500
H  34.67700 4.10400 26.03800
H  34.61200 5.51100 27.18000
H  40.86300 6.82600 23.97900
H  43.54700 7.71600 24.65900
H  41.78000 4.67700 25.54600
H  43.31000 5.45100 25.10400
H  42.21800 4.89200 23.87400
H  41.70000 8.87700 22.97900
H  43.14600 9.46200 23.70400
H  41.66500 11.35400 23.98700
H  41.62500 10.64600 25.49500
H  40.24600 10.41600 24.28800
H  45.52800 11.24300 27.24700
H  46.56600 10.30300 28.34400
H  45.96700 11.80200 28.90400
H  42.97300 11.15700 33.11000
H  44.25800 8.07900 35.97900
H  43.27400 9.19600 37.01900
H  44.79900 9.73300 36.50100
Mg 0.24700 43.44200 25.49400
C  2.52600 42.84900 27.99200
C  -2.28800 42.50500 27.73700
C  -2.10600 43.70600 22.91000
C  2.67700 44.07500 23.17500
N  0.21100 42.49800 27.61200
C  1.27000 42.65600 28.45400
C  0.79900 42.40000 29.91600
C  -0.77700 42.12400 29.78300
C  -1.00900 42.33500 28.28100
C  -1.16000 40.69900 30.34900
C  1.13100 43.61100 30.84700
C  1.58700 43.27600 32.29000
H  1.03800 42.01000 32.99300
N  -1.89900 43.11900 25.36500
C  -2.74000 42.73600 26.42900
C  -4.11800 42.84300 25.99100
C  -4.11500 42.99000 24.55000
C  -2.64000 43.28600 24.20700
C  -5.37800 42.78100 26.90200
C  -5.24000 43.22500 23.58900
O  -5.03500 43.58400 22.44300
C  -6.59200 43.10800 24.07700
N  0.19500 43.84100 23.35800
C  -0.83700 44.01400 22.55000
C  -0.44300 44.51100 21.17100
C  1.02900 44.78400 21.32100
C  1.33700 44.27200 22.69200
C  -0.87800 43.54600 20.01200
C  1.35700 46.29000 21.06800
C  1.47700 47.20100 22.25200
N  2.19400 43.45500 25.51900
C  3.11900 43.85800 24.52900
C  4.49000 43.63600 25.04800
C  4.31800 43.24600 26.37900
C  2.89100 43.15500 26.64100
C  5.78600 43.92100 24.28400
C  5.02100 42.87100 27.60200
O  6.17800 42.63700 27.84500
C  3.90500 42.77800 28.74000
C  4.10400 41.44800 29.42700
O  3.93700 40.36200 28.96300
O  4.52100 41.69300 30.73300
C  4.68300 40.48900 31.51800
H  -3.07900 42.30200 28.46300
H  -2.72600 43.73100 22.01200
H  3.39200 44.26600 22.37100
H  1.41400 41.58200 30.29100
H  -1.33300 42.78800 30.44500
H  -1.64200 40.14000 29.54600
H  -1.76400 41.01000 31.20200
H  -0.34800 40.05000 30.67400
H  0.26800 44.27200 30.92700
H  1.82200 44.29600 30.35500
H  1.38500 44.07000 33.00800
H  2.67400 43.24100 32.20600
H  -5.96500 43.67900 26.70900
H  -4.97800 42.88800 27.91100
H  -5.88900 41.82300 26.80400
H  -7.25600 43.20800 23.21900
H  -6.82700 43.78900 24.89500
H  -6.72900 42.11000 24.49400
H  -0.95400 45.44700 20.94300
H  1.58200 44.22600 20.56500
H  -0.17700 43.36500 19.19600
H  -1.75100 43.92200 19.48000
H  -1.03800 42.61500 20.55600
H  0.69600 46.73100 20.32200
H  2.34300 46.35700 20.60900
H  2.32400 47.88100 22.15700
H  1.48400 46.65200 23.19300
H  0.66400 47.92800 22.25400
H  6.47900 44.61300 24.76200
H  5.38400 44.31900 23.35200
H  6.45000 43.08400 24.06600
H  4.02700 43.59400 29.45300
H  5.69500 40.56500 31.91700
H  4.56000 39.48400 31.11600
H  3.97600 40.54600 32.34600

