158

Mg -2.13700 17.17300 26.43300
C  -2.77300 15.16800 29.21800
C  -2.40900 20.03800 28.68500
C  -1.99500 19.28800 23.83400
C  -2.21000 14.54300 24.46500
N  -2.84000 17.53700 28.64000
C  -2.74100 16.57000 29.57500
C  -2.55700 17.15300 30.96800
C  -2.74100 18.66500 30.86000
C  -2.61200 18.81700 29.29800
C  -3.96000 19.20800 31.52000
C  -1.18700 16.85400 31.63200
C  -0.90500 17.62400 32.95200
H  -0.70600 16.69800 34.20200
N  -2.21100 19.35500 26.27100
C  -2.37800 20.35300 27.29200
C  -2.48300 21.63000 26.64800
C  -2.21800 21.49800 25.26100
C  -2.07300 20.01500 25.02800
C  -2.66400 22.86100 27.55000
C  -2.12500 22.58600 24.22300
O  -1.93300 22.38000 23.04700
C  -2.21300 24.02300 24.66400
N  -2.04800 16.96800 24.45600
C  -2.08000 17.93600 23.54600
C  -2.19300 17.41400 22.12800
C  -1.94900 15.90900 22.34800
C  -2.12200 15.75300 23.85500
C  -3.45700 17.90600 21.40700
C  -0.53300 15.36100 21.85200
C  -0.45500 14.39200 20.67500
N  -2.40500 15.22900 26.74100
C  -2.39500 14.23000 25.77300
C  -2.45000 12.95400 26.44600
C  -2.59800 13.24100 27.83600
C  -2.57900 14.65900 27.90500
C  -2.53200 11.60600 25.75600
C  -2.72600 12.64700 29.16300
O  -2.87800 11.47400 29.52000
C  -2.79100 13.92400 30.12900
C  -1.53100 13.64000 30.86000
O  -0.39800 13.97200 30.39900
O  -1.72500 13.00100 31.97200
C  -0.51500 12.86300 32.79800
H  -2.40000 20.80900 29.45800
H  -2.09600 19.93800 22.96200
H  -2.06800 13.63300 23.87800
H  -3.34100 16.68800 31.56500
H  -1.89400 19.25000 31.21900
H  -3.63900 20.19300 31.86000
H  -4.33900 18.58200 32.32800
H  -4.73600 19.42800 30.78700
H  -0.41200 17.05300 30.89100
H  -1.28900 15.78200 31.79600
H  -1.57000 18.39100 33.34900
H  0.03700 18.15600 32.82100
H  -3.36100 23.54200 27.06200
H  -1.72400 23.29100 27.89700
H  -3.09400 22.55800 28.50500
H  -3.19600 24.31300 25.03500
H  -2.08200 24.67800 23.80200
H  -1.46700 24.19000 25.44000
H  -1.30200 17.79200 21.62500
H  -2.80600 15.42500 21.87800
H  -3.23000 18.07200 20.35400
H  -3.75300 18.88000 21.79700
H  -4.22900 17.13700 21.45000
H  0.02700 14.93600 22.68500
H  0.07000 16.17200 21.44300
H  -0.05600 13.46500 21.08700
H  0.10100 14.92800 19.90600
H  -1.51200 14.27900 20.43400
H  -1.79900 10.96200 26.24200
H  -2.51000 11.58000 24.66600
H  -3.49000 11.16100 26.02700
H  -3.58900 13.88100 30.87100
H  -0.83700 12.77700 33.83600
H  0.13900 13.73200 32.86100
H  -0.02500 11.90300 32.63400
Mg 30.71500 58.71200 40.23400
C  28.00900 56.86800 39.18500
C  32.92600 56.22800 39.10700
C  33.22500 60.77700 40.70100
C  28.31600 61.32400 41.13500
N  30.51000 56.88900 39.23000
C  29.29200 56.31800 38.98300
C  29.46600 54.94600 38.31000
C  30.95100 54.58100 38.58300
C  31.51200 55.98100 38.90500
C  31.21400 53.56700 39.74200
C  29.22500 55.00700 36.73200
C  28.12600 54.13200 36.23400
H  27.69600 54.30000 34.77200
N  32.87700 58.50200 39.89600
C  33.54400 57.47700 39.36600
C  34.97500 57.73500 39.48600
C  35.09600 59.02200 40.06700
C  33.68400 59.52200 40.20800
C  36.02300 56.67000 39.18000
C  36.37700 59.62900 40.62500
O  37.47000 59.10900 40.37900
C  36.57100 61.00000 41.48400
N  30.71500 60.82000 40.73800
C  31.95900 61.35000 40.97900
C  31.82300 62.82100 41.42500
C  30.26900 62.93600 41.82500
C  29.67100 61.64400 41.12700
C  32.80100 63.29900 42.57000
C  29.50900 64.17400 41.39700
C  28.52700 64.58400 42.51300
N  28.53500 59.07800 40.23200
C  27.76300 60.09700 40.69000
C  26.36100 59.77700 40.57800
C  26.35500 58.49700 39.95500
C  27.72800 58.13700 39.81500
C  25.21400 60.65000 40.82300
C  25.52200 57.39400 39.43100
O  24.34600 57.14900 39.27000
C  26.65600 56.31300 38.95000
C  26.40200 55.00100 39.71400
O  26.90800 54.62800 40.76800
O  25.39800 54.37300 39.13500
C  25.19400 52.98400 39.61000
H  33.47800 55.29300 38.98700
H  34.08300 61.44500 40.80100
H  27.69400 62.10600 41.57400
H  28.76400 54.22300 38.72400
H  31.48800 54.16100 37.73200
H  30.40600 52.90200 40.04700
H  31.54900 54.17200 40.58500
H  31.96200 52.85700 39.39100
H  30.07900 54.77100 36.09600
H  28.96600 56.04000 36.49900
H  27.17600 54.28200 36.74600
H  28.38500 53.08800 36.41300
H  37.00300 57.14200 39.10400
H  35.83500 56.12000 38.25700
H  36.12200 56.02400 40.05200
H  35.63600 61.01000 42.04400
H  36.71000 61.89900 40.88400
H  37.33100 60.89000 42.25800
H  31.89600 63.35400 40.47700
H  30.38400 62.81100 42.90200
H  33.68500 63.73800 42.10800
H  33.01600 62.42100 43.17900
H  32.16600 64.03300 43.06800
H  28.89000 64.08400 40.50400
H  30.23000 64.98900 41.34700
H  28.71900 65.60500 42.84300
H  28.43700 63.89500 43.35300
H  27.55600 64.62500 42.02000
H  25.45200 61.61800 41.26400
H  24.49100 60.19400 41.50000
H  24.66700 60.84900 39.90200
H  26.42700 56.15800 37.89600
H  24.35800 52.64900 38.99700
H  24.80800 52.93000 40.62800
H  25.99800 52.28000 39.39400

