158

Mg 16.40600 52.71500 26.52700
C  18.28600 50.80200 28.85200
C  14.19400 53.41100 29.10700
C  14.75000 54.52100 24.31800
C  18.76300 51.60300 24.00300
N  16.14300 51.89500 28.64700
C  17.12300 51.27500 29.42300
C  16.80900 51.42400 30.89100
C  15.37700 51.88800 30.84400
C  15.19400 52.42900 29.47700
C  14.33800 50.75900 31.13700
C  17.78700 52.38300 31.65800
C  18.13800 51.82100 33.05300
H  17.15500 52.30000 34.18100
N  14.65900 53.73300 26.66000
C  13.96500 53.99300 27.81000
C  12.93100 54.96700 27.52600
C  13.06000 55.27500 26.07700
C  14.23300 54.51500 25.62300
C  12.00700 55.39500 28.62200
C  12.19600 56.31200 25.31900
O  12.50200 56.58600 24.17000
C  11.09800 57.02400 25.93100
N  16.63000 52.95500 24.46700
C  15.79700 53.74700 23.73200
C  16.13000 53.89800 22.20900
C  17.54600 53.08700 22.22800
C  17.68800 52.44400 23.65400
C  15.02900 53.21800 21.33300
C  18.74500 53.87100 21.73000
C  19.09600 55.24100 22.29200
N  18.10200 51.49300 26.41000
C  18.90100 51.08200 25.33200
C  19.96900 50.22000 25.78100
C  19.70100 50.11800 27.15100
C  18.52900 50.85200 27.44100
C  21.01100 49.58400 24.96800
C  20.20100 49.45800 28.28700
O  21.13900 48.63900 28.38800
C  19.44100 50.06500 29.48600
C  19.05500 48.98800 30.47100
O  18.12900 48.17600 30.44800
O  19.91300 49.04400 31.53600
C  19.66200 48.12700 32.63900
H  13.53500 53.63400 29.94900
H  14.16900 55.02100 23.54000
H  19.46000 51.30500 23.21700
H  16.71400 50.41500 31.29200
H  15.24300 52.73700 31.51400
H  13.80500 51.13000 32.01200
H  14.77700 49.78000 31.33100
H  13.74300 50.61300 30.23500
H  17.37800 53.37900 31.82600
H  18.69200 52.49800 31.06100
H  19.19400 51.99100 33.26400
H  17.95500 50.74900 32.99100
H  11.86300 56.44400 28.36300
H  12.25200 55.30900 29.68100
H  11.10700 54.83900 28.36000
H  11.50000 57.70900 26.67700
H  10.32600 56.37400 26.34300
H  10.62800 57.77900 25.30100
H  16.35300 54.91800 21.89500
H  17.48700 52.17000 21.64200
H  14.73300 54.00100 20.63500
H  14.09300 52.91200 21.80000
H  15.50800 52.33000 20.92100
H  18.47600 54.03300 20.68600
H  19.59200 53.18500 21.74300
H  18.82400 56.03800 21.60000
H  20.17100 55.40800 22.36200
H  18.73600 55.54700 23.27500
H  21.74300 50.32800 24.65400
H  20.64700 49.10000 24.06200
H  21.61000 48.90100 25.57000
H  20.14200 50.75500 29.95500
H  19.97000 47.13100 32.32100
H  18.62600 48.16900 32.97300
H  20.24900 48.46900 33.49200
Mg -11.73800 37.90500 41.11100
C  -9.40600 35.22900 40.43200
C  -9.41500 40.10000 39.92700
C  -14.23700 40.19100 41.03800
C  -13.99700 35.41600 42.14200
N  -9.78500 37.60900 40.03300
C  -8.97900 36.47600 40.00300
C  -7.56300 36.77000 39.42700
C  -7.57700 38.36200 39.44300
C  -9.02200 38.69100 39.81200
C  -6.67100 39.03300 40.50400
C  -7.39100 36.18300 38.02100
C  -6.38900 35.04300 37.90500
H  -5.25600 35.25800 36.87800
N  -11.80500 39.86400 40.63200
C  -10.67800 40.64100 40.25000
C  -11.14500 41.97200 40.18300
C  -12.50400 42.03000 40.51000
C  -12.91500 40.65000 40.69600
C  -10.25800 43.14400 39.80800
C  -13.34800 43.26600 40.58800
O  -12.94800 44.37800 40.22300
C  -14.84300 43.21800 41.04700
N  -13.81800 37.77800 41.43400
C  -14.66300 38.88600 41.38300
C  -16.12300 38.44500 41.67700
C  -15.89200 36.98700 42.20800
C  -14.47500 36.70600 41.94400
C  -16.94500 39.45500 42.57900
C  -16.87500 35.85800 41.75700
C  -17.58400 35.00900 42.89400
N  -11.83100 35.80500 41.29200
C  -12.75400 34.95400 41.85200
C  -12.22200 33.63300 41.99800
C  -10.97900 33.67900 41.38700
C  -10.77200 34.99500 40.96900
C  -12.82200 32.40600 42.60200
C  -9.79600 32.87100 41.14000
O  -9.51700 31.73000 41.43800
C  -8.79300 33.88300 40.57300
C  -7.52700 33.74900 41.34400
O  -6.68600 32.83100 41.14900
O  -7.38900 34.73400 42.22400
C  -6.14000 34.84600 43.05300
H  -8.67300 40.88000 39.74500
H  -15.13100 40.81900 41.06400
H  -14.58000 34.66100 42.67500
H  -6.82400 36.41500 40.14500
H  -7.21700 38.81800 38.52100
H  -6.64500 40.05400 40.12200
H  -5.64500 38.66900 40.54300
H  -7.23500 38.97100 41.43500
H  -6.99600 36.88600 37.28800
H  -8.35500 35.84500 37.64100
H  -6.93400 34.15300 37.58900
H  -5.97500 34.92200 38.90600
H  -9.24400 42.78400 39.63500
H  -10.17900 43.96000 40.52600
H  -10.63800 43.50500 38.85200
H  -15.05000 44.28800 41.03900
H  -14.88400 42.80400 42.05400
H  -15.51300 42.70300 40.35900
H  -16.71000 38.39700 40.75900
H  -16.02200 37.00500 43.29000
H  -17.58800 38.95700 43.30500
H  -17.51700 40.03700 41.85600
H  -16.25300 40.09400 43.12800
H  -16.39200 35.24800 40.99300
H  -17.77400 36.27400 41.30000
H  -18.56400 35.46000 43.05500
H  -17.02700 35.10000 43.82600
H  -17.73700 33.97200 42.59400
H  -13.89900 32.49500 42.74700
H  -12.37200 32.08200 43.54000
H  -12.69800 31.51500 41.98700
H  -8.67600 33.48700 39.56500
H  -5.28100 34.53000 42.46100
H  -6.22300 34.26900 43.97400
H  -5.97000 35.91000 43.21700

