158

Mg 35.79200 2.39500 30.64400
C  33.20400 3.17400 33.00600
C  38.00300 2.50900 33.34700
C  38.30900 2.08800 28.46800
C  33.47100 2.98700 28.07900
N  35.57100 2.82900 32.87200
C  34.39200 3.02200 33.61100
C  34.63200 3.12000 35.13600
C  36.16400 3.10200 35.27100
C  36.67900 2.84900 33.76600
C  36.68000 4.48100 35.81300
C  33.92300 2.01200 36.08900
C  33.47900 2.45500 37.50300
H  34.24700 3.50900 38.28400
N  37.83800 2.20900 30.83700
C  38.51200 2.31800 32.02100
C  39.85000 1.85200 31.72700
C  40.03400 1.73000 30.35400
C  38.72400 2.10600 29.82200
C  40.82600 1.46900 32.74700
C  41.25600 1.37800 29.52000
O  41.25600 1.10100 28.33500
C  42.55900 1.39900 30.19700
N  35.87200 2.62200 28.55500
C  36.99500 2.26000 27.88300
C  36.73700 2.25000 26.46200
C  35.16200 2.38000 26.33400
C  34.77700 2.68500 27.75800
C  37.45700 3.34700 25.62100
C  34.61300 0.98800 25.87200
C  34.90000 0.47800 24.42300
N  33.79200 2.90900 30.47900
C  32.97800 3.10700 29.38800
C  31.66000 3.33400 29.78400
C  31.69100 3.29100 31.16400
C  33.00800 3.14700 31.54800
C  30.43600 3.46400 28.87600
C  30.89100 3.52000 32.38900
O  29.68400 3.83100 32.45800
C  31.81200 3.36500 33.66200
C  31.69100 4.62700 34.53200
O  31.86800 5.75900 34.13900
O  31.06100 4.36100 35.74400
C  30.85500 5.51100 36.70900
H  38.70700 2.42700 34.17700
H  38.96700 1.73200 27.67300
H  32.79600 3.11000 27.22900
H  34.27700 4.13000 35.34200
H  36.54400 2.30800 35.91300
H  36.80500 5.12500 34.94200
H  37.57600 4.26000 36.39300
H  35.98400 4.97200 36.49400
H  34.61400 1.18300 36.24200
H  33.00700 1.67200 35.60600
H  33.39500 1.59000 38.16100
H  32.47900 2.86900 37.37400
H  41.10900 0.41800 32.68900
H  40.43000 1.62100 33.75100
H  41.70100 2.10500 32.61200
H  42.65400 0.57600 30.90500
H  42.54800 2.36500 30.70000
H  43.28600 1.40600 29.38400
H  37.12500 1.33200 26.02100
H  34.68200 3.09400 25.66600
H  38.20100 3.90100 26.19400
H  36.79800 4.08400 25.16200
H  37.98000 2.89300 24.78000
H  33.53200 1.00000 26.01000
H  35.03200 0.28200 26.58900
H  33.96200 0.48100 23.86800
H  35.25400 -0.55100 24.48100
H  35.72600 0.98800 23.92700
H  29.60000 2.96400 29.36400
H  30.54600 3.00000 27.89600
H  30.17600 4.50900 28.71100
H  31.54600 2.46700 34.22000
H  30.35000 6.37400 36.27500
H  31.79500 5.81100 37.17100
H  30.13900 5.15900 37.45200
Mg 4.57500 55.21800 41.00000
C  3.85000 51.81500 41.09100
C  7.81000 54.34000 40.05900
C  5.05500 58.41900 39.80200
C  1.15800 55.86000 41.58000
N  5.57700 53.33600 40.37500
C  5.10400 52.06600 40.62600
C  6.20500 51.00600 40.37900
C  7.50000 51.86600 40.28700
C  6.93700 53.25800 40.24900
C  8.47500 51.63900 41.50800
C  5.99200 49.97600 39.16100
C  5.56500 50.61400 37.81600
H  6.55700 50.57400 36.71900
N  6.17200 56.23500 40.16200
C  7.40600 55.70300 39.89700
C  8.29800 56.74700 39.51800
C  7.50200 57.94600 39.27200
C  6.17200 57.58700 39.75200
C  9.80600 56.48100 39.42700
C  8.04200 59.21700 38.73400
O  9.25700 59.29700 38.65700
C  7.19400 60.45900 38.45500
N  3.23300 56.83900 40.42300
C  3.72900 58.10300 40.16000
C  2.72900 59.18900 40.58300
C  1.43500 58.33000 40.98400
C  1.95400 56.90700 41.04000
C  3.23100 60.16400 41.67700
C  0.25200 58.37700 39.88700
C  -1.20700 58.32700 40.38000
N  2.89100 54.12900 41.50600
C  1.63300 54.51900 41.84200
C  0.86200 53.43100 42.34700
C  1.63400 52.28700 42.02000
C  2.89200 52.80700 41.53700
C  -0.51100 53.58100 42.93600
C  1.67700 50.85400 42.05000
O  0.85900 50.04300 42.32600
C  3.08400 50.48400 41.45900
C  3.01300 49.47100 40.36000
O  2.71200 49.74900 39.21300
O  3.34800 48.27800 40.83200
C  3.12500 47.17200 39.91600
H  8.78900 53.86700 39.94700
H  5.23300 59.46800 39.55300
H  0.12200 56.09900 41.83300
H  6.21100 50.43900 41.30900
H  7.94400 51.66300 39.31200
H  8.77400 52.56000 42.00800
H  9.45000 51.24900 41.21700
H  8.02600 50.91400 42.18600
H  5.28500 49.22100 39.50600
H  6.91600 49.43500 38.95700
H  5.21300 51.62400 38.02700
H  4.67100 50.08800 37.48100
H  10.30800 57.04100 40.21500
H  10.13400 56.57400 38.39200
H  10.08000 55.43700 39.57500
H  7.78500 61.13100 37.83300
H  7.09400 60.88400 39.45400
H  6.33800 60.10200 37.88300
H  2.58500 59.87900 39.75100
H  0.98600 58.70200 41.90500
H  4.22600 59.90100 42.03500
H  2.65400 60.15500 42.60200
H  3.21800 61.19000 41.30800
H  0.35100 57.48500 39.26800
H  0.38200 59.15200 39.13100
H  -1.74900 57.38100 40.39900
H  -1.79700 59.03000 39.79300
H  -1.34400 58.64900 41.41200
H  -1.03600 52.62700 42.89900
H  -1.04200 54.34100 42.36200
H  -0.50800 54.03100 43.92900
H  3.56300 49.96500 42.28900
H  2.10500 46.78900 39.94600
H  3.71000 46.43500 40.46700
H  3.55500 47.31600 38.92400

