158

Mg 50.30900 45.32200 42.16800
C  47.31700 46.36500 40.68800
C  50.10800 42.28400 40.39900
C  53.61100 44.83600 42.78200
C  50.72800 48.73000 43.14500
N  48.97700 44.54100 40.65800
C  47.77700 45.10000 40.19900
C  46.98100 44.10500 39.36500
C  47.67900 42.74600 39.58600
C  49.05700 43.16800 40.18200
C  46.82400 41.74500 40.42300
C  46.86700 44.58900 37.81400
C  45.49500 44.72300 37.20100
H  45.42500 44.54600 35.70100
N  51.65600 43.70300 41.74400
C  51.26500 42.50500 41.15100
C  52.34300 41.59500 41.28000
C  53.49600 42.26300 41.97900
C  52.93600 43.65900 42.27400
C  52.35100 40.19900 40.69100
C  54.83200 41.69600 42.43900
O  55.16000 40.59900 42.19200
C  55.74400 42.49600 43.31700
N  52.02900 46.65200 42.76300
C  53.24600 46.18900 43.03900
C  54.22100 47.36700 43.45000
C  53.14300 48.48700 43.87000
C  51.89300 47.97200 43.19800
C  55.25800 47.02500 44.57900
C  53.65100 49.89400 43.60500
C  53.38400 50.98600 44.63400
N  49.21100 47.11100 42.18600
C  49.47200 48.37700 42.60400
C  48.37500 49.25300 42.34900
C  47.46800 48.49700 41.68100
C  48.06800 47.17200 41.56800
C  48.35900 50.73300 42.60100
C  46.17000 48.48900 40.92900
O  45.37800 49.39200 40.65600
C  45.92000 47.04700 40.39900
C  44.75800 46.54700 41.09600
O  43.63200 46.43800 40.69100
O  45.22000 46.12800 42.29300
C  44.24500 45.42600 43.24000
H  50.00000 41.26200 40.03100
H  54.67700 44.73600 42.99900
H  50.69800 49.73600 43.56900
H  45.95400 44.03800 39.72200
H  47.80200 42.31000 38.59400
H  46.63400 40.81800 39.88300
H  45.80900 42.13600 40.49400
H  47.25900 41.43600 41.37400
H  47.60300 43.97800 37.29100
H  47.34200 45.55900 37.66300
H  45.01500 45.65500 37.49900
H  44.93400 43.93100 37.69700
H  51.83500 40.10600 39.73600
H  51.77100 39.60600 41.39900
H  53.34300 39.86500 40.38900
H  55.07000 42.90600 44.06900
H  56.33000 43.20000 42.72700
H  56.39300 41.87700 43.93700
H  54.77400 47.63600 42.55000
H  52.91000 48.41600 44.93300
H  55.25900 47.80600 45.33900
H  56.23400 47.06700 44.09500
H  55.10600 46.02600 44.98600
H  53.15700 50.26900 42.70900
H  54.72800 49.90200 43.43700
H  52.30700 50.96300 44.80500
H  53.57100 51.91100 44.08900
H  53.89100 50.82100 45.58400
H  47.89300 51.08900 43.51900
H  47.60400 51.07200 41.89200
H  49.29200 51.25800 42.39400
H  45.71500 47.12400 39.33200
H  43.53300 46.17300 43.59000
H  44.90400 44.96500 43.97600
H  43.72800 44.71600 42.59500
Mg 47.94000 34.71500 26.75600
C  46.09000 33.49400 29.39800
C  48.62800 37.51300 28.69600
C  49.57200 36.04200 24.13800
C  47.03300 31.92600 24.82300
N  47.29500 35.39900 28.79700
C  46.70500 34.64100 29.73100
C  46.87600 35.20900 31.18200
C  47.38600 36.62700 30.86300
C  47.79300 36.55500 29.32400
C  46.45600 37.79200 31.15200
C  47.96600 34.37000 31.86500
C  48.23200 34.61000 33.31300
H  47.35600 35.56000 34.12600
N  49.00900 36.54200 26.42500
C  49.23800 37.53200 27.35000
C  50.11500 38.57600 26.77900
C  50.28500 38.12900 25.41200
C  49.62000 36.84300 25.24800
C  50.52400 39.74400 27.62400
C  51.09000 38.74500 24.38200
O  51.33500 38.30500 23.24900
C  51.66300 40.10400 24.69600
N  48.23200 34.13100 24.76500
C  48.99000 34.78500 23.89500
C  49.18500 34.09700 22.49800
C  48.66200 32.62300 22.89700
C  47.95500 32.89700 24.30300
C  48.34100 34.84900 21.33900
C  49.78500 31.56900 23.07800
C  49.95900 30.49900 22.04100
N  46.81200 33.03500 26.96100
C  46.41100 32.04500 26.10400
C  45.51100 31.12600 26.69700
C  45.34900 31.63400 27.98200
C  46.22100 32.77400 28.13100
C  44.97300 29.88400 26.10800
C  44.71300 31.41400 29.17600
O  44.01400 30.47000 29.59400
C  45.13000 32.55600 30.19800
C  45.58500 31.82900 31.49500
O  46.41700 30.97200 31.66500
O  44.73900 32.27100 32.52700
C  44.97900 31.85600 33.97000
H  48.80700 38.39300 29.31800
H  50.22700 36.29600 23.30200
H  46.88500 31.06000 24.17500
H  45.98000 35.19000 31.80200
H  48.29800 36.86400 31.41100
H  45.99100 38.10000 30.21600
H  46.90400 38.66700 31.62300
H  45.68000 37.40500 31.81200
H  48.86400 34.52400 31.26700
H  47.77100 33.31100 31.69700
H  49.21900 35.06300 33.41500
H  48.22700 33.61800 33.76500
H  49.86000 40.54200 27.29300
H  51.49000 40.16400 27.34400
H  50.58500 39.59500 28.70200
H  51.95500 40.59300 23.76700
H  52.44900 40.05100 25.45000
H  50.78200 40.66700 25.00600
H  50.22600 34.08800 22.17200
H  47.92000 32.32600 22.15600
H  47.35100 34.46600 21.58600
H  48.69900 34.49100 20.37400
H  48.57500 35.89200 21.55700
H  49.58700 30.93300 23.94100
H  50.74300 32.05300 23.26700
H  49.81200 29.56400 22.58200
H  50.96700 30.47700 21.62600
H  49.25600 30.63600 21.22000
H  45.63900 29.02200 26.13800
H  44.76000 30.09500 25.06000
H  44.05100 29.60500 26.61700
H  44.26500 33.15600 30.48000
H  45.96300 31.43500 34.17600
H  44.15200 31.26600 34.36600
H  45.00200 32.85700 34.40000

