158

Mg -1.81600 17.07400 27.18000
C  -2.56000 14.94100 30.09900
C  -2.57300 19.66500 29.11200
C  -1.67100 18.80400 24.47300
C  -1.62600 14.10900 25.30800
N  -2.62900 17.22100 29.47700
C  -2.62800 16.29300 30.46800
C  -3.02800 16.91500 31.84000
C  -3.01800 18.55300 31.43700
C  -2.69400 18.48700 29.91700
C  -4.22600 19.46800 31.92900
C  -2.12800 16.46800 33.05800
C  -1.46800 17.42800 34.05900
H  -1.14500 16.80100 35.42600
N  -1.81700 19.03900 26.88400
C  -2.17400 19.90400 27.78900
C  -2.24900 21.23000 27.09600
C  -1.83600 21.02000 25.75000
C  -1.76500 19.56900 25.62800
C  -2.86200 22.45200 27.69400
C  -1.62200 22.01800 24.64600
O  -1.43300 21.72400 23.48700
C  -1.55600 23.36200 25.06500
N  -1.66900 16.50400 25.25100
C  -1.61000 17.42400 24.22900
C  -1.33500 16.86400 22.79900
C  -1.09500 15.39100 23.20300
C  -1.43300 15.31600 24.69400
C  -2.43700 17.02400 21.68600
C  0.31800 14.80100 22.95000
C  1.65000 15.38700 23.51200
N  -2.19600 14.98800 27.58000
C  -2.03500 13.87300 26.67900
C  -2.25200 12.66300 27.41100
C  -2.36900 12.98600 28.74200
C  -2.32200 14.44800 28.79900
C  -2.17600 11.29600 26.75000
C  -2.61400 12.46600 30.04200
O  -2.76300 11.29400 30.36700
C  -2.51800 13.77100 30.97700
C  -1.22900 13.81700 31.70200
O  -0.17000 14.26700 31.32300
O  -1.53500 13.27700 32.89500
C  -0.49500 13.18000 33.92700
H  -2.81200 20.58000 29.65800
H  -1.52500 19.30300 23.51300
H  -1.32200 13.21300 24.76200
H  -4.05800 16.69200 32.11800
H  -2.21000 19.13100 31.88700
H  -4.61300 19.88100 30.99800
H  -3.72200 20.29000 32.43800
H  -5.05500 19.03000 32.48500
H  -1.21500 16.18500 32.53500
H  -2.51900 15.59500 33.58100
H  -2.07500 18.32600 34.16700
H  -0.55700 17.68700 33.51900
H  -2.14800 23.26400 27.82700
H  -3.31000 22.29200 28.67500
H  -3.62500 22.74800 26.97500
H  -0.83700 23.42200 25.88200
H  -2.59100 23.66800 25.21500
H  -1.31300 24.02300 24.23400
H  -0.41800 17.30000 22.40200
H  -1.76800 14.71500 22.67600
H  -3.00800 17.94700 21.79000
H  -3.05900 16.12900 21.65600
H  -2.01000 17.00800 20.68300
H  0.51500 14.90400 21.88300
H  0.16000 13.73200 23.09400
H  2.19100 15.78700 22.65500
H  2.38000 14.69100 23.92400
H  1.34200 16.21200 24.15400
H  -1.57300 11.40000 25.84800
H  -3.16000 11.05600 26.34700
H  -1.68300 10.48500 27.28700
H  -3.40100 13.90500 31.60100
H  0.20300 14.01600 33.96700
H  0.00100 12.22200 33.77000
H  -0.97400 13.07700 34.90000
Mg 23.83400 -6.21200 45.49300
C  25.77200 -3.52500 44.02200
C  21.21600 -5.01800 43.44900
C  22.09600 -8.90500 46.12200
C  26.73800 -7.54600 46.76900
N  23.59600 -4.47300 43.88200
C  24.46900 -3.48200 43.60300
C  23.95200 -2.64700 42.42600
C  22.39200 -2.98700 42.43200
C  22.41100 -4.29900 43.25900
C  21.35900 -1.97700 42.99100
C  24.66000 -2.83900 41.08000
C  25.16000 -1.64700 40.20700
H  25.03600 -1.65900 38.73100
N  21.84900 -6.73100 45.15600
C  20.93300 -6.13500 44.29800
C  19.70200 -6.82400 44.28700
C  19.86100 -7.98900 45.06000
C  21.28400 -7.93600 45.51600
C  18.53500 -6.38600 43.39400
C  18.88700 -9.17100 45.22800
O  17.84400 -9.25100 44.58000
C  19.05800 -10.19900 46.38100
N  24.36400 -7.94800 46.46000
C  23.44100 -8.94900 46.51000
C  24.06000 -10.22000 47.03100
C  25.54800 -9.79100 47.37600
C  25.58600 -8.32700 46.93000
C  23.24900 -10.83600 48.21400
C  26.58400 -10.66800 46.60200
C  27.97700 -10.86400 47.34800
N  25.85200 -5.62400 45.56200
C  26.89500 -6.24400 46.21500
C  28.05400 -5.30300 46.17200
C  27.61900 -4.24600 45.33300
C  26.31200 -4.50800 44.90200
C  29.48100 -5.49900 46.68900
C  28.03500 -3.05300 44.63900
O  29.16100 -2.60600 44.58300
C  26.89200 -2.60600 43.65800
C  26.65400 -1.14400 43.81500
O  26.00500 -0.54100 44.69900
O  27.50300 -0.50000 42.89800
C  27.79700 0.88600 43.00300
H  20.39400 -4.63800 42.83900
H  21.56700 -9.85500 46.22100
H  27.66400 -7.92300 47.20800
H  24.10300 -1.62300 42.76500
H  22.09500 -3.25000 41.41600
H  21.70700 -0.94400 43.01800
H  20.85300 -2.21700 43.92600
H  20.54300 -2.03700 42.27100
H  23.97200 -3.39200 40.44100
H  25.50600 -3.48700 41.30900
H  26.20500 -1.49200 40.47400
H  24.65900 -0.77100 40.62000
H  18.69100 -6.49200 42.32100
H  18.31700 -5.36100 43.69600
H  17.67200 -6.99300 43.66800
H  19.66900 -9.79000 47.18700
H  19.39000 -11.13200 45.92700
H  18.10200 -10.29600 46.89600
H  23.96500 -10.96200 46.23800
H  25.72500 -9.88600 48.44700
H  23.80100 -10.94300 49.14800
H  22.85200 -11.80800 47.92200
H  22.39800 -10.21400 48.49100
H  26.77100 -10.20500 45.63300
H  26.12800 -11.62400 46.34600
H  28.76100 -10.60600 46.63600
H  28.13600 -11.83400 47.81900
H  27.87000 -10.15500 48.16900
H  30.12800 -4.79900 46.16100
H  29.73800 -6.55700 46.62600
H  29.58800 -5.22000 47.73800
H  27.15400 -2.74200 42.60900
H  27.31800 1.55200 42.28500
H  28.84700 1.08800 42.78900
H  27.56500 1.34900 43.96200

