158

Mg 47.17000 44.43000 42.78800
C  43.75200 43.89600 42.17000
C  47.65200 41.10600 42.45800
C  50.40000 45.18300 43.01400
C  46.47100 47.95600 42.68100
N  45.85100 42.74400 42.14800
C  44.51700 42.70700 42.12400
C  43.86500 41.29000 42.09100
C  45.14300 40.47800 42.24900
C  46.29000 41.47400 42.25100
C  45.00600 39.46700 43.44900
C  43.09400 40.94600 40.72100
C  43.52800 41.57200 39.33100
H  43.20000 40.98200 37.94400
N  48.79300 43.27600 42.72800
C  48.78900 41.91200 42.67200
C  50.17100 41.46200 42.81000
C  50.98400 42.64100 42.78600
C  50.06600 43.79400 42.82600
C  50.61000 39.95700 42.84000
C  52.52800 42.64300 42.67900
O  53.22300 41.56100 42.70300
C  53.30800 43.89300 42.61500
N  48.26100 46.26200 42.69700
C  49.57300 46.26400 42.96900
C  49.98900 47.66800 43.38600
C  48.73300 48.52500 43.51200
C  47.73700 47.55200 43.03000
C  50.94800 47.61300 44.61900
C  48.81200 49.85400 42.69300
C  48.32700 51.08200 43.43700
N  45.45000 45.75500 42.48800
C  45.34300 47.11800 42.49300
C  43.97900 47.51200 42.17100
C  43.30900 46.27400 42.21000
C  44.21100 45.21000 42.34300
C  43.42400 48.92500 42.03000
C  41.97800 45.63500 42.11900
O  40.84500 46.13400 41.93700
C  42.17800 44.05900 42.15200
C  41.41000 43.69900 43.39900
O  40.31300 43.11900 43.44800
O  42.26400 43.77600 44.47500
C  41.90600 43.02600 45.70000
H  47.88400 40.04000 42.49600
H  51.43200 45.50200 43.17600
H  46.15200 48.99700 42.77000
H  43.16300 41.38700 42.91900
H  45.29300 39.87800 41.35100
H  45.06200 38.48500 42.97900
H  44.13900 39.67200 44.07700
H  45.83400 39.56800 44.15000
H  42.04800 41.24900 40.75800
H  43.07500 39.87000 40.55200
H  44.61600 41.58500 39.38500
H  43.30700 42.63200 39.20800
H  50.72200 39.37500 41.92500
H  49.84400 39.45400 43.43000
H  51.37300 39.70300 43.57500
H  52.70800 44.52600 41.96100
H  54.32700 43.82000 42.23300
H  53.39500 44.34900 43.60100
H  50.57000 48.13300 42.58900
H  48.47000 48.51600 44.56900
H  51.92800 47.25600 44.30300
H  50.62700 46.93500 45.41000
H  51.01800 48.60400 45.06600
H  48.17000 49.71900 41.82200
H  49.73900 50.20800 42.24200
H  47.53800 51.65500 42.95000
H  49.09900 51.80100 43.71100
H  47.84900 50.62800 44.30500
H  43.64300 49.12900 40.98200
H  43.98000 49.57800 42.70200
H  42.33900 48.96300 42.12200
H  41.62200 43.68900 41.29100
H  41.30300 43.67700 46.33300
H  42.70500 42.65600 46.34200
H  41.43500 42.07900 45.43600
Mg 0.07000 43.29600 26.67000
C  2.21700 42.69800 29.39100
C  -2.62700 41.96100 28.48200
C  -1.80400 43.64400 23.91800
C  2.93800 44.14800 24.85800
N  -0.15800 42.41800 28.71000
C  0.84500 42.53000 29.66700
C  0.22000 42.23000 31.02600
C  -1.21200 41.75800 30.59500
C  -1.35000 42.04100 29.15800
C  -1.61800 40.29900 30.74600
C  0.26100 43.24400 32.15500
C  0.61600 42.76600 33.58200
H  0.00800 41.50300 34.12200
N  -1.96800 42.88200 26.29400
C  -2.88100 42.30300 27.11500
C  -4.18400 42.21300 26.47200
C  -3.98300 42.76300 25.14500
C  -2.51800 43.09000 25.08100
C  -5.44100 41.73400 27.09000
C  -4.94200 42.99500 24.01800
O  -4.56500 43.44500 22.93100
C  -6.52600 42.79700 24.23400
N  0.48600 43.84700 24.73900
C  -0.47700 43.99300 23.79900
C  0.01900 44.85000 22.58500
C  1.46100 45.13400 23.03700
C  1.70800 44.24300 24.28300
C  -0.10500 44.19800 21.23200
C  1.69600 46.63700 23.42900
C  1.45400 47.67500 22.39400
N  2.17300 43.41800 27.01400
C  3.18800 43.67800 26.17500
C  4.44300 43.50000 26.83900
C  4.10100 43.11600 28.17200
C  2.75800 43.01100 28.14400
C  5.79400 43.76000 26.32500
C  4.68400 42.77000 29.45700
O  5.88000 42.66100 29.77000
C  3.47100 42.70500 30.36200
C  3.51300 41.49200 31.28400
O  3.18400 40.32600 31.06000
O  3.96300 41.87200 32.52700
C  4.19200 40.84700 33.56000
H  -3.52500 41.63900 29.01400
H  -2.34000 43.85000 22.99000
H  3.85900 44.48100 24.37500
H  0.67700 41.33400 31.44600
H  -1.95500 42.44900 30.99300
H  -0.89100 39.78500 31.37500
H  -1.72100 39.73300 29.82000
H  -2.58500 40.24700 31.24700
H  -0.72800 43.66800 32.32900
H  0.92900 44.06900 31.90700
H  0.55500 43.55700 34.33000
H  1.67100 42.57600 33.38400
H  -6.01000 41.07200 26.43800
H  -6.08700 42.54900 27.41600
H  -5.24000 41.09500 27.95000
H  -6.96100 43.20000 25.14800
H  -6.70200 41.73300 24.07600
H  -7.05500 43.36500 23.46800
H  -0.52500 45.79300 22.54700
H  2.16800 44.92700 22.23400
H  0.90500 44.13800 20.82500
H  -0.64500 44.75500 20.46600
H  -0.50200 43.18500 21.17300
H  2.73200 46.67000 23.76700
H  1.16100 46.98300 24.31400
H  1.05300 47.13100 21.53900
H  2.40300 48.13300 22.11700
H  0.66100 48.37200 22.66800
H  5.77900 43.95100 25.25200
H  6.53000 42.96800 26.46500
H  6.13800 44.63600 26.87400
H  3.32700 43.60800 30.95700
H  5.18600 41.03200 33.96600
H  4.21700 39.78500 33.31400
H  3.51800 41.02500 34.39800

