158

Mg 8.77500 2.71700 27.42500
C  10.18300 1.34100 30.26600
C  7.24900 5.01000 29.65600
C  7.01700 3.99200 24.85800
C  9.68900 0.07200 25.54300
N  8.65500 3.12400 29.74500
C  9.34600 2.40400 30.65200
C  9.11700 2.85900 32.08400
C  7.99800 4.04500 31.88200
C  7.83400 4.01800 30.35400
C  6.68500 3.87800 32.68600
C  10.46200 3.23600 32.82700
C  10.63200 2.77300 34.28000
H  10.79100 3.84700 35.29600
N  7.45400 4.36800 27.25700
C  7.03400 5.18100 28.28700
C  6.16900 6.22900 27.72900
C  5.96600 5.86000 26.40100
C  6.82400 4.74400 26.12200
C  5.62200 7.40900 28.46000
C  5.07800 6.47200 25.30000
O  4.89600 6.01500 24.14000
C  4.32700 7.70300 25.66700
N  8.34500 2.13200 25.45600
C  7.70700 2.85900 24.56900
C  7.79000 2.22700 23.15400
C  8.57200 0.93500 23.45700
C  8.87500 1.03500 24.95100
C  6.32100 1.96700 22.62100
C  9.96000 0.86300 22.59700
C  11.23700 1.53600 23.16700
N  9.84600 1.12500 27.75600
C  10.16100 0.07300 26.85300
C  10.97400 -0.88700 27.58500
C  10.95900 -0.47000 28.88400
C  10.29500 0.77100 28.98100
C  11.73100 -2.11400 26.96700
C  11.42800 -0.74000 30.26000
O  11.96700 -1.70300 30.73700
C  10.93500 0.42600 31.20700
C  10.13100 -0.17200 32.34500
O  8.92900 -0.47200 32.27900
O  10.91300 -0.31800 33.47500
C  10.19800 -0.63700 34.72700
H  6.85800 5.78900 30.31500
H  6.64600 4.41600 23.92200
H  10.04200 -0.84300 25.06100
H  8.79300 1.99500 32.66400
H  8.44400 5.02300 32.06600
H  6.90000 3.56700 33.70900
H  5.98200 3.25400 32.13300
H  6.21500 4.86100 32.65200
H  10.56900 4.31900 32.88700
H  11.32400 2.97300 32.21400
H  11.58400 2.24800 34.35900
H  9.71400 2.23500 34.51700
H  5.98800 8.27100 27.90300
H  5.92200 7.45100 29.50700
H  4.53300 7.36700 28.43300
H  3.85800 8.04000 24.74300
H  4.99500 8.48300 26.03400
H  3.55500 7.36200 26.35600
H  8.33500 2.99800 22.61000
H  7.98800 0.01500 23.44100
H  5.51300 2.48100 23.14200
H  5.97700 0.93700 22.71800
H  6.19400 2.22200 21.56900
H  9.81100 1.23800 21.58500
H  10.20800 -0.19800 22.57800
H  11.02800 2.08500 24.08600
H  11.74100 2.09200 22.37600
H  11.95000 0.77600 23.48400
H  11.65200 -2.21600 25.88400
H  11.45700 -3.02400 27.50200
H  12.80700 -1.99700 27.10000
H  11.90400 0.76700 31.57200
H  9.29900 -0.02200 34.77700
H  10.90200 -0.35700 35.51000
H  9.96600 -1.69300 34.86800
Mg 9.51100 47.16400 27.49300
C  7.28400 47.24000 30.24400
C  12.13200 47.95000 29.45300
C  11.39900 47.74700 24.66700
C  6.55700 47.16000 25.36800
N  9.72600 47.38900 29.57700
C  8.70100 47.46000 30.52200
C  9.30500 47.60900 31.89800
C  10.87600 47.87900 31.58900
C  10.93200 47.74400 30.08100
C  11.40100 49.20700 31.98300
C  8.90000 46.50300 32.90700
C  9.90400 46.20900 34.01200
H  9.38700 45.89700 35.46000
N  11.48400 47.61900 27.15900
C  12.38200 47.94300 28.10300
C  13.71100 48.14800 27.45400
C  13.54800 47.98000 26.06600
C  12.12800 47.79200 25.93100
C  14.97300 48.37800 28.22100
C  14.60900 47.96100 24.97100
O  14.35500 47.77300 23.81500
C  16.05100 48.10100 25.30300
N  9.02400 47.59600 25.35000
C  10.00400 47.72100 24.43100
C  9.47500 47.70700 23.01700
C  7.91300 47.32200 23.18100
C  7.80700 47.33900 24.73100
C  9.79900 49.09500 22.39500
C  7.35900 46.10200 22.51800
C  7.09200 46.20900 21.02300
N  7.36500 47.09100 27.67800
C  6.29700 47.05900 26.78000
C  4.98800 47.01100 27.43200
C  5.35300 47.00400 28.75900
C  6.78900 47.06900 28.88500
C  3.67700 47.03000 26.73600
C  4.82000 46.95100 30.15200
O  3.67900 46.84100 30.53300
C  6.02800 47.02800 31.09700
C  5.95800 45.68800 31.79900
O  6.41600 44.65100 31.34000
O  5.43900 45.83500 33.04700
C  5.60400 44.73300 33.98500
H  12.95100 48.09900 30.15900
H  12.04600 47.80100 23.78800
H  5.65300 47.02500 24.77000
H  8.94800 48.57200 32.26500
H  11.51100 47.18100 32.13400
H  10.74000 49.53300 32.78700
H  11.47000 49.89900 31.14400
H  12.34100 49.10700 32.52500
H  8.67100 45.63200 32.29300
H  7.94300 46.81000 33.32800
H  10.58600 47.05900 34.04800
H  10.57000 45.39400 33.73100
H  15.52700 47.47100 27.97900
H  14.82200 48.44200 29.29900
H  15.52800 49.23800 27.84800
H  16.43000 47.27200 25.90100
H  16.16000 49.08600 25.75700
H  16.50200 47.97300 24.31800
H  9.96300 46.89600 22.47700
H  7.26400 48.11400 22.80800
H  10.38400 49.71600 23.07400
H  8.82600 49.52500 22.15900
H  10.45900 49.00700 21.53200
H  6.35200 45.95200 22.90900
H  8.01100 45.29400 22.85000
H  7.67100 45.55800 20.36900
H  7.25000 47.19700 20.59000
H  6.04900 46.06000 20.74300
H  3.48600 46.03100 26.34300
H  3.63300 47.66900 25.85400
H  2.84400 47.25800 27.40100
H  5.83100 47.95000 31.64400
H  6.61300 44.33000 33.90600
H  4.90600 43.91400 33.81000
H  5.54700 45.10200 35.00900

