158

Mg 37.17600 50.14100 24.73200
C  36.86100 48.52400 27.91600
C  36.17000 53.08100 26.27300
C  37.29600 51.49600 21.72800
C  37.61600 46.96600 23.33600
N  36.53600 50.75500 26.89600
C  36.61400 49.93500 28.06100
C  36.24000 50.74000 29.34800
C  35.91400 52.19100 28.76300
C  36.19200 52.02700 27.21100
C  34.56000 52.75400 29.20200
C  37.34100 50.78800 30.39900
C  37.09500 50.01600 31.72100
H  35.80300 50.32900 32.36100
N  36.72200 52.02800 24.04100
C  36.41000 53.12400 24.80600
C  36.37700 54.27100 23.95500
C  36.76900 53.79600 22.67500
C  36.97900 52.38900 22.76500
C  36.02900 55.75200 24.40400
C  37.00300 54.61400 21.34300
O  37.58800 54.14700 20.35900
C  36.62300 56.04600 21.21000
N  37.34700 49.31700 22.87600
C  37.50900 50.10700 21.83400
C  37.78400 49.25200 20.51900
C  38.07300 47.88300 21.08400
C  37.64000 48.01500 22.51900
C  36.62100 49.29800 19.40700
C  39.61000 47.49600 21.06400
C  40.15700 46.24600 20.43400
N  37.25700 48.13300 25.37800
C  37.48500 46.90100 24.72300
C  37.60300 45.78900 25.65100
C  37.34500 46.42200 26.86900
C  37.14800 47.80400 26.68600
C  37.75300 44.40800 25.36500
C  37.34200 46.09600 28.29800
O  37.57100 45.01400 28.93500
C  36.95300 47.43200 28.98700
C  35.62600 47.27900 29.62100
O  34.52300 47.57400 29.13700
O  35.81200 46.47600 30.79600
C  34.60100 45.97200 31.46400
H  35.88500 54.06800 26.64200
H  37.43700 51.93700 20.73900
H  37.82700 46.03300 22.80800
H  35.38600 50.26500 29.83100
H  36.57700 52.99600 29.07800
H  33.89900 52.01900 29.66100
H  34.03000 52.90900 28.26200
H  34.64400 53.65100 29.81400
H  37.51900 51.80600 30.74600
H  38.28500 50.35700 30.06500
H  37.85400 50.25600 32.46500
H  37.20300 48.94100 31.57400
H  35.68300 55.92300 25.42300
H  35.33900 56.11500 23.64200
H  36.94400 56.34400 24.37400
H  36.77400 56.63800 22.11300
H  35.53800 56.01800 21.11600
H  37.18500 56.52300 20.40700
H  38.67500 49.76700 20.16200
H  37.45300 47.11800 20.61700
H  36.90600 49.81600 18.49100
H  35.78400 49.87500 19.79900
H  36.18500 48.31800 19.21300
H  39.97600 47.43500 22.08900
H  40.23500 48.28600 20.64600
H  40.00300 45.44700 21.15900
H  41.21900 46.30500 20.19600
H  39.64700 46.19100 19.47200
H  38.40000 44.25400 24.50100
H  36.81900 43.89000 25.14900
H  38.18400 43.88400 26.21800
H  37.64400 47.72100 29.77900
H  34.05200 46.71900 32.03700
H  34.63800 45.10000 32.11600
H  33.81600 45.73500 30.74500
Mg 7.06100 54.12400 41.21900
C  6.36800 50.64500 41.09200
C  10.10600 53.54100 39.86600
C  7.05400 57.33700 40.17000
C  3.75800 54.42900 42.28400
N  8.00500 52.28700 40.41100
C  7.53400 50.97800 40.38300
C  8.61200 50.04300 39.78800
C  9.97300 50.90900 39.85700
C  9.33900 52.31100 40.06500
C  11.01100 50.56500 41.00900
C  8.36500 49.36200 38.38200
C  7.36700 50.00600 37.45000
H  7.38600 49.62400 35.97000
N  8.41700 55.34100 40.21800
C  9.65700 54.91500 39.88500
C  10.52500 56.00600 39.56500
C  9.62800 57.16500 39.56800
C  8.29700 56.64200 39.96000
C  12.07000 55.84000 39.35200
C  9.91500 58.53500 39.17400
O  11.07100 58.92400 39.05500
C  8.88500 59.66300 39.02300
N  5.51200 55.67200 41.02400
C  5.83200 56.94200 40.72600
C  4.66400 57.92400 41.05200
C  3.54200 56.91300 41.58500
C  4.29700 55.59100 41.61400
C  5.02300 59.15200 41.96900
C  2.21000 56.70100 40.67400
C  0.83200 56.87200 41.35100
N  5.45600 52.85000 41.75300
C  4.29200 53.14200 42.30900
C  3.66600 51.96400 42.84200
C  4.43600 50.98900 42.25500
C  5.53700 51.53400 41.66300
C  2.38000 51.87800 43.58400
C  4.54600 49.55900 42.23800
O  3.77500 48.67900 42.60900
C  5.88100 49.20900 41.49500
C  5.71300 48.20400 40.44300
O  5.07900 48.39600 39.41300
O  6.29100 47.07800 40.91600
C  6.18800 45.92200 40.05000
H  11.16400 53.35000 39.67400
H  6.99500 58.39500 39.90600
H  2.71800 54.39500 42.61300
H  8.84300 49.27400 40.52600
H  10.44500 50.98500 38.87700
H  10.92900 49.63800 41.57700
H  11.05000 51.49300 41.58100
H  11.90400 50.44100 40.39600
H  8.03800 48.34300 38.58900
H  9.27800 49.28700 37.79000
H  7.51100 51.07800 37.59100
H  6.33100 49.81900 37.73000
H  12.19100 55.57800 38.30100
H  12.39700 54.95700 39.90200
H  12.59200 56.76400 39.60100
H  8.42800 59.86600 39.99200
H  8.13700 59.55900 38.23700
H  9.47600 60.56700 38.87300
H  4.44600 58.38600 40.09000
H  3.16700 57.12200 42.58600
H  6.07100 59.18900 42.26900
H  4.29300 59.04600 42.77100
H  4.87400 60.08300 41.42100
H  2.14900 55.74900 40.14600
H  2.12500 57.46600 39.90200
H  0.24500 57.65300 40.86900
H  0.86500 57.15300 42.40400
H  0.26000 55.95100 41.24200
H  2.37600 51.09700 44.34400
H  1.61700 51.70600 42.82400
H  2.17100 52.81700 44.09500
H  6.33900 48.77800 42.38500
H  5.25200 45.86300 39.49500
H  6.28600 45.01600 40.64800
H  7.00600 45.84400 39.33400

