158

Mg 41.71500 41.05000 26.51300
C  40.99500 43.44100 28.98800
C  43.13300 38.96700 28.83300
C  42.56400 39.11300 23.91800
C  41.07400 43.74100 24.09500
N  42.09800 41.24000 28.65200
C  41.56500 42.20100 29.45900
C  41.76500 41.84600 30.97200
C  42.74900 40.62700 30.86500
C  42.66400 40.26200 29.35000
C  44.15400 40.73100 31.46400
C  40.39400 41.63500 31.72600
C  40.17000 42.82400 32.79000
H  39.52700 42.49400 34.19300
N  42.72600 39.28800 26.37300
C  43.21100 38.55000 27.41100
C  43.70000 37.27100 26.86200
C  43.38100 37.24900 25.52100
C  42.89000 38.61700 25.21500
C  44.38900 36.29200 27.74500
C  43.44000 36.04600 24.52600
O  43.19200 36.12300 23.30500
C  43.86600 34.69000 25.04000
N  41.61700 41.34300 24.28000
C  42.00200 40.37200 23.45700
C  41.68900 40.67400 21.99000
C  41.25800 42.22200 22.05400
C  41.23800 42.46600 23.52900
C  42.86200 40.46600 20.99000
C  39.86900 42.68800 21.52800
C  39.84400 43.86900 20.54200
N  41.09300 43.11500 26.50700
C  40.90500 44.03800 25.43800
C  40.47800 45.26600 26.00900
C  40.50900 45.05900 27.37700
C  40.89400 43.71800 27.60700
C  40.27500 46.53600 25.41700
C  40.25000 45.71800 28.57900
O  39.84500 46.85400 28.84100
C  40.38600 44.65500 29.70700
C  41.33200 45.25600 30.68700
O  42.53600 45.24700 30.56700
O  40.74800 45.79200 31.74200
C  41.49900 46.42600 32.81800
H  43.56500 38.23800 29.52100
H  42.77900 38.36600 23.15100
H  41.00000 44.53400 23.34700
H  42.38400 42.66800 31.33100
H  42.38500 39.76500 31.42500
H  44.36500 39.80000 31.99000
H  44.34600 41.61500 32.07100
H  44.86900 40.73600 30.64100
H  40.45200 40.68100 32.25000
H  39.61200 41.75400 30.97600
H  39.56300 43.54700 32.24600
H  41.11200 43.28900 33.08200
H  45.38500 36.03200 27.38900
H  43.79300 35.38100 27.81400
H  44.59100 36.52000 28.79200
H  43.85000 34.00000 24.19700
H  43.22600 34.35400 25.85600
H  44.89900 34.77300 25.38000
H  40.80200 40.11100 21.69800
H  42.14400 42.80800 21.81200
H  42.56200 39.72200 20.25200
H  43.71500 40.06800 21.53900
H  43.26800 41.32000 20.44900
H  39.18000 42.78500 22.36700
H  39.50900 41.86400 20.91200
H  38.84000 43.78600 20.12600
H  40.66300 44.02400 19.84000
H  39.76600 44.76600 21.15600
H  40.83900 46.64900 24.49100
H  40.46900 47.34400 26.12200
H  39.20700 46.59300 25.20900
H  39.39800 44.51400 30.14400
H  42.10000 47.26900 32.47700
H  42.23800 45.79700 33.31500
H  40.74500 46.74000 33.54000
Mg -5.44200 25.60600 26.31200
C  -4.54100 27.17500 29.26600
C  -7.48300 23.50200 28.17100
C  -6.17300 23.91500 23.45500
C  -3.37900 27.82400 24.52900
N  -5.89400 25.32200 28.46400
C  -5.38700 26.06400 29.46900
C  -6.01700 25.69700 30.79500
C  -6.61800 24.26500 30.43400
C  -6.76300 24.40800 28.95900
C  -5.74100 22.99600 30.78500
C  -7.08600 26.76500 31.28500
C  -6.90400 27.24800 32.76900
H  -6.45000 26.18800 33.87000
N  -6.64900 23.87000 25.92800
C  -7.47200 23.19600 26.80000
C  -8.31600 22.25900 26.05600
C  -7.79000 22.18600 24.72000
C  -6.85400 23.39000 24.66100
C  -9.40100 21.42900 26.77900
C  -8.00700 21.21800 23.70100
O  -7.49300 21.40700 22.58800
C  -8.73900 19.95700 24.02300
N  -4.84400 25.86900 24.24200
C  -5.26600 24.96500 23.32200
C  -4.63700 25.39900 21.99200
C  -3.94600 26.82200 22.29300
C  -4.03900 26.87300 23.76100
C  -3.80900 24.33300 21.18500
C  -4.66600 28.03900 21.58200
C  -4.02400 28.41400 20.27200
N  -4.20400 27.16100 26.73600
C  -3.41800 27.99200 25.89600
C  -2.67700 28.91900 26.69600
C  -3.19100 28.68500 28.00800
C  -4.02500 27.58600 27.97200
C  -1.65800 29.85800 26.13500
C  -3.07400 29.16700 29.39700
O  -2.42600 30.07900 29.92400
C  -3.95400 28.12900 30.25400
C  -3.12700 27.43500 31.30700
O  -2.13600 26.69800 31.10700
O  -3.54300 27.85300 32.57600
C  -2.78600 27.27700 33.72600
H  -8.09000 22.82000 28.77100
H  -6.31100 23.39200 22.50700
H  -2.73200 28.52500 23.99800
H  -5.20400 25.63800 31.51900
H  -7.64400 24.05600 30.73700
H  -5.62000 22.33600 29.92600
H  -6.21000 22.35500 31.53200
H  -4.76800 23.33400 31.14100
H  -8.08400 26.37300 31.09100
H  -6.96600 27.63800 30.64300
H  -7.89400 27.55800 33.10300
H  -6.20300 28.07900 32.84300
H  -10.16700 21.31800 26.01200
H  -9.86700 21.93000 27.62700
H  -9.05300 20.44300 27.08700
H  -8.48600 19.64500 25.03700
H  -8.46200 19.14900 23.34600
H  -9.80100 20.10300 23.82300
H  -5.53400 25.52600 21.38500
H  -2.90600 26.64900 22.01600
H  -3.93600 23.33200 21.59700
H  -2.73900 24.53900 21.15700
H  -4.06400 24.32500 20.12500
H  -4.47200 28.96200 22.12900
H  -5.72100 27.77100 21.52500
H  -3.29800 29.22300 20.35600
H  -4.76500 28.66600 19.51400
H  -3.42300 27.61700 19.83400
H  -1.44100 29.66000 25.08600
H  -0.69500 30.06000 26.60400
H  -2.10000 30.83900 26.31000
H  -4.83400 28.51700 30.76700
H  -2.46300 26.24800 33.57400
H  -3.49200 27.32100 34.55400
H  -1.86500 27.83800 33.88600

