158

Mg 39.73300 9.68900 30.47400
C  41.78500 10.90800 33.02200
C  37.52900 8.93500 32.99100
C  37.94100 8.20900 28.17300
C  42.30800 10.25200 28.18900
N  39.72600 9.88200 32.83000
C  40.65000 10.50600 33.61400
C  40.11200 10.76400 35.06300
C  38.73900 9.92300 35.02600
C  38.67400 9.49500 33.55800
C  38.54800 8.63800 35.97800
C  39.86000 12.19000 35.57900
C  40.57900 12.62400 36.93000
H  39.64800 13.16700 38.02400
N  37.94400 8.74200 30.56400
C  37.18200 8.44800 31.73800
C  36.00500 7.69200 31.32400
C  36.05400 7.62000 29.90000
C  37.31500 8.19500 29.46100
C  34.92800 7.22500 32.30100
C  35.01200 7.02400 28.90400
O  35.06000 7.09500 27.69100
C  33.69100 6.48500 29.48700
N  40.08500 9.14300 28.47000
C  39.12100 8.71100 27.64200
C  39.45900 8.74500 26.13900
C  40.95200 9.30000 26.27000
C  41.08900 9.70000 27.72300
C  39.35100 7.33300 25.50500
C  41.23400 10.40400 25.15600
C  40.61400 11.81500 25.50400
N  41.60700 10.46800 30.54500
C  42.55900 10.60800 29.54100
C  43.74500 11.30500 30.00500
C  43.43800 11.45300 31.37400
C  42.14400 10.84600 31.64900
C  44.82300 11.89600 29.25500
C  43.94500 12.14100 32.63400
O  44.99900 12.72200 32.90800
C  42.83100 11.75100 33.73400
C  43.46300 10.83800 34.81100
O  43.98600 9.78400 34.57000
O  43.53400 11.36700 36.06900
C  44.39800 10.60200 36.99100
H  36.91600 8.60900 33.83400
H  37.31000 7.78700 27.38700
H  42.94300 10.64800 27.39400
H  40.74500 10.21900 35.76300
H  37.87000 10.57000 35.14600
H  38.22300 7.68300 35.56500
H  37.80100 8.91400 36.72200
H  39.43700 8.43400 36.57600
H  38.82600 12.53000 35.63600
H  40.21600 12.66600 34.66500
H  41.30800 13.37800 36.63300
H  40.98700 11.71100 37.36400
H  34.71200 6.16800 32.15100
H  33.96700 7.73400 32.21400
H  35.26700 7.33800 33.33100
H  33.25600 6.10900 28.56000
H  33.18700 7.30500 29.99800
H  33.82200 5.65000 30.17600
H  38.85400 9.52300 25.67200
H  41.72600 8.56500 26.04500
H  38.98600 6.68100 26.29900
H  40.27600 6.92400 25.09900
H  38.59600 7.35200 24.72000
H  40.74500 10.09200 24.23400
H  42.29000 10.47500 24.89300
H  40.12400 12.15100 24.59100
H  41.41800 12.53100 25.67400
H  39.83600 11.83200 26.26700
H  44.67200 12.90100 28.85900
H  45.10900 11.24100 28.43300
H  45.61900 11.78400 29.99100
H  42.46000 12.69300 34.13700
H  44.06500 9.61000 37.29800
H  44.79900 11.15400 37.84100
H  45.31400 10.36500 36.45000
Mg 36.69400 49.86400 24.79500
C  36.90700 47.80300 27.63600
C  35.60600 52.35800 26.86900
C  36.13800 51.73900 22.09100
C  37.82100 47.33800 22.81900
N  36.06000 49.98600 27.02000
C  36.34600 49.07300 27.98500
C  35.99300 49.66300 29.42200
C  35.72300 51.13800 29.07300
C  35.75600 51.16200 27.59300
C  34.33600 51.60700 29.61600
C  37.04800 49.45800 30.51700
C  37.04400 50.42200 31.71200
H  35.67500 50.46500 32.49400
N  36.05100 51.82700 24.51600
C  35.65200 52.65600 25.52000
C  35.24200 53.91000 24.86500
C  35.46600 53.81000 23.47700
C  35.92900 52.43200 23.33000
C  34.73300 55.03400 25.77800
C  35.18800 54.85600 22.35900
O  35.20100 54.51700 21.16800
C  34.94300 56.28300 22.75300
N  37.01000 49.61100 22.71200
C  36.63100 50.50500 21.77300
C  36.96000 50.03700 20.35600
C  37.57000 48.62500 20.62900
C  37.53400 48.52000 22.15800
C  35.68100 50.07700 19.51400
C  38.92500 48.28100 19.90400
C  40.20700 48.12900 20.80900
N  37.28500 47.93000 25.11800
C  37.71500 46.97300 24.19100
C  38.07500 45.72100 24.93400
C  37.76900 46.03700 26.26100
C  37.26600 47.38400 26.31500
C  38.36500 44.50400 24.31600
C  37.65100 45.38400 27.54400
O  37.89200 44.30900 27.99000
C  37.07500 46.53600 28.47100
C  35.77600 46.17000 29.05200
O  34.69900 46.20500 28.48300
O  36.04100 45.88900 30.36800
C  34.86100 45.80200 31.29300
H  35.21400 53.16600 27.49100
H  35.87700 52.33100 21.21200
H  38.30100 46.64600 22.12300
H  35.04500 49.16600 29.62800
H  36.45100 51.85800 29.44900
H  34.53000 52.35200 30.38800
H  33.87400 50.82600 30.22100
H  33.68200 51.94700 28.81400
H  37.96400 49.52400 29.92900
H  37.03000 48.45800 30.95100
H  37.12800 51.45800 31.38500
H  37.83800 50.19500 32.42300
H  33.97800 54.66700 26.47300
H  34.26000 55.86400 25.25200
H  35.49900 55.59300 26.31400
H  33.90800 56.38400 23.07900
H  35.17100 57.02700 21.99100
H  35.61000 56.51300 23.58400
H  37.72700 50.68700 19.93600
H  36.89100 47.83400 20.31300
H  36.02400 49.99300 18.48300
H  34.94500 50.82300 19.81300
H  35.15800 49.12400 19.59800
H  39.20400 49.03200 19.16500
H  38.75800 47.29300 19.47300
H  40.76700 47.25800 20.46700
H  39.97400 48.10900 21.87400
H  40.83700 48.99500 20.60700
H  37.71100 43.73200 24.72200
H  39.41900 44.22400 24.30700
H  38.21400 44.55600 23.23800
H  37.77500 46.75500 29.27800
H  33.86100 45.63300 30.89300
H  34.69200 46.71800 31.85900
H  35.14400 45.04500 32.02400

