158

Mg 2.19000 8.87700 27.96400
C  2.67800 11.03100 30.75700
C  2.33500 6.22600 30.13600
C  2.10100 6.91100 25.34500
C  2.22700 11.74500 25.93300
N  2.56400 8.65500 30.12600
C  2.53300 9.70500 31.08100
C  2.24000 9.21200 32.50600
C  2.53400 7.69200 32.32500
C  2.40300 7.51700 30.80600
C  3.90800 7.16000 32.86900
C  0.76400 9.48600 32.95400
C  0.43500 9.19100 34.39600
H  1.51800 8.72300 35.48500
N  2.12800 6.88800 27.75500
C  2.17900 5.95800 28.77600
C  1.95400 4.55400 28.20500
C  1.83000 4.77200 26.82900
C  2.05500 6.23300 26.57300
C  2.11500 3.33100 29.14000
C  1.49100 3.77700 25.68700
O  1.57500 4.06100 24.49700
C  0.98600 2.37400 26.05500
N  2.19700 9.27000 25.94500
C  2.06900 8.27200 25.10200
C  2.00300 8.79900 23.67700
C  1.63500 10.32100 23.92100
C  2.12000 10.52400 25.35900
C  3.34400 8.54900 22.90700
C  0.13100 10.57800 23.80200
C  -0.39400 11.16100 22.46400
N  2.53900 10.96100 28.20100
C  2.50200 12.06100 27.28800
C  2.75800 13.28300 28.02100
C  2.79300 12.91200 29.33700
C  2.60800 11.50900 29.39900
C  2.90000 14.69600 27.48500
C  2.93800 13.45300 30.75100
O  3.22600 14.59800 31.05800
C  2.64800 12.19300 31.68200
C  3.64900 12.19800 32.70500
O  4.81000 11.80400 32.56500
O  3.05800 12.67500 33.87200
C  3.99200 12.58200 35.01700
H  2.41600 5.42400 30.87300
H  1.96400 6.24700 24.48900
H  1.96500 12.47700 25.16600
H  3.06600 9.64500 33.07000
H  1.71900 7.11900 32.76600
H  4.68200 7.89400 32.64500
H  4.06400 6.19400 32.38900
H  3.84500 6.94100 33.93500
H  0.10000 8.84100 32.38000
H  0.43900 10.50600 32.74700
H  -0.40400 8.49600 34.36600
H  0.10400 10.12400 34.85300
H  1.42500 3.55300 29.95500
H  3.10100 3.33600 29.60400
H  1.90800 2.42900 28.56500
H  1.82600 1.76900 26.39600
H  0.52100 1.93400 25.17300
H  0.18100 2.40000 26.78900
H  1.22900 8.34700 23.05600
H  2.28200 10.97300 23.33300
H  3.48500 7.47100 22.82700
H  4.18800 8.94100 23.47400
H  3.45000 8.95700 21.90200
H  -0.18400 11.30800 24.54800
H  -0.39500 9.68500 24.13800
H  0.09700 10.73100 21.59100
H  -0.23900 12.24000 22.47900
H  -1.47400 11.02100 22.42200
H  3.90400 15.12000 27.50900
H  2.19900 15.31900 28.04000
H  2.57800 14.68900 26.44400
H  1.64100 12.30200 32.08600
H  4.40900 11.57600 34.96400
H  3.41700 12.75400 35.92700
H  4.71300 13.38300 34.85600
Mg 30.36300 57.80300 39.98900
C  27.55200 56.04600 38.98600
C  32.39200 55.36600 38.70800
C  32.90500 59.99300 40.04600
C  28.18700 60.55100 40.58500
N  30.01900 55.90400 39.01300
C  28.75500 55.37800 38.76700
C  28.89400 54.11700 37.88000
C  30.42300 53.72500 38.05700
C  31.01900 55.09800 38.61800
C  30.60400 52.61400 39.04600
C  28.54000 54.45400 36.34400
C  27.37000 53.78800 35.65900
H  26.66700 54.71100 34.62200
N  32.40300 57.67500 39.56800
C  33.06500 56.59000 39.03600
C  34.47600 56.90500 39.12400
C  34.64800 58.20600 39.63800
C  33.27100 58.66400 39.81000
C  35.43500 55.89500 38.66600
C  36.00400 58.86000 39.80200
O  37.05000 58.25300 39.60300
C  36.10800 60.31200 40.36100
N  30.48600 60.03600 40.17600
C  31.71900 60.67300 40.16900
C  31.52200 62.12700 40.61000
C  29.93300 62.28200 40.83300
C  29.52600 60.90400 40.53200
C  32.26300 62.70200 41.87400
C  29.22000 63.44200 40.01800
C  28.27100 64.39000 40.76300
N  28.20800 58.21300 40.01900
C  27.49500 59.28300 40.29900
C  26.08300 58.98200 40.26300
C  26.05300 57.66100 39.76100
C  27.44500 57.31300 39.52000
C  24.96300 59.85000 40.58100
C  25.19000 56.55000 39.22400
O  23.97500 56.56500 39.01000
C  26.15100 55.41600 38.72800
C  25.96100 54.22200 39.57900
O  26.54800 54.04000 40.65400
O  25.23900 53.27900 38.84100
C  24.51400 52.33600 39.65100
H  33.00800 54.49000 38.49800
H  33.69600 60.74500 40.08600
H  27.51000 61.39200 40.74600
H  28.17000 53.35400 38.16600
H  30.91700 53.51900 37.10700
H  29.72400 52.40700 39.65500
H  31.44200 52.89100 39.68600
H  30.98100 51.73100 38.53100
H  29.48600 54.41200 35.80300
H  28.28600 55.51300 36.33300
H  26.63800 53.42700 36.38200
H  27.71100 52.93500 35.07300
H  35.91500 56.10500 37.71000
H  35.00500 54.91000 38.48400
H  36.19700 55.91700 39.44500
H  35.62500 60.95800 39.62800
H  37.17700 60.47900 40.49600
H  35.65900 60.40900 41.34900
H  31.75100 62.70100 39.71200
H  29.75700 62.31500 41.90800
H  33.04100 62.06000 42.28900
H  31.60400 63.06600 42.66200
H  32.86700 63.54800 41.54700
H  28.70300 63.20100 39.09000
H  30.05200 64.09000 39.74300
H  27.34200 64.22800 40.21700
H  28.43800 65.46600 40.71200
H  28.13300 64.15500 41.81800
H  24.06200 59.24900 40.70300
H  24.76100 60.52100 39.74600
H  25.09200 60.44800 41.48300
H  26.09800 55.08400 37.69100
H  24.46100 52.69800 40.67800
H  25.00000 51.36000 39.66700
H  23.48300 52.14800 39.34900

