158

Mg 30.01800 58.79500 39.11900
C  27.32600 56.86500 38.09800
C  32.04700 56.20500 37.71500
C  32.49500 60.97300 38.96500
C  27.71500 61.56800 39.11100
N  29.75500 56.76700 38.07500
C  28.54400 56.24100 37.78400
C  28.63900 54.85000 36.94600
C  30.13600 54.52300 37.19300
C  30.73300 55.87400 37.71500
C  30.42000 53.39000 38.23100
C  28.22700 55.06100 35.41200
C  27.10300 54.33300 34.69400
H  26.31500 55.17700 33.66000
N  32.00800 58.56600 38.62300
C  32.67500 57.44800 38.10400
C  34.00400 57.76100 37.90100
C  34.20400 59.07600 38.38800
C  32.93000 59.63700 38.68300
C  34.95400 56.82200 37.18600
C  35.50200 59.82000 38.42300
O  36.45200 59.26500 37.85700
C  35.78100 61.17800 39.09700
N  30.09100 61.00100 39.14200
C  31.27700 61.64800 39.15200
C  31.11000 63.16800 39.06800
C  29.53600 63.30000 38.97700
C  29.06800 61.83200 39.08300
C  31.88900 64.01500 40.15300
C  29.03600 64.00200 37.71800
C  28.08700 65.14100 37.89100
N  27.92200 59.18200 38.84500
C  27.13500 60.28100 38.90400
C  25.70700 59.89600 38.90500
C  25.69300 58.59300 38.66000
C  27.09900 58.19100 38.55700
C  24.52400 60.77200 38.89800
C  24.90500 57.35900 38.49600
O  23.69000 57.24900 38.55300
C  25.86800 56.29100 37.97500
C  25.65000 55.11700 38.96900
O  26.21300 55.02200 40.03200
O  24.77500 54.13000 38.46200
C  24.38600 52.97300 39.30200
H  32.63600 55.34400 37.39000
H  33.40600 61.56900 39.05300
H  27.07800 62.44600 39.24200
H  28.00900 54.11200 37.44300
H  30.66400 54.21100 36.29200
H  31.08000 53.75800 39.01700
H  30.81500 52.48600 37.76600
H  29.47400 53.19300 38.73400
H  29.05800 54.73700 34.78600
H  28.03900 56.12700 35.28200
H  26.39800 53.86300 35.37900
H  27.58300 53.50800 34.16800
H  35.41800 57.27000 36.30700
H  34.53400 55.88000 36.83400
H  35.75900 56.50200 37.84700
H  36.83700 61.20200 39.36600
H  35.26900 61.38100 40.03800
H  35.53400 61.99200 38.41600
H  31.48600 63.37800 38.06700
H  29.20000 63.77100 39.90100
H  32.95600 63.79400 40.18100
H  31.29900 63.88000 41.05900
H  31.78600 65.07900 39.94100
H  28.61900 63.28000 37.01500
H  29.87200 64.48800 37.21700
H  28.32800 66.02300 37.29700
H  27.88400 65.29900 38.95000
H  27.14900 64.75500 37.49100
H  24.50900 61.48000 39.72600
H  23.60200 60.22000 39.08100
H  24.62300 61.37500 37.99500
H  25.68300 56.03300 36.93200
H  23.84600 53.18800 40.22400
H  25.11200 52.16300 39.37100
H  23.66100 52.51400 38.63000
Mg -10.87200 17.63700 42.98200
C  -7.56400 18.60700 42.88900
C  -11.74900 20.85300 42.51000
C  -14.07400 16.49900 42.79900
C  -9.83200 14.24700 42.56100
N  -9.76400 19.49200 42.68600
C  -8.42900 19.66100 42.75200
C  -8.07000 21.10800 42.60300
C  -9.40800 21.87400 42.91200
C  -10.35900 20.66500 42.74600
C  -9.44800 22.54500 44.31900
C  -7.55900 21.30500 41.14700
C  -6.08500 21.84900 41.00200
H  -5.15500 20.99700 40.10400
N  -12.67500 18.54100 42.56200
C  -12.85000 19.92500 42.42800
C  -14.30600 20.17800 42.30400
C  -15.00200 18.95400 42.36000
C  -13.96600 17.93800 42.58900
C  -14.89900 21.55800 42.18600
C  -16.53400 18.74600 42.33800
O  -17.25300 19.72400 42.25100
C  -17.15900 17.37300 42.32500
N  -11.84400 15.63700 42.46800
C  -13.19300 15.47200 42.69100
C  -13.52500 13.98800 42.64100
C  -12.18800 13.30500 42.38500
C  -11.25700 14.44800 42.43900
C  -14.24700 13.43100 43.97700
C  -12.12400 12.49500 41.03300
C  -11.98400 10.95700 41.15800
N  -9.02300 16.47500 42.85400
C  -8.72800 15.17900 42.66800
C  -7.30700 15.02200 42.77000
C  -6.77100 16.32300 42.89300
C  -7.82800 17.17200 42.80200
C  -6.48700 13.77200 42.69100
C  -5.53600 17.13700 43.06700
O  -4.41700 16.81300 43.18500
C  -6.05700 18.64900 43.06800
C  -5.74300 19.28500 44.39400
O  -6.39500 19.11300 45.39200
O  -4.71600 20.14200 44.35500
C  -4.70600 21.25000 45.36000
H  -12.01100 21.91300 42.53800
H  -15.03600 15.99000 42.88900
H  -9.55500 13.20500 42.39200
H  -7.34200 21.37700 43.36900
H  -9.60900 22.61100 42.13500
H  -8.59900 22.43500 44.99300
H  -10.26000 22.08100 44.87900
H  -9.59700 23.61100 44.14200
H  -8.22500 21.93800 40.56100
H  -7.53800 20.31600 40.68900
H  -5.60700 21.81800 41.98100
H  -6.07600 22.92500 40.82900
H  -15.75000 21.73700 41.52900
H  -14.26500 22.44100 42.09800
H  -15.30500 21.61100 43.19700
H  -18.23800 17.47700 42.21200
H  -16.91600 17.06900 43.34400
H  -16.65800 16.73900 41.59400
H  -14.23200 13.93800 41.81300
H  -11.87200 12.69000 43.22700
H  -14.07100 14.22900 44.69900
H  -13.66900 12.57400 44.32300
H  -15.28700 13.11900 43.88900
H  -11.28600 12.79500 40.40300
H  -12.99700 12.73400 40.42600
H  -11.42200 10.40000 40.40800
H  -12.94100 10.43500 41.16300
H  -11.39600 10.69300 42.03700
H  -5.43900 13.92100 42.94900
H  -6.48800 13.52000 41.63000
H  -6.95100 12.99700 43.30100
H  -5.58000 19.07800 42.18700
H  -5.69900 21.45100 45.76200
H  -4.56200 22.17900 44.80800
H  -3.96300 21.07700 46.13900

