158

Mg 8.47800 48.04700 25.30900
C  6.47900 48.24400 28.01400
C  11.20600 48.83900 27.37600
C  10.58200 47.84900 22.58400
C  5.81800 47.70200 23.19300
N  8.83800 48.36400 27.52400
C  7.81200 48.35100 28.43300
C  8.38000 48.72600 29.81700
C  9.71900 49.41900 29.42900
C  10.00100 48.85900 28.06300
C  9.68500 50.98300 29.38700
C  8.61700 47.40500 30.66000
C  8.51000 47.54500 32.15300
H  7.80700 46.50600 33.00600
N  10.50700 48.32200 25.01500
C  11.48700 48.50000 25.99300
C  12.79800 48.46200 25.42300
C  12.67000 48.04400 24.11300
C  11.23100 48.06000 23.85400
C  14.04700 48.97500 26.13900
C  13.71500 47.72900 23.07100
O  13.50600 47.43700 21.90800
C  15.16900 47.77800 23.39500
N  8.23400 47.94200 23.09200
C  9.21900 47.76500 22.21900
C  8.72500 47.46600 20.82900
C  7.21100 47.25800 21.02600
C  7.08200 47.56800 22.52700
C  9.02800 48.60200 19.83700
C  6.59800 45.84300 20.69300
C  5.41600 45.76200 19.69900
N  6.59700 47.93000 25.52400
C  5.55600 47.90500 24.59100
C  4.29300 47.92800 25.19600
C  4.65000 47.94500 26.60100
C  6.04100 48.07800 26.69100
C  2.95000 47.89100 24.61700
C  4.06100 48.03600 27.88900
O  2.82200 48.03900 28.10700
C  5.19600 48.24300 28.92200
C  5.05300 47.10200 29.87200
O  5.65600 46.08000 29.76400
O  4.22600 47.40000 30.94000
C  4.00200 46.38800 32.02300
H  11.98000 49.11300 28.09500
H  11.27600 47.72300 21.75000
H  4.91600 47.57900 22.59000
H  7.62400 49.39400 30.22900
H  10.56900 49.03100 29.99100
H  8.70600 51.41300 29.60200
H  9.87600 51.21700 28.34000
H  10.52500 51.45900 29.89300
H  9.60600 47.01600 30.41700
H  7.83800 46.71400 30.33900
H  8.13600 48.51300 32.48600
H  9.52800 47.50400 32.54000
H  13.96100 49.13000 27.21400
H  14.44800 49.93300 25.80800
H  14.83200 48.22500 26.04800
H  15.52100 46.90700 23.94700
H  15.38800 48.70700 23.92200
H  15.68100 47.81800 22.43400
H  9.22700 46.51300 20.66000
H  6.54700 47.96100 20.52300
H  8.83800 49.59200 20.25000
H  8.34700 48.54200 18.98800
H  10.04700 48.51900 19.45600
H  6.35000 45.25700 21.57800
H  7.40800 45.32800 20.17700
H  5.50100 44.82700 19.14600
H  5.37700 46.60700 19.01200
H  4.49800 45.87900 20.27500
H  2.73200 48.95100 24.48500
H  2.22000 47.38700 25.25100
H  3.01300 47.35400 23.67100
H  4.94100 49.20200 29.37500
H  2.94800 46.24600 32.26200
H  4.57100 46.75400 32.87900
H  4.35400 45.45100 31.59100
Mg -2.45000 33.96400 26.92900
C  -3.92200 32.11100 29.67500
C  -0.88000 35.88700 29.39200
C  -1.43300 35.99400 24.52800
C  -4.11000 31.89600 24.73800
N  -2.43600 33.94800 29.36300
C  -3.01200 33.07000 30.18200
C  -2.62900 33.48200 31.64100
C  -1.79400 34.75000 31.49900
C  -1.63500 34.84600 29.94500
C  -2.27800 36.09700 32.23500
C  -1.90400 32.37900 32.51300
C  -2.48400 32.05200 33.89000
H  -1.48600 32.00200 35.04600
N  -1.32000 35.65200 26.92000
C  -0.71500 36.20800 28.01200
C  -0.06200 37.42200 27.55000
C  -0.18300 37.51700 26.17300
C  -0.93700 36.33300 25.80600
C  0.57700 38.32900 28.51700
C  0.49000 38.57300 25.30700
O  0.35600 38.59000 24.09000
C  1.21200 39.61400 25.89500
N  -2.66300 33.94200 24.87900
C  -2.13900 34.86800 24.08500
C  -2.34600 34.43000 22.51700
C  -3.03200 33.01500 22.64600
C  -3.31300 32.96100 24.16500
C  -3.22800 35.33700 21.63800
C  -2.13100 31.88200 22.13200
C  -2.40800 31.48500 20.63700
N  -3.64900 32.36300 27.14700
C  -4.33300 31.61300 26.14800
C  -5.05400 30.49300 26.70800
C  -4.92300 30.71600 28.07600
C  -4.08800 31.82300 28.37500
C  -5.89900 29.46600 26.06000
C  -5.38600 30.18800 29.36200
O  -6.14000 29.26100 29.65200
C  -4.67400 31.11600 30.44700
C  -5.69800 31.68100 31.29800
O  -6.51800 32.53200 30.97000
O  -5.65000 31.06700 32.52000
C  -6.66600 31.45000 33.57100
H  -0.37400 36.49200 30.14700
H  -1.07100 36.59400 23.69100
H  -4.40900 31.10100 24.05100
H  -3.55600 33.74400 32.15000
H  -0.76400 34.60200 31.82400
H  -2.71200 36.85100 31.57900
H  -1.47200 36.57100 32.79700
H  -3.09700 35.90100 32.92700
H  -0.88200 32.72300 32.67100
H  -1.86100 31.51400 31.85200
H  -2.89300 31.05600 33.71700
H  -3.37800 32.58200 34.21800
H  1.62800 38.04700 28.58200
H  0.19000 38.27600 29.53400
H  0.49100 39.40700 28.37900
H  1.72500 40.14200 25.09200
H  1.93100 39.32200 26.66100
H  0.49200 40.37900 26.18500
H  -1.31800 34.32800 22.17000
H  -4.05600 33.01100 22.27200
H  -4.15400 34.90100 21.26200
H  -2.68500 35.61100 20.73300
H  -3.50200 36.30500 22.05800
H  -2.19300 30.98700 22.75000
H  -1.12000 32.24400 22.31800
H  -1.50000 31.69500 20.07000
H  -3.21200 32.15300 20.32800
H  -2.66800 30.42800 20.60500
H  -5.31200 28.55800 25.92100
H  -6.38700 29.76600 25.13300
H  -6.69600 29.31900 26.78900
H  -4.09100 30.38500 31.00800
H  -7.50000 32.04600 33.20200
H  -6.28700 32.02500 34.41600
H  -7.04500 30.52600 34.00800

