158

Mg 44.38700 3.33900 48.26500
C  41.82800 5.81500 47.79000
C  41.99800 0.95000 48.01900
C  46.94300 1.16000 48.44700
C  46.66300 6.11800 48.21700
N  42.15900 3.42800 47.86600
C  41.29400 4.50900 47.77800
C  39.91300 4.04900 47.34800
C  39.88900 2.52600 47.61300
C  41.43100 2.23700 47.85500
C  38.94000 2.13700 48.80400
C  39.70100 4.25700 45.81400
C  38.45900 5.05900 45.31400
H  38.75700 6.07900 44.14900
N  44.42100 1.30900 48.27100
C  43.31000 0.47500 48.12300
C  43.78700 -0.88800 48.09100
C  45.23800 -0.84600 48.06600
C  45.61100 0.57000 48.21400
C  42.88000 -2.10800 48.00800
C  46.12100 -2.06500 48.00100
O  45.59800 -3.11300 47.80900
C  47.63200 -1.98300 48.09800
N  46.59800 3.60400 48.21800
C  47.36300 2.51100 48.49300
C  48.68100 3.04800 49.18100
C  48.77300 4.53200 48.61900
C  47.23200 4.83800 48.38100
C  48.53200 3.09800 50.72500
C  49.68000 4.92500 47.36900
C  50.87800 5.86300 47.76300
N  44.34000 5.54600 48.07700
C  45.32900 6.47600 48.09500
C  44.79600 7.83500 48.06000
C  43.40700 7.60600 47.98900
C  43.16300 6.22100 47.99500
C  45.55300 9.12600 48.00800
C  42.06800 8.21600 47.98100
O  41.67800 9.42400 48.14200
C  41.08000 7.12600 47.64700
C  39.91300 7.23600 48.51300
O  39.77900 6.75400 49.63000
O  38.93100 7.94000 47.78900
C  37.62300 8.04700 48.43600
H  41.22000 0.19200 47.91000
H  47.81500 0.51500 48.57000
H  47.38500 6.90700 48.43800
H  39.12000 4.53300 47.91700
H  39.59400 1.89700 46.77300
H  38.53900 3.03800 49.26800
H  39.58500 1.76000 49.59700
H  38.25700 1.33000 48.54000
H  39.56400 3.29700 45.31700
H  40.61800 4.73500 45.46900
H  38.09800 5.75100 46.07500
H  37.66900 4.33600 45.11300
H  43.02800 -2.69500 47.10200
H  41.84400 -1.78000 47.92000
H  42.97000 -2.70400 48.91600
H  48.03900 -1.40000 47.27100
H  47.91200 -3.03600 48.10900
H  47.73000 -1.55900 49.09800
H  49.56400 2.45300 48.95000
H  49.23700 5.07700 49.44100
H  49.20700 2.39200 51.21100
H  47.50900 2.81200 50.96900
H  48.60100 4.07900 51.19400
H  49.20600 5.43300 46.53000
H  50.16800 4.04500 46.95000
H  50.60100 6.90700 47.61900
H  51.72800 5.74900 47.08900
H  51.06900 5.70600 48.82400
H  46.09300 9.36300 48.92600
H  44.86500 9.92700 47.73800
H  46.29000 9.07200 47.20700
H  40.70900 7.34000 46.64400
H  37.21400 7.23600 49.03800
H  36.87600 8.06800 47.64200
H  37.44700 8.98000 48.97200
Mg -5.09400 25.39800 25.27600
C  -3.65200 27.04400 28.16600
C  -6.36500 23.17400 27.49900
C  -6.25200 23.89900 22.57000
C  -3.44000 27.73500 23.29800
N  -5.21200 25.31400 27.57400
C  -4.58700 26.07900 28.55700
C  -4.79100 25.40000 29.98600
C  -5.34700 23.98300 29.67900
C  -5.68400 24.15900 28.16000
C  -4.29800 22.76900 29.94100
C  -5.77300 26.26100 30.84900
C  -5.25700 26.66200 32.28300
H  -4.69400 25.46600 33.09200
N  -6.16700 23.80600 25.03800
C  -6.65800 23.00600 26.11100
C  -7.49300 22.01800 25.54000
C  -7.49700 22.15500 24.12800
C  -6.69800 23.36800 23.84500
C  -8.16300 20.88600 26.31400
C  -8.12900 21.39000 23.00800
O  -8.11900 21.80300 21.86100
C  -8.82300 20.13600 23.33800
N  -4.73100 25.70700 23.27400
C  -5.37900 24.99300 22.36600
C  -5.09800 25.43000 20.96500
C  -4.58900 26.89400 21.18200
C  -4.28100 26.86700 22.71500
C  -4.03800 24.50200 20.38700
C  -5.64400 27.96900 20.83700
C  -5.05800 29.23200 20.18500
N  -3.63400 27.04300 25.61300
C  -3.11000 27.88000 24.62900
C  -2.25600 28.77000 25.32800
C  -2.45400 28.54500 26.68400
C  -3.34600 27.51700 26.80800
C  -1.30400 29.76200 24.67800
C  -1.92100 28.87000 27.99400
O  -1.08000 29.67200 28.40300
C  -2.69100 27.82100 28.97500
C  -1.69000 26.98400 29.76500
O  -1.15500 25.97900 29.42000
O  -1.57100 27.63300 30.99800
C  -0.73300 26.90700 32.02100
H  -6.74800 22.35400 28.11100
H  -6.53000 23.36900 21.65600
H  -3.08000 28.46900 22.57400
H  -3.84800 25.28600 30.52100
H  -6.26700 23.71700 30.19900
H  -4.79100 21.91700 29.47100
H  -4.19600 22.64500 31.01900
H  -3.34100 23.07700 29.52200
H  -6.82200 25.96800 30.87300
H  -5.88400 27.22900 30.36000
H  -6.07100 27.14300 32.82600
H  -4.47000 27.40600 32.15900
H  -7.76000 19.89700 26.09500
H  -9.21800 20.90400 26.04200
H  -8.21000 21.09100 27.38400
H  -8.13800 19.39300 23.74700
H  -9.24600 19.76800 22.40300
H  -9.65100 20.41300 23.99100
H  -5.94600 25.47500 20.28100
H  -3.72300 27.13800 20.56600
H  -3.54600 23.87900 21.13400
H  -3.28800 25.12800 19.90400
H  -4.59000 23.90900 19.65800
H  -6.09700 28.24600 21.78900
H  -6.42600 27.63500 20.15600
H  -5.60500 29.50800 19.28300
H  -4.00300 29.33000 19.92700
H  -5.36400 30.14600 20.69500
H  -0.92600 29.29700 23.76700
H  -0.49000 30.04900 25.34400
H  -1.90200 30.64300 24.44600
H  -3.21000 28.51000 29.64100
H  0.27300 26.71400 31.64800
H  -1.20000 25.94400 32.22600
H  -0.55700 27.54500 32.88700

