158

Mg 48.40400 45.48500 42.71800
C  44.91600 45.01300 42.62800
C  48.82100 41.99700 42.21700
C  51.60800 46.00500 42.26000
C  47.72900 49.00200 42.59600
N  47.04500 43.76600 42.39100
C  45.62800 43.76300 42.36400
C  45.02000 42.34800 42.23400
C  46.27700 41.42300 42.27200
C  47.49500 42.45100 42.28200
C  46.27700 40.43200 43.46500
C  44.26100 42.26900 40.85900
C  44.87100 42.94600 39.62400
H  45.19300 42.08600 38.47400
N  50.08900 44.12800 42.38200
C  50.01500 42.80500 42.17900
C  51.34300 42.35100 41.96500
C  52.21100 43.45800 42.02200
C  51.35100 44.61700 42.28400
C  51.64500 40.90300 41.51600
C  53.67000 43.44600 41.92700
O  54.29100 42.40800 41.64500
C  54.41600 44.71900 42.32400
N  49.47300 47.25900 42.43700
C  50.82600 47.19200 42.33000
C  51.38500 48.53700 41.99200
C  50.21700 49.52700 42.23300
C  49.02400 48.56600 42.45100
C  52.63500 48.92300 42.93100
C  50.01000 50.49100 40.98000
C  50.21000 52.00400 41.26800
N  46.67600 46.80100 42.59000
C  46.58800 48.19900 42.58300
C  45.20600 48.62000 42.76900
C  44.57500 47.42300 42.78200
C  45.49300 46.35000 42.71700
C  44.77000 49.99800 42.88200
C  43.25700 46.79000 42.88000
O  42.14400 47.32000 43.05100
C  43.39700 45.31200 42.71000
C  42.91700 44.66200 43.94500
O  43.41300 44.66300 45.03200
O  41.84600 43.81700 43.64400
C  41.24200 43.10600 44.79800
H  48.95400 40.96200 41.89400
H  52.59100 46.38600 41.97800
H  47.56800 50.07900 42.67200
H  44.25000 42.27700 43.00200
H  46.35200 40.89000 41.32300
H  46.83000 40.91200 44.27200
H  46.62300 39.45000 43.14300
H  45.29600 40.40700 43.94000
H  43.26100 42.69600 40.93700
H  44.11400 41.23800 40.53900
H  45.83500 43.37000 39.90900
H  44.27600 43.80600 39.31800
H  50.80100 40.24200 41.71400
H  52.47100 40.45100 42.06300
H  51.82400 40.77900 40.44800
H  53.97600 45.23800 43.17600
H  54.50900 45.33800 41.43200
H  55.42300 44.42200 42.61700
H  51.67800 48.49400 40.94300
H  50.34400 50.12800 43.13300
H  52.97500 48.04800 43.48500
H  52.40600 49.59800 43.75500
H  53.42200 49.48600 42.42900
H  48.98200 50.30400 40.67100
H  50.73700 50.17600 40.23100
H  50.43600 52.39500 42.26000
H  49.31800 52.51200 40.90100
H  51.00400 52.25400 40.56400
H  43.96200 50.24200 42.19200
H  45.59700 50.69900 42.77100
H  44.29500 50.12600 43.85400
H  42.89700 44.95300 41.81000
H  41.99300 42.57900 45.38600
H  40.35200 42.50300 44.61700
H  40.93000 43.85300 45.52800
Mg 10.67900 47.86800 25.37800
C  8.78500 47.91100 28.37600
C  13.16400 49.61500 27.03900
C  12.46100 47.56700 22.75000
C  7.68900 46.59000 23.75400
N  10.93300 48.58400 27.54000
C  10.08500 48.46900 28.59200
C  10.67900 49.05300 29.85700
C  11.85000 49.98900 29.26100
C  12.01100 49.34300 27.86300
C  11.35700 51.45500 29.09400
C  11.38200 47.97400 30.76200
C  11.16500 48.26200 32.27600
H  10.96700 47.07500 33.26500
N  12.58800 48.47100 24.93600
C  13.46300 49.19200 25.76700
C  14.76800 49.34300 25.12800
C  14.58100 48.78900 23.82100
C  13.16100 48.22400 23.79300
C  16.00500 49.84200 25.81100
C  15.70400 48.65500 22.68100
O  15.35100 48.39500 21.49400
C  17.13300 48.98900 22.91100
N  10.00000 47.39800 23.49800
C  11.08400 47.21800 22.60900
C  10.65500 46.62900 21.27500
C  9.14400 46.24900 21.57000
C  8.88500 46.71200 23.04200
C  10.72300 47.59100 20.00000
C  8.93600 44.68000 21.33700
C  9.82600 43.69900 22.15500
N  8.61100 47.43300 25.89100
C  7.59200 46.93100 25.10900
C  6.44300 46.74100 25.97400
C  6.83800 47.14800 27.31500
C  8.16000 47.57500 27.12600
C  5.06000 46.29000 25.50400
C  6.47800 47.32100 28.72800
O  5.38700 47.03400 29.25000
C  7.75300 47.72300 29.49100
C  8.06600 46.59200 30.38700
O  8.80000 45.63300 30.12500
O  7.42600 46.75000 31.59700
C  7.62200 45.81900 32.69700
H  13.75500 50.36500 27.56900
H  13.14300 47.41700 21.91100
H  6.94500 46.12500 23.10500
H  9.96500 49.68100 30.38900
H  12.83200 49.85800 29.71500
H  11.96200 52.09400 29.73700
H  10.28500 51.51400 29.27900
H  11.43000 51.81700 28.06800
H  12.46900 47.96500 30.69400
H  11.01600 46.96200 30.59000
H  10.27000 48.87200 32.40100
H  12.11600 48.63500 32.65600
H  16.84700 49.15900 25.69500
H  15.84900 50.04400 26.87100
H  16.19900 50.80600 25.34100
H  17.15400 49.83000 23.60500
H  17.56800 49.15400 21.92500
H  17.58500 48.13900 23.42200
H  11.31500 45.79000 21.05300
H  8.45300 46.89100 21.02400
H  11.10900 48.56700 20.29400
H  9.75600 47.86300 19.57900
H  11.36200 47.05300 19.30000
H  9.18000 44.48600 20.29200
H  7.92000 44.35500 21.55900
H  10.09400 44.24100 23.06200
H  10.64800 43.23400 21.61000
H  9.11800 42.91800 22.43200
H  5.11200 45.82200 24.52000
H  4.48400 47.21600 25.52300
H  4.59800 45.61900 26.22700
H  7.73200 48.63400 30.08900
H  7.24800 44.84800 32.37200
H  7.17300 46.19100 33.61800
H  8.68800 45.68900 32.88200

