158

Mg 36.14900 48.82100 24.69300
C  35.95100 47.31800 27.85300
C  35.53600 51.85700 26.19300
C  36.09300 50.15100 21.73300
C  36.77000 45.65300 23.41100
N  35.68300 49.43700 26.85700
C  35.76200 48.66900 27.97000
C  35.67300 49.52300 29.23500
C  35.37200 50.93300 28.62500
C  35.57700 50.74000 27.06600
C  33.90200 51.51900 29.01400
C  37.01700 49.34800 30.05000
C  36.82400 49.32400 31.62900
H  35.55400 49.82000 32.34900
N  35.84000 50.73000 24.04400
C  35.69600 51.84400 24.86700
C  35.79300 53.02800 24.06200
C  35.96800 52.59600 22.71000
C  36.04600 51.12200 22.75600
C  35.94200 54.45500 24.71900
C  36.07600 53.48500 21.41800
O  36.40300 52.95500 20.34500
C  35.79800 55.00700 21.46000
N  36.22100 48.03900 22.83700
C  36.07600 48.76400 21.77300
C  36.35700 48.01200 20.49000
C  37.00100 46.68600 20.99200
C  36.70700 46.77000 22.54100
C  35.12700 47.72000 19.49100
C  38.42000 46.27000 20.53900
C  38.94000 44.79000 20.65700
N  36.21500 46.87900 25.49200
C  36.49100 45.68800 24.76400
C  36.63400 44.59400 25.66800
C  36.34000 45.16100 26.90200
C  36.07700 46.53400 26.70000
C  37.08800 43.20000 25.32400
C  36.16500 44.87000 28.35800
O  36.12600 43.83000 28.98500
C  35.95500 46.25000 28.99300
C  34.80800 46.14100 29.84600
O  33.65400 46.40100 29.49300
O  35.15000 45.61300 31.01600
C  34.07400 44.93400 31.69000
H  35.36300 52.79100 26.73200
H  36.11000 50.55000 20.71700
H  36.95500 44.67100 22.97000
H  34.88400 49.17200 29.89900
H  36.15500 51.57100 29.03500
H  33.94600 52.40200 29.65200
H  33.42900 50.74100 29.61300
H  33.46000 51.68000 28.03100
H  37.56200 50.27800 29.88500
H  37.64700 48.53000 29.70100
H  37.69400 49.82300 32.05600
H  36.87800 48.26100 31.86100
H  36.67500 55.06700 24.19300
H  36.29900 54.44200 25.74900
H  34.95900 54.91900 24.78800
H  35.36100 55.13100 20.46900
H  36.74700 55.50200 21.66400
H  34.99400 55.26800 22.14900
H  37.19300 48.51300 20.00200
H  36.36900 45.85200 20.68800
H  34.15300 48.03500 19.86400
H  35.06200 46.64600 19.32200
H  35.29600 48.28600 18.57400
H  39.02500 47.00200 21.07400
H  38.59700 46.49800 19.48800
H  38.10900 44.08700 20.59500
H  39.40900 44.58300 21.61800
H  39.56100 44.66500 19.77000
H  37.75200 43.20600 24.46000
H  36.27000 42.52000 25.08200
H  37.81600 42.72700 25.98300
H  36.81000 46.32800 29.66500
H  33.49100 44.33600 30.98900
H  33.35500 45.64900 32.09200
H  34.41700 44.37500 32.56000
Mg -5.97600 25.71900 25.57900
C  -4.22700 27.01400 28.44200
C  -6.98300 23.14400 27.67800
C  -7.36400 24.21700 22.97300
C  -4.24700 27.91500 23.61900
N  -5.73600 25.26900 27.84300
C  -5.13700 26.01200 28.83400
C  -5.52000 25.50800 30.23800
C  -6.02800 24.11000 29.93500
C  -6.33200 24.16300 28.37900
C  -5.08300 22.90900 30.50400
C  -6.66400 26.48200 30.76100
C  -6.57900 26.73700 32.29900
H  -6.45700 25.45900 33.21900
N  -7.03000 23.91200 25.33100
C  -7.38300 23.01300 26.30200
C  -8.04000 21.89700 25.70800
C  -8.29700 22.20000 24.30800
C  -7.54400 23.50300 24.16000
C  -8.41600 20.70900 26.57300
C  -9.16600 21.46200 23.28900
O  -9.44900 22.02600 22.19000
C  -9.82600 20.11300 23.57900
N  -5.93000 26.05000 23.63100
C  -6.59200 25.30700 22.66300
C  -6.25700 25.75400 21.25500
C  -5.55900 27.12800 21.58800
C  -5.18500 26.97700 23.07500
C  -5.38600 24.83500 20.38200
C  -6.39900 28.38100 21.47000
C  -6.44600 29.01400 20.13100
N  -4.54900 27.17600 25.95900
C  -3.90900 27.99400 25.02800
C  -2.95400 28.81900 25.64900
C  -3.01700 28.40700 27.02600
C  -4.00500 27.45400 27.12200
C  -1.94900 29.76600 25.05700
C  -2.36400 28.69700 28.33200
O  -1.55800 29.53600 28.66000
C  -3.25300 27.83300 29.26500
C  -2.38400 27.04000 30.24100
O  -1.54800 26.20300 29.97200
O  -2.66500 27.31800 31.57500
C  -1.91400 26.61500 32.66200
H  -7.31600 22.35600 28.35700
H  -7.92800 23.85900 22.10900
H  -3.72400 28.61100 22.95900
H  -4.63000 25.51200 30.86800
H  -7.02700 23.94100 30.33700
H  -4.40600 22.69600 29.67700
H  -5.59300 22.01500 30.86400
H  -4.50700 23.35200 31.31700
H  -7.65700 26.06200 30.59900
H  -6.72600 27.48800 30.34600
H  -7.39000 27.42300 32.54400
H  -5.74800 27.40600 32.52100
H  -9.20100 20.11800 26.10200
H  -8.58300 20.93900 27.62500
H  -7.59200 19.99700 26.62300
H  -9.00200 19.42700 23.77600
H  -10.44500 19.83700 22.72600
H  -10.51800 20.24600 24.41100
H  -7.19800 25.96000 20.74600
H  -4.68000 27.25300 20.95500
H  -4.41800 25.31900 20.24900
H  -5.79700 24.58800 19.40300
H  -5.37700 23.94600 21.01300
H  -6.24400 29.09300 22.28100
H  -7.44400 28.07200 21.47600
H  -7.17200 28.38600 19.61300
H  -5.54500 28.87500 19.53400
H  -6.55100 30.09900 20.14500
H  -1.90500 30.58400 25.77600
H  -2.16800 30.11700 24.04800
H  -1.00000 29.23500 24.97600
H  -3.87400 28.53100 29.82600
H  -2.73100 26.57100 33.38200
H  -1.04700 27.05300 33.15600
H  -1.80100 25.56900 32.37600

