158

Mg 48.60400 35.51500 27.90500
C  46.58200 34.29200 30.49500
C  49.33000 38.19600 30.05700
C  50.11800 37.00000 25.36300
C  47.49800 33.02300 25.82500
N  48.15800 36.03400 30.06600
C  47.39200 35.31400 30.93200
C  47.40900 35.88000 32.41600
C  48.05500 37.30900 32.15600
C  48.58400 37.14900 30.73000
C  47.12100 38.61300 32.23300
C  48.14100 35.01600 33.55300
C  49.52800 35.37600 34.15400
H  49.60600 36.16300 35.49300
N  49.70700 37.30600 27.69400
C  49.77200 38.28000 28.70800
C  50.34400 39.52800 28.08000
C  50.46500 39.28200 26.71500
C  50.04400 37.82400 26.52500
C  50.55100 40.89000 28.84500
C  50.99700 40.14300 25.59200
O  50.97900 39.74200 24.40700
C  51.55200 41.47900 25.92400
N  48.90500 35.02400 25.98500
C  49.63600 35.70400 25.10300
C  49.78300 35.07400 23.72100
C  48.83100 33.85600 23.82100
C  48.28700 33.97500 25.28700
C  49.34300 35.93400 22.64400
C  49.41800 32.42700 23.51200
C  49.16400 32.05200 22.06300
N  47.36900 33.93500 28.06700
C  47.05600 33.00700 27.16000
C  46.05600 32.10700 27.69800
C  45.74300 32.68600 28.99400
C  46.63000 33.70300 29.20900
C  45.37000 31.03500 27.02300
C  44.98400 32.53800 30.19700
O  44.18200 31.71200 30.49500
C  45.48300 33.59900 31.25100
C  45.82600 32.87400 32.47300
O  46.66400 32.05000 32.52300
O  44.93400 33.21300 33.51300
C  45.47000 32.54100 34.77800
H  49.64700 39.06400 30.64000
H  50.53900 37.47200 24.47300
H  47.06100 32.33200 25.10100
H  46.37900 35.94200 32.76800
H  48.98200 37.42400 32.71800
H  47.22500 39.18200 31.30900
H  47.34400 39.17300 33.14100
H  46.06100 38.36100 32.25700
H  48.46800 34.02700 33.23100
H  47.40700 34.75300 34.31400
H  50.18100 35.88300 33.44400
H  50.10500 34.45700 34.26400
H  50.32800 41.68900 28.13800
H  51.62200 40.72700 28.96100
H  49.93700 40.95900 29.74300
H  50.74700 42.14100 26.24400
H  51.88500 41.90000 24.97600
H  52.28500 41.32600 26.71600
H  50.80300 34.73700 23.53900
H  47.91800 33.97800 23.23800
H  48.89900 36.81600 23.10500
H  48.72600 35.47200 21.87300
H  50.23200 36.38000 22.19800
H  48.98600 31.70200 24.20100
H  50.50500 32.44800 23.44000
H  49.03400 32.86900 21.35400
H  48.36700 31.32000 21.93100
H  50.03100 31.58800 21.59200
H  45.16500 30.20900 27.70500
H  45.90500 30.71800 26.12800
H  44.34800 31.31400 26.76400
H  44.68700 34.28900 31.53100
H  45.56600 31.45500 34.77600
H  44.83200 32.90100 35.58500
H  46.47300 32.89700 35.01500
Mg 30.13600 57.63600 40.90300
C  27.13800 56.14400 39.91200
C  31.83200 55.14000 39.26300
C  32.71500 59.67000 40.63700
C  28.20700 60.26200 42.16100
N  29.61400 55.87500 39.70000
C  28.26300 55.47600 39.36800
C  28.31100 54.26400 38.44600
C  29.83700 53.76300 38.61000
C  30.48600 54.96300 39.23100
C  30.09300 52.62000 39.59100
C  27.88200 54.68900 37.00800
C  26.70500 53.84700 36.51400
H  26.48600 53.88900 35.00300
N  32.02100 57.38400 40.09700
C  32.61600 56.24700 39.57300
C  33.99700 56.41800 39.55900
C  34.27700 57.79300 39.97900
C  32.95900 58.34300 40.33500
C  34.93200 55.45700 38.99200
C  35.66000 58.40200 39.87600
O  36.59700 57.71700 39.59300
C  35.93900 59.91100 40.12100
N  30.39500 59.76300 41.17600
C  31.52700 60.38300 41.00200
C  31.45900 61.89900 41.42600
C  30.16900 61.95400 42.22800
C  29.51600 60.61500 41.79900
C  32.63300 62.42600 42.22500
C  29.29800 63.17300 41.71000
C  28.31700 63.77900 42.66900
N  28.08100 58.10300 41.21600
C  27.43700 59.15900 41.83100
C  26.02300 58.98100 41.77600
C  25.87200 57.78400 41.08200
C  27.15400 57.32100 40.71400
C  24.98000 59.87100 42.37800
C  24.87800 56.81300 40.60300
O  23.69700 56.78300 40.87400
C  25.72500 55.67900 39.80800
C  25.34000 54.37100 40.34800
O  25.82800 53.81700 41.32300
O  24.39200 53.81500 39.52900
C  23.94800 52.47800 39.90000
H  32.36200 54.26400 38.88300
H  33.57200 60.32200 40.46100
H  27.68400 61.03100 42.73300
H  27.63600 53.47800 38.78600
H  30.25700 53.63700 37.61200
H  30.63400 51.84200 39.05200
H  29.24800 52.03100 39.94600
H  30.75500 52.83400 40.43000
H  28.71500 54.42100 36.35800
H  27.69200 55.75800 36.91400
H  25.86000 54.28700 37.04300
H  26.98500 52.82200 36.75900
H  35.49000 55.77500 38.11100
H  34.46300 54.48800 38.82000
H  35.69300 55.29600 39.75600
H  35.55700 60.24400 41.08600
H  35.34200 60.41000 39.35800
H  36.94300 60.30800 39.97200
H  31.33200 62.50600 40.53000
H  30.09300 61.88400 43.31300
H  33.47900 61.78300 41.98500
H  32.36200 62.55100 43.27300
H  32.83100 63.37100 41.71900
H  28.71900 62.89700 40.82800
H  30.01200 63.93400 41.39800
H  28.46200 63.49700 43.71200
H  27.30800 63.60300 42.29700
H  28.45900 64.85900 42.65700
H  24.90800 60.86900 41.94500
H  25.24900 59.93700 43.43200
H  24.03000 59.39800 42.13100
H  25.45800 55.42400 38.78200
H  24.34800 51.78900 39.15500
H  22.85900 52.51700 39.90100
H  24.15000 52.07300 40.89200

