158

Mg 47.25100 25.48000 27.84100
C  47.98100 27.62900 30.32900
C  46.73100 23.12900 30.34600
C  46.43600 23.13700 25.45700
C  48.45200 27.58500 25.46300
N  47.01000 25.52700 30.16800
C  47.30000 26.58800 30.91800
C  47.19800 26.20200 32.46400
C  46.98000 24.62700 32.46800
C  46.84600 24.40700 30.90900
C  48.21400 23.77000 32.96200
C  46.24300 27.08300 33.26000
C  46.04400 26.38600 34.73700
H  46.23600 27.33600 35.87200
N  46.51000 23.41900 27.91300
C  46.43500 22.66500 29.03100
C  45.89800 21.34100 28.63100
C  45.59800 21.46000 27.22400
C  46.15500 22.73500 26.81300
C  45.67800 20.19500 29.64800
C  44.93700 20.46600 26.32000
O  44.73200 20.77000 25.15000
C  44.72500 19.03000 26.75200
N  47.46700 25.36000 25.72800
C  47.11600 24.29000 24.98600
C  47.34600 24.56800 23.51400
C  47.94300 26.03300 23.52900
C  47.87500 26.39000 24.98300
C  48.18400 23.55600 22.76800
C  47.10500 27.08800 22.67400
C  47.73600 27.61300 21.38000
N  48.15800 27.20200 27.81500
C  48.53300 28.00500 26.77400
C  49.16300 29.20400 27.27600
C  49.02400 29.06100 28.69900
C  48.37400 27.82700 28.97600
C  49.84500 30.18200 26.36000
C  49.26400 29.67500 29.96800
O  49.78000 30.69300 30.30700
C  48.48300 28.87200 31.07600
C  49.39200 28.59200 32.31100
O  50.43500 27.86300 32.16600
O  48.90600 29.34100 33.39900
C  49.60700 29.29100 34.70200
H  46.80700 22.30400 31.05800
H  46.21900 22.37800 24.70200
H  48.92300 28.15700 24.66100
H  48.13900 26.37000 32.98800
H  46.07900 24.31900 32.99900
H  48.05500 22.73800 33.27600
H  48.70000 24.32800 33.76300
H  49.00100 23.68100 32.21300
H  45.30700 27.02200 32.70400
H  46.57500 28.12000 33.21100
H  46.84800 25.65900 34.85500
H  45.03700 25.97100 34.77200
H  46.03400 19.24400 29.25300
H  44.61800 20.00500 29.81500
H  46.17100 20.28800 30.61500
H  44.23200 18.96400 27.72200
H  45.66800 18.48600 26.81000
H  44.06200 18.56100 26.02500
H  46.38700 24.51300 22.99900
H  48.98600 26.18800 23.25300
H  48.71900 22.81900 23.36700
H  48.95100 24.04700 22.16800
H  47.54100 22.98300 22.10000
H  46.78300 27.84900 23.38500
H  46.19300 26.62600 22.29700
H  47.26500 27.02700 20.59100
H  48.74700 27.20600 21.39000
H  47.57000 28.68000 21.23100
H  49.83500 29.99000 25.28700
H  50.90000 30.14900 26.63300
H  49.58200 31.22900 26.51300
H  47.66800 29.52600 31.38700
H  49.26200 30.07100 35.38000
H  50.69300 29.28800 34.61400
H  49.24000 28.33200 35.06900
Mg 1.04700 43.51600 25.91600
C  2.57300 43.78500 29.06800
C  -1.71500 42.08200 27.32700
C  0.05000 42.84400 22.85400
C  4.13200 44.68600 24.49300
N  0.49300 43.02200 28.00200
C  1.26600 43.26600 29.11400
C  0.46100 42.77600 30.39700
C  -0.82300 42.26000 29.74400
C  -0.69200 42.44200 28.29500
C  -1.11000 40.78100 30.09500
C  0.26000 43.95600 31.47900
C  -0.73600 43.74100 32.70800
H  -1.00900 42.36000 33.20500
N  -0.63900 42.71300 25.21400
C  -1.66200 42.16900 25.90400
C  -2.66000 41.62300 25.01700
C  -2.22300 41.94300 23.73000
C  -0.91900 42.57600 23.89100
C  -3.89200 41.02900 25.48700
C  -2.88400 41.53600 22.36000
O  -2.28200 41.66100 21.32000
C  -4.19800 40.83600 22.37100
N  2.03100 43.73700 23.96300
C  1.40400 43.27800 22.87200
C  2.08500 43.79900 21.60100
C  3.32000 44.58300 22.04600
C  3.14700 44.39000 23.60800
C  2.33100 42.65000 20.61500
C  3.40400 46.06600 21.52900
C  2.10400 46.92800 21.75100
N  2.97900 44.00700 26.60100
C  4.10000 44.42400 25.88100
C  5.25500 44.48500 26.79700
C  4.73100 44.29000 28.13100
C  3.30000 44.01800 27.92300
C  6.70700 44.72100 26.40400
C  4.95500 44.20600 29.51400
O  5.99200 44.47900 30.16400
C  3.61100 43.87900 30.14500
C  3.74000 42.71400 30.96000
O  3.90800 41.62700 30.48100
O  3.63200 42.90600 32.29100
C  3.43400 41.70400 33.07700
H  -2.59000 41.53400 27.68300
H  -0.26700 42.46000 21.88200
H  4.91400 45.31500 24.06200
H  1.14900 41.98800 30.70300
H  -1.68200 42.81300 30.12500
H  -2.07300 40.64400 30.58800
H  -0.32200 40.42500 30.75800
H  -1.06800 40.21700 29.16300
H  -0.08700 44.80000 30.88200
H  1.21100 44.29600 31.88900
H  -1.67300 44.28900 32.60900
H  -0.32200 44.17300 33.61900
H  -4.15700 41.30700 26.50700
H  -3.84000 39.94300 25.41900
H  -4.78200 41.30000 24.92000
H  -4.96200 41.56200 22.65000
H  -4.18900 39.95700 23.01500
H  -4.57600 40.36700 21.46200
H  1.34400 44.41100 21.08700
H  4.21300 44.07700 21.67900
H  2.27800 41.64400 21.03000
H  3.22900 42.91300 20.05500
H  1.58200 42.70500 19.82600
H  3.47400 46.04000 20.44100
H  4.21900 46.59400 22.02500
H  1.45200 46.30400 22.36300
H  1.51200 47.04900 20.84400
H  2.25900 47.90000 22.22100
H  7.27200 44.16000 27.14900
H  6.93400 45.78400 26.47400
H  6.87700 44.39700 25.37600
H  3.34700 44.65600 30.86300
H  4.31800 41.29200 33.56300
H  2.99000 40.93200 32.44800
H  2.62900 41.92900 33.77600

