158

Mg 43.97500 3.99800 47.17300
C  41.93100 6.72500 46.71800
C  41.37300 1.84400 46.57500
C  46.16200 1.31800 47.21200
C  46.69500 6.22500 47.17100
N  41.96600 4.26500 46.76400
C  41.28300 5.46600 46.59500
C  39.82800 5.28600 46.17900
C  39.66200 3.72200 46.55000
C  41.09500 3.23200 46.64900
C  38.76900 3.52000 47.77800
C  39.59800 5.56900 44.66400
C  38.37800 6.45400 44.34600
H  37.67900 6.19800 43.03700
N  43.82100 1.88600 47.03400
C  42.64400 1.18700 46.82400
C  42.85000 -0.22600 46.90500
C  44.28200 -0.37500 46.90400
C  44.87200 0.96700 47.07300
C  41.71200 -1.25900 46.82000
C  45.03400 -1.70900 46.71500
O  44.33000 -2.77800 46.65800
C  46.40800 -1.82000 46.33600
N  46.18000 3.82200 47.25300
C  46.81100 2.60700 47.31100
C  48.31700 2.81000 47.41000
C  48.42600 4.30200 47.67700
C  47.04100 4.86300 47.22200
C  48.93400 1.90000 48.55500
C  49.75600 4.88600 47.08800
C  50.77100 5.52600 48.04600
N  44.31100 6.02400 46.95000
C  45.45500 6.79800 46.92200
C  45.12300 8.21300 46.91400
C  43.71100 8.26400 46.87900
C  43.30800 6.93100 46.83300
C  46.05300 9.42000 46.90200
C  42.56600 9.07500 46.69500
O  42.53000 10.29600 46.64500
C  41.31400 8.16900 46.68000
C  40.44500 8.53900 47.79700
O  40.48600 8.00800 48.87000
O  39.53800 9.47400 47.55500
C  38.52500 9.81700 48.57500
H  40.50600 1.19900 46.41500
H  46.93900 0.55200 47.24400
H  47.51600 6.94400 47.12400
H  39.32200 5.97500 46.85400
H  39.26400 3.10000 45.74800
H  38.13800 4.38400 47.98900
H  39.34000 3.26100 48.66900
H  38.04500 2.75300 47.50100
H  39.40100 4.56600 44.28600
H  40.45500 5.98000 44.13000
H  38.54500 7.52600 44.45200
H  37.67700 6.30600 45.16700
H  41.90400 -1.80300 45.89500
H  40.69900 -0.86300 46.74500
H  41.73100 -1.93100 47.67800
H  47.16100 -1.84800 47.12400
H  46.76000 -1.16200 45.54200
H  46.49800 -2.81300 45.89600
H  48.77300 2.49800 46.47100
H  48.56000 4.43000 48.75100
H  48.24300 1.38100 49.21900
H  49.58800 2.44200 49.23900
H  49.54100 1.10600 48.12100
H  49.51600 5.65400 46.35300
H  50.24700 4.15900 46.44200
H  51.15600 6.43200 47.57800
H  51.63000 4.94800 48.38900
H  50.30900 5.65800 49.02400
H  46.75700 9.47600 46.07200
H  46.53200 9.30900 47.87400
H  45.39900 10.28100 46.76800
H  40.86500 8.23800 45.68900
H  38.86300 10.33900 49.46900
H  37.96800 8.97100 48.97600
H  37.78600 10.38600 48.01000
Mg 9.12800 48.17400 26.75500
C  6.89200 47.87400 29.48000
C  11.44500 49.22800 28.90900
C  11.05900 48.57700 24.17300
C  6.26400 47.89400 24.56700
N  8.99700 48.83500 28.98500
C  8.12000 48.33000 29.87100
C  8.60200 48.67600 31.32800
C  10.10000 49.04200 31.09900
C  10.18500 49.01500 29.57300
C  10.61100 50.38600 31.71200
C  8.23700 47.57600 32.40200
C  8.93800 47.72900 33.78900
H  8.65500 46.69800 34.92200
N  11.06500 48.69900 26.57500
C  11.84900 49.09600 27.57900
C  13.14300 49.42300 27.02800
C  13.06500 49.16000 25.63200
C  11.71100 48.72300 25.41300
C  14.34400 50.07600 27.81400
C  14.22500 49.19100 24.63600
O  14.12100 48.97900 23.49900
C  15.61000 49.58800 25.19600
N  8.66200 48.12600 24.61500
C  9.71900 48.33900 23.78800
C  9.26800 48.24100 22.29300
C  7.76100 47.86600 22.32700
C  7.51600 47.96200 23.88500
C  9.61900 49.45900 21.31500
C  7.38800 46.40600 21.85900
C  6.70100 46.26700 20.48400
N  7.03600 47.87500 26.91800
C  6.08000 47.76600 25.92600
C  4.85700 47.47800 26.60200
C  5.08500 47.47700 27.92000
C  6.45100 47.75600 28.12700
C  3.57900 47.15000 25.92600
C  4.49700 47.38300 29.21000
O  3.32600 47.29700 29.58700
C  5.63000 47.40300 30.26000
C  5.73200 46.09700 30.87500
O  6.53800 45.23200 30.49600
O  4.97400 46.07300 32.03700
C  5.29200 44.86200 32.93400
H  12.24200 49.30300 29.65200
H  11.74900 48.81400 23.36100
H  5.48800 47.77800 23.80800
H  8.17800 49.64900 31.57800
H  10.73500 48.23600 31.46700
H  10.93200 51.17900 31.03700
H  11.44600 49.99600 32.29500
H  9.95800 50.83100 32.46300
H  8.41100 46.59600 31.95600
H  7.18900 47.79400 32.60800
H  8.62700 48.66700 34.25000
H  10.01100 47.57800 33.66900
H  15.26500 49.51700 27.65000
H  14.09600 50.29000 28.85400
H  14.42000 51.05000 27.33200
H  16.10900 48.94700 25.92200
H  15.60800 50.66600 25.35900
H  16.21700 49.43500 24.30400
H  9.75200 47.33100 21.93800
H  7.04800 48.52300 21.82900
H  8.74600 49.87400 20.81000
H  10.39700 49.17500 20.60700
H  10.01400 50.30700 21.87300
H  6.65100 46.02700 22.56800
H  8.25700 45.74900 21.84600
H  7.22100 45.70000 19.71200
H  6.41100 47.15900 19.92800
H  5.84900 45.63200 20.72900
H  2.92100 47.98900 26.15000
H  3.14500 46.33500 26.50500
H  3.57800 46.89200 24.86700
H  5.49700 48.11100 31.07900
H  5.61500 45.31900 33.87000
H  6.13600 44.22600 32.66800
H  4.37300 44.33700 33.19200

