158

Mg 17.30500 -1.67200 27.27100
C  16.05400 0.24400 29.89700
C  19.08600 -3.50800 29.47700
C  19.02900 -2.90600 24.63800
C  15.59600 0.57800 25.02300
N  17.77400 -1.41700 29.35300
C  17.01600 -0.69200 30.25600
C  17.38700 -1.02100 31.69500
C  18.66400 -1.91300 31.52300
C  18.48100 -2.34500 30.03900
C  20.02700 -1.20100 31.84600
C  16.14700 -1.72900 32.39500
C  15.77600 -1.29200 33.84500
H  16.91700 -0.70200 34.66200
N  18.64500 -3.21800 27.03800
C  19.19500 -3.93200 28.10000
C  19.91900 -5.04700 27.56000
C  19.82500 -4.91300 26.11800
C  19.18200 -3.61000 25.86100
C  20.60300 -6.11300 28.33300
C  20.43100 -5.73600 25.01600
O  20.40700 -5.35200 23.82900
C  21.04800 -7.09100 25.35000
N  17.42500 -1.09200 25.19800
C  18.28100 -1.75500 24.42000
C  18.02000 -1.43700 22.97100
C  16.81700 -0.45000 22.98200
C  16.55600 -0.31600 24.46000
C  19.27700 -0.97200 22.23800
C  15.62900 -0.99800 22.16800
C  15.05800 -0.04700 21.00300
N  16.00400 0.02700 27.41600
C  15.33700 0.72600 26.44300
C  14.44600 1.67000 27.04100
C  14.75900 1.61500 28.39500
C  15.66200 0.57900 28.58900
C  13.61900 2.64100 26.29600
C  14.36600 2.13100 29.66300
O  13.53700 2.90200 30.06000
C  15.26400 1.30400 30.75200
C  16.13400 2.31300 31.49100
O  17.26000 2.68800 31.18500
O  15.50300 2.48900 32.73000
C  16.28400 3.39900 33.63100
H  19.65800 -4.08700 30.20600
H  19.51400 -3.31000 23.74600
H  14.99700 1.23600 24.38900
H  17.62600 -0.04800 32.12500
H  18.61600 -2.83500 32.10400
H  19.93500 -0.17300 32.19800
H  20.52900 -1.17600 30.87900
H  20.65700 -1.82400 32.48100
H  16.31900 -2.80400 32.44700
H  15.26400 -1.69300 31.75700
H  15.35200 -2.18800 34.29800
H  15.07200 -0.46200 33.78500
H  20.25800 -6.05600 29.36500
H  21.69100 -6.15900 28.38800
H  20.26400 -7.09800 28.01100
H  21.83700 -6.98400 26.09500
H  21.55200 -7.45000 24.45200
H  20.32700 -7.85000 25.65300
H  17.54600 -2.32900 22.56100
H  17.09000 0.52900 22.58800
H  19.95300 -0.41900 22.89100
H  18.94400 -0.35600 21.40300
H  19.87700 -1.81000 21.88400
H  14.82800 -1.20300 22.87900
H  15.80000 -1.93600 21.63900
H  14.02700 0.28700 21.11600
H  15.03000 -0.58900 20.05700
H  15.73300 0.74200 20.67100
H  13.06800 2.12000 25.51300
H  14.23500 3.30900 25.69400
H  12.95900 3.15800 26.99400
H  14.64600 0.83700 31.51800
H  17.35400 3.28900 33.45200
H  16.11800 3.07900 34.66000
H  15.99300 4.41400 33.35900
Mg 34.99700 2.10700 29.98200
C  32.99200 3.26400 32.42000
C  37.72200 2.29200 32.24900
C  37.08900 1.31300 27.40200
C  32.47300 2.61600 27.66800
N  35.34900 2.72600 32.07400
C  34.31600 3.04900 32.86400
C  34.78900 3.25400 34.27100
C  36.37400 3.47300 34.18100
C  36.52800 2.82500 32.76800
C  36.91600 4.92700 34.11500
C  34.32200 1.97400 34.94900
C  34.53800 1.93900 36.53000
H  35.28400 3.11200 37.16900
N  37.04500 1.67700 29.92100
C  37.94100 1.78800 30.93300
C  39.28900 1.50700 30.44400
C  39.14400 1.21800 29.02400
C  37.68700 1.39300 28.72800
C  40.52800 1.51900 31.23500
C  40.26200 0.90800 27.92600
O  40.03700 0.79100 26.72300
C  41.77400 0.52200 28.30300
N  34.70700 1.73200 27.89100
C  35.71000 1.40500 27.03700
C  35.24600 1.38700 25.54000
C  33.67700 1.66100 25.68000
C  33.58900 1.95300 27.19900
C  35.94800 2.48900 24.63700
C  32.84700 0.44300 25.25900
C  32.36000 0.29700 23.75800
N  33.06700 2.86500 29.99400
C  32.14700 3.05400 28.95800
C  30.85000 3.39700 29.53200
C  31.15900 3.56300 30.97600
C  32.50300 3.20100 31.16400
C  29.57900 3.59400 28.83800
C  30.62000 3.89200 32.26900
O  29.50400 4.28200 32.66200
C  31.80800 3.75900 33.26300
C  32.04000 5.01800 34.01800
O  32.57600 6.06300 33.61500
O  31.51000 4.84800 35.26800
C  31.61000 6.09000 36.11000
H  38.52900 2.48100 32.96100
H  37.80000 1.34800 26.57400
H  31.62300 2.82900 27.01700
H  34.39500 4.19600 34.65300
H  36.73900 2.94600 35.06300
H  37.57400 5.17200 34.94900
H  36.05100 5.57100 34.27700
H  37.36200 5.12400 33.14000
H  34.97400 1.16100 34.63000
H  33.30800 1.65500 34.70900
H  34.88000 0.92500 36.74000
H  33.62900 2.04500 37.12100
H  40.41200 0.61700 31.83500
H  40.55700 2.39900 31.87800
H  41.37600 1.53200 30.54900
H  42.32900 1.42800 28.54400
H  42.16700 0.05300 27.40200
H  41.85900 -0.19900 29.11700
H  35.53900 0.41000 25.15600
H  33.43300 2.50700 25.03700
H  36.63900 3.12700 25.18800
H  35.27300 3.13100 24.07100
H  36.55200 1.94200 23.91300
H  31.89000 0.37800 25.77700
H  33.40000 -0.48100 25.42600
H  32.61400 -0.70300 23.40800
H  32.87800 1.04200 23.15400
H  31.27800 0.41100 23.70400
H  29.51100 3.08400 27.87700
H  29.51700 4.65000 28.57700
H  28.78500 3.35500 29.54500
H  31.55600 3.01300 34.01600
H  30.78800 6.00600 36.82000
H  31.31000 6.96900 35.54000
H  32.58900 6.29400 36.54400

