158

Mg 47.21300 35.55700 26.69900
C  45.61900 33.94000 29.37100
C  47.78000 38.25500 28.72400
C  48.11500 37.27100 23.93500
C  46.10000 32.89100 24.62700
N  46.72400 36.01100 28.73000
C  46.21100 35.18300 29.65100
C  46.53000 35.75900 31.05100
C  46.73800 37.24200 30.81400
C  47.15600 37.15600 29.36000
C  45.49400 38.14500 31.11300
C  47.69200 34.99800 31.68500
C  48.01600 35.00200 33.24300
H  47.05600 35.89100 34.06300
N  47.97100 37.48800 26.31900
C  48.10800 38.50000 27.29500
C  48.60800 39.67000 26.71000
C  48.85000 39.37100 25.29400
C  48.30100 37.99800 25.10100
C  48.84400 40.90800 27.48000
C  49.37500 40.24500 24.22000
O  49.41000 39.87100 23.04000
C  49.91500 41.64800 24.51400
N  47.11000 35.07300 24.57300
C  47.52400 35.97000 23.64300
C  47.48700 35.47300 22.25200
C  47.23700 33.94800 22.50600
C  46.78300 33.93700 23.97900
C  46.54600 36.18100 21.24800
C  48.50200 33.11400 22.33900
C  48.61600 32.08800 21.15200
N  46.13000 33.80200 26.86200
C  45.81600 32.79500 25.99100
C  45.17000 31.70100 26.63300
C  45.00600 32.09900 28.03000
C  45.63800 33.38400 28.06800
C  44.53600 30.46600 26.04300
C  44.42200 31.78900 29.28600
O  43.81200 30.80100 29.66400
C  44.69700 32.99000 30.20400
C  45.09700 32.53800 31.53200
O  46.09700 31.86600 31.84600
O  44.20000 33.02300 32.42500
C  44.59400 32.83200 33.82500
H  47.96800 39.18400 29.26800
H  48.44700 37.71600 22.99400
H  45.83900 32.03200 24.00600
H  45.67400 35.61800 31.71000
H  47.54100 37.64100 31.43400
H  45.73900 38.97200 31.77900
H  44.65000 37.56300 31.48200
H  45.19500 38.59300 30.16500
H  48.58900 35.23900 31.11500
H  47.60900 33.94800 31.40500
H  49.02300 35.38900 33.40300
H  47.90500 33.96700 33.56800
H  49.72900 41.38300 27.05800
H  48.96200 40.72800 28.54800
H  48.04600 41.59700 27.20000
H  50.19600 42.12400 23.57500
H  50.73300 41.90600 25.18700
H  49.09000 42.25700 24.88300
H  48.45500 35.57200 21.76100
H  46.46400 33.51200 21.87300
H  45.84000 35.48500 20.79600
H  47.19100 36.66500 20.51500
H  45.95200 36.95500 21.73500
H  48.51600 32.49900 23.23900
H  49.40500 33.72400 22.35300
H  48.53400 31.07500 21.54600
H  49.54500 32.07600 20.58200
H  47.83000 32.25300 20.41600
H  45.25200 29.65600 26.18000
H  44.39900 30.65500 24.97800
H  43.52600 30.23900 26.38300
H  43.74400 33.49800 30.34900
H  43.86000 33.44400 34.35000
H  45.59700 33.23300 33.96900
H  44.40300 31.81500 34.16700
Mg -11.39500 38.89600 42.09200
C  -9.55300 36.16500 40.91900
C  -9.46400 40.93200 40.07200
C  -13.72000 41.28700 42.41300
C  -13.73500 36.53400 43.38700
N  -9.74200 38.56400 40.50300
C  -9.12200 37.35500 40.29300
C  -7.99200 37.56800 39.33000
C  -7.89600 39.13800 39.21300
C  -9.05200 39.56700 40.01900
C  -6.55600 39.71300 39.63800
C  -8.38100 36.94400 37.91600
C  -7.37100 36.00700 37.27700
H  -6.52400 36.70300 36.19100
N  -11.47100 40.86000 41.46600
C  -10.54400 41.55300 40.73200
C  -11.01900 42.95900 40.67400
C  -12.23800 43.09600 41.44500
C  -12.52400 41.68800 41.83100
C  -10.10700 43.97700 40.06500
C  -13.04600 44.34600 41.66400
O  -12.57000 45.38100 41.16700
C  -14.22800 44.49500 42.57900
N  -13.42800 38.95800 42.99100
C  -14.20900 40.08900 42.94400
C  -15.62300 39.80400 43.34700
C  -15.64000 38.23600 43.71700
C  -14.17600 37.88000 43.38100
C  -15.91400 40.71300 44.56000
C  -16.73100 37.43900 42.91400
C  -17.65700 36.62200 43.84200
N  -11.53600 36.84400 42.28000
C  -12.52500 36.04200 42.87500
C  -11.98400 34.69800 43.03600
C  -10.77500 34.71600 42.28700
C  -10.63900 35.98000 41.77700
C  -12.72300 33.57400 43.78800
C  -9.72100 33.90500 41.78600
O  -9.39800 32.76000 41.98300
C  -8.81600 34.80700 40.88500
C  -7.47300 34.82700 41.41800
O  -6.55800 34.03800 41.15000
O  -7.18400 35.91900 42.15700
C  -5.85900 35.82300 42.79800
H  -8.94800 41.65800 39.44100
H  -14.55200 41.99500 42.42900
H  -14.41700 35.78700 43.79800
H  -7.04300 37.12900 39.63800
H  -8.07000 39.51700 38.20500
H  -6.37100 40.56700 38.98700
H  -5.72600 39.05000 39.39700
H  -6.52300 39.89900 40.71200
H  -8.74300 37.70600 37.22700
H  -9.29700 36.37600 38.07900
H  -7.93600 35.23100 36.76200
H  -6.81700 35.48300 38.05600
H  -10.65700 44.62100 39.38000
H  -9.27300 43.55600 39.50500
H  -9.75700 44.46900 40.97300
H  -14.14800 45.51200 42.96400
H  -14.14100 43.94400 43.51500
H  -15.16800 44.31000 42.05900
H  -16.25900 40.12000 42.52100
H  -15.71100 38.12700 44.79900
H  -15.01600 40.79500 45.17100
H  -16.67000 40.25900 45.20100
H  -16.40400 41.65000 44.29500
H  -16.23500 36.85200 42.14100
H  -17.40800 38.13200 42.41600
H  -17.47300 35.58800 43.54900
H  -18.67500 36.91200 43.58600
H  -17.68400 36.70200 44.92900
H  -12.26500 32.58800 43.72300
H  -13.72600 33.51200 43.36600
H  -12.77300 33.87200 44.83500
H  -8.82800 34.48600 39.84400
H  -5.86300 36.37900 43.73500
H  -5.13700 36.36100 42.18300
H  -5.40200 34.86900 43.06200

