158

Mg 23.22600 -6.35200 45.84600
C  25.43300 -3.92600 44.85200
C  20.88800 -5.06700 43.66700
C  21.21700 -9.10800 46.34800
C  25.89400 -8.09500 47.29800
N  23.12800 -4.66600 44.54000
C  24.16300 -3.78600 44.33000
C  23.73700 -2.71100 43.33400
C  22.17600 -2.89700 43.24800
C  22.08000 -4.26800 43.81800
C  21.36600 -1.83800 44.02400
C  24.51800 -2.62400 41.97500
C  25.11700 -1.13400 41.59600
H  24.59200 -0.41000 40.40600
N  21.18800 -6.96600 45.21600
C  20.43800 -6.34900 44.23200
C  19.17400 -7.09900 44.03800
C  19.24600 -8.32100 44.78100
C  20.57900 -8.19400 45.49900
C  18.18100 -6.51400 43.07300
C  18.15200 -9.33200 44.86400
O  17.19700 -9.26400 44.07200
C  18.19800 -10.49600 45.83400
N  23.52700 -8.33500 46.75700
C  22.49300 -9.19800 46.92900
C  22.91700 -10.43300 47.64300
C  24.43600 -10.05600 47.95900
C  24.64700 -8.73800 47.35900
C  22.00600 -10.74800 48.85400
C  25.50400 -11.06700 47.60400
C  26.55300 -11.27800 48.63200
N  25.25500 -6.11300 46.15300
C  26.23800 -6.90900 46.69000
C  27.49200 -6.14300 46.74100
C  27.22700 -4.98000 46.03100
C  25.86300 -4.96800 45.70100
C  28.80600 -6.64900 47.42700
C  27.78000 -3.78600 45.48600
O  28.91100 -3.28200 45.59200
C  26.65700 -3.05200 44.75100
C  26.51000 -1.76200 45.46800
O  25.88400 -1.64800 46.52400
O  27.16900 -0.67200 44.88700
C  26.97700 0.53000 45.62500
H  20.11300 -4.55500 43.09100
H  20.64100 -9.95000 46.73800
H  26.72500 -8.61800 47.77700
H  23.92800 -1.82500 43.93900
H  21.72600 -3.00300 42.26100
H  20.38400 -2.22700 44.29200
H  21.24600 -1.07600 43.25300
H  21.92200 -1.42900 44.86800
H  23.81500 -2.79200 41.16000
H  25.24000 -3.42600 41.81700
H  26.18800 -1.29500 41.46900
H  24.99900 -0.44000 42.42800
H  18.24300 -7.07000 42.13700
H  18.38200 -5.50300 42.71700
H  17.16800 -6.66500 43.44400
H  17.28200 -11.07000 45.97200
H  18.50200 -10.21900 46.84400
H  19.02700 -11.14000 45.54300
H  22.87600 -11.20700 46.87700
H  24.44900 -9.82300 49.02300
H  21.14200 -10.08700 48.92700
H  22.60100 -10.85800 49.76100
H  21.60800 -11.75100 48.69900
H  26.02900 -10.72200 46.71300
H  25.16200 -12.05600 47.29700
H  27.53100 -10.87000 48.37800
H  26.66400 -12.34800 48.81100
H  26.21200 -10.80800 49.55400
H  28.98700 -7.70300 47.21300
H  28.67200 -6.55200 48.50500
H  29.55600 -6.00300 46.97000
H  27.00900 -2.81000 43.74800
H  27.59600 1.27300 45.12200
H  27.41500 0.50200 46.62200
H  25.92600 0.78500 45.48400
Mg 10.69800 46.76900 25.61000
C  8.60800 47.27800 28.35400
C  13.20900 48.42900 27.30700
C  12.71600 46.21200 22.97300
C  7.92000 45.65400 23.78500
N  10.92900 47.56200 27.70400
C  9.95600 47.67900 28.71100
C  10.56100 48.18000 29.97800
C  11.81400 48.98800 29.42000
C  12.00700 48.27500 28.08200
C  11.77500 50.52900 29.49700
C  10.85800 46.98700 30.87200
C  10.42000 47.15500 32.33100
H  10.32500 45.98500 33.19600
N  12.79600 47.16900 25.23500
C  13.62300 47.84700 26.06000
C  14.95000 47.84800 25.45200
C  14.82000 47.28700 24.15400
C  13.44100 46.85100 24.06500
C  16.16500 48.44900 26.27300
C  15.89600 47.15100 23.13900
O  15.76600 46.49800 22.14000
C  17.19300 47.65300 23.38300
N  10.27100 46.24500 23.60600
C  11.35600 45.99300 22.76500
C  10.79300 45.49200 21.36900
C  9.31500 45.15900 21.70400
C  9.13000 45.67900 23.11300
C  10.96600 46.54900 20.24900
C  9.02200 43.61500 21.54600
C  9.43400 42.60300 22.68100
N  8.75800 46.42300 25.97400
C  7.73200 45.97900 25.11800
C  6.48400 46.01800 25.82000
C  6.84000 46.39700 27.14500
C  8.17500 46.73700 27.11200
C  5.13400 45.68100 25.34700
C  6.24800 46.62900 28.45500
O  5.09800 46.47400 28.89300
C  7.51200 47.04500 29.35200
C  7.76700 45.87400 30.15200
O  8.31700 44.82900 29.83800
O  7.14700 46.04100 31.41700
C  7.29000 44.92500 32.38300
H  14.07600 48.98600 27.66700
H  13.25400 45.89400 22.07800
H  7.03800 45.42900 23.18100
H  9.94900 48.89600 30.52800
H  12.67000 48.73800 30.04700
H  10.75300 50.83700 29.71800
H  12.06800 50.95000 28.53500
H  12.48800 50.79600 30.27700
H  11.94700 46.99100 30.92700
H  10.54500 45.98700 30.57000
H  9.41700 47.58200 32.31500
H  11.10700 47.80000 32.87900
H  15.92000 48.39000 27.33300
H  16.28900 49.50600 26.03700
H  17.05500 47.82700 26.17600
H  17.16600 48.71900 23.60700
H  17.81500 47.64200 22.48800
H  17.56500 46.97600 24.15300
H  11.28200 44.57000 21.05500
H  8.58100 45.68800 21.09700
H  11.85700 47.09400 20.55900
H  10.17600 47.28600 20.39000
H  11.22500 46.14100 19.27200
H  9.60700 43.28100 20.68900
H  7.95700 43.50100 21.34100
H  10.19800 41.89700 22.35600
H  8.58500 42.04000 23.07100
H  9.81900 43.15300 23.53900
H  5.33500 44.88200 24.63300
H  4.69700 46.51300 24.79500
H  4.47600 45.42400 26.17700
H  7.46900 47.90000 30.02800
H  7.39200 45.28300 33.40700
H  8.06200 44.17600 32.20700
H  6.32900 44.41600 32.30300

