158

Mg 8.99600 2.59600 27.31400
C  10.29800 1.01800 30.28300
C  7.16100 4.67600 29.31300
C  7.23400 3.43500 24.70200
C  10.40500 -0.16800 25.58700
N  8.70800 2.72500 29.49200
C  9.44400 2.12500 30.50800
C  9.13800 2.88300 31.83300
C  7.99100 3.89100 31.52500
C  7.88700 3.68600 30.01000
C  6.63500 3.78200 32.26600
C  10.50900 3.62200 32.32500
C  10.50500 4.54900 33.52700
H  10.93300 4.03000 34.96500
N  7.51600 4.02200 27.00600
C  6.91600 4.80300 27.93400
C  6.01500 5.71600 27.26200
C  5.95400 5.30300 25.92400
C  6.98100 4.22700 25.84200
C  5.19700 6.72300 28.02900
C  5.01700 5.79900 24.83800
O  5.17100 5.37400 23.73000
C  4.03900 6.94200 25.08600
N  9.00800 1.87600 25.36600
C  8.05100 2.39300 24.48700
C  8.33200 1.76300 23.16400
C  9.26200 0.56200 23.43100
C  9.56900 0.68000 24.88500
C  7.08800 1.23100 22.32800
C  10.54800 0.56700 22.53400
C  10.55100 -0.66300 21.58700
N  10.15900 0.74400 27.76000
C  10.67000 -0.27400 26.96200
C  11.42400 -1.12900 27.74400
C  11.40300 -0.65200 29.02900
C  10.52000 0.46300 28.97400
C  12.09500 -2.34900 27.16900
C  11.86100 -0.83200 30.39900
O  12.65900 -1.63300 30.86800
C  11.26100 0.31200 31.29800
C  10.60900 -0.47000 32.36300
O  9.56900 -1.14000 32.21200
O  11.27000 -0.20400 33.53900
C  10.77700 -0.88300 34.73100
H  6.69200 5.46500 29.90400
H  6.62200 3.62600 23.81700
H  10.73000 -0.99300 24.95000
H  8.76800 2.07400 32.46200
H  8.37700 4.89300 31.71300
H  6.90600 3.20500 33.15000
H  5.81500 3.31300 31.72300
H  6.29700 4.71800 32.71200
H  10.85600 4.20000 31.46900
H  11.20200 2.79800 32.49500
H  9.44500 4.78800 33.61500
H  11.17400 5.38200 33.31100
H  5.58400 7.01800 29.00400
H  4.27100 6.21800 28.30700
H  4.93300 7.62100 27.47000
H  3.45400 7.15500 24.19100
H  4.52300 7.87500 25.37400
H  3.38500 6.67300 25.91600
H  8.80700 2.55100 22.57900
H  8.87200 -0.42200 23.16900
H  6.33500 1.64100 23.00200
H  7.03100 0.14400 22.27800
H  6.94100 1.71200 21.36200
H  11.42800 0.49300 23.17300
H  10.61300 1.48200 21.94500
H  9.57600 -1.06900 21.32000
H  11.07700 -1.46000 22.11300
H  11.26300 -0.38300 20.81100
H  12.68200 -2.19000 26.26400
H  11.29300 -3.05200 26.94400
H  12.85300 -2.73500 27.85100
H  12.03000 0.95800 31.72200
H  10.27300 -1.84700 34.65600
H  10.25900 -0.11300 35.30200
H  11.64600 -1.08100 35.35900
Mg 48.94300 44.43100 42.81400
C  45.46000 44.37700 42.22900
C  49.16600 41.12500 42.43600
C  52.26900 44.77400 42.56900
C  48.73100 47.98900 42.78500
N  47.44500 42.94600 42.20900
C  46.08600 43.06900 42.09300
C  45.49300 41.65300 42.15400
C  46.68100 40.67900 42.38100
C  47.87500 41.66500 42.38300
C  46.60800 39.83500 43.72900
C  44.44200 41.20800 41.03100
C  44.51300 42.00000 39.67700
H  44.65200 41.13900 38.42100
N  50.50700 43.09800 42.60300
C  50.33700 41.76400 42.43200
C  51.66200 41.12300 42.29300
C  52.64400 42.16300 42.33100
C  51.80000 43.44000 42.45700
C  51.84100 39.63700 42.10700
C  54.16800 42.02300 42.12700
O  54.64100 40.88800 42.14000
C  55.15200 43.30700 41.84700
N  50.35800 46.13400 42.57200
C  51.66900 46.00500 42.60000
C  52.38600 47.43100 42.65500
C  51.27300 48.42200 42.93300
C  50.05800 47.46600 42.69100
C  53.59700 47.44100 43.60700
C  51.29400 49.64100 41.90000
C  51.03900 51.03500 42.51900
N  47.45200 45.93200 42.54600
C  47.48800 47.27800 42.67700
C  46.16500 47.86800 42.61900
C  45.31200 46.76200 42.46900
C  46.16200 45.62200 42.41300
C  45.85500 49.32500 42.43800
C  43.91100 46.34100 42.36600
O  42.81900 46.96900 42.39000
C  43.99000 44.84100 42.21000
C  43.06400 44.20100 43.21900
O  41.91100 43.76500 43.04700
O  43.58800 44.11700 44.48700
C  42.74300 43.49400 45.49900
H  49.34500 40.04700 42.42500
H  53.35500 44.78900 42.68400
H  48.72700 49.08100 42.78300
H  44.82400 41.74300 43.01000
H  46.76700 39.93500 41.58900
H  45.73300 40.14600 44.29900
H  47.46200 40.10200 44.35100
H  46.56300 38.74700 43.68100
H  43.44100 41.39900 41.41900
H  44.53100 40.12500 40.94900
H  45.36700 42.67900 39.68000
H  43.60000 42.59300 39.62800
H  51.61600 39.39200 41.06900
H  51.13100 39.17100 42.79000
H  52.82900 39.20400 42.26500
H  54.61900 43.94000 41.13700
H  56.01400 42.83500 41.37600
H  55.42100 43.82300 42.76900
H  52.82200 47.69600 41.69200
H  51.18100 48.78500 43.95600
H  53.64100 48.34300 44.21800
H  54.43600 47.62900 42.93600
H  53.76000 46.51600 44.15900
H  50.57900 49.38100 41.11900
H  52.23100 49.76500 41.35800
H  51.04100 50.99900 43.60900
H  50.13700 51.52700 42.15400
H  51.90200 51.60900 42.18200
H  46.04000 49.70500 43.44300
H  44.79700 49.39600 42.18300
H  46.56300 49.75100 41.72800
H  43.40300 44.55000 41.33800
H  42.56500 42.47900 45.14400
H  41.77700 43.95600 45.70100
H  43.21500 43.65400 46.46800

