158

Mg 30.16100 57.98300 40.62000
C  27.31600 56.17800 39.75500
C  32.05600 55.17600 39.98600
C  33.02400 59.98500 40.73900
C  28.20800 60.83800 40.86000
N  29.77600 55.98300 39.85900
C  28.48700 55.46600 39.73800
C  28.55300 53.97800 39.36200
C  30.00400 53.59800 39.82600
C  30.70100 55.02400 39.90300
C  30.10000 52.72500 41.09500
C  28.17100 53.65000 37.88800
C  28.51300 54.73300 36.79400
H  28.39400 54.46100 35.20900
N  32.33700 57.60500 40.38500
C  32.88500 56.36000 40.07500
C  34.30000 56.52800 39.88400
C  34.59400 57.90800 40.17900
C  33.29200 58.58100 40.46800
C  35.19700 55.37600 39.60100
C  35.94700 58.59900 40.09400
O  36.83700 57.89800 39.62900
C  36.18100 60.08300 40.28700
N  30.60000 60.16600 40.69800
C  31.84400 60.72000 40.91800
C  31.73300 62.16600 41.33500
C  30.19900 62.33200 41.48000
C  29.56300 61.09800 40.90200
C  32.58600 62.72300 42.47900
C  29.54400 63.59500 40.79200
C  28.77500 64.62100 41.62400
N  28.18100 58.52100 40.39600
C  27.46100 59.68200 40.60900
C  26.07000 59.39800 40.39900
C  25.97800 58.03200 40.04400
C  27.25600 57.59400 40.07500
C  24.88500 60.28000 40.52500
C  25.04500 56.94100 39.64300
O  23.82500 57.00300 39.48300
C  25.91000 55.63200 39.46500
C  25.25600 54.61300 40.42500
O  25.09200 54.77500 41.63800
O  24.96500 53.52100 39.76300
C  24.72400 52.35900 40.60600
H  32.54800 54.20300 40.04000
H  33.93900 60.50200 41.03600
H  27.55000 61.68000 41.08700
H  27.82200 53.43100 39.95700
H  30.40600 52.84900 39.14300
H  30.78600 51.89300 40.93700
H  29.12400 52.44300 41.48800
H  30.46600 53.38400 41.88200
H  27.10600 53.46900 37.74700
H  28.64500 52.70100 37.63700
H  29.54300 55.02300 37.00000
H  27.95600 55.64100 37.02200
H  35.78700 55.35400 38.68500
H  34.55600 54.49900 39.50700
H  35.81400 55.09700 40.45500
H  36.07700 60.34700 41.33900
H  35.39200 60.52200 39.67700
H  37.12900 60.44500 39.88800
H  32.01700 62.67700 40.41500
H  29.97700 62.30200 42.54700
H  33.52100 62.17900 42.61900
H  31.98300 62.54300 43.36800
H  32.91900 63.73100 42.23300
H  28.84300 63.25200 40.03100
H  30.28600 64.02700 40.12100
H  27.88500 64.92500 41.07200
H  29.44900 65.44000 41.87600
H  28.45800 64.08000 42.51500
H  25.20600 61.31000 40.36900
H  24.54400 60.20500 41.55800
H  24.09700 59.96900 39.84000
H  25.74800 55.32000 38.43300
H  25.11500 51.47400 40.10400
H  23.64000 52.30600 40.50900
H  25.11600 52.35800 41.62300
Mg -11.84100 16.40300 41.69400
C  -8.46300 14.99700 41.38000
C  -10.50200 19.29600 40.32500
C  -14.91800 17.43400 41.13600
C  -12.93300 13.10300 42.03900
N  -9.73500 16.97800 40.94900
C  -8.56600 16.29200 40.93400
C  -7.45200 17.12700 40.30600
C  -8.11800 18.53600 39.90500
C  -9.55700 18.21400 40.40300
C  -7.52600 19.82300 40.51300
C  -6.86000 16.36400 39.02400
C  -5.35800 16.30000 38.79600
H  -4.87800 16.98200 37.54100
N  -12.59900 18.14900 40.96400
C  -11.88500 19.28400 40.57400
C  -12.70500 20.35400 40.45700
C  -14.06900 19.88800 40.67200
C  -13.93000 18.42700 40.94300
C  -12.18900 21.81200 40.25400
C  -15.32500 20.82400 40.59200
O  -15.25500 22.03200 40.35000
C  -16.63100 20.22100 41.01800
N  -13.63200 15.36600 41.46500
C  -14.82000 16.09500 41.45400
C  -15.99900 15.15100 41.80900
C  -15.34700 13.79800 42.11500
C  -13.90600 14.09600 41.87700
C  -16.79600 15.75200 43.05300
C  -15.94900 12.71800 41.08800
C  -16.99000 11.70500 41.63300
N  -10.94900 14.53300 41.89300
C  -11.57100 13.29600 42.11200
C  -10.55200 12.28600 42.36000
C  -9.34700 12.91900 42.18000
C  -9.58600 14.29100 41.84300
C  -10.82400 10.88400 42.75000
C  -7.85300 12.76200 42.20500
O  -7.20800 11.75400 42.40800
C  -7.22900 14.05300 41.56800
C  -6.24200 14.52800 42.48800
O  -6.47000 14.70400 43.72100
O  -4.98400 14.71700 41.89200
C  -3.89800 15.26300 42.78600
H  -10.03500 20.24600 40.05600
H  -15.96300 17.74600 41.19100
H  -13.36200 12.12200 42.25500
H  -6.70100 17.27600 41.08200
H  -8.21200 18.70300 38.83200
H  -7.75700 20.56500 39.74800
H  -6.44600 19.68500 40.57000
H  -7.89500 20.09200 41.50300
H  -7.38300 16.85400 38.20300
H  -7.29000 15.36600 38.93100
H  -5.10300 15.24200 38.73500
H  -4.87200 16.75600 39.65800
H  -11.74700 21.96100 39.26900
H  -11.37700 21.97200 40.96400
H  -12.97900 22.55000 40.39100
H  -17.33000 21.02100 40.77300
H  -16.77900 20.08700 42.09000
H  -16.97700 19.36300 40.44100
H  -16.82400 15.10300 41.09800
H  -15.58700 13.43200 43.11300
H  -16.29400 16.51800 43.64600
H  -17.02200 14.94500 43.75000
H  -17.70200 16.15400 42.60000
H  -15.13000 12.07000 40.77400
H  -16.34600 13.23000 40.21200
H  -17.00500 10.75700 41.09500
H  -17.92900 12.20300 41.38900
H  -16.92000 11.61500 42.71700
H  -10.05200 10.41300 43.35900
H  -10.91000 10.34500 41.80700
H  -11.73700 10.78300 43.33700
H  -6.66000 13.85000 40.66100
H  -3.82800 16.26500 42.36200
H  -3.01500 14.75200 42.40100
H  -3.96000 15.15000 43.86800

