158

Mg 40.53000 9.71500 28.88600
C  42.40300 10.80500 31.78000
C  38.38300 8.22400 30.89400
C  38.91200 8.74300 26.19000
C  43.24200 10.79800 26.86100
N  40.44400 9.38400 30.99600
C  41.23400 10.02300 31.97500
C  40.51300 10.00600 33.33800
C  39.47400 8.83500 33.13800
C  39.45700 8.70700 31.59900
C  39.91200 7.46000 33.85300
C  39.89100 11.29500 33.82000
C  39.83300 11.48200 35.37400
H  40.49800 12.64300 36.06500
N  38.87200 8.59700 28.58500
C  38.01800 8.10800 29.55500
C  36.87500 7.38800 28.96400
C  36.95700 7.58500 27.50300
C  38.29200 8.32900 27.39200
C  35.85400 6.53800 29.75500
C  36.10400 6.99300 26.32700
O  36.33100 7.25300 25.18300
C  34.82300 6.28300 26.63100
N  41.16300 9.60800 26.81400
C  40.23800 9.26700 25.91100
C  40.83600 9.23300 24.51800
C  42.26200 9.91200 24.67800
C  42.25300 10.13300 26.13100
C  40.77400 7.88500 23.78000
C  42.40900 11.17000 23.88100
C  41.40600 12.29800 24.09700
N  42.41700 10.74900 29.21500
C  43.36700 11.09800 28.25100
C  44.48900 11.76500 28.96500
C  44.09800 11.76400 30.33600
C  42.86400 11.06600 30.44600
C  45.85200 12.16300 28.40800
C  44.41200 12.14600 31.68500
O  45.44500 12.67200 32.06000
C  43.28200 11.53200 32.66900
C  43.91300 10.49700 33.56200
O  44.61800 9.57400 33.18300
O  43.41600 10.65400 34.78500
C  43.85800 9.79500 35.92000
H  37.51900 7.87500 31.46200
H  38.35300 8.52900 25.27700
H  44.04900 11.21200 26.25300
H  41.17300 9.62900 34.11900
H  38.45000 8.98700 33.48100
H  40.86600 7.45900 34.38100
H  40.13500 6.73000 33.07500
H  39.04300 7.14000 34.42700
H  38.89000 11.52100 33.45300
H  40.49500 12.10600 33.41400
H  40.17800 10.60800 35.92800
H  38.80700 11.73700 35.63700
H  36.17500 6.44500 30.79300
H  35.94000 5.53100 29.34700
H  34.84000 6.91100 29.60900
H  34.22000 6.14900 25.73200
H  34.27200 6.82500 27.39900
H  35.22300 5.31100 26.92200
H  40.07800 9.80500 23.98200
H  43.06200 9.18400 24.55000
H  41.64200 7.25000 23.95800
H  40.69800 8.13400 22.72200
H  39.86200 7.32200 23.98000
H  42.34500 10.95200 22.81500
H  43.39400 11.57500 24.10900
H  40.66400 12.06300 24.85900
H  40.92700 12.42300 23.12600
H  41.84300 13.25800 24.37200
H  46.14000 11.70600 27.46100
H  46.52800 11.95500 29.23800
H  45.95500 13.24800 28.43800
H  43.04000 12.39300 33.29200
H  44.57900 9.11700 35.46200
H  42.94500 9.55500 36.46500
H  44.35900 10.55800 36.51600
Mg -11.52100 16.66500 41.50900
C  -8.41200 15.01400 41.12100
C  -10.25700 19.35200 39.62700
C  -14.57200 17.79700 41.42300
C  -12.73300 13.45300 42.58100
N  -9.56300 17.10100 40.47000
C  -8.43300 16.31000 40.52300
C  -7.22500 16.94800 39.83600
C  -7.73100 18.42600 39.42300
C  -9.26700 18.33700 39.86700
C  -6.98000 19.60700 39.91000
C  -6.76200 16.15800 38.62500
C  -5.27900 16.22700 38.32500
H  -4.88000 16.90800 37.03200
N  -12.32500 18.37300 40.69900
C  -11.67600 19.36400 39.95300
C  -12.67800 20.44200 39.68400
C  -13.85200 20.03600 40.22100
C  -13.61900 18.65400 40.83500
C  -12.47600 21.64800 38.76300
C  -15.15300 20.75300 40.08000
O  -15.21300 21.94100 39.73300
C  -16.52800 20.11700 40.37200
N  -13.34600 15.69500 41.67800
C  -14.46700 16.48400 41.81100
C  -15.66600 15.80100 42.41600
C  -15.03000 14.42600 42.78300
C  -13.63800 14.46400 42.24200
C  -16.34700 16.46500 43.67300
C  -15.85500 13.16700 42.37300
C  -16.53300 12.32500 43.52600
N  -10.76200 14.70700 42.04300
C  -11.33400 13.52100 42.43100
C  -10.39800 12.44000 42.55800
C  -9.20900 12.99500 42.10000
C  -9.49000 14.32000 41.69900
C  -10.69200 11.06000 43.12100
C  -7.80400 12.71800 41.93300
O  -7.25600 11.70600 42.15900
C  -7.19100 14.03100 41.24800
C  -6.10700 14.53000 42.16500
O  -6.09400 14.41800 43.37800
O  -5.03400 15.02900 41.47400
C  -3.94000 15.52800 42.26400
H  -9.88900 20.21100 39.06100
H  -15.58900 18.12600 41.64500
H  -13.11100 12.53600 43.03700
H  -6.41500 17.04300 40.55800
H  -7.81000 18.46800 38.33700
H  -6.63800 20.11600 39.00800
H  -6.08200 19.24100 40.40600
H  -7.58500 20.25800 40.54100
H  -7.24700 16.57600 37.74200
H  -7.04600 15.10900 38.54500
H  -5.04800 15.16200 38.30000
H  -4.84500 16.81700 39.13200
H  -11.40200 21.77500 38.89200
H  -12.89300 22.55000 39.21100
H  -12.73500 21.68600 37.70400
H  -17.30000 20.84000 40.10800
H  -16.62000 19.96700 41.44800
H  -16.62900 19.17000 39.84200
H  -16.40100 15.63300 41.62900
H  -14.99300 14.42900 43.87200
H  -16.38900 17.54800 43.55700
H  -15.76900 16.18200 44.55300
H  -17.32700 16.01700 43.84100
H  -15.24000 12.50200 41.76600
H  -16.68800 13.47900 41.74300
H  -17.60700 12.50300 43.47100
H  -16.18800 12.42600 44.55500
H  -16.45100 11.25100 43.36300
H  -9.82600 10.40400 43.03900
H  -11.49600 10.63800 42.51900
H  -11.03500 11.31400 44.12400
H  -6.65300 13.74400 40.34500
H  -3.04300 15.71400 41.67200
H  -3.66700 14.72100 42.94400
H  -4.40800 16.33500 42.82800

