158

Mg 43.99700 4.72400 48.20800
C  41.88500 7.52200 47.59600
C  41.21400 2.71200 47.59900
C  46.08700 2.30700 47.93700
C  46.81300 7.13800 48.07300
N  41.84100 5.07600 47.43200
C  41.22500 6.30200 47.51800
C  39.70300 6.18900 47.32800
C  39.43300 4.63900 47.40200
C  40.85400 4.10700 47.64100
C  38.44700 4.15900 48.50700
C  39.11200 6.90600 46.06900
C  37.83000 6.39400 45.32800
H  38.10400 5.83800 43.95200
N  43.67800 2.70000 47.93400
C  42.47600 2.02200 47.72900
C  42.82000 0.64300 47.56200
C  44.18500 0.50500 47.80200
C  44.74200 1.87500 47.96800
C  41.76400 -0.45800 47.38700
C  44.93700 -0.83400 47.79000
O  44.31400 -1.90800 47.61700
C  46.39300 -0.80900 48.08200
N  46.13800 4.77200 47.94300
C  46.75900 3.55500 47.86400
C  48.25000 3.69000 47.90500
C  48.55900 5.17900 48.18500
C  47.10900 5.70900 48.09900
C  49.01100 2.76600 48.89400
C  49.48000 5.84000 47.23000
C  50.94100 5.99300 47.67000
N  44.31600 6.88600 47.95000
C  45.54900 7.64500 47.91400
C  45.15500 9.11200 47.80500
C  43.76300 9.07100 47.66600
C  43.31000 7.72300 47.75000
C  46.06300 10.24200 47.73100
C  42.60300 9.87800 47.56300
O  42.52100 11.07700 47.45700
C  41.35400 8.95800 47.52800
C  40.44500 9.31900 48.66100
O  40.09300 8.56400 49.51300
O  39.88700 10.56600 48.51700
C  38.77700 10.85000 49.47000
H  40.40200 1.98300 47.57600
H  46.79700 1.52100 47.67100
H  47.66600 7.82000 48.07700
H  39.23700 6.73300 48.15000
H  39.14800 4.37600 46.38300
H  37.66400 3.51100 48.11300
H  37.82400 5.00000 48.81100
H  38.94600 3.67800 49.34800
H  39.98900 6.90000 45.42100
H  38.85100 7.93000 46.33500
H  37.09400 7.19900 45.32100
H  37.42500 5.64000 46.00300
H  41.38200 -0.73000 48.37100
H  42.09900 -1.38200 46.91600
H  40.97800 -0.02400 46.76900
H  46.91100 -0.64300 47.13700
H  46.69100 -1.83300 48.30500
H  46.71800 -0.18800 48.91700
H  48.54000 3.42500 46.88900
H  48.93000 5.36600 49.19300
H  48.47300 2.30500 49.72300
H  49.99600 3.14400 49.16800
H  49.29300 1.95800 48.22000
H  49.11800 6.79000 46.83900
H  49.53600 5.20400 46.34700
H  51.56700 5.42900 46.97900
H  50.97000 5.63600 48.70000
H  51.26900 7.03300 47.69000
H  46.77700 10.23800 48.55500
H  45.47900 11.16200 47.74100
H  46.67200 10.24900 46.82700
H  40.82800 9.24000 46.61600
H  39.04300 10.64800 50.50700
H  37.86800 10.32000 49.18300
H  38.55300 11.91600 49.43600
Mg 16.95500 51.74300 25.72400
C  18.92000 50.60100 28.41400
C  14.59300 52.53400 28.09400
C  15.16700 53.04600 23.28300
C  19.31500 50.28400 23.53900
N  16.80900 51.63800 27.93900
C  17.77500 51.25300 28.86200
C  17.46200 51.62900 30.29800
C  15.94700 52.01700 30.21000
C  15.74100 52.01700 28.64300
C  15.00100 50.91900 30.95400
C  18.40800 52.73200 30.91000
C  18.84500 52.41700 32.31500
H  17.81100 51.89200 33.25400
N  15.03900 52.68700 25.68400
C  14.24300 52.90200 26.75700
C  13.03900 53.57300 26.24600
C  13.17100 53.76500 24.81400
C  14.51700 53.21400 24.53500
C  11.98200 53.89000 27.23100
C  12.26100 54.32900 23.72500
O  12.47300 54.28800 22.51700
C  10.99700 55.09600 24.12500
N  17.24300 51.62000 23.58700
C  16.31900 52.30100 22.79600
C  16.86600 52.27300 21.29100
C  18.24700 51.53400 21.41800
C  18.28800 51.07600 22.83800
C  15.88700 51.61600 20.32700
C  19.53000 52.32600 21.19900
C  20.22100 51.93700 19.92000
N  18.66500 50.62100 25.85100
C  19.53600 50.06700 24.91300
C  20.62300 49.36400 25.57200
C  20.40800 49.58500 26.93700
C  19.26300 50.37100 27.04100
C  21.76000 48.65800 24.96900
C  20.93900 49.21000 28.22400
O  21.84900 48.48700 28.61800
C  20.07000 49.98100 29.24800
C  19.64400 48.91100 30.22100
O  18.81000 48.00300 29.93800
O  20.13000 49.18400 31.51600
C  19.48300 48.26700 32.43300
H  13.84200 52.78700 28.84500
H  14.61600 53.45200 22.43200
H  20.06600 49.76400 22.94100
H  17.56900 50.74800 30.93100
H  15.78500 52.96500 30.72200
H  15.47700 50.46000 31.82000
H  14.66100 50.21900 30.19000
H  14.11500 51.44300 31.31300
H  17.82600 53.64600 31.03300
H  19.20600 53.06700 30.24800
H  19.18400 53.27000 32.90300
H  19.68600 51.72800 32.23600
H  11.30100 54.68200 26.92000
H  12.31500 54.19900 28.22200
H  11.41300 52.97900 27.41800
H  10.34700 54.63100 24.86500
H  10.45200 55.22600 23.19000
H  11.32700 56.03900 24.56300
H  16.88700 53.34300 21.08500
H  18.15000 50.76800 20.64900
H  16.26500 51.39300 19.32900
H  14.97700 52.18700 20.14400
H  15.57000 50.63200 20.67300
H  20.30000 52.04400 21.91600
H  19.40600 53.40800 21.23000
H  20.97100 51.20000 20.20600
H  20.92300 52.68200 19.54600
H  19.54400 51.70100 19.09900
H  21.46700 48.27100 23.99400
H  21.95500 47.82700 25.64700
H  22.73000 49.15700 24.94400
H  20.68000 50.68900 29.81000
H  18.40300 48.39500 32.49500
H  19.72600 48.74800 33.38000
H  19.74600 47.21100 32.37100

