158

Mg 40.53900 10.25900 29.22500
C  42.44900 11.80100 31.76600
C  38.20400 9.32000 31.51500
C  38.74700 9.07700 26.70000
C  43.01900 11.10800 27.03400
N  40.31200 10.57800 31.33100
C  41.21100 11.23400 32.20100
C  40.68800 11.30600 33.59700
C  39.53000 10.34800 33.54700
C  39.37500 9.94600 32.07100
C  39.45600 9.14800 34.45600
C  40.27800 12.84500 33.85100
C  39.52700 13.12700 35.22900
H  40.27500 13.75000 36.36000
N  38.75800 9.25400 29.12900
C  37.95600 8.89900 30.20100
C  36.84200 8.20100 29.71600
C  37.04700 8.05900 28.29300
C  38.22100 8.86000 27.97300
C  35.75500 7.60400 30.53700
C  36.12800 7.37300 27.29400
O  36.42500 7.19000 26.14200
C  34.76000 6.85300 27.74800
N  40.87200 10.03600 27.12500
C  39.97000 9.51900 26.29300
C  40.40900 9.56700 24.82300
C  41.75900 10.31800 24.94800
C  41.89200 10.61300 26.47500
C  40.29900 8.28500 23.95900
C  41.94400 11.48800 23.99900
C  41.46900 12.91000 24.46700
N  42.45300 11.02000 29.36200
C  43.32400 11.31600 28.38600
C  44.55500 11.82700 28.91500
C  44.20600 12.10600 30.24400
C  42.92200 11.63000 30.46500
C  45.89100 11.98300 28.32300
C  44.57500 12.78800 31.44500
O  45.61300 13.36300 31.66900
C  43.42400 12.63700 32.48900
C  44.04200 11.76500 33.61300
O  44.47900 10.63300 33.44500
O  43.78400 12.38900 34.82900
C  43.93800 11.44000 35.96400
H  37.48200 9.08300 32.29900
H  38.27700 8.82100 25.74800
H  43.80800 11.35100 26.32000
H  41.47000 11.01900 34.30100
H  38.60400 10.88500 33.75000
H  39.37600 8.21000 33.90700
H  38.61100 9.19900 35.14200
H  40.35700 9.13900 35.07000
H  39.64900 13.13400 33.00900
H  41.16300 13.47900 33.89600
H  39.22700 12.15800 35.62900
H  38.63500 13.71100 35.00000
H  35.77000 6.51600 30.60700
H  34.80900 8.01100 30.17900
H  35.75100 7.96700 31.56500
H  34.32200 6.44400 26.83800
H  34.21700 7.66100 28.24000
H  34.79700 6.01500 28.44400
H  39.80600 10.32300 24.32000
H  42.43800 9.48500 24.76500
H  41.12200 8.21900 23.24800
H  39.35500 8.27000 23.41400
H  40.38700 7.46300 24.67000
H  41.51900 11.32000 23.01000
H  42.98500 11.66700 23.72800
H  40.77900 12.76300 25.29800
H  40.87200 13.45300 23.73400
H  42.40400 13.37100 24.78300
H  46.07500 13.03200 28.08900
H  46.09700 11.33400 27.47200
H  46.55300 11.63700 29.11700
H  43.02600 13.60900 32.78300
H  44.99700 11.18700 35.99900
H  43.41500 10.49000 35.85100
H  43.66100 11.82900 36.94400
Mg 49.42200 35.86800 27.14700
C  47.37200 34.34400 29.46800
C  50.23000 38.30300 29.39600
C  51.52400 37.21200 24.76400
C  48.83500 33.35800 24.87800
N  48.79100 36.25500 29.16000
C  48.05300 35.47600 30.01300
C  48.23600 35.97900 31.49200
C  48.90100 37.40100 31.41500
C  49.35200 37.33500 29.88000
C  48.16700 38.68700 31.79000
C  49.13800 35.03000 32.34500
C  48.94700 34.89100 33.91200
H  48.06300 35.85500 34.57800
N  50.62500 37.62400 26.98100
C  50.82800 38.47700 28.05000
C  51.74300 39.48200 27.70400
C  52.27900 39.20500 26.40600
C  51.49800 37.92900 25.98400
C  52.05600 40.70100 28.65000
C  53.30800 39.91200 25.51600
O  53.63300 39.43500 24.44100
C  54.04600 41.14500 26.04400
N  49.86900 35.52800 24.97100
C  50.83500 36.14700 24.26900
C  51.06800 35.55900 22.85700
C  50.42400 34.19000 23.08500
C  49.67200 34.38800 24.37200
C  50.26900 36.42800 21.89100
C  51.38400 33.00400 23.19400
C  51.51800 32.26000 21.91400
N  48.21900 34.24800 27.09800
C  48.15600 33.32800 26.14100
C  47.34600 32.19600 26.65700
C  46.94400 32.60000 27.94000
C  47.52200 33.82700 28.19200
C  47.15500 30.88100 25.90300
C  46.21100 32.19900 29.04500
O  45.55800 31.11800 29.23300
C  46.34000 33.42600 30.01700
C  46.51600 32.79600 31.42300
O  47.42000 32.06100 31.85400
O  45.38000 33.17300 32.12300
C  45.37900 32.61900 33.51500
H  50.71200 38.92200 30.15600
H  52.42500 37.49100 24.21300
H  48.70500 32.43700 24.30700
H  47.31200 36.18200 32.03300
H  49.75700 37.41400 32.09000
H  48.63600 39.19100 32.63500
H  47.15100 38.43900 32.09700
H  48.01900 39.40400 30.98300
H  50.17500 35.21200 32.06400
H  49.02000 34.00100 32.00600
H  49.92800 34.95000 34.38400
H  48.52000 33.89400 34.02900
H  52.37900 41.59400 28.11500
H  52.84500 40.49700 29.37500
H  51.15100 41.01800 29.16700
H  53.37400 42.00100 26.10600
H  54.90300 41.53000 25.49100
H  54.44000 40.84400 27.01500
H  52.11100 35.51400 22.54500
H  49.78000 34.15100 22.20600
H  50.50500 37.39500 22.33500
H  49.19400 36.29200 22.01400
H  50.66900 36.50500 20.88000
H  51.09300 32.20200 23.87200
H  52.33700 33.46400 23.45700
H  50.54800 32.20100 21.41900
H  52.01800 31.29300 21.86400
H  52.01600 33.01900 21.31100
H  48.06200 30.47700 25.45500
H  46.39200 31.07000 25.14800
H  46.76700 30.17400 26.63600
H  45.33400 33.84200 29.96000
H  45.29700 31.53300 33.46600
H  44.51500 33.00300 34.05600
H  46.27900 32.96300 34.02600

