158

Mg 45.09400 4.34100 45.85200
C  43.32300 7.30900 45.77200
C  42.05000 2.62400 45.20500
C  46.79200 1.54100 45.24400
C  48.03700 6.23300 45.67800
N  43.03900 4.89000 45.39600
C  42.56700 6.17400 45.54700
C  41.03900 6.27700 45.49000
C  40.59000 4.79000 45.34300
C  41.98000 4.01500 45.28200
C  39.63300 4.32300 46.51500
C  40.48100 7.23700 44.21500
C  41.39900 7.41300 42.94400
H  40.76000 7.21000 41.56500
N  44.51900 2.33300 45.41800
C  43.21300 1.84900 45.19100
C  43.22000 0.45400 44.96900
C  44.63300 0.05500 44.93500
C  45.38300 1.32200 45.22600
C  42.02700 -0.39900 44.69500
C  45.21900 -1.38300 44.69100
O  44.46000 -2.32300 44.50000
C  46.79100 -1.55800 44.50100
N  47.17400 3.98000 45.41600
C  47.60000 2.68500 45.45800
C  49.13300 2.63000 45.67500
C  49.51100 4.14100 45.68600
C  48.18500 4.85400 45.55100
C  49.58700 1.93600 47.02900
C  50.53900 4.58300 44.58700
C  51.70100 3.69000 44.15000
N  45.64600 6.44500 45.84400
C  46.88500 7.07600 45.79800
C  46.71200 8.50000 45.95200
C  45.30300 8.67300 46.00500
C  44.74200 7.41300 45.86800
C  47.84600 9.46900 45.90200
C  44.23600 9.59300 46.14900
O  44.24100 10.81100 46.39700
C  42.91600 8.74900 46.07600
C  42.19600 9.06100 47.29600
O  42.24900 8.43200 48.35700
O  41.42300 10.13000 47.14700
C  40.93400 10.88800 48.27900
H  41.04800 2.26900 44.95200
H  47.51000 0.72300 45.15400
H  48.98900 6.75100 45.80700
H  40.55900 6.72900 46.35800
H  40.02300 4.66900 44.42000
H  39.14600 3.42500 46.13600
H  39.03800 5.16800 46.86200
H  40.37900 4.04300 47.26000
H  40.13200 8.20200 44.58300
H  39.53300 6.76200 43.96200
H  42.20200 6.67600 42.96500
H  41.84500 8.40000 42.82400
H  42.12700 -0.70100 43.65200
H  41.00500 -0.08600 44.90900
H  42.26000 -1.32400 45.22200
H  47.07300 -2.59600 44.32400
H  47.20300 -1.34800 45.48800
H  47.09500 -0.94400 43.65300
H  49.59900 2.21000 44.78400
H  50.02100 4.50100 46.58000
H  49.94700 2.64500 47.77500
H  50.34600 1.16700 46.88600
H  48.74800 1.42700 47.50300
H  50.88700 5.59000 44.81700
H  49.94600 4.89000 43.72500
H  51.65400 3.39100 43.10300
H  51.81300 2.79900 44.76700
H  52.64100 4.22900 44.26600
H  48.35500 9.43200 46.86500
H  47.26800 10.36700 45.68300
H  48.63800 9.27100 45.17900
H  42.41600 9.14100 45.19000
H  41.79700 11.46000 48.61800
H  40.76400 10.25500 49.15000
H  40.10400 11.49500 47.91500
Mg 40.56600 9.68900 29.45500
C  42.47700 10.73400 32.21600
C  38.35200 8.29700 31.56100
C  39.08400 8.41400 26.73100
C  42.97200 11.21100 27.33600
N  40.57400 9.40300 31.67700
C  41.28700 10.09500 32.66400
C  40.60100 9.88900 34.04800
C  39.30700 9.11900 33.74200
C  39.36600 9.00400 32.17000
C  39.03300 7.79100 34.52300
C  40.34700 11.23300 34.89200
C  40.94200 11.24800 36.28200
H  40.60200 12.26800 37.27300
N  38.97900 8.55100 29.17900
C  38.14700 8.09000 30.17400
C  37.10000 7.32400 29.56400
C  37.28000 7.37400 28.18000
C  38.52100 8.13100 27.95600
C  36.06400 6.59400 30.44400
C  36.45900 6.82600 27.08300
O  36.55900 7.22100 25.95800
C  35.21100 5.92700 27.36600
N  40.97400 9.80700 27.29300
C  40.18100 9.21100 26.38100
C  40.67700 9.47600 24.94100
C  41.99800 10.30900 25.14900
C  41.90600 10.57300 26.66900
C  40.91000 8.23700 24.04900
C  42.07600 11.48100 24.27300
C  41.16100 12.75900 24.54100
N  42.32100 10.70900 29.63100
C  43.15300 11.28400 28.74300
C  44.21100 12.02600 29.39900
C  44.06500 11.67600 30.75900
C  42.85100 10.96400 30.90600
C  45.25500 12.86700 28.78700
C  44.50800 11.98500 32.06400
O  45.48600 12.66600 32.41100
C  43.53200 11.41400 33.06800
C  44.35300 10.48500 33.92400
O  44.68500 9.34200 33.68000
O  44.55600 11.05300 35.16700
C  45.23800 10.26500 36.13400
H  37.43300 8.30800 32.15000
H  38.70600 7.93400 25.82600
H  43.75300 11.58900 26.67300
H  41.30100 9.33000 34.66900
H  38.50600 9.82400 33.96500
H  37.98100 7.58300 34.32900
H  39.09300 7.87600 35.60800
H  39.67600 6.98600 34.16700
H  39.27500 11.34900 35.05100
H  40.59900 12.15400 34.36700
H  42.02300 11.33000 36.16800
H  40.75600 10.24200 36.65700
H  35.07400 6.85800 30.07300
H  36.18700 6.96300 31.46200
H  36.15100 5.50800 30.39500
H  35.54200 4.95600 27.73100
H  34.79400 5.69200 26.38600
H  34.45600 6.43600 27.96600
H  39.99100 10.16100 24.44200
H  42.91700 9.76100 24.94100
H  40.54800 7.38700 24.62700
H  41.94700 8.12100 23.73400
H  40.28400 8.31400 23.16000
H  41.81700 11.18300 23.25700
H  43.07200 11.92300 24.26200
H  40.35300 12.85400 23.81600
H  41.76300 13.66200 24.63500
H  40.74300 12.63500 25.54000
H  44.89000 13.13300 27.79500
H  46.09600 12.17400 28.76600
H  45.26000 13.73800 29.44300
H  43.06000 12.22100 33.62900
H  44.83100 9.25400 36.13100
H  45.04700 10.64700 37.13700
H  46.31000 10.20900 35.94400

