158

Mg -1.69600 18.38700 27.19500
C  -2.10900 16.08800 29.78400
C  -2.15100 20.88900 29.35100
C  -1.53400 20.46500 24.62000
C  -1.54700 15.67400 24.94200
N  -2.26000 18.45900 29.30400
C  -2.28000 17.43700 30.20100
C  -2.51000 17.85300 31.74400
C  -2.57500 19.44900 31.43600
C  -2.29700 19.63700 29.95700
C  -3.92000 20.14500 31.85000
C  -1.41600 17.50600 32.78500
C  -1.19200 18.41300 34.01400
H  -0.88900 17.77500 35.35100
N  -1.97700 20.42000 27.02000
C  -2.10400 21.29400 28.00200
C  -2.16100 22.63600 27.47600
C  -1.75800 22.53500 26.07700
C  -1.77000 21.08000 25.85700
C  -2.21400 23.87300 28.29300
C  -1.48300 23.66400 25.03000
O  -1.03500 23.33900 23.94200
C  -1.63800 25.05300 25.36100
N  -1.74500 18.11100 25.07100
C  -1.50100 19.16400 24.21400
C  -1.37000 18.70300 22.73700
C  -0.99500 17.21300 22.96100
C  -1.55800 16.96300 24.35700
C  -2.68800 18.95400 21.81700
C  0.49700 16.72700 22.80000
C  0.76500 15.27100 22.37000
N  -1.73200 16.31700 27.29700
C  -1.64300 15.34600 26.30700
C  -1.65100 14.01300 26.98700
C  -1.92500 14.27600 28.31100
C  -1.86800 15.73100 28.48600
C  -1.60900 12.69200 26.31300
C  -2.17500 13.70600 29.63300
O  -2.28100 12.52700 30.00700
C  -2.27400 14.82100 30.62700
C  -1.18400 14.66500 31.56300
O  -0.04000 15.11500 31.39900
O  -1.71500 14.01300 32.67200
C  -0.77900 13.76400 33.74400
H  -2.14900 21.72100 30.05900
H  -1.44500 21.12000 23.75100
H  -1.29300 14.82500 24.30400
H  -3.44900 17.38800 32.04500
H  -1.77800 20.00000 31.93600
H  -3.57100 21.03800 32.37000
H  -4.55500 19.51100 32.46900
H  -4.51600 20.48900 31.00500
H  -0.45500 17.30200 32.31300
H  -1.62500 16.61700 33.38000
H  -2.03800 19.09800 34.06900
H  -0.29000 18.94600 33.71500
H  -1.17500 24.19400 28.37200
H  -2.57200 23.56400 29.27500
H  -2.87800 24.66800 27.95400
H  -2.65200 25.38100 25.13600
H  -0.90100 25.59300 24.76700
H  -1.29500 25.27800 26.37100
H  -0.49800 19.16900 22.27900
H  -1.56200 16.64600 22.22200
H  -3.43200 19.62200 22.25100
H  -3.16600 18.03600 21.47700
H  -2.26100 19.57500 21.02900
H  1.10200 16.91500 23.68600
H  0.90800 17.33300 21.99200
H  1.66000 14.91500 22.88100
H  0.86800 15.24000 21.28500
H  -0.12000 14.65900 22.54200
H  -1.14800 11.79000 26.71400
H  -1.11300 12.75100 25.34400
H  -2.57900 12.44500 25.88100
H  -3.25800 14.80500 31.09400
H  -0.61700 14.63600 34.37800
H  0.14500 13.43200 33.27000
H  -1.23000 12.91800 34.26200
Mg -2.58900 35.27900 26.80000
C  -4.32700 33.61400 29.59200
C  -1.92600 37.84300 29.21400
C  -1.03900 36.89400 24.43000
C  -3.76000 32.89300 24.72500
N  -3.14500 35.67500 29.18200
C  -3.74900 34.79200 30.06900
C  -3.82000 35.28600 31.53400
C  -3.21000 36.75300 31.30600
C  -2.70000 36.80900 29.81900
C  -4.19600 37.92100 31.60900
C  -2.97400 34.44700 32.54900
C  -2.78100 35.16300 33.89900
H  -3.24500 34.44400 35.17800
N  -1.51800 37.01800 26.86900
C  -1.33100 37.90700 27.89400
C  -0.47800 39.02500 27.42100
C  -0.29100 38.78600 26.06400
C  -0.95200 37.58200 25.71300
C  0.14600 40.07400 28.38200
C  0.38800 39.64900 25.06200
O  0.60600 39.33100 23.92300
C  0.79500 41.12200 25.40000
N  -2.68400 35.06200 24.81900
C  -1.82400 35.81300 24.03200
C  -1.77700 35.31300 22.58300
C  -2.56600 33.97500 22.72400
C  -3.05500 33.88700 24.14600
C  -2.33100 36.36600 21.61500
C  -1.78800 32.71700 22.26300
C  -0.43700 32.39700 22.96600
N  -3.77800 33.51200 27.04200
C  -4.20100 32.59500 26.06900
C  -4.95600 31.59900 26.71700
C  -5.06000 31.93800 28.05900
C  -4.27700 33.12700 28.28300
C  -5.60100 30.44700 25.95900
C  -5.70800 31.62000 29.22700
O  -6.50400 30.72500 29.51200
C  -5.08700 32.50700 30.32700
C  -6.25900 33.08700 31.07800
O  -6.96800 34.03400 30.79100
O  -6.50100 32.29500 32.20600
C  -7.58400 32.59100 33.15900
H  -1.78800 38.74400 29.81600
H  -0.31000 37.15400 23.65900
H  -3.97100 32.13300 23.96900
H  -4.83800 35.34800 31.92000
H  -2.31200 36.95200 31.89100
H  -4.31400 38.60300 30.76700
H  -3.86200 38.54300 32.43800
H  -5.22800 37.63400 31.81200
H  -2.04500 34.11700 32.08300
H  -3.54700 33.53100 32.69500
H  -3.29500 36.12400 33.91000
H  -1.72200 35.34900 34.07900
H  1.13400 40.34400 28.01100
H  0.26900 39.62800 29.36900
H  -0.56300 40.89700 28.46900
H  -0.07000 41.63300 25.82200
H  1.22900 41.68200 24.57200
H  1.66400 41.16300 26.05700
H  -0.74400 35.05800 22.34500
H  -3.35300 34.09500 21.97900
H  -2.83500 37.02500 22.32200
H  -3.10300 35.98200 20.94700
H  -1.47500 36.86900 21.16500
H  -1.56100 32.89200 21.21100
H  -2.47100 31.89200 22.46400
H  -0.20400 33.15000 23.71900
H  0.30400 32.50000 22.17300
H  -0.50500 31.40300 23.40800
H  -4.89600 30.09900 25.20500
H  -6.47900 30.84600 25.45200
H  -5.89500 29.61600 26.60200
H  -4.53800 31.81000 30.96000
H  -7.96600 31.69300 33.64400
H  -8.33800 33.07000 32.53300
H  -7.23500 33.27500 33.93200

