158

Mg 8.59300 2.93400 26.90700
C  9.71800 1.04200 29.67800
C  6.72600 4.75200 28.99000
C  7.57700 4.52100 24.08400
C  10.36900 0.67900 24.81200
N  8.25200 2.88000 29.13900
C  8.93900 2.14800 30.07300
C  8.87100 2.88100 31.45800
C  7.67000 3.93500 31.27400
C  7.39100 3.76800 29.70800
C  6.28200 3.80300 32.06500
C  10.28400 3.44500 31.86600
C  10.76700 2.92100 33.19500
H  11.04600 3.98100 34.21600
N  7.28600 4.33100 26.54200
C  6.62800 5.02300 27.57700
C  5.84000 6.06700 26.95200
C  6.13400 6.14600 25.60300
C  7.03200 4.99800 25.32300
C  4.90700 6.93300 27.72000
C  5.72800 7.14100 24.52900
O  6.25100 7.17600 23.45000
C  4.73700 8.20500 24.77800
N  8.85600 2.60900 24.68300
C  8.33600 3.40800 23.77000
C  8.68800 2.93700 22.38000
C  9.63500 1.72600 22.63100
C  9.70300 1.69000 24.12200
C  7.53000 2.61400 21.47800
C  10.94900 1.79000 21.84500
C  11.32900 0.45300 21.29200
N  9.74200 1.12500 27.13400
C  10.42800 0.37000 26.19500
C  11.03500 -0.76800 26.85500
C  10.85700 -0.48200 28.23600
C  10.00000 0.63200 28.36000
C  11.74400 -1.92200 26.16600
C  11.26100 -0.91900 29.58100
O  11.98700 -1.85800 29.96600
C  10.53600 0.09000 30.56700
C  9.76200 -0.65200 31.59400
O  8.86100 -1.44500 31.31900
O  10.36300 -0.46800 32.84200
C  9.58900 -0.98100 33.99000
H  6.23500 5.41900 29.70200
H  7.42600 5.18600 23.23100
H  10.90800 -0.16100 24.36700
H  8.65000 2.08400 32.16800
H  8.00600 4.95800 31.44300
H  5.85300 4.78700 32.25700
H  6.48200 3.23200 32.97200
H  5.58700 3.26300 31.42200
H  10.11100 4.52000 31.91400
H  11.03000 3.20100 31.10900
H  11.74400 2.44700 33.10200
H  10.07100 2.20100 33.62500
H  5.46600 7.73900 28.19500
H  4.46700 6.42600 28.57900
H  3.98000 7.24700 27.24000
H  3.76600 7.72100 24.88400
H  4.57300 8.81600 23.89000
H  5.05000 8.75800 25.66300
H  9.31600 3.74100 21.99500
H  9.12600 0.80700 22.33900
H  7.64300 1.68800 20.91400
H  7.42600 3.44800 20.78300
H  6.58700 2.61500 22.02500
H  11.63900 2.16600 22.60100
H  10.87400 2.49400 21.01700
H  11.95500 -0.11800 21.97700
H  11.94700 0.62200 20.41000
H  10.39000 -0.07700 21.13200
H  12.50300 -1.55200 25.47700
H  10.97600 -2.58000 25.76000
H  12.39100 -2.49900 26.82800
H  11.34300 0.66100 31.02700
H  9.56400 -0.18700 34.73600
H  10.04600 -1.89600 34.36800
H  8.56500 -1.25300 33.73800
Mg 9.64100 47.44800 27.01100
C  7.28400 46.84600 29.59800
C  11.83600 48.41900 29.44500
C  11.95300 48.07300 24.63600
C  7.21000 47.12700 24.66700
N  9.52100 47.45300 29.21200
C  8.48000 47.20500 30.12300
C  8.83000 47.40600 31.52700
C  10.16700 48.23200 31.36900
C  10.57800 48.04400 29.85000
C  10.24400 49.75900 31.84800
C  8.90300 46.06500 32.40900
C  9.93900 46.07800 33.53800
H  9.58800 45.17800 34.70100
N  11.66800 48.09000 27.02600
C  12.40200 48.45500 28.10900
C  13.78700 48.82300 27.72900
C  13.85800 48.65800 26.30700
C  12.46600 48.20000 25.91500
C  14.82000 49.12700 28.78700
C  15.05700 48.82700 25.25300
O  14.98800 48.50100 24.08500
C  16.26200 49.28100 25.93400
N  9.58700 47.81000 24.93600
C  10.63800 47.90000 24.15000
C  10.34500 47.82300 22.59000
C  8.76700 47.68500 22.62300
C  8.47700 47.46700 24.13800
C  10.82900 48.96800 21.67100
C  8.07200 46.54700 21.70800
C  7.28600 47.03000 20.43800
N  7.65400 47.00000 27.05200
C  6.80600 46.87200 25.98000
C  5.48300 46.58500 26.43200
C  5.58100 46.50600 27.89400
C  6.96200 46.78000 28.19200
C  4.28000 46.34300 25.59500
C  4.86800 46.30100 29.15300
O  3.70800 46.00400 29.45000
C  6.02600 46.41700 30.33300
C  6.06300 45.10100 31.05500
O  6.90700 44.24100 30.92400
O  5.20200 45.10000 32.12300
C  5.17400 43.91500 33.03800
H  12.54500 48.81000 30.17700
H  12.76200 48.16900 23.90800
H  6.49900 46.83000 23.89300
H  8.06900 48.08300 31.91500
H  10.96000 47.66400 31.85400
H  11.18800 49.92300 32.36800
H  9.45100 50.08300 32.52200
H  10.18100 50.38800 30.95900
H  9.03600 45.21900 31.73500
H  7.92100 45.95100 32.86900
H  10.17100 47.10800 33.80900
H  10.69200 45.38000 33.17000
H  14.99700 50.19800 28.68500
H  15.65500 48.45200 28.59900
H  14.48700 48.97100 29.81300
H  15.95300 50.13600 26.53700
H  16.99200 49.54100 25.16800
H  16.59400 48.45500 26.56300
H  10.86800 46.94100 22.21900
H  8.22200 48.62100 22.50600
H  11.27800 49.78800 22.23200
H  10.08000 49.44200 21.03700
H  11.71000 48.71900 21.07900
H  7.53900 45.86500 22.37100
H  8.91200 45.96500 21.33000
H  7.99100 47.27100 19.64200
H  6.87500 48.02600 20.60300
H  6.65800 46.19800 20.12000
H  3.97900 47.31500 25.20400
H  3.42400 45.90400 26.10700
H  4.57100 45.72300 24.74600
H  5.65200 47.14200 31.05700
H  5.33900 44.26700 34.05600
H  5.99100 43.22900 32.81500
H  4.14500 43.55600 33.06700

