158

Mg 34.71100 2.43300 29.61700
C  32.52700 3.42500 32.12600
C  37.27900 2.43300 31.80000
C  36.73400 1.46000 27.05500
C  32.11300 2.96800 27.31900
N  34.90600 2.92000 31.63300
C  33.85300 3.23200 32.51100
C  34.32600 3.13000 33.99100
C  35.90200 3.25300 33.79100
C  36.05400 2.81300 32.32200
C  36.46300 4.67700 34.07700
C  33.86700 1.84600 34.72400
C  33.13000 2.09200 36.09900
H  33.72000 3.09000 37.02900
N  36.71700 1.96000 29.47500
C  37.58600 1.95700 30.49000
C  38.85800 1.47600 29.98500
C  38.76100 1.23500 28.64200
C  37.35600 1.49400 28.30900
C  40.01700 1.28200 30.91100
C  39.80500 0.76700 27.66300
O  39.62400 0.68600 26.48200
C  41.18500 0.48700 28.13800
N  34.46300 2.17100 27.54300
C  35.44400 1.80100 26.69100
C  34.98500 1.75600 25.28600
C  33.42300 1.95700 25.44700
C  33.30900 2.43100 26.89800
C  35.58500 2.79600 24.29800
C  32.57000 0.65400 25.27200
C  31.43700 0.71800 24.17200
N  32.80600 3.11900 29.59000
C  31.82500 3.26500 28.67700
C  30.54500 3.71400 29.25500
C  30.79700 3.65800 30.62500
C  32.14600 3.34000 30.78000
C  29.24200 3.92900 28.47900
C  30.18100 3.72000 31.92200
O  29.04000 3.86800 32.34600
C  31.38900 3.66700 32.92400
C  31.51800 5.07700 33.45300
O  31.87400 6.09100 32.84800
O  31.02500 5.15700 34.76100
C  31.21600 6.45400 35.40200
H  38.12000 2.60100 32.47600
H  37.32000 1.07700 26.21700
H  31.28600 3.04500 26.61000
H  33.76800 3.99700 34.34300
H  36.49100 2.56000 34.39200
H  37.37800 4.68000 34.67000
H  35.70400 5.23700 34.62300
H  36.78900 5.27700 33.22800
H  34.74900 1.21800 34.84600
H  33.10400 1.27600 34.19300
H  33.25300 1.20500 36.72000
H  32.05300 2.08400 35.92900
H  40.48100 0.30400 30.78300
H  39.78400 1.37600 31.97100
H  40.78200 2.00900 30.63700
H  41.89800 0.38600 27.32100
H  41.17500 -0.33800 28.85000
H  41.40900 1.42400 28.64800
H  35.23000 0.74900 24.94900
H  33.09700 2.80500 24.84400
H  36.21100 2.21100 23.62400
H  36.13000 3.54100 24.87600
H  34.78500 3.28400 23.74100
H  32.01800 0.51300 26.20200
H  33.17300 -0.24000 25.11600
H  30.46800 0.38400 24.54500
H  31.77000 0.05000 23.37800
H  31.33300 1.73000 23.78100
H  29.55200 4.45300 27.57400
H  28.69700 4.74400 28.95500
H  28.69000 2.99800 28.35100
H  31.15800 2.97900 33.73800
H  30.85100 7.25400 34.75800
H  32.27300 6.49700 35.66400
H  30.65100 6.34700 36.32900
Mg 26.36100 49.73400 27.16800
C  24.37500 50.85500 29.90100
C  28.96900 49.32600 29.43200
C  28.37900 49.25000 24.61300
C  23.84600 50.86500 25.00000
N  26.65400 50.24200 29.41000
C  25.65700 50.50200 30.31100
C  26.16400 50.37900 31.78400
C  27.65900 50.04000 31.56000
C  27.78600 49.85200 30.03500
C  28.71300 51.03100 32.25900
C  25.28500 49.31200 32.55000
C  24.56500 49.79500 33.89500
H  25.54900 50.31500 34.95600
N  28.36400 49.27500 27.01200
C  29.21800 49.07400 28.06000
C  30.45300 48.61400 27.59000
C  30.36100 48.69100 26.17000
C  28.97600 49.12100 25.83900
C  31.64700 48.21000 28.50300
C  31.46400 48.48700 25.16700
O  31.27400 48.59500 23.94700
C  32.87100 48.25200 25.51100
N  26.11300 50.01600 25.14800
C  27.09200 49.65000 24.29900
C  26.66100 49.67300 22.84700
C  25.16800 50.10100 22.98000
C  25.00500 50.24700 24.48900
C  27.49400 50.30800 21.65300
C  24.15600 49.07500 22.28800
C  23.09200 49.73500 21.37600
N  24.48600 50.78100 27.39700
C  23.62400 51.16000 26.40400
C  22.47800 51.75900 27.01000
C  22.67500 51.68000 28.37500
C  23.95100 51.06900 28.54300
C  21.31900 52.38300 26.28600
C  22.11300 52.00900 29.72000
O  21.09200 52.59600 30.00100
C  23.21800 51.49400 30.72600
C  23.59900 52.72400 31.53300
O  24.71700 53.24900 31.61800
O  22.64200 53.00800 32.50200
C  23.05000 53.93300 33.60300
H  29.77300 49.13000 30.14300
H  28.99600 49.02000 23.74200
H  23.06800 51.15200 24.29000
H  26.12100 51.30600 32.35500
H  27.86300 49.05200 31.97400
H  28.32200 51.96500 32.66400
H  29.49300 51.11000 31.50200
H  29.02800 50.45800 33.13000
H  25.98700 48.53600 32.85500
H  24.63300 48.74200 31.88800
H  24.00200 48.94900 34.29000
H  23.92900 50.67000 33.76200
H  31.34800 47.66800 29.40100
H  32.29600 49.04200 28.77500
H  32.32200 47.54100 27.96900
H  33.17400 48.94300 26.29800
H  33.42600 48.38400 24.58300
H  32.88300 47.21200 25.83900
H  26.56400 48.62300 22.57200
H  25.12100 51.13400 22.63500
H  28.44800 50.52600 22.13400
H  26.98100 51.18900 21.26500
H  27.58600 49.50200 20.92500
H  23.63100 48.45600 23.01600
H  24.71300 48.38100 21.65900
H  22.07700 49.40900 21.60600
H  23.30200 49.35900 20.37500
H  23.14500 50.81700 21.49900
H  20.42400 52.27500 26.89900
H  21.07900 52.17600 25.24300
H  21.59100 53.43700 26.23700
H  22.61200 50.84200 31.35500
H  23.26900 54.93400 33.23100
H  24.05300 53.76700 33.99700
H  22.34800 53.97000 34.43600

