158

Mg 27.19400 49.88900 26.62200
C  25.07900 51.07200 29.22300
C  29.44800 48.99400 28.98400
C  29.09600 49.34300 24.12800
C  24.69800 51.24100 24.33400
N  27.22000 50.14400 28.90100
C  26.17400 50.43600 29.71700
C  26.50900 49.96200 31.20600
C  28.04400 49.48000 31.14900
C  28.19100 49.43000 29.57300
C  29.00700 50.45700 31.76400
C  25.53000 48.91000 31.71200
C  24.59100 49.26600 32.92000
H  24.61300 48.44400 34.29500
N  29.03700 49.43100 26.59100
C  29.87600 49.08600 27.62300
C  31.21800 48.84600 27.12700
C  31.18000 48.95500 25.68500
C  29.73900 49.20900 25.40100
C  32.38400 48.40000 28.06400
C  32.25200 48.92500 24.54100
O  31.91800 49.21600 23.36600
C  33.75900 48.56300 24.81900
N  26.91800 50.07400 24.48600
C  27.84900 49.73100 23.67500
C  27.42600 49.85900 22.16000
C  25.88000 50.18100 22.35000
C  25.81700 50.48600 23.82800
C  28.24300 50.92900 21.37900
C  24.95400 49.06400 21.93400
C  23.60300 49.62400 21.40000
N  25.39100 50.97700 26.68700
C  24.51700 51.47200 25.69000
C  23.41200 52.12800 26.26800
C  23.63400 52.05900 27.63000
C  24.80300 51.29600 27.84800
C  22.28100 52.74700 25.53000
C  23.05900 52.36600 28.91500
O  22.00800 52.98600 29.23300
C  23.93700 51.74700 30.01800
C  24.43600 52.73700 31.06600
O  25.30000 53.60400 30.98700
O  23.61300 52.59900 32.18500
C  23.90100 53.50900 33.26900
H  30.17600 48.64900 29.72100
H  29.70100 49.09000 23.25500
H  23.96100 51.69300 23.66700
H  26.47400 50.76800 31.93900
H  28.27000 48.46300 31.47100
H  28.42400 51.15500 32.36500
H  29.49000 51.04600 30.98500
H  29.81000 49.98500 32.32900
H  25.96200 47.91800 31.84600
H  24.82700 48.67500 30.91300
H  23.60600 49.51000 32.52300
H  24.90900 50.24700 33.27200
H  32.34800 47.31500 28.17000
H  32.20200 48.91100 29.01000
H  33.35800 48.66600 27.65400
H  34.21800 49.53400 25.00300
H  34.09000 47.95100 23.98000
H  33.87500 47.92100 25.69200
H  27.48200 48.86900 21.70600
H  25.69800 51.07800 21.75800
H  28.99000 51.29200 22.08400
H  27.69100 51.79000 21.00400
H  28.77100 50.45900 20.54800
H  24.62500 48.43600 22.76200
H  25.40800 48.39700 21.20100
H  22.82500 48.86900 21.50900
H  23.55000 49.91200 20.35000
H  23.32300 50.57200 21.86000
H  22.59700 53.72000 25.15300
H  21.36000 52.78400 26.11100
H  22.04300 52.12700 24.66500
H  23.30400 50.96900 30.44300
H  23.03700 53.63500 33.92200
H  24.25800 54.50500 33.00600
H  24.60800 53.07700 33.97600
Mg 17.21800 52.14300 26.56000
C  18.84800 50.78100 29.24800
C  14.70400 53.14600 28.67800
C  15.36800 52.94300 23.82900
C  19.50700 50.67300 24.47800
N  16.82900 51.99300 28.75500
C  17.68800 51.44700 29.63100
C  17.18500 51.64700 31.02600
C  15.72400 52.31100 30.87600
C  15.73400 52.53300 29.38400
C  14.60600 51.38200 31.44200
C  18.14400 52.56000 31.85600
C  18.07600 52.43900 33.38200
H  17.13800 51.38200 34.01300
N  15.34300 53.00200 26.32100
C  14.40300 53.23600 27.30700
C  13.35500 54.01000 26.70500
C  13.55300 53.94000 25.32100
C  14.79100 53.17900 25.09500
C  12.24800 54.77400 27.54200
C  12.63400 54.49600 24.18800
O  12.81000 54.32100 23.00200
C  11.29600 55.08200 24.65200
N  17.41700 51.90100 24.39600
C  16.61000 52.41500 23.47100
C  17.18300 52.35500 22.02800
C  18.62100 51.72700 22.36500
C  18.52300 51.41200 23.89300
C  16.41300 51.39200 21.02700
C  19.81500 52.62400 21.86900
C  20.49200 52.14700 20.55600
N  18.90300 50.98500 26.78500
C  19.75200 50.40300 25.83500
C  20.80000 49.76200 26.48100
C  20.50100 49.84900 27.81400
C  19.27100 50.55500 27.92800
C  21.99300 49.07700 25.94300
C  20.98000 49.53500 29.15400
O  21.92700 48.85600 29.54700
C  19.89000 50.08300 30.09200
C  19.41900 48.86300 30.88000
O  18.87300 47.89100 30.37100
O  19.63100 48.96200 32.25200
C  19.21900 47.83900 33.14200
H  13.88400 53.58000 29.25500
H  14.80300 53.31700 22.97300
H  20.24600 50.19000 23.83500
H  17.15000 50.69400 31.55300
H  15.70400 53.27400 31.38600
H  14.04600 51.93500 32.19600
H  14.94400 50.40500 31.78600
H  13.94800 51.24600 30.58400
H  17.91800 53.58300 31.55700
H  19.17000 52.40200 31.52200
H  17.99100 53.41300 33.86400
H  19.07900 52.06900 33.59600
H  12.17100 55.83800 27.32100
H  12.45900 54.56000 28.59000
H  11.27600 54.32500 27.33800
H  10.69500 55.27700 23.76300
H  11.54700 56.03300 25.12100
H  10.69800 54.33800 25.17800
H  17.26300 53.40900 21.76300
H  18.76700 50.73200 21.94500
H  15.37100 51.41700 21.34500
H  16.84500 50.39300 20.97100
H  16.49300 51.77800 20.01000
H  20.50700 52.91000 22.66200
H  19.41700 53.57900 21.52400
H  19.80200 51.44900 20.08000
H  21.41000 51.59500 20.75500
H  20.64000 53.02800 19.93200
H  21.80900 48.21100 25.30600
H  22.56700 48.84400 26.84000
H  22.64300 49.74000 25.37100
H  20.33700 50.71700 30.85700
H  18.21700 47.43300 33.00200
H  19.27800 48.06900 34.20600
H  19.86400 46.96800 33.02500

