158

Mg 50.72300 45.58700 41.58900
C  47.67000 46.91800 40.31200
C  49.79200 42.70200 40.01200
C  53.88900 44.74100 41.49000
C  51.66400 48.91900 42.47200
N  48.96500 44.95200 40.22600
C  47.84400 45.64700 39.87300
C  46.73000 44.74500 39.20900
C  47.34700 43.34700 39.44600
C  48.78800 43.68500 39.93800
C  46.51600 42.35400 40.35300
C  46.65200 45.25600 37.69600
C  45.16900 45.19100 37.21200
H  44.91300 44.09700 36.15900
N  51.62800 43.86000 41.14600
C  51.08500 42.76100 40.49000
C  52.12900 41.72800 40.39100
C  53.37100 42.29300 40.86400
C  52.97100 43.71600 41.24700
C  51.87600 40.30800 40.08000
C  54.67900 41.53800 40.89900
O  54.68300 40.32900 40.65400
C  55.79900 42.20700 41.49600
N  52.54100 46.62400 42.00300
C  53.76700 46.10400 41.75100
C  54.85500 47.08600 41.91700
C  54.13900 48.36200 42.46400
C  52.68800 47.92000 42.38700
C  56.13400 46.60900 42.77300
C  54.46500 49.78300 41.76200
C  54.78100 50.89300 42.82900
N  49.81900 47.53900 41.63900
C  50.28800 48.77300 41.98500
C  49.32300 49.80000 41.82800
C  48.25200 49.03900 41.19900
C  48.60700 47.68400 41.05700
C  49.33300 51.29700 42.15500
C  46.99600 49.31500 40.59700
O  46.39700 50.41000 40.46200
C  46.47900 47.83800 40.08200
C  45.32200 47.50900 40.90800
O  45.26300 46.59800 41.66500
O  44.29400 48.45200 40.70800
C  43.11600 48.22700 41.58600
H  49.44700 41.72300 39.67300
H  54.97100 44.62300 41.40500
H  51.93800 49.97400 42.55000
H  45.73900 44.78700 39.66000
H  47.37400 42.75000 38.53500
H  45.52000 42.79400 40.40000
H  46.91500 42.34600 41.36700
H  46.50200 41.36200 39.90200
H  47.19900 44.55300 37.06800
H  46.94400 46.28800 37.50200
H  44.97500 46.21400 36.89300
H  44.46600 44.92200 38.00000
H  52.31500 40.08000 39.10900
H  50.81600 40.11100 39.92000
H  52.18100 39.69300 40.92700
H  55.55300 42.57500 42.49200
H  56.05400 42.99800 40.79100
H  56.65100 41.52700 41.49200
H  55.23400 47.21300 40.90300
H  54.46600 48.47100 43.49800
H  56.09100 45.54200 42.99100
H  56.14500 47.16800 43.70900
H  57.09600 46.63900 42.26200
H  53.67400 50.09300 41.07900
H  55.32400 49.68000 41.09800
H  55.80700 51.25300 42.76000
H  54.55500 50.54800 43.83800
H  54.17900 51.78200 42.64000
H  49.99000 51.33600 43.02300
H  48.30900 51.54700 42.43600
H  49.78000 51.85700 41.33300
H  46.35800 47.78600 39.00000
H  42.37800 49.02900 41.54400
H  43.59100 48.38700 42.55400
H  42.69800 47.26900 41.27500
Mg 35.69200 48.28500 25.38600
C  36.38900 46.52100 28.20000
C  34.49400 50.82200 27.33100
C  34.67700 49.94300 22.56900
C  36.83000 45.64300 23.41600
N  35.38500 48.52400 27.53300
C  35.87800 47.73000 28.51000
C  35.67200 48.35700 29.93100
C  34.90500 49.59600 29.60500
C  34.93100 49.69800 28.03000
C  33.39400 49.56300 30.09500
C  37.04900 48.58600 30.63600
C  37.12500 48.23500 32.14000
H  36.01300 48.56100 33.12500
N  34.84600 50.18200 25.02000
C  34.47300 51.07900 25.95100
C  33.96100 52.25600 25.39500
C  33.82400 51.99200 23.99500
C  34.48400 50.67200 23.80100
C  33.51700 53.49300 26.18800
C  33.09600 52.81300 22.91800
O  33.07000 52.39800 21.78500
C  32.28800 54.03500 23.19700
N  35.71500 47.83000 23.32900
C  35.24400 48.66100 22.34900
C  35.68600 48.13200 20.93500
C  36.33400 46.78300 21.22700
C  36.31900 46.76900 22.75400
C  34.51100 47.89300 19.91100
C  37.77300 46.53900 20.58900
C  39.05900 47.16100 21.24100
N  36.42600 46.40700 25.68700
C  36.86600 45.41700 24.80500
C  37.37800 44.31000 25.52100
C  37.17300 44.65400 26.91900
C  36.64500 46.01400 26.93100
C  37.99300 43.00200 24.92300
C  37.39600 44.22300 28.28800
O  37.71100 43.12200 28.72800
C  36.93700 45.44500 29.16600
C  35.79500 44.95200 29.99800
O  34.66700 44.61100 29.62100
O  36.24400 44.92800 31.28200
C  35.30000 44.48000 32.34100
H  34.15200 51.60100 28.01500
H  34.40800 50.58800 21.73000
H  37.39500 44.97600 22.76100
H  35.09100 47.81300 30.67600
H  35.36500 50.42200 30.14700
H  33.20800 50.37500 30.79800
H  33.25500 48.62500 30.63300
H  32.63300 49.73500 29.33400
H  37.40500 49.61400 30.69500
H  37.74200 48.10400 29.94700
H  37.98700 48.82600 32.45000
H  37.34800 47.17500 32.26200
H  33.88400 54.37300 25.66100
H  34.06200 53.60700 27.12500
H  32.44100 53.52800 26.35900
H  31.86800 54.42000 22.26700
H  32.72000 54.85700 23.76800
H  31.43100 53.71900 23.79100
H  36.29500 48.88200 20.42800
H  35.77400 45.91100 20.88800
H  33.65000 47.80600 20.57400
H  34.59100 46.92100 19.42500
H  34.37300 48.72600 19.22200
H  37.75200 46.86100 19.54800
H  37.93600 45.50300 20.29200
H  39.68200 47.69700 20.52600
H  39.69600 46.36600 21.62700
H  38.69700 47.78800 22.05600
H  38.95400 42.78700 25.39100
H  38.09900 43.09600 23.84300
H  37.37100 42.12100 25.08100
H  37.85200 45.66600 29.71600
H  36.01100 44.23700 33.13100
H  34.68000 43.62400 32.07500
H  34.61400 45.24200 32.71100

