158

Mg 17.12700 -2.60700 27.30200
C  16.03100 -0.51500 29.91000
C  18.83400 -4.59000 29.48400
C  18.52200 -4.02100 24.62900
C  15.43000 -0.38400 25.07900
N  17.37700 -2.53800 29.52700
C  16.85500 -1.56800 30.34500
C  17.43500 -1.87300 31.76800
C  18.22900 -3.19800 31.65200
C  18.17600 -3.47200 30.10500
C  19.66300 -3.09800 32.23600
C  16.28200 -1.96100 32.79600
C  16.44100 -1.09600 34.06200
H  17.78500 -0.43200 34.45800
N  18.39200 -4.12000 27.03800
C  18.91400 -4.96500 28.03700
C  19.49600 -6.19500 27.48500
C  19.44300 -5.99800 26.08400
C  18.82300 -4.62900 25.86400
C  19.92900 -7.35300 28.37400
C  19.85700 -6.89400 24.96700
O  19.79700 -6.63500 23.76800
C  20.46000 -8.27000 25.32800
N  17.06600 -2.15800 25.16200
C  17.74000 -2.89200 24.25200
C  17.62500 -2.33500 22.80400
C  16.51800 -1.24900 22.98800
C  16.38500 -1.22100 24.46500
C  18.93600 -1.70600 22.31300
C  15.19700 -1.39800 22.15400
C  14.64000 -0.13400 21.34600
N  15.88500 -0.94100 27.36400
C  15.27300 -0.12800 26.43300
C  14.51300 0.93400 26.97500
C  14.83300 0.89400 28.30400
C  15.57400 -0.30300 28.53200
C  13.68500 1.97500 26.25700
C  14.68500 1.53800 29.54500
O  14.15700 2.59200 29.90900
C  15.49800 0.71000 30.62000
C  16.55400 1.57700 31.26800
O  17.75200 1.59300 30.95100
O  16.02600 2.28900 32.30400
C  16.87600 3.18600 33.14700
H  19.35600 -5.21400 30.21200
H  19.14600 -4.46800 23.85300
H  14.80600 0.31800 24.52200
H  18.09900 -1.03900 31.99500
H  17.82400 -3.98300 32.29100
H  19.76600 -2.43100 33.09200
H  20.40300 -2.78000 31.50100
H  19.92700 -4.07300 32.64700
H  16.11300 -2.96700 33.18000
H  15.37700 -1.67300 32.26100
H  16.20600 -1.77600 34.88100
H  15.68400 -0.32100 34.18700
H  19.83800 -8.34000 27.91900
H  19.33400 -7.31900 29.28600
H  20.96500 -7.16100 28.65300
H  21.39400 -8.09900 25.86300
H  20.75500 -8.80100 24.42300
H  19.71800 -8.90700 25.80800
H  17.27500 -3.19900 22.23900
H  16.87600 -0.28200 22.63500
H  19.02200 -2.15500 21.32300
H  19.71400 -1.94200 23.03900
H  19.01500 -0.64500 22.07600
H  14.40400 -1.85900 22.74200
H  15.45200 -2.13100 21.38800
H  13.59700 0.08100 21.57700
H  14.81000 -0.27500 20.27800
H  15.17700 0.75800 21.66900
H  13.06600 1.52700 25.48000
H  14.41100 2.59100 25.72600
H  13.12700 2.56200 26.98600
H  14.80100 0.36100 31.38200
H  16.78100 2.94800 34.20600
H  16.32000 4.12200 33.09700
H  17.94100 3.28400 32.93700
Mg -5.63200 25.43600 26.31000
C  -4.19600 26.65700 29.18500
C  -7.54900 23.40800 28.04800
C  -6.49000 24.05500 23.36600
C  -3.35900 27.54100 24.41300
N  -5.75000 25.07200 28.38600
C  -5.17800 25.69200 29.43700
C  -5.78300 25.27300 30.79000
C  -6.62600 24.01700 30.36200
C  -6.64700 24.15000 28.88100
C  -6.05100 22.67100 30.85600
C  -6.57700 26.45300 31.38700
C  -6.41200 26.73400 32.86600
H  -5.91400 25.50000 33.73600
N  -6.83700 23.92400 25.78300
C  -7.64700 23.23100 26.65700
C  -8.62100 22.37000 25.91800
C  -8.23000 22.49100 24.55300
C  -7.14500 23.52900 24.49700
C  -9.86800 21.77500 26.61200
C  -8.83400 21.76800 23.31900
O  -8.41100 21.99900 22.17200
C  -9.99700 20.73700 23.48800
N  -4.74800 25.54800 24.19700
C  -5.47700 24.98000 23.17600
C  -5.00700 25.46600 21.80500
C  -4.22300 26.74900 22.16400
C  -4.09100 26.61300 23.64900
C  -4.10000 24.43200 20.99400
C  -5.06100 28.08200 21.79800
C  -4.10400 29.18600 21.30800
N  -4.15600 26.86600 26.65800
C  -3.31200 27.59200 25.85600
C  -2.50300 28.48900 26.61600
C  -2.74700 28.12700 27.95300
C  -3.78500 27.13700 27.85600
C  -1.44100 29.50000 26.00800
C  -2.40600 28.28100 29.34500
O  -1.59900 29.01600 29.90800
C  -3.38900 27.37800 30.15000
C  -2.53900 26.50100 31.03800
O  -1.98200 25.46000 30.67700
O  -2.51600 27.03200 32.30900
C  -1.83000 26.11500 33.29900
H  -8.27000 22.88800 28.68300
H  -7.04200 23.71900 22.48500
H  -2.73200 28.19700 23.80700
H  -4.91700 25.10300 31.42800
H  -7.61700 24.11800 30.80300
H  -5.71100 22.78800 31.88500
H  -5.37200 22.25500 30.11100
H  -6.75100 21.83600 30.88100
H  -7.64100 26.41200 31.15600
H  -6.15600 27.31500 30.87100
H  -7.43200 26.95500 33.18100
H  -5.77100 27.58000 33.11200
H  -9.44200 20.94400 27.17400
H  -10.69300 21.48600 25.96100
H  -10.34500 22.51500 27.25400
H  -9.89600 20.01000 24.29400
H  -10.13000 20.23400 22.53000
H  -10.91200 21.32400 23.55900
H  -5.94600 25.53000 21.25500
H  -3.20300 26.75700 21.78000
H  -4.67000 24.11800 20.12000
H  -3.90300 23.64800 21.72500
H  -3.13100 24.82900 20.69100
H  -5.58500 28.51500 22.65000
H  -5.83400 27.95000 21.04100
H  -4.46400 29.53700 20.34100
H  -3.08200 28.84500 21.14100
H  -4.03400 30.00200 22.02700
H  -1.68900 30.49800 26.36700
H  -1.34200 29.44500 24.92400
H  -0.50600 29.28800 26.52700
H  -4.02000 27.93200 30.84500
H  -0.79700 25.93400 33.00300
H  -2.29800 25.13100 33.25900
H  -1.96700 26.57800 34.27700

