158

Mg 1.28000 -1.54000 44.39600
C  4.61200 -0.24900 44.00000
C  0.21500 1.27500 42.74300
C  -1.73600 -3.00900 43.94600
C  2.51500 -4.23900 45.90200
N  2.33700 0.15000 43.20800
C  3.68000 0.52300 43.30500
C  3.98900 1.88300 42.75700
C  2.57200 2.54000 42.83700
C  1.62100 1.27500 42.90900
C  2.38900 3.50100 44.02800
C  4.55500 1.80500 41.33100
C  6.01400 2.12900 40.90500
H  6.15800 2.99200 39.60900
N  -0.66800 -0.83400 43.59300
C  -0.85800 0.35400 42.97500
C  -2.19900 0.53600 42.58000
C  -2.77800 -0.78300 42.86600
C  -1.70000 -1.61200 43.47000
C  -2.72000 1.81200 41.91300
C  -4.19300 -1.17600 42.56500
O  -4.91700 -0.42300 41.92300
C  -4.73800 -2.43200 43.06200
N  0.57500 -3.40000 44.78300
C  -0.72100 -3.69500 44.61500
C  -1.00100 -5.00800 45.34500
C  0.30700 -5.49600 45.90500
C  1.17100 -4.30800 45.48800
C  -2.06600 -4.81000 46.40900
C  0.80700 -6.89300 45.32000
C  1.13900 -7.88900 46.43100
N  3.14200 -2.21500 44.78400
C  3.52400 -3.34200 45.45000
C  4.86100 -3.29200 45.83500
C  5.36000 -2.11800 45.27200
C  4.27300 -1.48300 44.60500
C  5.64000 -4.27600 46.70600
C  6.50600 -1.25300 45.24600
O  7.62200 -1.29000 45.76600
C  6.12800 -0.07800 44.27700
C  6.38500 1.12600 45.04900
O  5.61000 1.60200 45.90700
O  7.59000 1.64000 44.65300
C  8.09600 2.71700 45.36900
H  -0.05100 2.29200 42.44800
H  -2.59300 -3.68600 43.97600
H  2.95200 -5.05100 46.48700
H  4.61200 2.44800 43.45000
H  2.35200 3.21200 42.00800
H  3.27000 3.83000 44.57900
H  1.69000 3.03600 44.72300
H  1.95600 4.44700 43.70300
H  3.98900 2.44400 40.65300
H  4.32500 0.90000 40.76800
H  6.35900 1.12300 40.66900
H  6.54400 2.56500 41.75300
H  -2.85500 1.56100 40.86100
H  -2.11900 2.72000 41.86500
H  -3.71500 2.03000 42.30200
H  -5.78900 -2.62300 42.84300
H  -4.53900 -2.31100 44.12700
H  -4.12700 -3.16600 42.53700
H  -1.31500 -5.71900 44.58000
H  0.19400 -5.47000 46.98900
H  -1.46100 -4.39700 47.21600
H  -2.48200 -5.78600 46.66100
H  -2.90300 -4.22400 46.03100
H  1.76000 -6.65100 44.85100
H  0.16100 -7.41500 44.61400
H  2.09000 -7.57900 46.86400
H  1.11700 -8.90800 46.04400
H  0.37000 -7.98100 47.19700
H  5.97500 -5.01300 45.97600
H  4.98600 -4.80100 47.40200
H  6.44600 -3.63900 47.07100
H  6.81900 0.00500 43.43800
H  9.12900 2.91700 45.08600
H  8.10800 2.44800 46.42500
H  7.50400 3.59300 45.10400
Mg 46.10400 5.15500 48.97700
C  44.08000 7.92200 47.98500
C  43.43800 3.12700 48.06400
C  48.14700 2.64100 49.05700
C  48.82600 7.45700 49.13800
N  44.07700 5.52900 48.03400
C  43.45800 6.70400 47.75000
C  42.03400 6.57000 47.20900
C  41.78800 5.07700 47.43900
C  43.15500 4.51000 47.93900
C  40.62200 4.72700 48.43000
C  42.00600 7.06000 45.67700
C  40.80200 8.03000 45.41400
H  39.87500 7.63100 44.21400
N  45.79900 3.12200 48.71000
C  44.62900 2.51400 48.40100
C  44.87200 1.06000 48.52400
C  46.26000 0.81300 48.72900
C  46.81900 2.19100 48.80200
C  43.85500 -0.01400 48.45500
C  47.02800 -0.50000 48.84000
O  46.47700 -1.59300 48.87500
C  48.48600 -0.72400 48.88900
N  48.17200 5.08200 48.70700
C  48.78500 3.88400 49.06100
C  50.28900 4.07900 49.35400
C  50.40300 5.64300 49.20300
C  48.99100 6.12800 48.99900
C  50.68800 3.58900 50.79000
C  51.30800 6.05900 47.94600
C  52.69000 6.66900 48.16100
N  46.38600 7.29300 48.87000
C  47.51500 8.02000 49.00800
C  47.18300 9.38300 49.03400
C  45.82700 9.42700 48.62700
C  45.37900 8.13100 48.51700
C  48.12200 10.46400 49.22000
C  44.66900 10.30500 48.32700
O  44.56600 11.48400 48.42500
C  43.49000 9.35600 47.77600
C  42.44800 9.67300 48.76500
O  42.39800 9.27600 49.90100
O  41.34800 10.32200 48.17100
C  40.09700 10.20100 48.95800
H  42.59800 2.53700 47.69100
H  48.78400 1.80900 49.36700
H  49.74000 8.04600 49.23800
H  41.39000 7.25200 47.76400
H  41.52400 4.53600 46.53000
H  41.03300 4.38100 49.37800
H  39.91800 4.03200 47.97400
H  40.07500 5.64500 48.64500
H  41.82000 6.18200 45.05800
H  42.90900 7.63000 45.45600
H  41.20800 9.03800 45.32600
H  40.14900 8.14200 46.27900
H  42.89900 0.39900 48.13300
H  43.68500 -0.44900 49.44000
H  43.94400 -0.72900 47.63600
H  48.95900 -0.12600 48.11000
H  48.83300 -1.75400 48.80200
H  48.70100 -0.35200 49.89100
H  50.89500 3.48700 48.66800
H  50.83700 6.04600 50.11800
H  49.93800 3.78000 51.55600
H  51.60600 4.06400 51.13700
H  50.98000 2.55000 50.63600
H  50.69400 6.77700 47.40200
H  51.36300 5.18900 47.29300
H  53.31800 6.28000 47.35900
H  53.15000 6.48600 49.13200
H  52.57700 7.74200 48.00700
H  49.04500 10.32800 48.65700
H  48.17600 10.64600 50.29400
H  47.60300 11.27700 48.71200
H  43.24600 9.67700 46.76300
H  39.22000 10.62700 48.47000
H  40.23900 10.59400 49.96500
H  39.83200 9.14400 48.97100

