158

Mg 35.52000 3.21200 30.62000
C  32.93900 4.14300 32.87700
C  37.79800 3.86700 33.16700
C  37.98100 3.04400 28.38400
C  33.19000 3.09700 28.11100
N  35.33500 3.88800 32.73700
C  34.23000 4.15800 33.47600
C  34.53300 4.24800 34.99600
C  36.12300 4.44900 34.92500
C  36.47900 4.03900 33.52500
C  36.87500 5.71300 35.45900
C  33.76400 3.10900 35.80600
C  34.51900 2.58800 37.02900
H  34.95100 3.55200 38.14900
N  37.62200 3.17300 30.78500
C  38.42200 3.30700 31.95800
C  39.80800 3.00300 31.59900
C  39.88700 2.82200 30.21000
C  38.45000 3.06200 29.71800
C  40.81500 2.82700 32.72300
C  41.08900 2.35300 29.34500
O  40.99600 2.18400 28.10500
C  42.35000 2.08400 29.95600
N  35.53800 3.14200 28.54800
C  36.67000 3.04400 27.83800
C  36.47200 2.73000 26.41100
C  34.84800 2.66700 26.30600
C  34.45400 2.95300 27.71000
C  37.20300 3.51500 25.23900
C  34.26900 1.28300 25.77600
C  33.10300 1.28700 24.82800
N  33.49500 3.58800 30.41600
C  32.64900 3.53800 29.36400
C  31.23700 3.85000 29.71900
C  31.31500 4.00100 31.08200
C  32.67200 3.90300 31.45100
C  30.01200 3.99600 28.83900
C  30.59300 4.34700 32.22200
O  29.41300 4.59300 32.29400
C  31.55500 4.27300 33.47000
C  31.41500 5.52700 34.30300
O  31.59600 6.66400 33.88100
O  31.13900 5.18400 35.63800
C  31.25400 6.30700 36.59200
H  38.56800 4.05800 33.91700
H  38.76900 3.06000 27.62800
H  32.54900 2.82000 27.27100
H  34.16100 5.22200 35.31500
H  36.50700 3.57200 35.44400
H  37.53700 5.31700 36.22900
H  36.11600 6.32900 35.94100
H  37.50800 6.27000 34.76800
H  33.59400 2.23800 35.17300
H  32.74900 3.44200 36.02100
H  35.39400 2.04100 36.67800
H  34.02700 1.76800 37.55100
H  41.53800 3.64300 32.69700
H  41.26600 1.85100 32.54300
H  40.36100 2.82400 33.71400
H  43.05100 1.93700 29.13400
H  42.24300 1.17100 30.54100
H  42.53800 2.96100 30.57500
H  36.79200 1.68900 26.36300
H  34.42100 3.45000 25.67800
H  37.01600 2.93900 24.33200
H  38.28100 3.43300 25.37000
H  36.87900 4.55100 25.13800
H  33.78000 0.89400 26.66900
H  35.05500 0.53800 25.65500
H  32.15800 0.86400 25.16700
H  33.31600 0.84400 23.85500
H  32.92700 2.32500 24.54600
H  30.33000 4.77000 28.14100
H  29.19900 4.35400 29.47000
H  29.60700 3.12500 28.32400
H  31.41100 3.48600 34.21000
H  30.85000 7.21800 36.15000
H  32.25800 6.39100 37.00800
H  30.62100 6.09600 37.45400
Mg 9.45200 47.92600 25.43900
C  7.14400 48.33500 28.10200
C  11.81300 49.29600 27.64000
C  11.69800 47.80800 22.94300
C  6.84500 47.01800 23.28000
N  9.49700 48.44700 27.70800
C  8.46100 48.65500 28.50900
C  8.96900 49.04000 29.92400
C  10.29000 49.74500 29.60800
C  10.59100 49.09900 28.26600
C  10.20000 51.21600 29.51900
C  9.09100 47.77300 30.75300
C  8.62900 47.92200 32.17600
H  8.87700 46.79500 33.19800
N  11.47800 48.43500 25.32200
C  12.28100 48.95000 26.34700
C  13.63000 49.19200 25.84100
C  13.62300 48.73900 24.47600
C  12.20600 48.34700 24.19300
C  14.78900 49.65500 26.58000
C  14.72900 48.42700 23.53000
O  14.54900 48.05300 22.39400
C  16.14600 48.72700 23.96900
N  9.27600 47.61900 23.39900
C  10.36600 47.49500 22.53300
C  9.95300 47.18400 21.09400
C  8.41900 46.80400 21.24900
C  8.18200 47.16800 22.74700
C  10.17100 48.30400 20.08800
C  8.07900 45.32200 20.93700
C  8.57500 44.33100 21.99800
N  7.40900 47.76400 25.57600
C  6.51800 47.42400 24.61200
C  5.14100 47.44000 25.19200
C  5.39200 47.65200 26.55200
C  6.78800 47.91800 26.72700
C  3.87900 47.19300 24.51200
C  4.74200 47.84600 27.87500
O  3.57400 47.80700 28.30300
C  5.86100 48.21500 28.88800
C  5.87100 47.18200 29.94600
O  6.31600 46.04900 29.73800
O  5.37900 47.61300 31.15700
C  5.37600 46.65500 32.24600
H  12.56800 49.66000 28.34100
H  12.32100 47.69300 22.05300
H  5.96700 46.73800 22.69400
H  8.28100 49.78500 30.32300
H  11.11800 49.45600 30.25500
H  9.16900 51.56700 29.46900
H  10.56500 51.61100 28.57100
H  10.68200 51.63700 30.40000
H  10.14900 47.65900 30.98900
H  8.64500 46.89900 30.27700
H  7.61600 48.31300 32.26700
H  9.19900 48.71400 32.66300
H  15.39800 50.30600 25.95300
H  15.32000 48.75100 26.87700
H  14.33600 50.07600 27.47800
H  16.41200 49.78400 23.99900
H  16.75000 48.14700 23.27100
H  16.31100 48.27100 24.94500
H  10.50200 46.29500 20.78500
H  7.66800 47.40500 20.73800
H  9.78400 49.28100 20.37900
H  9.62000 48.11000 19.16800
H  11.20000 48.41500 19.74800
H  8.41200 45.06700 19.93200
H  6.98900 45.30700 20.92900
H  9.28100 44.67100 22.75600
H  9.04100 43.46700 21.52400
H  7.73900 43.95900 22.59000
H  3.99100 46.90000 23.46800
H  3.34800 48.14400 24.52300
H  3.22100 46.46600 24.98900
H  5.67200 49.19700 29.32100
H  5.90300 47.18900 33.03600
H  5.71500 45.67900 31.89700
H  4.31200 46.48700 32.41400

