158

Mg -1.46100 17.77700 26.97600
C  -2.00300 15.83300 29.78400
C  -2.18500 20.53000 29.03800
C  -1.71700 19.82400 24.26500
C  -2.09500 14.99900 24.91900
N  -2.02500 18.16600 29.17200
C  -1.98300 17.18800 30.14900
C  -2.14400 17.78500 31.57300
C  -2.63500 19.25300 31.24900
C  -2.28700 19.35800 29.71100
C  -4.19300 19.60400 31.49700
C  -0.93800 17.75800 32.51500
C  -1.45500 17.56800 34.04100
H  -0.49200 16.78400 34.86900
N  -1.66800 19.86400 26.68700
C  -1.96300 20.81600 27.66500
C  -1.93100 22.13700 27.02600
C  -1.66000 21.86500 25.72500
C  -1.67300 20.46500 25.46900
C  -2.15300 23.41200 27.66100
C  -1.20700 22.83400 24.58800
O  -0.88000 22.60900 23.45200
C  -1.31300 24.32300 24.95800
N  -1.91100 17.39800 24.91900
C  -1.73700 18.40700 24.02500
C  -1.75300 17.86800 22.52200
C  -1.83200 16.30400 22.76700
C  -1.99900 16.17000 24.29000
C  -2.89800 18.51500 21.72300
C  -0.65800 15.53000 22.18800
C  0.74700 15.77600 22.82400
N  -1.82800 15.76900 27.24500
C  -2.03500 14.72600 26.33200
C  -2.22300 13.52100 27.05600
C  -2.19600 13.90300 28.46300
C  -1.92700 15.25900 28.49400
C  -2.34100 12.13600 26.47700
C  -2.35000 13.36200 29.80100
O  -2.62900 12.24100 30.20600
C  -2.37800 14.67900 30.73600
C  -1.35000 14.35200 31.77200
O  -0.15500 14.61000 31.66700
O  -1.89800 13.76500 32.94700
C  -0.91700 13.30500 33.94400
H  -2.45000 21.37500 29.67800
H  -1.73300 20.43800 23.36200
H  -2.33300 14.14200 24.28600
H  -3.05300 17.33000 31.96600
H  -2.07400 19.95000 31.87200
H  -4.27300 20.22700 32.38800
H  -4.68300 18.65300 31.70600
H  -4.67900 20.15700 30.69300
H  -0.39200 18.68400 32.33800
H  -0.20100 16.97700 32.32600
H  -2.51500 17.32200 34.09400
H  -1.40500 18.56300 34.48200
H  -1.23600 23.98300 27.80300
H  -2.38800 23.17600 28.69900
H  -2.97500 24.01000 27.26600
H  -2.37700 24.55300 25.02200
H  -0.85700 24.84000 24.11400
H  -0.67200 24.63300 25.78300
H  -0.79500 18.18800 22.11200
H  -2.79600 15.97800 22.37800
H  -3.80700 17.93100 21.86600
H  -2.66000 18.53700 20.66000
H  -3.14000 19.49200 22.14100
H  -0.86800 15.72000 21.13500
H  -0.90800 14.48000 22.33800
H  0.67800 16.25300 23.80100
H  1.35100 16.28300 22.07100
H  1.25200 14.82500 22.99300
H  -1.40100 11.58900 26.55800
H  -2.61600 12.14100 25.42200
H  -3.09800 11.63300 27.07800
H  -3.31100 14.77800 31.29100
H  -0.38000 12.49000 33.45800
H  -1.42200 12.86600 34.80500
H  -0.19600 14.04800 34.28500
Mg 1.04100 8.52200 27.44000
C  1.47500 11.09600 29.83400
C  1.43500 6.23300 29.80000
C  0.45800 6.16900 25.09500
C  0.86700 11.11700 25.03800
N  1.43000 8.68100 29.47900
C  1.34900 9.76100 30.27000
C  1.03600 9.40800 31.76700
C  1.46400 7.92000 31.76800
C  1.38600 7.57000 30.22300
C  2.79800 7.59400 32.42100
C  -0.47200 9.54200 32.13200
C  -0.72300 9.43200 33.74700
H  0.34400 8.85600 34.70600
N  0.89100 6.49400 27.45500
C  1.14100 5.66600 28.51500
C  0.90600 4.32800 28.25400
C  0.67100 4.25100 26.87400
C  0.61800 5.67700 26.40000
C  1.04900 3.21100 29.30000
C  0.49700 2.99500 25.94100
O  0.43900 3.09400 24.75100
C  0.78700 1.65500 26.50200
N  0.57100 8.64200 25.31200
C  0.52100 7.45800 24.57000
C  0.37800 7.86400 23.10600
C  0.05300 9.42100 23.14700
C  0.49600 9.81600 24.58000
C  1.75900 7.58200 22.42000
C  -1.54300 9.67900 22.92800
C  -2.01900 10.19400 21.57500
N  1.23500 10.61100 27.35100
C  1.22800 11.52300 26.36200
C  1.53900 12.85000 26.79100
C  1.67100 12.74600 28.15600
C  1.43500 11.36200 28.47500
C  1.51600 14.14800 26.00100
C  1.87800 13.46400 29.46000
O  2.15400 14.63100 29.74400
C  1.73400 12.36200 30.54800
C  2.77600 12.53900 31.59600
O  3.98200 12.29800 31.51100
O  2.19800 12.74700 32.80300
C  2.93100 12.64600 34.05000
H  1.47700 5.45300 30.56300
H  0.37300 5.42100 24.30400
H  0.72100 11.76800 24.17300
H  1.78800 9.93900 32.35000
H  0.76700 7.27100 32.30000
H  3.26100 6.98500 31.64500
H  2.69300 6.90900 33.26300
H  3.33500 8.53400 32.54800
H  -1.01000 8.75400 31.60500
H  -0.75700 10.53400 31.78200
H  -1.56500 8.74200 33.79900
H  -1.08400 10.41700 34.04100
H  2.03500 2.74700 29.29300
H  0.30300 2.44400 29.09300
H  0.74000 3.54500 30.29000
H  -0.14200 1.10300 26.64500
H  1.46000 1.61600 27.35800
H  1.36800 1.25100 25.67300
H  -0.26100 7.19800 22.52600
H  0.73100 9.87100 22.42200
H  1.62800 7.18800 21.41200
H  2.18400 6.74200 22.97000
H  2.44500 8.42100 22.30800
H  -1.72300 10.46000 23.66700
H  -2.04100 8.76700 23.25800
H  -1.28000 9.81000 20.87100
H  -2.22100 11.26000 21.47200
H  -2.87900 9.63400 21.20800
H  0.61400 14.22300 25.39400
H  2.30100 14.33800 25.26900
H  1.50100 15.03400 26.63600
H  0.85000 12.54100 31.16000
H  3.97600 12.90900 33.89000
H  2.99000 11.60500 34.36700
H  2.51200 13.23800 34.86300

