158

Mg 47.48800 16.22400 28.05300
C  45.64600 15.76700 30.93000
C  50.01500 17.78400 29.80400
C  49.30000 16.50900 25.10200
C  44.78100 15.00600 26.21000
N  47.74700 16.81000 30.10600
C  46.90900 16.37100 31.11600
C  47.45900 16.80800 32.45500
C  48.64700 17.73900 32.10200
C  48.81800 17.51200 30.56900
C  48.59700 19.29400 32.41900
C  47.91700 15.69100 33.42900
C  48.40600 16.13200 34.83900
H  48.14900 17.59700 35.30200
N  49.37500 16.90700 27.55600
C  50.29400 17.43800 28.44700
C  51.55400 17.67700 27.79000
C  51.32600 17.39600 26.43800
C  49.92700 16.89200 26.27700
C  52.83800 18.11000 28.51500
C  52.30800 17.52600 25.27100
O  52.00900 17.36400 24.14500
C  53.75800 17.97300 25.59600
N  47.08200 15.79400 25.98400
C  47.98400 16.01800 24.93500
C  47.37400 15.68900 23.57200
C  46.03100 14.96300 24.02200
C  45.92900 15.23400 25.47600
C  47.09300 16.94100 22.65900
C  46.07300 13.40600 23.77600
C  44.93700 12.92100 22.88000
N  45.44700 15.81500 28.47500
C  44.51700 15.24100 27.61300
C  43.35300 14.83400 28.44200
C  43.72500 15.14100 29.71700
C  45.05200 15.66600 29.67300
C  42.08800 14.19500 27.93900
C  43.31000 15.02100 31.05500
O  42.29800 14.61600 31.54900
C  44.59300 15.37800 31.92400
C  44.30200 16.46100 32.93300
O  44.09900 17.66100 32.64100
O  44.44400 15.92200 34.20600
C  44.03200 16.74200 35.37300
H  50.79800 18.15400 30.46900
H  49.80800 16.75000 24.16600
H  43.97000 14.51900 25.66500
H  46.70900 17.43900 32.93200
H  49.59100 17.31800 32.44900
H  48.98800 19.82900 31.55300
H  49.15300 19.51900 33.32900
H  47.56800 19.60200 32.60600
H  48.64900 15.02900 32.96600
H  47.08700 14.98700 33.50000
H  49.45600 15.84900 34.90500
H  47.88100 15.54400 35.59200
H  53.53100 17.31200 28.25000
H  52.72800 18.24600 29.59100
H  53.23000 19.04700 28.12000
H  53.92200 19.03000 25.80500
H  54.27900 17.77600 24.65900
H  54.33100 17.28100 26.21400
H  48.04900 15.02900 23.02800
H  45.26600 15.50800 23.47000
H  47.83800 17.73600 22.66700
H  46.14900 17.43000 22.90000
H  46.99300 16.61400 21.62400
H  45.95300 12.92800 24.74800
H  47.01700 13.07100 23.34600
H  44.14400 12.35500 23.37000
H  45.33900 12.22000 22.15000
H  44.43700 13.73500 22.35400
H  42.10700 13.10600 27.98500
H  41.94200 14.55800 26.92200
H  41.21600 14.34200 28.57700
H  44.98200 14.50000 32.43900
H  43.17200 17.37700 35.16300
H  44.84200 17.31600 35.82300
H  43.74000 16.03800 36.15200
Mg 35.13400 49.10600 26.54600
C  35.56300 46.91800 29.26000
C  34.01200 51.54200 28.66600
C  34.24100 50.99400 23.82500
C  35.85600 46.52200 24.43300
N  34.79200 49.31900 28.73200
C  35.16700 48.22700 29.61000
C  34.88700 48.73500 31.01000
C  34.40200 50.24000 30.87000
C  34.37200 50.39200 29.38100
C  33.03300 50.48500 31.55200
C  36.12700 48.59600 31.86900
C  36.01500 48.03100 33.34100
H  36.46600 49.11800 34.36200
N  34.35600 51.00800 26.30700
C  33.93200 51.85200 27.33600
C  33.60700 53.17400 26.76300
C  33.64500 53.11300 25.37300
C  34.06300 51.63300 25.10000
C  33.51500 54.43700 27.63500
C  33.52100 54.19200 24.35600
O  33.68200 53.97000 23.17100
C  33.11600 55.63200 24.69500
N  35.08500 48.85600 24.41400
C  34.61200 49.70500 23.49100
C  34.48300 49.04600 22.09600
C  35.27100 47.70400 22.33900
C  35.51200 47.68300 23.81200
C  33.06000 48.79900 21.46700
C  36.58100 47.43400 21.46100
C  36.93900 45.96800 21.03300
N  35.58600 47.15600 26.75800
C  35.88700 46.25500 25.76000
C  36.13600 44.96400 26.41200
C  35.98500 45.18800 27.76000
C  35.68100 46.51300 27.89000
C  36.33800 43.61200 25.78200
C  36.06500 44.53800 29.08000
O  36.34100 43.41800 29.44300
C  35.70800 45.67700 30.09800
C  34.43100 45.39500 30.79300
O  33.37500 45.05500 30.22000
O  34.55300 45.41700 32.19400
C  33.43500 44.82900 32.94400
H  33.52300 52.30300 29.27700
H  33.92200 51.57500 22.95700
H  36.00500 45.59100 23.88200
H  34.06700 48.10400 31.35200
H  35.05300 51.03400 31.23500
H  32.80700 49.64700 32.21100
H  32.32800 50.43800 30.72300
H  32.86000 51.46300 32.00100
H  36.66300 49.54400 31.89400
H  36.86800 47.97100 31.36900
H  36.64600 47.15400 33.48300
H  35.01100 47.72600 33.63600
H  34.32100 55.13300 27.40200
H  33.39600 54.32800 28.71300
H  32.58800 54.92300 27.32900
H  33.23900 56.26000 23.81200
H  33.70900 56.16300 25.43900
H  32.08800 55.69200 25.05300
H  35.01800 49.63900 21.35300
H  34.66400 46.81200 22.18100
H  33.10200 49.43300 20.58100
H  32.19500 49.01900 22.09200
H  32.86600 47.83500 20.99500
H  37.35900 47.73900 22.16000
H  36.64900 48.08300 20.58700
H  38.00200 45.80300 21.20800
H  36.76900 45.83500 19.96500
H  36.41200 45.20100 21.60100
H  37.39100 43.62300 25.49700
H  35.77700 43.32600 24.89200
H  36.24300 42.88300 26.58600
H  36.50500 45.93000 30.79700
H  32.49300 45.26400 32.60900
H  33.66600 45.32900 33.88500
H  33.44400 43.74000 32.99900

