158

Mg 47.01300 16.73500 28.80200
C  44.99000 16.33100 31.43400
C  49.15100 18.68100 30.56600
C  48.77400 17.32400 25.86600
C  44.50900 15.15800 26.72200
N  47.03500 17.40600 30.72900
C  46.09000 17.11700 31.66900
C  46.55600 17.56000 33.05800
C  47.70800 18.53100 32.68600
C  48.01500 18.21400 31.25300
C  47.58000 20.08800 32.96100
C  47.10300 16.37800 33.92500
C  47.19400 16.58600 35.47000
H  46.93200 17.97100 36.21100
N  48.83700 17.80200 28.32600
C  49.55000 18.54200 29.19600
C  50.70300 19.12800 28.50100
C  50.53900 18.66200 27.11500
C  49.39600 17.79700 27.07100
C  51.75500 20.11100 29.20200
C  51.46600 19.08800 25.96800
O  51.27300 18.97100 24.79200
C  52.79500 19.74600 26.22300
N  46.76000 16.12300 26.55300
C  47.60600 16.62200 25.60100
C  47.05300 16.42200 24.22900
C  45.71900 15.58200 24.46300
C  45.63900 15.61500 26.00800
C  46.91400 17.62800 23.33600
C  45.71500 14.18600 23.97000
C  44.87000 13.87400 22.69500
N  45.18000 15.82300 28.97700
C  44.28300 15.29800 28.08100
C  43.09100 14.99600 28.81600
C  43.36200 15.26400 30.14100
C  44.61700 15.83100 30.18700
C  41.90400 14.36200 28.28400
C  42.72300 15.21300 31.36500
O  41.57600 14.85100 31.70600
C  43.85800 15.81800 32.35600
C  43.31200 16.92400 33.14200
O  43.04400 18.07200 32.73200
O  43.22400 16.48800 34.41100
C  42.60900 17.38900 35.43500
H  49.78600 19.22700 31.26700
H  49.27200 17.50900 24.91200
H  43.69800 14.76500 26.10500
H  45.74900 18.11500 33.53500
H  48.62900 18.25000 33.19600
H  46.66500 20.35200 33.49000
H  47.65400 20.73700 32.08700
H  48.42700 20.37500 33.58400
H  48.07100 16.07300 33.52700
H  46.40600 15.55600 33.76200
H  48.23100 16.37700 35.73000
H  46.53200 15.84000 35.90900
H  52.13200 20.94000 28.60300
H  52.66200 19.56300 29.45700
H  51.29600 20.51800 30.10300
H  53.32700 19.08800 26.91000
H  52.63600 20.80800 26.40800
H  53.50900 19.65200 25.40400
H  47.82900 15.80000 23.78300
H  44.83300 16.02300 24.00500
H  46.69800 18.56200 23.85500
H  46.03100 17.42700 22.73000
H  47.76400 17.49700 22.66700
H  45.36800 13.46300 24.70800
H  46.75500 13.86100 23.93300
H  45.44900 13.99300 21.77900
H  43.98000 14.49800 22.78100
H  44.58900 12.82200 22.73300
H  41.92400 13.29100 28.48400
H  41.71000 14.68700 27.26200
H  41.06000 14.86600 28.75600
H  44.16200 15.04700 33.06500
H  43.38900 18.11700 35.65700
H  42.25900 16.85300 36.31700
H  41.78000 17.89700 34.94200
Mg 36.46900 49.93500 25.38100
C  36.61700 48.13700 28.38400
C  35.06000 52.53200 27.28700
C  35.61300 51.50200 22.54600
C  37.41700 47.14600 23.68300
N  35.81200 50.24400 27.65400
C  36.13700 49.36400 28.63100
C  36.00800 50.02700 29.99000
C  35.08400 51.27800 29.60800
C  35.39000 51.41900 28.10300
C  33.53700 51.07200 29.98600
C  37.29800 50.33500 30.77500
C  37.17800 50.18700 32.33000
H  35.83800 50.37800 32.95700
N  35.63400 51.81400 24.94600
C  35.21600 52.70500 25.89800
C  34.75500 53.91600 25.19600
C  34.77900 53.56800 23.79500
C  35.35300 52.32100 23.68500
C  34.35900 55.23000 25.90300
C  34.21400 54.36800 22.67600
O  34.25800 53.99900 21.49900
C  33.53100 55.68700 22.82400
N  36.35600 49.32600 23.43300
C  36.00500 50.16200 22.38700
C  36.37900 49.53500 21.02300
C  37.22000 48.28600 21.41500
C  37.01000 48.21300 22.97100
C  35.20200 49.16400 20.06700
C  38.64900 48.44500 20.97900
C  38.93000 47.36300 19.90200
N  36.91900 47.97300 25.87300
C  37.36700 46.95200 25.07800
C  37.63100 45.74100 25.77700
C  37.41800 46.16800 27.15200
C  37.00300 47.54500 27.13300
C  38.06100 44.50900 25.14000
C  37.36200 45.75200 28.53500
O  37.55300 44.68900 29.05100
C  36.85200 47.00200 29.40000
C  35.69400 46.64000 30.24000
O  34.48800 46.69800 29.95900
O  36.13200 46.41000 31.52000
C  35.01700 46.35200 32.54300
H  34.43700 53.26300 27.80600
H  35.29900 51.97700 21.61500
H  37.79000 46.42600 22.95200
H  35.38900 49.38900 30.62100
H  35.30400 52.19500 30.15500
H  33.44300 50.02800 30.28600
H  32.91200 51.33900 29.13400
H  33.25600 51.83000 30.71700
H  37.60600 51.36000 30.56900
H  38.11800 49.75600 30.35000
H  37.77800 50.92300 32.86400
H  37.52200 49.19600 32.62600
H  33.27200 55.30800 25.92800
H  34.75600 56.09600 25.37300
H  34.83400 55.21300 26.88400
H  32.68600 55.63000 23.51000
H  33.15500 55.87000 21.81700
H  34.30900 56.39300 23.11100
H  37.01500 50.24900 20.50000
H  36.59700 47.44000 21.12800
H  34.24200 49.61400 20.31700
H  35.01400 48.09100 20.07000
H  35.48700 49.49400 19.06700
H  39.36300 48.26500 21.78300
H  38.91900 49.42800 20.59500
H  38.71600 47.73400 18.89900
H  38.43300 46.40400 20.05400
H  40.00900 47.21700 19.86000
H  37.47800 44.34600 24.23300
H  37.69900 43.69300 25.76600
H  39.11400 44.39500 24.88300
H  37.68700 47.16400 30.08100
H  34.30800 47.17200 32.43300
H  35.46700 46.51200 33.52300
H  34.39700 45.45800 32.47800

