158

Mg 30.50000 57.98400 40.43800
C  27.79900 55.99900 39.18500
C  32.69400 55.49800 39.28400
C  33.03400 60.15000 40.87800
C  28.19200 60.57700 40.95000
N  30.23900 55.98300 39.31600
C  29.08300 55.36200 39.09200
C  29.38200 53.92400 38.46700
C  30.87700 53.72500 38.80400
C  31.33200 55.16400 39.19100
C  31.24500 52.73400 39.85100
C  29.12700 53.80500 36.86800
C  28.08700 52.92200 36.34700
H  27.06600 53.61400 35.43100
N  32.54100 57.87000 40.08900
C  33.29200 56.76600 39.64300
C  34.76400 57.10500 39.64400
C  34.83600 58.43600 40.18100
C  33.40100 58.90600 40.35600
C  35.89300 56.18800 39.24800
C  36.16700 59.16100 40.48600
O  37.17800 58.62600 40.13900
C  36.27100 60.31100 41.34500
N  30.62500 60.09900 40.91500
C  31.78900 60.71800 41.03800
C  31.61400 62.25100 41.27400
C  30.04200 62.37200 41.27600
C  29.58700 60.93300 41.10500
C  32.31300 62.76800 42.53200
C  29.43600 63.41300 40.22900
C  29.21900 64.80200 40.71400
N  28.38700 58.28200 40.21000
C  27.59400 59.40100 40.47800
C  26.17700 59.07200 40.25400
C  26.21000 57.75600 39.75100
C  27.58700 57.35500 39.72000
C  24.92800 59.86500 40.58000
C  25.39700 56.61600 39.34000
O  24.19400 56.48200 39.34100
C  26.37300 55.44100 39.07100
C  26.14800 54.30500 40.03300
O  26.45700 54.35500 41.24500
O  25.60800 53.23800 39.42700
C  25.37800 52.09400 40.35600
H  33.46900 54.73700 39.17500
H  33.77400 60.95200 40.90600
H  27.53200 61.44000 41.05600
H  28.70100 53.23400 38.96500
H  31.45800 53.45100 37.92400
H  30.30500 52.25700 40.12700
H  31.68500 53.06200 40.79300
H  31.91600 51.94000 39.52500
H  29.99800 53.30200 36.44700
H  29.05600 54.82700 36.49500
H  27.45500 52.52900 37.14400
H  28.53200 52.04400 35.87800
H  36.69600 55.98600 39.95600
H  36.33200 56.51400 38.30500
H  35.47900 55.19900 39.05400
H  35.40400 60.24600 42.00200
H  36.31300 61.22500 40.75300
H  37.10200 60.25700 42.04800
H  31.95200 62.84400 40.42400
H  29.72500 62.69800 42.26600
H  31.53900 63.21900 43.15200
H  33.20800 63.37800 42.40900
H  32.72500 61.89500 43.03900
H  28.48900 63.03700 39.84100
H  30.06800 63.46500 39.34300
H  30.03200 65.44100 40.37100
H  29.20400 64.87500 41.80100
H  28.39200 65.30900 40.21600
H  25.23000 60.65500 41.26700
H  24.11700 59.28300 41.01800
H  24.53900 60.39800 39.71200
H  26.14200 55.05700 38.07800
H  26.17300 51.91800 41.08100
H  25.38100 51.27700 39.63400
H  24.46600 52.14000 40.95100
Mg -5.46800 25.16300 25.64400
C  -3.98400 26.69100 28.41700
C  -6.81000 22.77600 27.77100
C  -6.49200 23.56900 23.03100
C  -3.48000 27.24100 23.54600
N  -5.30600 24.72100 27.81600
C  -4.77300 25.61800 28.76000
C  -5.20900 25.26200 30.19900
C  -5.79500 23.81100 29.96000
C  -6.01800 23.72600 28.44500
C  -4.86400 22.59200 30.41700
C  -6.30900 26.23800 30.76400
C  -6.34900 26.58600 32.24500
H  -5.89700 25.49300 33.24700
N  -6.51500 23.39200 25.44100
C  -7.02700 22.55900 26.39000
C  -7.79500 21.50700 25.76500
C  -7.89800 21.80600 24.36600
C  -6.94700 22.95000 24.19900
C  -8.47700 20.35400 26.57100
C  -8.68700 21.19400 23.26200
O  -8.72200 21.66900 22.14500
C  -9.42000 19.94200 23.47400
N  -4.90400 25.28200 23.60100
C  -5.56200 24.47100 22.69400
C  -5.17800 24.79700 21.21200
C  -4.12100 26.01500 21.47400
C  -4.17300 26.22400 22.90400
C  -4.73700 23.62600 20.31800
C  -4.39600 27.21800 20.48500
C  -5.66000 28.04300 20.84300
N  -4.12100 26.64500 25.96100
C  -3.39600 27.46700 24.97400
C  -2.75800 28.51300 25.65700
C  -2.94500 28.29900 27.01800
C  -3.73900 27.13400 27.16200
C  -2.08300 29.71100 25.10900
C  -2.65400 28.80400 28.36300
O  -2.16800 29.84300 28.75000
C  -3.42300 27.80300 29.35900
C  -2.39900 27.14600 30.23800
O  -1.41700 26.55600 29.84700
O  -2.65600 27.37700 31.57900
C  -1.71100 26.80500 32.56200
H  -7.19100 22.09600 28.53600
H  -6.89300 23.03000 22.17000
H  -2.94600 27.92800 22.88600
H  -4.35800 25.28100 30.88000
H  -6.73000 23.76600 30.51700
H  -4.60700 21.97400 29.55600
H  -5.36000 22.03500 31.21200
H  -3.93900 22.97600 30.84800
H  -7.27300 25.88000 30.40500
H  -6.16700 27.14000 30.16900
H  -7.37600 26.70100 32.59400
H  -5.74900 27.47200 32.45400
H  -7.91200 19.51100 26.17400
H  -9.53400 20.35200 26.30300
H  -8.33300 20.35300 27.65200
H  -8.92900 19.26100 24.16800
H  -9.24200 19.40400 22.54200
H  -10.48800 20.00400 23.68400
H  -6.05700 25.25900 20.76300
H  -3.07500 25.79300 21.26400
H  -5.15700 23.65100 19.31200
H  -5.04800 22.65900 20.71300
H  -3.68600 23.76000 20.06300
H  -4.62800 26.67100 19.57200
H  -3.45400 27.76400 20.43900
H  -6.15000 27.51100 21.65900
H  -6.35900 28.02800 20.00700
H  -5.42900 29.07700 21.09700
H  -1.01200 29.58500 25.26700
H  -2.48500 30.60800 25.58100
H  -2.25100 29.76500 24.03400
H  -4.15100 28.35400 29.95600
H  -0.73400 27.28200 32.49400
H  -1.60100 25.72100 32.52600
H  -2.17400 26.95200 33.53800

