158

Mg 24.96700 0.53300 30.47100
C  26.93700 0.59900 33.42000
C  22.17500 0.54800 32.42900
C  23.05100 0.09900 27.65500
C  27.77100 -0.15800 28.67300
N  24.61200 0.78900 32.67400
C  25.54900 0.78300 33.68500
C  24.88900 1.08100 35.08500
C  23.38000 0.85900 34.66700
C  23.31700 0.67000 33.12200
C  22.70200 -0.39500 35.40500
C  25.13100 2.52200 35.63100
C  26.14200 2.71500 36.71500
H  25.64200 3.46700 37.97400
N  22.88000 0.33600 30.13400
C  21.90200 0.42600 31.02500
C  20.62900 0.19800 30.44300
C  20.80300 0.11600 29.03600
C  22.30200 0.19900 28.88600
C  19.32300 0.33000 31.19100
C  19.79500 0.02500 27.89700
O  20.16300 -0.12800 26.77900
C  18.27700 -0.04300 28.21600
N  25.35300 -0.00100 28.42900
C  24.42600 0.02100 27.45600
C  25.08500 -0.01700 26.08200
C  26.61900 -0.03100 26.42100
C  26.59500 0.00200 27.93600
C  24.59400 -1.15700 25.26000
C  27.37500 1.21100 25.78500
C  28.70000 0.88600 25.00000
N  27.01100 0.35100 30.85100
C  27.98100 0.03100 30.00600
C  29.19900 0.04800 30.74600
C  28.89900 0.25200 32.09200
C  27.51600 0.37400 32.13500
C  30.52500 -0.38400 30.18900
C  29.43800 0.39300 33.48200
O  30.56800 0.32500 33.98800
C  28.17100 0.65400 34.38200
C  28.06800 -0.45600 35.44000
O  27.44200 -1.53200 35.34900
O  28.88700 -0.17200 36.49500
C  28.68200 -0.96900 37.67900
H  21.29500 0.53200 33.07500
H  22.46500 -0.01700 26.74200
H  28.68400 -0.33500 28.10100
H  25.14600 0.24400 35.73400
H  22.70500 1.68600 34.88800
H  22.48600 -1.10400 34.60500
H  21.72500 -0.12100 35.80400
H  23.26900 -0.78000 36.25200
H  24.13900 2.90100 35.87700
H  25.50400 3.09300 34.78100
H  26.90300 3.39600 36.33700
H  26.65400 1.77500 36.92100
H  18.73100 1.11900 30.72800
H  19.42700 0.47300 32.26700
H  18.76500 -0.58700 31.00100
H  17.95600 0.92600 28.59800
H  18.07000 -0.88100 28.88200
H  17.69200 -0.30200 27.33300
H  24.73300 0.88600 25.58400
H  27.16100 -0.91500 26.08600
H  25.47900 -1.65200 24.86100
H  23.96200 -0.83400 24.43300
H  24.05300 -1.89800 25.84800
H  27.76500 1.81600 26.60400
H  26.73600 1.95700 25.31300
H  28.75400 1.47700 24.08600
H  28.51500 -0.12200 24.63100
H  29.56000 1.00200 25.66000
H  31.04900 0.52400 29.88900
H  30.46800 -1.00800 29.29700
H  31.10000 -0.97100 30.90500
H  28.25100 1.68000 34.74200
H  27.74100 -0.70700 38.16200
H  29.53400 -0.87500 38.35300
H  28.63400 -2.03700 37.46800
Mg 46.02400 16.59200 28.21600
C  44.00800 16.13200 30.99700
C  47.95500 18.71900 30.10500
C  47.91000 16.96200 25.56000
C  43.59400 14.91000 26.28300
N  46.04400 17.24400 30.35500
C  45.14100 16.90400 31.32200
C  45.55000 17.38900 32.66500
C  46.65400 18.40900 32.31100
C  46.80900 18.26000 30.78000
C  46.37600 19.85000 32.67300
C  45.98900 16.25900 33.60100
C  45.66100 16.35600 35.08100
H  45.79500 17.82000 35.67800
N  47.81400 17.59400 27.88400
C  48.44500 18.39200 28.77100
C  49.80900 18.59600 28.34200
C  49.84100 17.92100 27.01400
C  48.49200 17.42300 26.79700
C  50.93800 19.11000 29.30100
C  50.95600 17.71300 26.01500
O  50.87200 16.92600 25.07200
C  52.35000 18.26200 26.33400
N  45.64400 16.27600 26.14100
C  46.66800 16.38700 25.30900
C  46.25000 16.09400 23.85900
C  44.89500 15.31000 24.09800
C  44.72300 15.41500 25.61000
C  46.11600 17.34800 22.99400
C  44.85900 13.75600 23.71500
C  43.56800 13.32000 23.08100
N  44.12300 15.76400 28.55600
C  43.35700 15.04400 27.65400
C  42.18400 14.54900 28.37600
C  42.38800 14.94000 29.70700
C  43.61500 15.61200 29.79700
C  41.04000 13.82300 27.84600
C  41.83400 14.94400 31.04500
O  40.83500 14.46600 31.49300
C  42.93900 15.69300 31.90600
C  42.24900 16.75200 32.70000
O  41.63900 17.65100 32.20700
O  42.40100 16.58200 34.05200
C  41.77500 17.57100 34.89700
H  48.58500 19.27400 30.80500
H  48.54100 16.99400 24.66900
H  42.91800 14.32800 25.65400
H  44.70100 17.91200 33.10700
H  47.58700 18.05000 32.74600
H  47.37100 20.13100 33.01700
H  45.58900 19.93900 33.42200
H  46.15800 20.49700 31.82300
H  47.04400 16.15500 33.35000
H  45.49700 15.35100 33.25100
H  46.32400 15.71200 35.65900
H  44.67300 15.96000 35.31300
H  50.97600 20.19100 29.16900
H  51.97700 18.88200 29.06300
H  50.63600 18.85100 30.31600
H  52.93000 18.13300 25.42000
H  52.79100 17.70700 27.16200
H  52.29900 19.29900 26.66600
H  47.01000 15.40000 23.50000
H  43.91800 15.64800 23.75100
H  45.05300 17.56100 23.11400
H  46.40300 17.27800 21.94500
H  46.70500 18.20500 23.31900
H  45.00500 13.11100 24.58100
H  45.66000 13.42600 23.05400
H  43.78700 12.76700 22.16700
H  42.85200 14.13600 22.98600
H  43.06700 12.49700 23.59000
H  41.18300 13.64600 26.78000
H  40.06800 14.30300 27.96400
H  41.02400 12.88900 28.40800
H  43.40000 14.95200 32.56000
H  41.94600 17.26300 35.92900
H  40.70200 17.66600 34.72800
H  42.25200 18.54500 34.79400

