158

Mg 47.19000 24.61200 27.84000
C  48.37000 26.65700 30.53800
C  46.58500 22.04300 30.14000
C  46.85500 22.56800 25.26200
C  48.81500 26.85100 25.73600
N  47.54100 24.35400 30.17000
C  47.72300 25.44900 31.00400
C  47.32900 25.10600 32.46600
C  46.86600 23.55600 32.30800
C  47.06200 23.27400 30.82000
C  47.43900 22.49500 33.26600
C  46.29100 25.98500 33.16600
C  46.66500 26.58000 34.49700
H  45.61400 26.93500 35.54800
N  46.62900 22.56900 27.73100
C  46.44700 21.71900 28.77200
C  46.09900 20.47900 28.21700
C  46.15100 20.54200 26.79800
C  46.52800 21.96800 26.54600
C  45.78500 19.26200 29.09300
C  45.85200 19.52500 25.64800
O  45.87700 19.79300 24.46800
C  45.52200 18.15900 26.02800
N  47.91100 24.61200 25.80000
C  47.48000 23.72800 24.91800
C  47.79100 24.10200 23.46400
C  48.16600 25.60400 23.60300
C  48.33500 25.73400 25.10300
C  48.85000 23.15100 22.73200
C  47.08300 26.62900 23.00800
C  47.70000 27.70400 22.05800
N  48.21200 26.48500 27.99300
C  48.80900 27.21500 27.10500
C  49.43500 28.36200 27.71300
C  49.10500 28.25600 29.04600
C  48.46100 27.05800 29.16100
C  50.09800 29.46100 27.00900
C  49.37300 28.82600 30.30000
O  49.98100 29.82100 30.54400
C  48.67600 27.89200 31.34500
C  49.62100 27.59700 32.47400
O  50.42200 26.72300 32.51600
O  49.48400 28.51500 33.45700
C  50.29400 28.29200 34.70500
H  46.16600 21.30500 30.82700
H  46.57200 21.97600 24.38900
H  49.32800 27.55100 25.07200
H  48.25300 25.13800 33.04200
H  45.80300 23.59400 32.54100
H  48.04600 22.90300 34.07500
H  48.14100 21.87500 32.70900
H  46.73200 21.80900 33.73300
H  45.36300 25.46300 33.40000
H  45.87300 26.80300 32.58000
H  47.12300 27.53700 34.24500
H  47.33900 25.99500 35.12200
H  46.26300 19.35000 30.06800
H  46.16400 18.31700 28.70500
H  44.71300 19.13200 29.23900
H  46.24900 17.74400 26.72600
H  45.47700 17.52400 25.14400
H  44.59100 18.09800 26.59200
H  46.83400 24.02700 22.94800
H  49.16600 25.85200 23.24600
H  48.47700 22.84200 21.75600
H  48.91100 22.22600 23.30500
H  49.83900 23.58900 22.59700
H  46.55400 27.11100 23.83100
H  46.34400 26.10500 22.40200
H  47.40100 27.57100 21.01800
H  48.78500 27.59800 22.04600
H  47.38400 28.71300 22.32200
H  49.49200 30.14300 26.41200
H  50.91000 29.09000 26.38400
H  50.60300 29.99300 27.81500
H  47.81700 28.53100 31.55200
H  51.18500 28.87600 34.47400
H  50.59800 27.28200 34.98000
H  49.93500 28.68600 35.65600
Mg -8.33700 39.23000 39.49400
C  -7.62400 35.87500 38.70100
C  -5.18100 40.12600 38.47700
C  -9.46300 42.35200 39.31700
C  -11.77200 38.18500 39.81000
N  -6.65300 38.07100 38.50100
C  -6.50300 36.75800 38.51500
C  -5.02200 36.37400 38.30300
C  -4.30100 37.75600 38.57200
C  -5.44600 38.72200 38.55300
C  -3.51500 37.97100 39.84100
C  -4.90400 35.74900 36.93200
C  -5.45300 36.46300 35.70400
H  -6.57500 35.88800 34.89800
N  -7.44100 40.97300 39.03300
C  -6.09200 41.17900 38.62600
C  -5.80600 42.49800 38.39800
C  -7.02400 43.24800 38.64300
C  -8.03400 42.19700 38.97900
C  -4.42400 43.01300 37.89800
C  -7.21600 44.76800 38.44100
O  -6.29700 45.40200 37.92100
C  -8.54500 45.45700 38.75300
N  -10.37300 40.15100 39.48600
C  -10.53000 41.47800 39.39900
C  -11.98900 41.90200 39.78000
C  -12.63400 40.54700 39.95200
C  -11.56700 39.53500 39.68200
C  -12.21400 42.79600 41.01100
C  -13.91400 40.36400 38.98400
C  -15.20200 39.69200 39.54600
N  -9.51600 37.40500 39.34400
C  -10.82300 37.13600 39.58700
C  -11.06000 35.71200 39.48000
C  -9.81700 35.16400 39.13600
C  -8.94100 36.24900 38.99800
C  -12.35800 34.97000 39.57500
C  -9.11700 33.93800 38.97700
O  -9.49900 32.82000 38.99200
C  -7.61900 34.35300 38.75900
C  -6.68900 33.75000 39.67900
O  -6.69700 33.70400 40.90200
O  -5.79100 33.05600 38.90000
C  -4.80700 32.30900 39.67800
H  -4.11100 40.31600 38.37100
H  -9.74300 43.39000 39.50800
H  -12.79900 37.85200 39.97300
H  -4.65700 35.61000 38.99000
H  -3.85000 38.01200 37.61300
H  -4.08100 38.41100 40.66200
H  -2.75200 38.71500 39.61200
H  -3.22600 36.96600 40.14700
H  -5.29000 34.73600 37.04100
H  -3.83400 35.61800 36.77000
H  -4.62400 36.43500 34.99600
H  -5.79200 37.46600 35.96500
H  -3.77900 42.23900 37.48000
H  -3.91500 43.46000 38.75200
H  -4.69900 43.69300 37.09200
H  -8.70300 45.43600 39.83100
H  -9.40300 44.98600 38.27300
H  -8.44400 46.50600 38.47500
H  -12.32600 42.47400 38.91600
H  -12.94000 40.23800 40.95100
H  -12.84900 43.58500 40.60700
H  -11.29700 43.19900 41.44100
H  -12.75800 42.21800 41.75700
H  -13.57500 39.71800 38.17300
H  -14.17100 41.27000 38.43500
H  -15.40900 40.14200 40.51700
H  -15.08600 38.61000 39.60100
H  -15.95000 39.88600 38.77800
H  -13.21100 35.64700 39.61100
H  -12.31500 34.21600 40.36100
H  -12.51800 34.36900 38.67900
H  -7.42400 33.96600 37.75900
H  -5.24300 31.82300 40.55100
H  -3.99900 32.95100 40.02800
H  -4.32900 31.57500 39.02900

