158

Mg 0.04100 7.51500 26.79000
C  0.95200 9.88500 29.09100
C  -0.09600 5.12500 29.21900
C  -0.52000 5.19600 24.30900
C  0.52600 9.94400 24.27600
N  0.36000 7.49200 28.93600
C  0.69600 8.59900 29.66800
C  0.60900 8.29100 31.12400
C  0.61900 6.73400 31.16500
C  0.26100 6.42000 29.69500
C  1.95000 6.12000 31.45700
C  -0.70200 8.94700 31.68900
C  -0.76200 8.81500 33.26900
H  -1.48900 7.52100 33.83900
N  -0.23300 5.55900 26.76200
C  -0.32900 4.71700 27.86900
C  -0.53100 3.37500 27.50400
C  -0.75000 3.38800 26.09800
C  -0.46200 4.75100 25.62000
C  -0.57200 2.20200 28.57000
C  -1.15000 2.26600 25.14900
O  -1.31100 2.29700 23.93000
C  -1.34500 0.92500 25.76200
N  0.03700 7.57200 24.53200
C  -0.26500 6.47400 23.76000
C  -0.41900 6.87300 22.31100
C  0.06200 8.39000 22.40800
C  0.19800 8.71600 23.79100
C  0.42200 6.00100 21.38300
C  -0.70100 9.40500 21.41300
C  -1.94500 10.19000 21.98600
N  0.59900 9.49800 26.63100
C  0.70900 10.36400 25.54300
C  1.06800 11.69200 26.01100
C  1.18500 11.53000 27.38900
C  0.94800 10.20100 27.69300
C  1.30700 12.94500 25.22000
C  1.48600 12.22800 28.62100
O  1.89400 13.39100 28.75900
C  1.28000 11.23000 29.80000
C  2.43400 11.23900 30.76000
O  3.54900 10.72600 30.56300
O  2.04600 11.77900 31.89800
C  3.08500 11.66100 32.99000
H  -0.13400 4.41300 30.04500
H  -0.83500 4.44700 23.57900
H  0.52400 10.67900 23.46800
H  1.40900 8.65900 31.76700
H  -0.17400 6.31700 31.78600
H  2.67600 6.92700 31.36300
H  2.01500 5.21600 30.85100
H  2.04200 5.59100 32.40500
H  -1.55000 8.43900 31.22900
H  -0.72100 10.01500 31.47000
H  -1.38200 9.60400 33.69500
H  0.17300 8.90700 33.82300
H  -1.42300 1.52900 28.47100
H  -0.68600 2.41700 29.63300
H  0.33800 1.60900 28.49000
H  -1.95300 0.33400 25.07800
H  -1.99400 1.14400 26.60900
H  -0.48300 0.34100 26.08500
H  -1.46000 6.83400 21.99300
H  1.10500 8.29900 22.10300
H  1.12800 6.54900 20.75900
H  -0.10600 5.28500 20.75200
H  1.01200 5.28000 21.94700
H  -0.99400 8.80400 20.55300
H  -0.05400 10.07100 20.84200
H  -1.57400 11.19900 21.80400
H  -2.16100 10.08400 23.04900
H  -2.88100 10.04900 21.44500
H  0.42100 13.57700 25.16400
H  1.82900 12.73800 24.28500
H  1.98800 13.63200 25.72200
H  0.41500 11.47400 30.41700
H  3.73400 12.49400 32.71500
H  3.62800 10.71900 33.06300
H  2.65700 11.90100 33.96300
Mg -12.31600 16.64600 41.01700
C  -9.65600 14.41600 40.83700
C  -10.55000 19.04500 39.19500
C  -15.10300 18.39700 40.75900
C  -14.12900 13.87200 42.46900
N  -10.34900 16.69200 40.06000
C  -9.39800 15.70000 40.17900
C  -8.08500 16.13700 39.59500
C  -8.35800 17.71300 39.35400
C  -9.85600 17.87600 39.47000
C  -7.60900 18.69900 40.17900
C  -7.65300 15.42600 38.25700
C  -6.10300 15.36200 37.96400
H  -5.61000 16.13900 36.73300
N  -12.79000 18.51700 40.14800
C  -11.88600 19.35000 39.45900
C  -12.67900 20.42600 38.92400
C  -13.97400 20.31200 39.48100
C  -14.03700 19.00900 40.08900
C  -12.26200 21.41800 37.97100
C  -15.03500 21.56500 39.45200
O  -14.66100 22.63400 39.01600
C  -16.48100 21.45000 39.98900
N  -14.23400 16.18800 41.57500
C  -15.24100 17.12100 41.37500
C  -16.57000 16.73000 42.14200
C  -16.20400 15.36400 42.79300
C  -14.80200 15.05200 42.23100
C  -16.99800 17.78600 43.17700
C  -17.22000 14.27700 42.45000
C  -17.77600 13.57800 43.77800
N  -11.97600 14.57600 41.58400
C  -12.82600 13.59800 42.07700
C  -12.06700 12.44600 42.46900
C  -10.77400 12.70900 42.04500
C  -10.82300 14.01800 41.42600
C  -12.57900 11.16700 43.15000
C  -9.40200 12.25500 41.83100
O  -8.90800 11.18700 42.21300
C  -8.64000 13.33200 41.02700
C  -7.41300 13.87200 41.80400
O  -7.57900 14.57000 42.80700
O  -6.22600 13.58400 41.15900
C  -4.99600 14.22200 41.68000
H  -9.98900 19.71000 38.53500
H  -16.04700 18.94100 40.68300
H  -14.74700 13.15100 43.00800
H  -7.24800 16.15300 40.29200
H  -8.12600 17.96900 38.32100
H  -7.46400 19.63300 39.63500
H  -6.64300 18.24500 40.40100
H  -8.14700 18.87100 41.11100
H  -8.19000 15.82800 37.39700
H  -8.03800 14.41400 38.38400
H  -5.69900 14.34900 37.97900
H  -5.63600 15.87900 38.80200
H  -12.82500 21.41100 37.03800
H  -11.17600 21.39400 37.87700
H  -12.23400 22.37800 38.48500
H  -17.06900 20.62300 39.59200
H  -17.08900 22.34300 39.84700
H  -16.43000 21.31200 41.06900
H  -17.43300 16.71800 41.47500
H  -16.21400 15.50300 43.87400
H  -17.66400 18.52100 42.72400
H  -16.15700 18.43700 43.41500
H  -17.51200 17.45100 44.07800
H  -16.74000 13.53500 41.81200
H  -18.04200 14.76900 41.92900
H  -18.61200 14.15500 44.17200
H  -17.08000 13.47100 44.61000
H  -18.00100 12.54500 43.51200
H  -12.80500 10.48100 42.33300
H  -13.49500 11.34600 43.71300
H  -11.81100 10.73600 43.79300
H  -8.35200 13.08000 40.00700
H  -4.11000 13.62600 41.46300
H  -4.92400 14.29100 42.76500
H  -4.68900 15.17600 41.25100

