158

Mg 6.01100 54.56600 40.44900
C  5.90800 51.04900 40.65100
C  9.29700 54.09600 39.34200
C  5.97800 57.75200 39.89000
C  2.63400 54.52900 41.61700
N  7.38400 52.70200 39.85500
C  7.14100 51.44100 40.15900
C  8.38700 50.55700 39.86500
C  9.54200 51.57500 39.66700
C  8.69100 52.90200 39.55800
C  10.46900 51.67800 40.85300
C  8.29400 49.73200 38.53400
C  7.35000 50.17600 37.39400
H  7.92800 50.42300 36.04700
N  7.36900 55.77900 39.65700
C  8.72500 55.44300 39.36300
C  9.44200 56.61700 39.01600
C  8.51800 57.77600 39.13300
C  7.22400 57.15100 39.57900
C  10.85500 56.61900 38.50500
C  8.79900 59.21700 38.78200
O  9.85300 59.58700 38.35100
C  7.76300 60.31200 38.87400
N  4.44900 55.88400 40.54100
C  4.82400 57.23900 40.37500
C  3.60800 58.12800 40.62300
C  2.59900 57.13300 41.29000
C  3.21400 55.76800 41.08600
C  3.90400 59.42100 41.40600
C  1.25300 57.23200 40.62900
C  0.17900 57.53700 41.68700
N  4.52700 53.12200 40.90300
C  3.24100 53.22700 41.46300
C  2.78700 51.94500 42.03800
C  3.81000 51.04700 41.73300
C  4.74600 51.79300 40.95800
C  1.56800 51.66800 42.94000
C  4.32000 49.70400 41.93500
O  3.93300 48.68400 42.49200
C  5.58300 49.64200 41.10200
C  5.24900 48.64300 40.00100
O  4.88000 48.96200 38.87900
O  5.56400 47.39200 40.39300
C  5.14400 46.30100 39.43100
H  10.36700 53.95900 39.17700
H  5.88600 58.81000 39.63300
H  1.61500 54.56200 42.00600
H  8.54300 49.88100 40.70600
H  10.18500 51.49800 38.79000
H  10.20800 52.30500 41.70500
H  11.44200 51.89800 40.41300
H  10.45000 50.69100 41.31500
H  7.83100 48.80400 38.87100
H  9.26400 49.48300 38.10400
H  6.85700 51.11800 37.63600
H  6.61000 49.38300 37.29100
H  10.84000 57.12300 37.53900
H  11.18800 55.60300 38.29400
H  11.58700 57.17300 39.09200
H  8.27200 61.26400 38.72200
H  7.52800 60.29800 39.93800
H  6.92100 60.23700 38.18600
H  3.23500 58.44400 39.64900
H  2.56900 57.28700 42.36800
H  3.21500 59.38200 42.25000
H  3.52000 60.24600 40.80700
H  4.98100 59.51600 41.54600
H  1.05300 56.36500 39.99900
H  1.10100 58.08600 39.96900
H  -0.56900 56.75900 41.53200
H  -0.25400 58.53000 41.57100
H  0.48800 57.35400 42.71700
H  1.48400 50.59300 43.09900
H  0.64900 51.91800 42.41000
H  1.59200 52.41700 43.73200
H  6.35000 49.12900 41.68200
H  5.04700 45.36900 39.98800
H  5.82900 46.14900 38.59700
H  4.16500 46.58800 39.04700
Mg -10.53000 17.06900 40.59700
C  -7.12300 16.56300 40.49000
C  -10.14700 20.32000 39.93000
C  -13.80300 17.13700 39.94100
C  -10.79400 13.42500 40.71700
N  -8.80100 18.27700 39.97500
C  -7.48600 17.92200 40.15800
C  -6.57800 19.07500 39.92300
C  -7.52000 20.28700 40.12700
C  -8.89500 19.62600 39.94200
C  -7.42500 20.94700 41.54500
C  -5.94100 19.06600 38.50800
C  -4.42000 18.74100 38.49000
H  -3.93200 17.89400 37.30800
N  -11.81400 18.57000 39.98000
C  -11.48900 19.87300 39.88200
C  -12.64200 20.67800 39.76000
C  -13.70100 19.79600 39.68000
C  -13.13900 18.41800 39.88600
C  -12.62100 22.16700 39.75300
C  -15.20200 20.20600 39.61800
O  -15.47200 21.37400 39.40300
C  -16.32400 19.18000 39.76900
N  -12.06400 15.55500 40.35200
C  -13.30900 15.89200 40.08500
C  -14.34200 14.62500 40.18300
C  -13.28900 13.49700 40.24500
C  -11.99600 14.19200 40.52300
C  -15.36100 14.67100 41.43500
C  -13.22800 12.62900 38.99700
C  -13.05800 11.08000 39.17500
N  -9.24800 15.29400 40.71200
C  -9.48100 13.92500 40.75400
C  -8.24200 13.22900 40.94900
C  -7.24600 14.22000 40.89800
C  -7.89300 15.44200 40.60200
C  -8.01400 11.71700 41.21700
C  -5.88300 14.39600 40.91800
O  -4.93300 13.61000 41.16300
C  -5.72800 16.01600 40.76400
C  -5.01200 16.61400 41.91500
O  -3.99800 17.28600 41.79800
O  -5.53600 16.11300 43.06400
C  -4.84000 16.51600 44.31400
H  -10.06900 21.40800 39.88900
H  -14.89300 17.16700 39.87900
H  -10.82300 12.34100 40.84200
H  -5.76100 19.12500 40.64300
H  -7.41300 20.96900 39.28400
H  -6.37000 20.83300 41.79300
H  -8.08900 20.35500 42.17500
H  -7.76600 21.95000 41.28800
H  -6.03900 20.09400 38.16000
H  -6.47000 18.31600 37.91900
H  -4.18900 18.35800 39.48400
H  -3.92800 19.70400 38.35500
H  -13.38900 22.64300 40.36200
H  -12.69900 22.55700 38.73800
H  -11.73800 22.66300 40.15600
H  -16.26800 18.58600 38.85600
H  -17.22400 19.78200 39.89400
H  -16.27000 18.51000 40.62700
H  -14.80100 14.54300 39.19800
H  -13.51300 12.85200 41.09400
H  -15.68400 13.68400 41.76500
H  -16.30200 15.18400 41.23300
H  -14.82600 15.26000 42.18000
H  -12.47500 13.03300 38.32000
H  -14.19000 12.78900 38.51100
H  -13.91800 10.63400 39.67400
H  -12.20200 10.90400 39.82800
H  -12.80900 10.48300 38.29800
H  -6.97700 11.64300 41.54300
H  -8.15300 11.10000 40.32900
H  -8.65900 11.28900 41.98500
H  -5.12200 16.31500 39.90900
H  -3.79900 16.20000 44.25300
H  -5.35000 16.22400 45.23200
H  -4.88300 17.60500 44.30100

