158

Mg 26.12000 1.07400 29.27400
C  28.08700 0.54700 32.03300
C  23.39200 1.56200 31.12100
C  24.20500 0.95000 26.36300
C  28.89800 -0.07000 27.30200
N  25.82200 1.06500 31.35100
C  26.73700 0.88400 32.29200
C  26.12200 0.96200 33.76200
C  24.58600 1.07600 33.36800
C  24.55600 1.22000 31.84400
C  23.71800 -0.03400 33.97900
C  26.66900 2.12100 34.68400
C  26.61800 1.91500 36.15600
H  27.04800 3.09100 37.11300
N  24.15000 1.42200 28.80200
C  23.19600 1.69900 29.72600
C  21.91800 1.93400 29.06500
C  22.15700 1.80500 27.66700
C  23.54000 1.34800 27.53400
C  20.67400 2.38100 29.84500
C  21.18800 1.85000 26.54400
O  21.42800 1.47300 25.40300
C  19.75600 2.16200 26.97200
N  26.44900 0.44800 27.11100
C  25.53300 0.54400 26.14700
C  26.19600 0.16500 24.77800
C  27.73600 0.19000 25.09400
C  27.70500 0.21300 26.63400
C  25.65400 -1.10400 24.08100
C  28.60800 1.33800 24.50800
C  29.78000 0.89300 23.66600
N  28.14100 0.32800 29.52500
C  29.09300 0.04800 28.68900
C  30.23000 -0.29600 29.38800
C  29.98100 -0.11200 30.74400
C  28.63600 0.31300 30.78100
C  31.49300 -0.60900 28.76200
C  30.43900 -0.06800 32.12500
O  31.53500 -0.25500 32.56500
C  29.20100 0.41500 32.99800
C  28.94300 -0.50700 34.16100
O  28.24700 -1.51100 34.21900
O  29.60700 -0.06300 35.31700
C  29.33500 -0.84200 36.56000
H  22.46400 1.62000 31.69300
H  23.69500 1.02100 25.40000
H  29.68400 -0.31400 26.58400
H  26.33900 0.05400 34.32500
H  24.15700 1.98600 33.78700
H  23.10100 -0.42400 33.17000
H  23.05700 0.48200 34.67600
H  24.28500 -0.86600 34.39600
H  25.90000 2.89000 34.61000
H  27.55100 2.53800 34.19800
H  27.19200 1.01000 36.35200
H  25.61300 1.58500 36.41600
H  20.87700 2.79900 30.83000
H  20.00000 1.53300 29.96900
H  20.23900 3.28400 29.41600
H  19.01200 2.17600 26.17600
H  19.72100 3.12600 27.48100
H  19.50700 1.35300 27.65800
H  25.86200 1.03800 24.21700
H  28.21000 -0.72700 24.74600
H  26.45300 -1.50100 23.45500
H  24.79300 -0.89600 23.44500
H  25.45400 -1.88300 24.81500
H  28.87200 1.90300 25.40200
H  28.01800 1.94000 23.81700
H  30.10700 -0.14100 23.77600
H  30.67600 1.48000 23.86800
H  29.54300 1.03700 22.61100
H  31.58600 0.02300 27.87900
H  31.56800 -1.60700 28.33300
H  32.38200 -0.34500 29.33500
H  29.35400 1.46200 33.25900
H  28.83400 -1.79700 36.40100
H  28.85000 -0.27800 37.35700
H  30.32600 -1.06300 36.95600
Mg 6.97900 53.33100 41.45500
C  6.32900 49.77200 41.22000
C  10.10100 52.65700 40.36300
C  7.19700 56.61500 40.94100
C  3.52800 53.68600 42.23100
N  7.97300 51.45000 40.70800
C  7.65700 50.12200 40.86600
C  8.95600 49.18500 40.69500
C  10.07400 50.24700 40.59000
C  9.34900 51.54100 40.58500
C  11.09700 50.15300 41.80900
C  8.92600 48.22800 39.38600
C  8.79600 48.94500 38.03000
H  7.61900 48.58200 37.15500
N  8.44300 54.44400 40.69100
C  9.73000 54.04200 40.36600
C  10.50800 55.20300 40.06700
C  9.64700 56.30500 40.19700
C  8.33700 55.80800 40.56400
C  11.95300 55.11600 39.87300
C  10.11000 57.71800 40.05800
O  11.28300 57.93100 39.75700
C  9.28700 58.93100 40.20000
N  5.57300 54.95000 41.43200
C  5.97700 56.25900 41.32500
C  4.75900 57.20000 41.58800
C  3.58200 56.13700 41.71800
C  4.26000 54.79300 41.83300
C  4.96400 58.20000 42.71200
C  2.65900 56.17100 40.37200
C  1.05000 56.19500 40.41300
N  5.30800 52.06900 41.79700
C  3.96100 52.34400 42.12300
C  3.25400 51.14100 42.47600
C  4.16900 50.12500 42.17600
C  5.37300 50.71700 41.66900
C  1.81900 51.03800 42.78800
C  4.25400 48.64600 42.05000
O  3.37600 47.81500 42.20400
C  5.70000 48.37900 41.47600
C  5.39700 47.54800 40.23400
O  5.24000 47.85200 39.08800
O  5.39100 46.26100 40.64700
C  5.32200 45.22500 39.69200
H  11.17500 52.48800 40.25900
H  7.30500 57.69800 40.84600
H  2.53200 53.91400 42.61700
H  9.09700 48.61200 41.61200
H  10.63700 50.07900 39.67200
H  12.03900 49.82100 41.37200
H  10.68000 49.57800 42.63500
H  11.26700 51.15700 42.19800
H  8.11500 47.51700 39.54800
H  9.91000 47.77100 39.27600
H  9.65500 48.83600 37.36900
H  8.71500 50.00500 38.27400
H  12.12400 55.55600 38.89100
H  12.22800 54.06200 39.89200
H  12.58000 55.60500 40.61900
H  8.48300 58.80700 39.47500
H  9.89000 59.79400 39.91900
H  8.96700 59.05400 41.23500
H  4.72500 57.72700 40.63500
H  3.00200 56.17800 42.63900
H  5.20600 59.16800 42.27400
H  5.87600 57.86000 43.20300
H  4.05300 58.23000 43.30900
H  2.89600 55.46100 39.58000
H  2.85800 57.15700 39.95300
H  0.79200 57.21000 40.71400
H  0.71400 55.52700 41.20700
H  0.56900 55.88300 39.48600
H  1.60100 50.35400 43.60800
H  1.40300 50.60700 41.87700
H  1.29700 51.95500 43.06000
H  6.25300 47.83500 42.24200
H  5.87200 44.32000 39.95000
H  5.75100 45.55700 38.74700
H  4.28300 44.90400 39.62100

