158

Mg 25.91600 50.55100 26.24400
C  24.26100 52.20400 28.64000
C  28.27800 49.50700 28.66800
C  28.13700 49.34800 23.74400
C  24.01600 52.00100 23.76800
N  26.25800 50.90300 28.31000
C  25.32300 51.43300 29.14100
C  25.61600 51.02500 30.61200
C  27.06500 50.53400 30.57500
C  27.23400 50.19600 29.09400
C  28.11400 51.56100 31.02700
C  24.59200 50.09900 31.25700
C  24.43800 50.26400 32.78900
H  25.51100 50.77000 33.72300
N  27.87900 49.49900 26.18400
C  28.58600 49.21800 27.26600
C  29.75800 48.45900 26.83100
C  29.73400 48.42000 25.44800
C  28.55200 49.14600 25.04200
C  30.82000 47.94400 27.78800
C  30.68700 47.61000 24.52200
O  30.62100 47.65400 23.28500
C  31.70900 46.63000 24.99900
N  26.06400 50.55900 24.13900
C  26.93700 49.88500 23.31300
C  26.71100 50.23600 21.79400
C  25.18800 50.74600 21.94500
C  25.05900 51.11500 23.43100
C  27.77700 51.19100 21.27700
C  24.05000 49.81900 21.46300
C  23.31900 48.87900 22.48800
N  24.40900 51.90500 26.16600
C  23.73600 52.51500 25.09000
C  22.73300 53.41700 25.60100
C  22.88300 53.37900 27.03100
C  23.89000 52.42400 27.29500
C  21.77300 54.25800 24.88400
C  22.43800 53.88500 28.26500
O  21.56800 54.72500 28.52800
C  23.21200 53.07300 29.35200
C  23.74900 54.02900 30.27100
O  24.54200 54.89400 29.96300
O  23.32800 53.79100 31.52000
C  24.00900 54.44700 32.59300
H  28.86400 48.93600 29.39100
H  28.78100 48.91700 22.97500
H  23.39900 52.45600 22.99100
H  25.54500 51.93300 31.20900
H  27.29900 49.61700 31.11700
H  28.95400 51.64400 30.33700
H  28.43800 51.44700 32.06200
H  27.70700 52.55600 31.20300
H  25.02100 49.09900 31.20400
H  23.61300 49.99700 30.78800
H  24.05500 49.28100 33.06600
H  23.61600 50.97700 32.84700
H  30.83500 48.67300 28.59800
H  31.78700 48.12800 27.32100
H  30.71900 46.87400 27.97100
H  31.94700 45.84900 24.27800
H  31.20000 46.17600 25.84900
H  32.54000 47.30300 25.21000
H  26.67200 49.43100 21.06100
H  25.11300 51.67500 21.37900
H  28.67000 51.17400 21.90100
H  27.43200 52.17100 20.94600
H  28.21300 50.69300 20.41100
H  24.37600 49.17400 20.64700
H  23.28800 50.45700 21.01500
H  23.77000 48.83700 23.47900
H  23.43400 47.89100 22.04100
H  22.28900 49.17600 22.68800
H  22.22100 54.55400 23.93500
H  21.45900 55.06100 25.55200
H  20.82100 53.77300 24.66900
H  22.36900 52.55300 29.80700
H  23.84900 55.51500 32.44800
H  25.03000 54.08300 32.47500
H  23.60500 54.25600 33.58700
Mg 7.42200 54.57800 41.45700
C  6.69400 51.22700 41.18400
C  10.59900 53.98200 40.35600
C  7.78000 57.99000 41.05600
C  4.04300 55.21800 42.00600
N  8.53800 52.75200 40.97100
C  8.01400 51.46100 40.81500
C  9.06200 50.45900 40.29400
C  10.35100 51.32200 40.38900
C  9.78200 52.76200 40.61600
C  11.45000 50.78100 41.33500
C  8.79200 49.89200 38.88400
C  8.35400 50.87600 37.75200
H  9.04600 50.76400 36.41200
N  8.97000 55.76200 40.69300
C  10.22000 55.31000 40.41900
C  11.07600 56.47300 40.28700
C  10.21200 57.61700 40.36000
C  8.95100 57.16900 40.78200
C  12.54800 56.38800 39.91900
C  10.67900 59.01800 40.12500
O  11.85400 59.21000 39.93100
C  9.71800 60.13300 40.07100
N  6.07100 56.27500 41.31000
C  6.47200 57.57200 41.32800
C  5.38100 58.62200 41.47300
C  4.15500 57.69300 41.70500
C  4.79300 56.30500 41.68500
C  5.74100 59.67800 42.57600
C  2.99600 57.95600 40.66500
C  3.26100 57.62900 39.14400
N  5.75900 53.52900 41.77900
C  4.44400 53.87200 42.05700
C  3.65000 52.71200 42.40000
C  4.56800 51.65800 42.07800
C  5.75200 52.21500 41.62400
C  2.16900 52.46200 42.77300
C  4.66200 50.19700 42.07400
O  3.88600 49.37600 42.53500
C  6.07900 49.88300 41.41200
C  5.84800 49.01600 40.20800
O  5.62200 49.46200 39.11600
O  5.72700 47.66300 40.52400
C  5.17400 46.86400 39.41300
H  11.62800 53.67800 40.15600
H  7.81000 59.07100 41.21000
H  2.97100 55.38100 42.13900
H  9.17400 49.67800 41.04700
H  10.83100 51.36900 39.41100
H  11.24300 49.73200 41.55000
H  11.42500 51.29600 42.29500
H  12.39400 50.95700 40.81900
H  8.00900 49.13500 38.92600
H  9.70700 49.32900 38.69800
H  8.34100 51.89500 38.13800
H  7.32700 50.55900 37.57500
H  12.85500 55.55900 39.28200
H  13.23600 56.43500 40.76300
H  12.86000 57.29100 39.39500
H  10.09000 60.97200 39.48300
H  9.30600 60.41600 41.03900
H  8.79600 59.84100 39.56800
H  5.26200 59.06900 40.48600
H  3.78200 57.78500 42.72500
H  6.68900 59.57200 43.10500
H  4.98200 59.57800 43.35200
H  5.68000 60.63000 42.04900
H  2.74300 59.01500 40.71400
H  2.14600 57.35600 40.99100
H  3.87000 56.79900 38.78800
H  3.27300 58.51600 38.51000
H  2.26400 57.28100 38.87700
H  1.58700 52.40200 41.85300
H  1.69400 53.26700 43.33400
H  1.92500 51.52400 43.27300
H  6.73800 49.43600 42.15500
H  5.63100 47.05600 38.44200
H  4.10800 47.04600 39.27200
H  5.26600 45.78200 39.51300

