158

Mg 35.85900 1.02300 30.02800
C  33.62700 2.47300 32.61600
C  38.41600 1.50300 32.34500
C  37.81800 0.28500 27.63700
C  33.14200 1.27200 27.83800
N  35.96200 1.83500 32.23700
C  34.93100 2.26500 33.07500
C  35.45400 2.44000 34.50900
C  37.02600 2.34700 34.32700
C  37.15200 1.83600 32.84000
C  37.64600 3.67100 34.43700
C  34.97600 1.25800 35.43000
C  34.44600 1.68500 36.77600
H  34.78700 3.03500 37.42700
N  37.87900 0.71000 30.01800
C  38.78400 1.03600 31.04900
C  40.16800 0.72000 30.56200
C  39.97300 0.25900 29.21900
C  38.53800 0.32000 28.88000
C  41.39500 0.83200 31.50000
C  41.09100 -0.15200 28.22900
O  40.80500 -0.44500 27.08800
C  42.42400 -0.40400 28.83500
N  35.49400 0.88400 28.07100
C  36.47500 0.50000 27.22100
C  35.95700 0.59700 25.81900
C  34.44500 0.27400 25.97600
C  34.31700 0.79600 27.36900
C  36.30100 1.92200 25.12000
C  33.99600 -1.18400 26.00300
C  33.46900 -1.67900 24.63200
N  33.86600 1.77500 30.09200
C  32.93900 1.78800 29.14100
C  31.67200 2.23300 29.58900
C  31.89100 2.50800 30.92300
C  33.26100 2.21800 31.23000
C  30.36700 2.35400 28.79400
C  31.20000 3.03800 32.14200
O  30.11100 3.55000 32.29500
C  32.35500 3.03800 33.24700
C  32.58000 4.46900 33.71900
O  33.38100 5.24000 33.17900
O  31.75900 4.80000 34.75000
C  31.92900 6.14500 35.33700
H  39.14200 1.63500 33.15000
H  38.46100 0.15000 26.76500
H  32.42200 1.44100 27.03500
H  35.06800 3.40700 34.83200
H  37.49800 1.64900 35.01900
H  36.94400 4.50400 34.49100
H  38.19200 3.92700 33.52900
H  38.29800 3.55600 35.30200
H  35.77400 0.55500 35.66800
H  34.19200 0.78600 34.83800
H  34.90900 0.97300 37.45900
H  33.37300 1.52000 36.87400
H  40.99900 0.87800 32.51400
H  41.89300 1.76200 31.22500
H  42.16000 0.05500 31.48600
H  42.32700 -1.13300 29.64000
H  42.84300 0.55700 29.13300
H  43.11000 -0.79100 28.08100
H  36.35800 -0.27800 25.30700
H  33.77400 0.87400 25.36100
H  35.61200 2.76200 25.02800
H  36.60900 1.66800 24.10600
H  37.19800 2.36300 25.55400
H  33.26200 -1.34800 26.79200
H  34.87400 -1.80800 26.16700
H  33.46900 -1.06300 23.73200
H  32.43600 -1.97200 24.82200
H  33.98700 -2.59200 24.33900
H  30.09800 3.37900 29.04800
H  29.62300 1.61000 29.07800
H  30.60400 2.40900 27.73100
H  31.96100 2.48800 34.10200
H  31.19300 6.57000 36.02100
H  32.03600 6.93900 34.59800
H  32.77700 6.00800 36.00900
Mg 6.22800 54.55000 41.33000
C  5.89700 51.10700 41.10200
C  9.31200 54.23100 39.99900
C  6.19900 57.76200 40.98400
C  2.81500 54.62800 42.51600
N  7.38900 52.77000 40.40500
C  7.07500 51.48500 40.43700
C  8.17000 50.69100 39.68600
C  9.38600 51.65400 39.91000
C  8.69900 52.99900 40.13500
C  10.24300 51.36600 41.16800
C  7.86000 50.28900 38.28200
C  6.91700 51.33100 37.54000
H  6.20300 50.91100 36.27800
N  7.55000 55.82000 40.63700
C  8.86000 55.54300 40.17500
C  9.67200 56.71400 40.06400
C  8.78700 57.82100 40.45100
C  7.46400 57.16700 40.70800
C  11.10200 56.77000 39.69900
C  9.13700 59.28500 40.51100
O  10.25600 59.65700 40.16300
C  8.28900 60.40200 41.09100
N  4.66400 55.98100 41.57400
C  5.02100 57.28800 41.55000
C  3.86900 58.16500 42.09600
C  2.79900 57.22100 42.55600
C  3.38100 55.86500 42.14900
C  4.33000 59.24300 43.17900
C  1.39400 57.51000 41.90000
C  1.21800 57.06000 40.45300
N  4.66600 53.24200 41.76200
C  3.44100 53.38300 42.36400
C  2.92500 52.13600 42.72500
C  3.88800 51.17900 42.28600
C  4.89500 51.89400 41.70100
C  1.53900 51.96000 43.28600
C  4.24200 49.81500 42.24000
O  3.61700 48.85200 42.73600
C  5.53700 49.73300 41.40400
C  5.12900 48.95700 40.23500
O  4.41900 49.36500 39.30300
O  5.72400 47.65700 40.37800
C  5.45800 46.71300 39.23900
H  10.33000 54.19100 39.60600
H  6.24500 58.84800 41.09800
H  1.80200 54.70600 42.91700
H  8.23300 49.75600 40.24200
H  10.06500 51.71000 39.05900
H  10.24200 52.15600 41.91900
H  11.30500 51.37200 40.92000
H  10.08900 50.37600 41.59900
H  7.42700 49.29000 38.33100
H  8.74200 50.30700 37.64200
H  7.50000 52.24800 37.45300
H  6.15600 51.74400 38.20200
H  11.42000 57.76300 39.38300
H  11.31600 56.05000 38.90900
H  11.72700 56.41200 40.51700
H  7.36700 60.66700 40.57300
H  8.90500 61.30100 41.11800
H  7.96900 60.10000 42.08800
H  3.47600 58.76100 41.27200
H  2.69700 57.29400 43.63900
H  3.97000 59.03600 44.18700
H  4.02200 60.24000 42.86600
H  5.39600 59.03100 43.25800
H  1.30900 58.59700 41.86900
H  0.61600 57.06000 42.51600
H  2.20300 57.00100 39.99000
H  0.62200 57.81100 39.93500
H  0.78700 56.06000 40.49900
H  1.57400 52.01900 44.37400
H  1.13300 50.97400 43.06500
H  0.85700 52.68300 42.83900
H  6.24700 49.17600 42.01500
H  5.88900 47.18400 38.35600
H  4.38700 46.51500 39.27800
H  5.98200 45.77600 39.43100

