158

Mg 17.23700 -1.88500 27.60600
C  16.42000 0.01600 30.38100
C  19.02400 -3.99600 29.60100
C  18.32000 -3.34900 24.83000
C  15.66100 0.61000 25.63300
N  17.62500 -2.01500 29.74700
C  17.31500 -1.03100 30.68100
C  17.95300 -1.36400 32.04600
C  18.93800 -2.49600 31.64100
C  18.44600 -2.93600 30.28200
C  20.41700 -2.01700 31.68600
C  16.91400 -1.87800 33.08900
C  17.40300 -1.76800 34.68100
H  18.88400 -1.33000 34.88700
N  18.39200 -3.62100 27.25500
C  18.91600 -4.37300 28.21400
C  19.60600 -5.46300 27.57000
C  19.51100 -5.20800 26.14600
C  18.71400 -4.02700 26.02100
C  20.45900 -6.40300 28.40100
C  20.10100 -6.00000 25.05000
O  19.94300 -5.77800 23.86300
C  20.76000 -7.29000 25.45400
N  17.10100 -1.36500 25.53500
C  17.62600 -2.17200 24.60200
C  17.56300 -1.55000 23.18600
C  16.53600 -0.43300 23.37400
C  16.36900 -0.42500 24.94500
C  18.91800 -1.08700 22.63000
C  15.22400 -0.61700 22.68000
C  14.96900 0.47000 21.63800
N  16.15500 -0.10200 27.91900
C  15.49100 0.81000 27.06100
C  14.75100 1.75000 27.77800
C  15.11800 1.53400 29.14500
C  15.89600 0.33100 29.14900
C  13.90600 2.83000 27.20400
C  14.92200 1.93100 30.49000
O  14.22800 2.86200 30.92200
C  15.88400 1.09900 31.35100
C  16.92800 1.96500 31.87700
O  17.75700 2.55200 31.16700
O  16.99900 1.93600 33.21900
C  17.99200 2.89000 33.79700
H  19.62700 -4.63200 30.25200
H  18.66200 -3.80200 23.89700
H  15.08300 1.34800 25.07300
H  18.40100 -0.46300 32.46700
H  18.86200 -3.40000 32.24600
H  20.53300 -1.04900 32.17400
H  21.05800 -2.10400 30.80900
H  20.87000 -2.74700 32.35600
H  16.66500 -2.89900 32.80100
H  15.99100 -1.30400 33.00500
H  17.26500 -2.70000 35.22900
H  16.78100 -0.95200 35.05000
H  20.24300 -6.26200 29.46000
H  21.53100 -6.27700 28.24700
H  20.07100 -7.38900 28.14700
H  21.68200 -7.10700 26.00700
H  21.01600 -7.82300 24.53800
H  20.07000 -7.98600 25.93100
H  17.16900 -2.30900 22.51000
H  17.04600 0.48800 23.08900
H  19.50800 -0.89400 23.52600
H  18.81800 -0.12200 22.13300
H  19.40100 -1.73400 21.89700
H  14.37100 -0.66600 23.35600
H  15.21800 -1.53300 22.09000
H  14.17400 -0.00700 21.06500
H  15.80100 0.69900 20.97300
H  14.64400 1.40000 22.10500
H  12.90200 2.42100 27.09100
H  14.14000 3.17000 26.19500
H  13.81400 3.67300 27.89000
H  15.27700 0.86500 32.22600
H  18.92900 2.37600 34.00900
H  17.58300 3.19300 34.76000
H  18.19500 3.74700 33.15500
Mg 15.91800 52.06100 25.02800
C  17.86400 51.20300 27.78300
C  13.36400 52.95200 27.13500
C  14.10000 52.76100 22.26200
C  18.52400 50.90300 22.89700
N  15.57500 51.86800 27.25100
C  16.59900 51.67500 28.18000
C  16.01700 51.98800 29.57400
C  14.51900 52.26000 29.37100
C  14.47400 52.36900 27.82500
C  13.51500 51.14600 29.92000
C  16.71200 53.17300 30.26300
C  16.56900 53.30100 31.83600
H  15.76300 52.18700 32.49300
N  14.00800 52.89200 24.75100
C  13.14100 53.18400 25.73100
C  11.95100 53.72900 25.09200
C  12.03800 53.56000 23.70000
C  13.41300 53.00300 23.52700
C  10.92200 54.43100 25.85600
C  11.08600 53.79900 22.58100
O  11.38500 53.71100 21.37500
C  9.72000 54.19000 22.87700
N  16.27400 51.89300 22.90100
C  15.33700 52.17300 21.98800
C  15.86700 52.02900 20.60400
C  17.30400 51.58600 20.78500
C  17.43600 51.49600 22.28800
C  15.01200 51.01800 19.84800
C  18.43900 52.52700 20.21100
C  19.72800 51.86900 19.62100
N  17.77700 51.14800 25.23300
C  18.76200 50.78800 24.28500
C  19.86300 50.25500 25.03500
C  19.53500 50.35400 26.41700
C  18.25500 50.92600 26.43200
C  21.02900 49.57900 24.46700
C  20.05000 50.11600 27.72200
O  21.14800 49.63800 28.08700
C  18.96900 50.61500 28.72900
C  18.38700 49.46500 29.44400
O  17.85800 48.46800 28.96900
O  18.76700 49.57200 30.76700
C  18.43600 48.36500 31.61600
H  12.53900 53.25000 27.78600
H  13.53500 52.85600 21.33200
H  19.25100 50.50500 22.18700
H  16.25200 51.05000 30.07900
H  14.28200 53.25700 29.74200
H  14.00800 50.21800 30.21100
H  12.88400 50.82500 29.09100
H  12.87000 51.53900 30.70500
H  16.12400 54.05500 30.01200
H  17.71800 53.41100 29.91700
H  16.21200 54.31300 32.02900
H  17.60800 53.15800 32.13300
H  10.89700 55.45700 25.48800
H  11.11900 54.47700 26.92700
H  9.90700 54.03400 25.84900
H  9.01900 54.07200 22.05100
H  9.75600 55.26700 23.04400
H  9.34400 53.53000 23.65900
H  15.88200 52.99700 20.10400
H  17.43000 50.61000 20.31700
H  15.45600 50.04500 19.63700
H  14.65400 51.36900 18.87900
H  14.04800 50.76100 20.28600
H  18.78400 53.15200 21.03600
H  18.14800 53.23100 19.43100
H  19.47600 50.92900 19.13100
H  20.30500 51.70500 20.53100
H  20.40900 52.55600 19.11800
H  21.58900 49.19700 25.32000
H  21.61400 50.33400 23.94200
H  20.68500 48.80500 23.78100
H  19.38300 51.32400 29.44700
H  18.80500 47.40700 31.25000
H  17.35300 48.32300 31.73800
H  18.84100 48.43800 32.62600

