158

Mg 47.34800 25.31800 27.72400
C  48.11700 27.50600 30.34300
C  47.07200 22.78600 29.97200
C  46.77200 23.20400 25.13900
C  48.14200 27.89800 25.50900
N  47.66100 25.23900 29.89800
C  47.82700 26.21700 30.81400
C  47.65600 25.83700 32.27500
C  47.46400 24.29700 32.05800
C  47.43000 24.04100 30.58200
C  48.60000 23.47600 32.79500
C  46.57300 26.59500 33.01800
C  46.31000 25.99200 34.49500
H  45.85500 26.94300 35.57300
N  46.95900 23.28500 27.59700
C  46.92600 22.39100 28.59600
C  46.56800 21.10300 28.15300
C  46.37900 21.17400 26.68900
C  46.76900 22.62100 26.39100
C  46.22200 19.97300 29.11200
C  45.92900 20.03100 25.66400
O  45.72100 20.36500 24.51700
C  45.62200 18.54800 26.10100
N  47.61000 25.47300 25.65700
C  47.06400 24.51900 24.80600
C  47.20400 24.87100 23.35300
C  47.53600 26.42500 23.41200
C  47.73400 26.63400 24.95900
C  48.17900 24.07700 22.46800
C  46.43900 27.31900 22.71500
C  46.93800 28.54400 21.96700
N  48.10200 27.32400 27.83700
C  48.34200 28.25300 26.83500
C  48.77800 29.46900 27.42300
C  48.62300 29.25100 28.82900
C  48.28500 27.88900 29.01500
C  49.11700 30.79300 26.74400
C  48.69600 29.88700 30.16400
O  49.05700 31.02100 30.45600
C  48.39800 28.76300 31.14200
C  49.50100 28.67700 32.16800
O  50.60400 28.19700 32.13000
O  49.00000 29.15400 33.32200
C  49.86200 29.10100 34.51300
H  46.85500 22.15200 30.83500
H  46.54900 22.47600 24.35600
H  48.36700 28.76300 24.88100
H  48.66100 25.94400 32.68300
H  46.51600 23.98400 32.49500
H  49.08500 22.64900 32.27600
H  48.12700 23.12000 33.71000
H  49.45400 24.10500 33.04600
H  45.61200 26.51700 32.51000
H  46.84400 27.64300 33.14700
H  47.13800 25.39700 34.88100
H  45.48700 25.28100 34.41600
H  45.15700 19.84800 28.91600
H  46.41800 20.33200 30.12200
H  46.90700 19.15900 28.87400
H  44.66900 18.45100 26.62300
H  46.46000 18.23700 26.72500
H  45.60700 17.87000 25.24800
H  46.24600 24.66200 22.87600
H  48.46400 26.66600 22.89300
H  49.07400 24.52800 22.04100
H  47.64900 23.64000 21.62200
H  48.59500 23.24800 23.04200
H  45.68600 27.62100 23.44300
H  45.94700 26.70300 21.96100
H  46.53700 28.59300 20.95400
H  48.01700 28.67400 22.05200
H  46.57100 29.46600 22.41700
H  48.33800 31.51200 27.00000
H  49.37200 30.72000 25.68700
H  50.04500 31.05700 27.25200
H  47.51300 29.10400 31.67800
H  49.51200 29.75000 35.31600
H  50.87100 29.45300 34.29500
H  49.93300 28.06400 34.83900
Mg 30.22500 58.11200 41.22600
C  27.26400 56.39700 40.05300
C  31.96700 55.34500 39.94900
C  32.96100 59.90900 41.44300
C  28.17800 60.91200 41.80300
N  29.62000 56.09400 39.99600
C  28.34800 55.62800 39.73700
C  28.48900 54.25500 39.06200
C  29.98000 53.78100 39.44300
C  30.56000 55.16000 39.81100
C  30.01100 52.53800 40.37400
C  28.02400 54.14200 37.56100
C  28.89600 54.94100 36.56900
H  28.05800 56.00700 35.74400
N  32.17400 57.62000 40.86800
C  32.71500 56.49300 40.28700
C  34.20700 56.65000 40.11600
C  34.46900 57.92800 40.73100
C  33.17000 58.54100 41.07700
C  35.23700 55.60300 39.69200
C  35.85400 58.54200 40.78000
O  36.81800 58.03900 40.30300
C  36.11900 59.85100 41.50800
N  30.52500 60.18700 41.42600
C  31.79800 60.67200 41.63600
C  31.78900 62.07200 42.31900
C  30.21700 62.33600 42.30500
C  29.58900 61.01300 41.85100
C  32.45300 62.26200 43.70200
C  29.76500 63.45100 41.32200
C  28.46300 64.18800 41.82200
N  28.10500 58.56900 41.14000
C  27.49400 59.65200 41.50600
C  26.03100 59.39300 41.50900
C  25.90200 58.13400 40.99200
C  27.19000 57.72000 40.66000
C  24.83800 60.34400 41.88700
C  24.92600 57.18500 40.57800
O  23.67600 57.12100 40.67700
C  25.77100 56.08100 39.85100
C  25.39000 54.78800 40.50600
O  25.93700 54.25400 41.46400
O  24.16600 54.36000 39.94100
C  23.63900 53.08100 40.34500
H  32.69800 54.54200 39.83600
H  33.75500 60.60900 41.71000
H  27.33900 61.46200 42.23600
H  27.74400 53.63100 39.55600
H  30.58000 53.52100 38.57100
H  30.26800 52.83800 41.39000
H  30.83800 51.94300 39.98500
H  29.05600 52.01300 40.36700
H  26.98400 54.45900 37.49300
H  27.98800 53.13400 37.14600
H  29.24000 54.21900 35.82900
H  29.70500 55.50000 37.04000
H  35.80600 55.96700 38.83600
H  34.80900 54.63400 39.43300
H  36.00100 55.38200 40.43700
H  35.81400 60.73200 40.94300
H  37.20700 59.86800 41.58300
H  35.76800 59.83100 42.53900
H  32.28400 62.74600 41.61900
H  29.73200 62.47400 43.27200
H  31.79500 62.73500 44.43100
H  33.36100 62.83800 43.51800
H  32.84000 61.30000 44.03700
H  29.51900 63.10700 40.31700
H  30.54300 64.21000 41.23800
H  28.24300 63.81700 42.82300
H  27.62800 64.05200 41.13500
H  28.68200 65.23300 42.03900
H  25.17200 61.00000 42.69100
H  23.94400 59.79200 42.17800
H  24.65100 61.01700 41.05100
H  25.46500 56.12100 38.80600
H  23.98800 52.44800 39.52900
H  22.56200 53.00300 40.49800
H  24.12200 52.83000 41.28900

