158

Mg 45.97000 2.40400 47.72800
C  43.58000 4.92400 47.20300
C  43.38200 0.05200 47.81200
C  48.23800 0.04500 47.69000
C  48.38300 4.82100 47.18100
N  43.84100 2.52100 47.62400
C  43.04200 3.63900 47.34100
C  41.50600 3.31200 47.23400
C  41.36600 1.81900 47.68000
C  42.93600 1.42100 47.66900
C  40.70800 1.59100 49.05900
C  40.91700 3.49500 45.78700
C  39.48000 3.92100 45.79700
H  38.99000 5.01500 44.83900
N  45.80100 0.28200 47.70500
C  44.67000 -0.48400 47.79800
C  45.01700 -1.90900 47.86600
C  46.44200 -1.95900 47.75800
C  46.93400 -0.53500 47.73000
C  43.92900 -2.93100 47.99200
C  47.24500 -3.22300 47.56700
O  46.67900 -4.35300 47.61500
C  48.74900 -3.20900 47.27600
N  47.95000 2.40700 47.21100
C  48.67400 1.34600 47.52300
C  50.22900 1.58200 47.50900
C  50.24000 3.12600 47.14200
C  48.77900 3.53700 47.16400
C  50.87100 1.32000 48.96800
C  50.90300 3.44300 45.71800
C  52.09300 4.44200 45.72000
N  45.99300 4.53900 47.28300
C  47.05800 5.34500 47.18800
C  46.61600 6.73600 46.94200
C  45.21200 6.60500 46.94900
C  44.89700 5.23000 47.16800
C  47.44900 7.95200 46.74500
C  43.94700 7.29500 46.81400
O  43.66100 8.45800 46.59900
C  42.88500 6.17900 46.95200
C  41.95400 6.63600 48.06300
O  42.23900 6.61500 49.27200
O  40.81300 7.22800 47.53300
C  39.69700 7.38800 48.42300
H  42.61000 -0.70600 47.96100
H  49.00300 -0.71900 47.83700
H  49.21100 5.52500 47.27900
H  40.96900 3.99300 47.89400
H  40.66500 1.30300 47.02500
H  40.41200 2.57300 49.42900
H  41.46300 1.26900 49.77600
H  39.89700 0.86500 49.10600
H  40.97200 2.51400 45.31500
H  41.57300 4.13900 45.20200
H  39.02400 4.26100 46.72700
H  38.87900 3.06300 45.49600
H  43.43200 -3.07500 47.03300
H  43.23700 -2.59800 48.76600
H  44.40000 -3.87500 48.26900
H  49.40900 -2.77300 48.02500
H  49.03200 -2.87600 46.27800
H  49.10200 -4.22900 47.12500
H  50.72600 1.04800 46.69900
H  50.89500 3.73900 47.76100
H  51.15600 2.26100 49.44000
H  51.76300 0.70000 48.88100
H  50.13400 0.86700 49.63100
H  50.09500 3.84900 45.11000
H  51.17000 2.58300 45.10500
H  52.47900 4.73000 46.69700
H  51.93500 5.34100 45.12400
H  52.88100 3.86100 45.24100
H  47.69200 8.57400 47.60700
H  46.96100 8.55600 45.98000
H  48.36200 7.59300 46.27000
H  42.38100 6.11300 45.98700
H  38.78600 7.25000 47.83900
H  39.68100 8.41600 48.78600
H  39.59500 6.74600 49.29800
Mg 47.24500 16.31000 28.45400
C  45.06400 15.59300 31.03400
C  48.65800 18.69100 30.31500
C  49.10100 17.26300 25.71300
C  45.16500 14.46300 26.34500
N  46.94100 16.94900 30.43000
C  46.08500 16.40200 31.41900
C  46.38900 16.88000 32.86300
C  47.23600 18.14900 32.43500
C  47.72700 17.91100 30.98100
C  46.34000 19.43500 32.52700
C  47.19300 15.80600 33.60800
C  47.00900 15.73500 35.17400
H  48.25200 15.74400 36.07500
N  48.84300 17.54200 28.12600
C  49.23700 18.51000 29.07600
C  50.21200 19.38600 28.49800
C  50.42100 18.96300 27.20300
C  49.43900 17.82500 26.93300
C  50.83900 20.57400 29.17400
C  51.48500 19.43500 26.14300
O  51.65900 18.93300 25.05400
C  52.44100 20.56500 26.38700
N  47.20400 15.96300 26.35600
C  48.09900 16.39000 25.42800
C  47.75400 15.82700 24.03500
C  46.49600 15.02400 24.22800
C  46.27800 15.13600 25.73500
C  47.74800 16.86800 22.92700
C  46.66300 13.52700 23.73500
C  47.46100 12.56900 24.62400
N  45.47600 15.19500 28.51700
C  44.67300 14.45300 27.66100
C  43.51800 13.90400 28.31900
C  43.67600 14.28500 29.66500
C  44.89200 15.05600 29.71900
C  42.45300 12.99400 27.72600
C  43.12300 14.12700 31.04100
O  42.08500 13.58000 31.47200
C  43.97100 14.97700 31.90600
C  43.19200 16.06200 32.49500
O  42.58200 16.94300 31.91600
O  43.26600 15.92900 33.81700
C  42.91600 17.12500 34.61800
H  49.13200 19.49100 30.88800
H  49.72100 17.55700 24.86300
H  44.35000 14.12600 25.70100
H  45.51100 17.15400 33.44900
H  48.12900 18.19100 33.05900
H  45.28100 19.18100 32.58700
H  46.54100 19.88600 31.55500
H  46.68100 20.06600 33.34700
H  48.25000 15.90200 33.35900
H  46.87300 14.83800 33.22200
H  46.57100 14.74400 35.29100
H  46.24400 16.41900 35.54300
H  51.81200 20.24000 29.53500
H  50.24200 21.02200 29.96800
H  51.06700 21.46800 28.59300
H  51.93700 21.49400 26.12300
H  53.31300 20.41800 25.74900
H  52.84600 20.61200 27.39700
H  48.54700 15.18200 23.65800
H  45.63500 15.47300 23.73400
H  47.71800 17.80100 23.49000
H  46.95700 16.83300 22.17800
H  48.67300 16.76900 22.36000
H  47.08200 13.65500 22.73700
H  45.66200 13.10900 23.62200
H  48.31800 12.22500 24.04500
H  46.87100 11.72700 24.98800
H  47.90100 13.12200 25.45400
H  42.15100 13.53100 26.82600
H  41.58900 12.78200 28.35700
H  42.84900 12.05800 27.33400
H  44.39900 14.33600 32.67600
H  41.84200 17.31200 34.58400
H  43.39500 18.03400 34.25400
H  43.23200 16.87100 35.63000

