158

Mg 23.98300 -4.62700 45.68300
C  25.80200 -2.10800 44.00500
C  21.19900 -3.67700 43.80500
C  22.37100 -7.27900 46.80900
C  27.02200 -5.83000 47.02300
N  23.51000 -2.99100 44.12900
C  24.44600 -2.08100 43.61500
C  23.77400 -1.15500 42.61000
C  22.22400 -1.58800 42.75800
C  22.28600 -2.80900 43.60400
C  21.41200 -0.45000 43.50700
C  24.22700 -1.48800 41.16700
C  25.20800 -0.44100 40.43900
H  24.95600 -0.33500 39.00400
N  22.00500 -5.32500 45.37200
C  21.03100 -4.81800 44.58400
C  19.80100 -5.56800 44.73900
C  20.06800 -6.55700 45.61500
C  21.56100 -6.47700 45.92100
C  18.52500 -5.14200 44.05700
C  19.01200 -7.45200 46.17700
O  17.79600 -7.42300 45.90700
C  19.47700 -8.59300 47.01000
N  24.65400 -6.37600 46.74000
C  23.72000 -7.27700 47.17200
C  24.37000 -8.27800 48.09600
C  25.82400 -7.85100 48.29100
C  25.89700 -6.63300 47.32400
C  23.57900 -8.64200 49.40800
C  27.01600 -8.88300 48.22200
C  27.58300 -9.29400 49.59000
N  26.06400 -4.04300 45.68400
C  27.15000 -4.67800 46.15500
C  28.33300 -3.88700 45.83200
C  27.81000 -2.88100 45.00700
C  26.45100 -3.08500 44.83900
C  29.78900 -4.09200 46.20500
C  28.21200 -1.73600 44.26600
O  29.33900 -1.27400 44.14800
C  26.94600 -1.15600 43.56900
C  26.83100 0.28900 43.72400
O  26.00400 0.83400 44.41200
O  27.70300 0.90100 42.82300
C  27.62500 2.38200 42.59200
H  20.31500 -3.21900 43.35600
H  21.90200 -8.17300 47.22700
H  27.95200 -6.14000 47.50400
H  24.08900 -0.13000 42.80500
H  21.77000 -1.84000 41.79900
H  22.15600 0.33500 43.64400
H  21.00200 -0.80200 44.45300
H  20.53500 -0.05100 42.99700
H  23.37000 -1.53700 40.49500
H  24.79100 -2.42100 41.14400
H  26.23700 -0.78700 40.54100
H  25.21300 0.54100 40.91200
H  17.59100 -5.70300 44.08400
H  18.58700 -4.93300 42.98900
H  18.30400 -4.17300 44.50500
H  18.57400 -9.10900 47.33700
H  19.77700 -8.07700 47.92200
H  20.23100 -9.18900 46.49700
H  24.28600 -9.22800 47.56900
H  25.90800 -7.34000 49.25000
H  23.94700 -8.37600 50.39900
H  23.41900 -9.71800 49.34200
H  22.58200 -8.21300 49.30400
H  27.77700 -8.47200 47.55800
H  26.67300 -9.78700 47.71900
H  28.67000 -9.34700 49.54000
H  27.16300 -10.28700 49.74800
H  27.30300 -8.55600 50.34200
H  30.35400 -3.29200 45.72500
H  30.12200 -5.05700 45.82200
H  29.86900 -4.13400 47.29100
H  27.05300 -1.24400 42.48800
H  27.24600 2.88600 43.48100
H  27.01700 2.61300 41.71800
H  28.60900 2.73600 42.28500
Mg 40.35000 10.29700 29.75700
C  42.52100 10.82600 32.44900
C  38.24600 8.63200 31.98600
C  38.43200 9.35100 27.21300
C  42.95200 10.98300 27.52900
N  40.40400 9.75200 31.90500
C  41.33100 10.21900 32.86800
C  40.95600 9.97600 34.29400
C  39.67400 9.08400 34.05500
C  39.41000 9.10100 32.51700
C  39.88500 7.67200 34.58900
C  40.63200 11.35100 34.97200
C  40.04400 11.16900 36.35100
H  40.83500 11.82500 37.57200
N  38.56800 9.23500 29.60500
C  37.78700 8.65400 30.61700
C  36.49300 8.27000 30.11100
C  36.52500 8.58600 28.74200
C  37.88400 9.06400 28.44500
C  35.34400 7.69600 31.04100
C  35.35100 8.45600 27.67100
O  35.48600 8.75900 26.48300
C  34.01900 7.98200 28.22600
N  40.76100 9.90100 27.66000
C  39.73900 9.65500 26.86000
C  39.94600 9.99800 25.35600
C  41.47500 10.53900 25.45100
C  41.80000 10.45800 26.96200
C  39.71200 8.97200 24.24800
C  41.58400 12.06400 24.98700
C  41.05300 13.20200 25.78100
N  42.28300 10.88200 29.86100
C  43.21800 11.21500 28.90300
C  44.53600 11.62700 29.54700
C  44.20300 11.54800 30.94900
C  42.89400 11.06300 31.11300
C  45.82400 11.99500 28.78900
C  44.70300 11.87500 32.25000
O  45.81600 12.31500 32.58500
C  43.64400 11.45000 33.33100
C  44.32500 10.54700 34.25400
O  44.99000 9.49900 34.02500
O  44.05700 11.00200 35.49000
C  44.64000 10.29700 36.66600
H  37.52300 8.25500 32.71200
H  37.77400 9.34900 26.34200
H  43.69300 11.31900 26.80100
H  41.84100 9.49300 34.70800
H  38.86700 9.51700 34.64600
H  39.17000 7.43300 35.37600
H  40.89200 7.63000 35.00400
H  39.61200 6.84100 33.93900
H  39.96200 11.97700 34.38400
H  41.63500 11.77200 35.05000
H  40.05900 10.10100 36.56900
H  39.05200 11.60600 36.23600
H  35.61900 7.96900 32.05900
H  35.09000 6.65500 30.83700
H  34.41300 8.25000 30.92600
H  33.80000 8.76400 28.95400
H  34.10800 7.00700 28.70500
H  33.23100 8.01600 27.47400
H  39.37800 10.90900 25.17000
H  42.19300 9.92000 24.91300
H  38.85200 9.16400 23.60600
H  39.59000 7.96100 24.63800
H  40.59100 8.88700 23.60800
H  41.24200 12.23800 23.96700
H  42.65100 12.17900 24.79600
H  40.85500 12.93000 26.81700
H  40.23200 13.68700 25.25300
H  41.87800 13.91400 25.75200
H  46.50000 12.41900 29.53100
H  45.60300 12.46300 27.83000
H  46.33900 11.10500 28.42800
H  43.26100 12.29300 33.90600
H  43.89400 10.25400 37.46000
H  45.54600 10.86700 36.87100
H  44.77500 9.23600 36.45600

