158

Mg 23.82600 -6.58600 47.46600
C  26.44900 -4.30800 46.39200
C  22.01200 -5.38500 44.95100
C  21.85500 -9.11600 48.12400
C  26.34500 -8.00600 49.56100
N  24.25600 -4.95900 45.92500
C  25.29200 -4.19900 45.63100
C  25.01300 -3.16900 44.48000
C  23.49600 -3.36600 44.19700
C  23.17300 -4.63700 45.09800
C  22.66600 -2.03700 44.57500
C  25.85100 -3.45000 43.17900
C  26.60300 -2.19800 42.57800
H  26.54300 -1.99600 41.05000
N  22.08700 -7.28200 46.60000
C  21.52000 -6.66500 45.56200
C  20.33000 -7.34300 45.26900
C  20.14500 -8.33900 46.30700
C  21.38200 -8.31600 47.07200
C  19.45500 -6.92600 44.07500
C  18.87700 -9.10800 46.47600
O  17.86000 -8.90600 45.83600
C  18.80400 -10.13400 47.49500
N  24.14000 -8.37700 48.56800
C  23.13400 -9.26700 48.73800
C  23.38100 -10.19600 50.04200
C  24.88500 -9.90900 50.28000
C  25.16600 -8.66500 49.44200
C  22.38000 -9.87000 51.17500
C  25.98200 -11.03200 49.90100
C  27.19000 -11.16700 50.81400
N  25.90000 -6.19000 48.07100
C  26.71400 -6.88500 48.88500
C  28.04800 -6.24600 48.92600
C  27.92600 -5.18900 47.99600
C  26.65100 -5.26500 47.43300
C  29.18000 -6.73800 49.72800
C  28.63300 -3.99000 47.49800
O  29.75000 -3.51500 47.72200
C  27.69900 -3.40700 46.36800
C  27.40100 -2.03800 46.87900
O  26.73900 -1.79500 47.86900
O  27.80400 -1.03800 45.91800
C  27.56600 0.33300 46.43400
H  21.35900 -4.91700 44.21100
H  21.18000 -9.89800 48.47900
H  27.03300 -8.49400 50.25500
H  25.24400 -2.16100 44.82700
H  23.29700 -3.67400 43.17100
H  23.30600 -1.34200 45.11900
H  21.71400 -2.20400 45.07700
H  22.49500 -1.52900 43.62500
H  25.31500 -3.94600 42.36900
H  26.73800 -4.03500 43.42000
H  27.67100 -2.25600 42.78600
H  26.17600 -1.31600 43.05600
H  19.85500 -7.41500 43.18700
H  19.53100 -5.85400 43.89100
H  18.40100 -7.17300 44.20500
H  18.63800 -9.67700 48.47000
H  19.69000 -10.74100 47.30600
H  17.98100 -10.79100 47.21200
H  23.32600 -11.22700 49.69300
H  25.08700 -9.53700 51.28400
H  21.77600 -10.72900 51.46600
H  21.64300 -9.14600 50.82700
H  22.97300 -9.38600 51.95200
H  26.41300 -10.83800 48.91900
H  25.57800 -12.04100 49.81900
H  27.16100 -12.17900 51.21800
H  27.04300 -10.36500 51.53800
H  28.12700 -10.96400 50.29700
H  29.11700 -7.79800 49.97300
H  29.27800 -6.05600 50.57300
H  30.05600 -6.55500 49.10700
H  28.21500 -3.29300 45.41400
H  27.75800 0.38700 47.50500
H  26.53200 0.57600 46.19000
H  28.24400 0.92900 45.82300
Mg 41.01800 7.91500 29.63100
C  42.73600 9.29200 32.39600
C  38.51800 6.95300 31.82700
C  39.74200 6.20200 27.12900
C  43.98300 8.38700 27.80500
N  40.76500 8.15100 31.92500
C  41.51400 8.77600 32.81600
C  40.89000 8.83700 34.21900
C  39.51000 8.14800 33.94500
C  39.59200 7.65500 32.50500
C  39.08900 7.05800 34.92000
C  40.86100 10.27900 34.88200
C  39.85100 10.41900 36.10200
H  40.31100 11.30700 37.27000
N  39.25100 6.88800 29.49400
C  38.36900 6.52800 30.47300
C  37.27100 5.86900 29.83000
C  37.53500 5.76100 28.46900
C  38.91200 6.27500 28.31200
C  36.07300 5.40000 30.64300
C  36.72000 5.18800 27.34000
O  37.11300 5.19800 26.19100
C  35.29900 4.61900 27.65000
N  41.76300 7.44100 27.69300
C  41.01800 6.72800 26.79300
C  41.74000 6.55600 25.39700
C  43.16300 7.32400 25.65000
C  43.00900 7.69300 27.15900
C  41.90400 5.04400 24.87800
C  43.38700 8.57500 24.75400
C  42.51300 9.80600 24.97100
N  42.87000 8.70900 29.95700
C  43.99300 8.84300 29.11400
C  45.07000 9.51800 29.74000
C  44.58900 9.77700 31.07800
C  43.29600 9.13800 31.16300
C  46.42900 9.75000 29.13000
C  44.95200 10.30300 32.33700
O  46.00100 10.76700 32.72500
C  43.78900 9.96400 33.30600
C  44.44800 9.05300 34.35600
O  44.71200 7.87500 34.07300
O  44.59900 9.66500 35.54600
C  44.98800 8.69000 36.61800
H  37.58400 6.77700 32.36600
H  39.36100 5.67600 26.25100
H  44.88500 8.32100 27.19300
H  41.57200 8.20900 34.79200
H  38.71400 8.89100 34.00200
H  38.31500 7.34000 35.63500
H  40.02400 6.83900 35.43500
H  38.66500 6.20000 34.39800
H  40.43600 11.01900 34.20400
H  41.82200 10.50700 35.34200
H  39.63800 9.48300 36.61900
H  38.92600 10.82500 35.69300
H  36.26100 5.45100 31.71500
H  35.77000 4.35800 30.53700
H  35.22600 6.04800 30.41500
H  35.36200 3.90600 28.47200
H  34.80800 4.26300 26.74400
H  34.67500 5.42900 28.02700
H  41.14900 7.07100 24.64000
H  43.97700 6.62500 25.46000
H  42.93900 4.70300 24.84000
H  41.47900 4.92800 23.88200
H  41.32000 4.39000 25.52500
H  43.11200 8.15900 23.78500
H  44.44600 8.82500 24.82500
H  41.71200 9.65200 25.69400
H  42.01800 9.98800 24.01700
H  43.05100 10.70400 25.27500
H  46.46100 9.65400 28.04500
H  47.04800 9.09200 29.74000
H  46.73100 10.78100 29.31200
H  43.40600 10.89100 33.73100
H  44.74900 9.13100 37.58600
H  46.06100 8.50100 36.60000
H  44.59900 7.67400 36.55200

