158

Mg 1.15200 8.27600 25.54300
C  1.59800 10.04900 28.45100
C  0.94000 5.40500 27.41200
C  1.15400 6.66700 22.68600
C  1.65900 11.32000 23.81000
N  1.39800 7.78000 27.80500
C  1.39400 8.67700 28.77100
C  1.28900 8.03300 30.18600
C  1.41900 6.45800 29.76800
C  1.21900 6.52800 28.28200
C  2.62200 5.75600 30.30100
C  -0.07500 8.30000 30.88100
C  -0.20600 8.56400 32.44600
H  0.98800 8.08500 33.35000
N  0.98700 6.27400 25.09300
C  0.93200 5.25400 25.95700
C  0.88600 4.00300 25.24100
C  0.86200 4.32200 23.85400
C  0.95800 5.79600 23.79900
C  0.90000 2.64600 25.95100
C  0.89100 3.39100 22.71800
O  0.88500 3.83300 21.55600
C  0.97200 1.80800 22.93300
N  1.30400 8.87000 23.51500
C  1.39900 8.07400 22.51600
C  1.74200 8.72900 21.16300
C  1.34400 10.22300 21.55100
C  1.42500 10.14800 23.03900
C  3.18900 8.38400 20.85700
C  -0.10700 10.63200 21.07900
C  -0.30800 12.11100 20.87700
N  1.67900 10.27600 25.96200
C  1.71300 11.42700 25.19700
C  1.94400 12.56700 25.94400
C  1.88000 12.10500 27.29300
C  1.73000 10.72500 27.23300
C  2.05000 13.98200 25.44300
C  1.92400 12.50000 28.68500
O  2.04800 13.63600 29.20900
C  1.62500 11.16800 29.50100
C  2.66300 11.07400 30.59000
O  3.79700 10.63700 30.43900
O  2.11000 11.45200 31.85500
C  2.94200 11.61100 33.02100
H  0.81400 4.45000 27.92600
H  1.17200 6.16700 21.71600
H  1.57700 12.17100 23.13000
H  2.11700 8.31700 30.83500
H  0.58000 5.93000 30.22100
H  2.89100 5.13600 29.44600
H  2.61800 5.06700 31.14600
H  3.41200 6.49800 30.41900
H  -0.81400 7.51500 30.72700
H  -0.47400 9.17600 30.36900
H  -1.07000 8.06000 32.87800
H  -0.43500 9.62300 32.57100
H  1.14700 2.66800 27.01300
H  1.58400 1.99100 25.41200
H  -0.06900 2.14900 25.90900
H  0.92500 1.40700 21.92000
H  0.18400 1.44000 23.59000
H  1.98100 1.64400 23.31100
H  1.19100 8.49700 20.25100
H  2.17100 10.86400 21.24400
H  3.57900 7.54500 21.43400
H  3.88800 9.20000 21.03800
H  3.32600 8.18900 19.79400
H  -0.85800 10.30900 21.79900
H  -0.38500 10.18100 20.12600
H  -0.88900 12.35300 19.98600
H  0.60500 12.70600 20.86100
H  -0.82800 12.47900 21.76200
H  2.44700 14.25300 24.46500
H  2.78800 14.36500 26.14800
H  1.13000 14.55100 25.58200
H  0.68100 11.22900 30.04400
H  3.18300 12.64700 33.25800
H  3.84600 11.00300 32.99800
H  2.45300 11.35600 33.96100
Mg 48.46100 45.37100 42.29900
C  45.14300 45.73900 41.01700
C  48.37900 42.06200 41.29200
C  51.79800 45.48300 42.25200
C  48.39300 48.81500 43.04400
N  46.82900 44.05400 41.42300
C  45.61100 44.44400 40.97400
C  44.94800 43.30500 40.28100
C  45.87500 42.04000 40.70600
C  47.11300 42.71600 41.12600
C  45.34500 41.05600 41.75500
C  44.79300 43.50500 38.73100
C  43.67300 42.69800 38.01200
H  44.11000 41.45900 37.21700
N  49.91900 43.95800 41.88700
C  49.67900 42.69000 41.56000
C  50.93700 41.92500 41.45300
C  51.97900 42.90200 41.74900
C  51.27800 44.15600 42.02300
C  51.09900 40.47700 41.21300
C  53.42700 42.55900 41.87500
O  53.84700 41.41800 41.72600
C  54.42800 43.64900 42.16100
N  49.92500 46.96300 42.52700
C  51.26200 46.71100 42.47300
C  52.06800 47.96700 42.71900
C  50.96700 49.01400 43.20000
C  49.68300 48.22800 42.87800
C  53.26200 47.79400 43.79800
C  51.27400 50.45900 42.71800
C  51.23400 51.50500 43.76600
N  47.04000 46.96300 42.18000
C  47.18300 48.25500 42.51700
C  45.92000 48.91700 42.27500
C  45.05200 47.97100 41.67000
C  45.79300 46.82000 41.65900
C  45.51800 50.31300 42.55700
C  43.81200 47.73400 41.06200
O  42.91600 48.52100 40.77400
C  43.83000 46.28800 40.42000
C  42.48600 45.63300 40.84500
O  41.61500 45.23100 40.11400
O  42.55400 45.35900 42.13000
C  41.30600 44.95900 42.75500
H  48.33600 41.07700 40.82300
H  52.88800 45.52000 42.20900
H  48.39400 49.85800 43.36800
H  43.99300 43.22800 40.80200
H  45.94300 41.46100 39.78500
H  44.49000 41.55700 42.20900
H  46.08300 40.93100 42.54700
H  45.04100 40.09800 41.33200
H  45.72600 43.16900 38.27900
H  44.77600 44.57400 38.52000
H  43.08100 43.31900 37.33900
H  43.02500 42.30100 38.79300
H  51.65100 40.31500 40.28700
H  50.11800 40.00300 41.24700
H  51.67200 39.93200 41.96200
H  54.49100 44.44600 41.42000
H  55.43600 43.29200 42.36900
H  54.07700 44.00600 43.13000
H  52.44900 48.29800 41.75200
H  51.00200 49.01900 44.28900
H  53.40900 46.75200 44.08000
H  53.06300 48.34100 44.72000
H  54.10500 48.14700 43.20400
H  50.67900 50.71300 41.84100
H  52.21500 50.58400 42.18200
H  51.69900 51.16300 44.69100
H  50.22000 51.86300 43.94400
H  51.84900 52.37500 43.53700
H  46.27000 51.02900 42.22300
H  45.50000 50.32900 43.64700
H  44.50600 50.62600 42.30200
H  43.74300 46.35500 39.33600
H  40.41400 45.02900 42.13200
H  41.22400 45.40700 43.74600
H  41.53200 43.90300 42.90600

