158

Mg 36.05300 48.93200 25.72400
C  36.42000 46.93300 28.72200
C  35.09900 51.47100 27.71500
C  35.52000 50.56900 22.91400
C  36.74200 46.01200 23.87700
N  35.76700 49.09400 27.95300
C  36.00900 48.17700 28.90700
C  35.78400 48.80500 30.33500
C  35.17300 50.19300 30.00700
C  35.36700 50.25900 28.49400
C  33.71300 50.49300 30.59000
C  37.12400 48.88800 31.13800
C  37.10400 48.85100 32.68800
H  35.71700 48.90300 33.41600
N  35.39800 50.73800 25.33800
C  35.07100 51.69200 26.30800
C  34.81900 52.97300 25.68900
C  34.98000 52.75500 24.25400
C  35.31700 51.30300 24.06800
C  34.31300 54.13700 26.41000
C  34.74900 53.70800 23.11000
O  34.94100 53.37000 21.97400
C  34.29200 55.11000 23.39200
N  36.01400 48.25900 23.69800
C  35.94000 49.21100 22.74900
C  36.13400 48.55300 21.33400
C  36.66000 47.16300 21.62500
C  36.48600 47.12300 23.13500
C  34.94700 48.43800 20.41700
C  38.17700 46.71000 21.23300
C  38.14700 46.00200 19.84600
N  36.49200 46.91000 26.14100
C  36.78300 45.87400 25.32400
C  37.06700 44.69600 26.10600
C  36.84000 45.08500 27.39600
C  36.51700 46.40800 27.40700
C  37.35200 43.35300 25.60100
C  37.00800 44.54000 28.78300
O  37.38400 43.44800 29.15400
C  36.56200 45.73100 29.69900
C  35.30800 45.40900 30.36500
O  34.24800 45.28900 29.75400
O  35.54800 45.19500 31.64200
C  34.28700 44.94200 32.43400
H  34.91600 52.36300 28.31900
H  35.48100 51.11500 21.96900
H  37.00500 45.19000 23.20800
H  35.03800 48.17800 30.82300
H  35.80500 50.95300 30.46500
H  33.26700 49.59000 31.00500
H  33.03600 50.69000 29.75800
H  33.83300 51.27400 31.34000
H  37.57800 49.83500 30.84600
H  37.87000 48.18700 30.76400
H  37.66200 49.62600 33.21300
H  37.61800 47.92800 32.95800
H  34.34200 54.17900 27.49900
H  33.25900 54.32300 26.20200
H  34.83000 55.05500 26.13200
H  34.81300 55.70500 24.14300
H  33.32100 55.03000 23.88100
H  34.23100 55.55300 22.39800
H  36.90500 49.21100 20.93300
H  35.89800 46.52200 21.18000
H  34.85900 47.58100 19.75000
H  35.24000 49.24400 19.74500
H  34.03400 48.71500 20.94300
H  38.73400 46.13000 21.96800
H  38.80100 47.52700 20.87000
H  37.15000 45.81000 19.45000
H  38.59100 45.03900 20.09800
H  38.81000 46.44400 19.10200
H  37.09500 42.59500 26.34100
H  38.37300 43.24300 25.23600
H  36.64500 43.17000 24.79200
H  37.29200 45.89500 30.49200
H  34.05500 43.89900 32.21800
H  33.42000 45.59100 32.30600
H  34.56400 45.03400 33.48400
Mg -11.06200 38.76200 41.36100
C  -9.19800 36.10000 40.07800
C  -8.93800 40.87400 39.65900
C  -13.28600 41.32000 41.72700
C  -13.46300 36.50700 42.36300
N  -9.23300 38.49900 39.98300
C  -8.66000 37.33700 39.64500
C  -7.40700 37.52600 38.84700
C  -7.20500 39.12100 38.91700
C  -8.50700 39.53300 39.58500
C  -5.92300 39.62700 39.52100
C  -7.42700 36.88400 37.37800
C  -6.19400 35.98600 37.05200
H  -5.42100 36.21600 35.69700
N  -11.16900 40.74200 40.75300
C  -10.12000 41.45000 40.15800
C  -10.44600 42.81100 40.09300
C  -11.75100 42.96400 40.58500
C  -12.10700 41.66200 41.05300
C  -9.54100 43.95100 39.56500
C  -12.50900 44.30100 40.53500
O  -12.03300 45.33700 40.07500
C  -13.95700 44.32500 40.88100
N  -13.22500 38.86600 41.84900
C  -13.71200 40.09200 42.16800
C  -15.03000 39.93100 42.87900
C  -15.03400 38.41300 43.28500
C  -13.83100 37.87100 42.46900
C  -15.11700 41.07800 43.98100
C  -16.38800 37.68000 42.92900
C  -17.49300 37.63200 43.95900
N  -11.30400 36.62700 41.34600
C  -12.35800 35.88800 41.83900
C  -11.96500 34.55600 41.71300
C  -10.74700 34.58400 40.99600
C  -10.41500 35.88000 40.79100
C  -12.68100 33.35400 42.33300
C  -9.69200 33.68900 40.43600
O  -9.58100 32.48900 40.49300
C  -8.61800 34.65200 39.70900
C  -7.28700 34.46800 40.36800
O  -6.37700 33.87400 39.83700
O  -7.15900 35.02500 41.59800
C  -5.90700 34.80400 42.27400
H  -8.13600 41.46700 39.21600
H  -13.97400 42.10100 42.05800
H  -14.28200 35.92900 42.79700
H  -6.63200 37.09300 39.47900
H  -7.13500 39.35600 37.85500
H  -6.26100 39.85300 40.53200
H  -5.55400 40.53300 39.04000
H  -5.11800 38.90200 39.63800
H  -7.37700 37.58100 36.54100
H  -8.28000 36.21200 37.28900
H  -6.47300 34.93400 36.99500
H  -5.47200 36.03000 37.86800
H  -9.82900 44.30700 38.57500
H  -8.50400 43.62100 39.51200
H  -9.61800 44.77300 40.27600
H  -13.98000 44.31000 41.97100
H  -14.54800 43.54500 40.40300
H  -14.38500 45.27000 40.54500
H  -15.70400 40.17400 42.05800
H  -14.88100 38.36300 44.36300
H  -14.08100 41.19700 44.29900
H  -15.69900 40.81500 44.86400
H  -15.47100 42.03500 43.59900
H  -16.27100 36.64800 42.59900
H  -16.78300 38.14400 42.02500
H  -17.62400 36.58500 44.23000
H  -18.35500 38.07500 43.46000
H  -17.25900 38.14900 44.89000
H  -12.47800 32.50700 41.67700
H  -13.75700 33.50700 42.41800
H  -12.37700 33.11100 43.35200
H  -8.58700 34.54500 38.62500
H  -5.00400 34.69300 41.67400
H  -6.08900 33.88300 42.82900
H  -5.78900 35.55400 43.05600

