158

Mg 8.50500 3.55800 27.03700
C  9.83000 1.69100 29.85700
C  6.72600 5.39600 29.07800
C  7.10800 4.80100 24.28600
C  9.90100 0.90700 24.90000
N  8.32400 3.45500 29.23900
C  8.98000 2.75300 30.23200
C  8.63300 3.33000 31.64100
C  7.60200 4.44900 31.26800
C  7.46600 4.40200 29.76400
C  6.26100 4.42300 31.98700
C  9.86100 3.92500 32.38700
C  9.54800 4.40800 33.77000
H  10.65700 5.09500 34.60700
N  7.07400 4.94300 26.70200
C  6.55400 5.67000 27.68700
C  5.81400 6.70500 27.06000
C  5.91200 6.57300 25.67600
C  6.73800 5.39100 25.50300
C  4.94400 7.76800 27.84500
C  5.40500 7.45700 24.57000
O  5.71800 7.27700 23.38700
C  4.41300 8.55800 24.92600
N  8.43900 2.88600 24.91100
C  7.79700 3.65900 23.98500
C  8.11900 3.28000 22.55800
C  9.08900 2.08600 22.76000
C  9.23100 1.95900 24.21900
C  6.90600 2.97000 21.69300
C  10.37000 2.09500 21.92200
C  10.60700 0.80200 21.18900
N  9.65200 1.74600 27.24300
C  10.16800 0.80600 26.26900
C  10.78900 -0.32300 26.95500
C  10.83300 0.13800 28.34500
C  10.09100 1.27300 28.45200
C  11.61800 -1.41100 26.32800
C  11.33700 -0.21800 29.72600
O  12.04000 -1.14700 30.02700
C  10.70200 0.84200 30.71900
C  9.97800 0.15300 31.81900
O  8.88000 -0.42300 31.76400
O  10.64300 0.39000 33.00500
C  10.01600 -0.04500 34.27200
H  6.21300 6.10900 29.72600
H  6.63400 5.21900 23.39500
H  10.25600 0.12300 24.22800
H  8.10700 2.62800 32.28700
H  7.90600 5.47500 31.47500
H  5.52800 3.87500 31.39500
H  5.91500 5.45400 32.07200
H  6.36500 4.03700 33.00100
H  10.40400 4.62000 31.74600
H  10.45400 3.01400 32.46800
H  9.29000 3.46100 34.24400
H  8.78600 5.18800 33.75000
H  5.54900 8.67200 27.78600
H  4.78700 7.47600 28.88400
H  3.93800 7.81500 27.42700
H  3.61600 8.07400 25.49000
H  4.08800 9.05800 24.01400
H  4.92000 9.29600 25.54700
H  8.63700 4.15600 22.16800
H  8.44800 1.21500 22.62600
H  6.05700 2.64300 22.29300
H  7.20500 2.21300 20.96800
H  6.61200 3.87400 21.15900
H  11.20800 2.28900 22.59200
H  10.32000 2.99800 21.31400
H  9.83200 0.04700 21.31600
H  11.47900 0.27600 21.57700
H  10.88800 1.02800 20.16000
H  11.08400 -1.95700 25.55000
H  11.77200 -2.27000 26.98100
H  12.54600 -1.00800 25.92400
H  11.50900 1.42100 31.16800
H  9.79200 0.87200 34.81700
H  10.76000 -0.44300 34.96200
H  9.13300 -0.68300 34.24600
Mg -5.52700 24.83900 25.53400
C  -3.90000 26.20400 28.39100
C  -7.25700 22.68900 27.81300
C  -6.98600 23.48000 22.85800
C  -3.44000 26.80000 23.49400
N  -5.41900 24.34000 27.76900
C  -4.84700 25.21000 28.66300
C  -5.22700 24.79800 30.10300
C  -5.99700 23.41500 29.93100
C  -6.25800 23.47300 28.41500
C  -5.24600 22.05200 30.36600
C  -6.17900 25.91900 30.68400
C  -6.20000 26.14100 32.19100
H  -5.38900 25.11700 33.00000
N  -7.02400 23.37400 25.41700
C  -7.70800 22.71400 26.41600
C  -8.83900 21.93600 25.76600
C  -8.72900 22.18600 24.39100
C  -7.61000 23.03900 24.15400
C  -9.83400 21.15300 26.59300
C  -9.75200 21.57300 23.29100
O  -9.56100 21.83100 22.11200
C  -10.92000 20.76800 23.62200
N  -5.32500 25.06400 23.51000
C  -5.93200 24.27900 22.53600
C  -5.28000 24.39200 21.19200
C  -4.22200 25.54800 21.36700
C  -4.30800 25.85700 22.91300
C  -4.87700 23.03700 20.56500
C  -4.45700 26.80000 20.43200
C  -3.99800 26.62100 19.00200
N  -3.95000 26.19600 25.76300
C  -3.23700 26.96200 24.87200
C  -2.36900 27.88000 25.62400
C  -2.64500 27.63300 27.00100
C  -3.56700 26.63400 27.05800
C  -1.39300 28.90400 24.98700
C  -2.26300 28.10300 28.29300
O  -1.44400 28.99500 28.65500
C  -3.04200 27.09800 29.32800
C  -2.08300 26.36600 30.17800
O  -1.43400 25.41700 29.83800
O  -1.99800 26.89600 31.44100
C  -1.23900 26.10800 32.33700
H  -7.96600 22.14700 28.44200
H  -7.47900 23.09200 21.96400
H  -2.76100 27.35900 22.84700
H  -4.34900 24.54000 30.69500
H  -6.96700 23.42300 30.42900
H  -6.01600 21.39200 30.76400
H  -4.48000 22.25400 31.11400
H  -4.75500 21.57600 29.51600
H  -7.22600 25.74000 30.44000
H  -5.83400 26.89100 30.33200
H  -7.18000 26.22800 32.66000
H  -5.67900 27.08200 32.37300
H  -10.84100 21.10600 26.17800
H  -9.88100 21.72600 27.51900
H  -9.46300 20.15400 26.82300
H  -11.54000 20.54800 22.75300
H  -11.59900 21.39300 24.20100
H  -10.59600 19.84400 24.10200
H  -6.09300 24.72300 20.54700
H  -3.22200 25.17900 21.13600
H  -5.58400 22.26200 20.86300
H  -3.85500 22.73400 20.78900
H  -4.91700 23.03700 19.47600
H  -3.83200 27.58200 20.86300
H  -5.50500 27.09900 20.45600
H  -3.05300 27.16400 18.98300
H  -4.59100 27.10600 18.22700
H  -3.82500 25.56700 18.78500
H  -1.96800 29.46800 24.25300
H  -0.45000 28.59800 24.53300
H  -1.08700 29.67500 25.69500
H  -3.67600 27.68400 29.99300
H  -0.19300 26.03100 32.04100
H  -1.68800 25.12200 32.21600
H  -1.38600 26.21400 33.41200

