158

Mg 16.28700 -1.91300 27.82700
C  15.19600 0.04100 30.52200
C  18.44000 -3.52500 30.04300
C  17.24700 -3.76200 25.39100
C  14.39500 0.26500 25.68200
N  16.75400 -1.73700 30.05700
C  16.16000 -0.84900 30.96900
C  16.73600 -1.08400 32.40300
C  17.96600 -1.95200 32.13800
C  17.71800 -2.43300 30.62900
C  19.22800 -1.10500 32.20300
C  15.75700 -1.62100 33.43300
C  15.71100 -0.84600 34.78100
H  17.02700 -0.35300 35.34600
N  17.51700 -3.53700 27.74300
C  18.31900 -4.06100 28.72800
C  18.98200 -5.24600 28.18500
C  18.73500 -5.24800 26.78300
C  17.75800 -4.20100 26.56900
C  19.88500 -6.27300 28.95900
C  19.25500 -6.16200 25.69100
O  18.86100 -6.03700 24.54200
C  20.25200 -7.25200 26.01000
N  15.95900 -1.68900 25.88700
C  16.51800 -2.60300 25.04500
C  16.31400 -2.14400 23.55400
C  15.22000 -0.99700 23.69100
C  15.20200 -0.73900 25.20700
C  17.57400 -1.79400 22.67400
C  13.85300 -1.37000 23.26800
C  13.06300 -0.28900 22.44100
N  15.05300 -0.18900 28.01700
C  14.30700 0.54400 27.09600
C  13.47700 1.48300 27.73300
C  13.75700 1.30800 29.06600
C  14.71500 0.27500 29.19300
C  12.48600 2.39600 27.16100
C  13.47700 1.85700 30.40800
O  12.81800 2.83600 30.81100
C  14.39700 1.08100 31.38700
C  15.27200 2.00200 32.25000
O  16.41000 2.33700 32.00400
O  14.61000 2.35400 33.40500
C  15.34200 3.34500 34.22700
H  19.19000 -3.97100 30.70000
H  17.43200 -4.32300 24.47300
H  13.90800 0.81800 24.87600
H  16.98200 -0.15200 32.91100
H  18.23800 -2.79900 32.76800
H  19.98200 -1.41600 31.48000
H  19.64600 -1.23200 33.20100
H  18.89300 -0.06800 32.21600
H  16.01700 -2.65200 33.67400
H  14.72400 -1.59600 33.08500
H  15.20400 -1.47000 35.51800
H  15.12000 0.06600 34.69900
H  19.98500 -6.05800 30.02300
H  20.87900 -6.34700 28.51700
H  19.54000 -7.28500 28.74900
H  20.54700 -7.66100 25.04400
H  19.69600 -8.04200 26.51500
H  21.12600 -6.91000 26.56500
H  15.91200 -3.04400 23.08900
H  15.58400 -0.09000 23.20900
H  18.45900 -2.02200 23.26900
H  17.43200 -0.78200 22.29300
H  17.50800 -2.54000 21.88200
H  13.33700 -1.61900 24.19600
H  13.84800 -2.31600 22.72700
H  12.19800 -0.01000 23.04200
H  12.67800 -0.69900 21.50700
H  13.61200 0.64800 22.34700
H  12.96100 3.07200 26.45000
H  12.12400 3.07000 27.93600
H  11.60300 1.93700 26.71500
H  13.69500 0.60300 32.07100
H  15.49600 4.25500 33.64700
H  16.23900 2.97200 34.72300
H  14.62800 3.72400 34.95800
Mg 47.23700 16.84200 27.51600
C  45.55800 16.45000 30.55800
C  49.69000 18.70400 29.36600
C  48.57900 17.77000 24.69400
C  44.47700 15.43900 25.83500
N  47.50900 17.59500 29.67400
C  46.73700 17.15600 30.77400
C  47.42500 17.57800 32.12000
C  48.69000 18.38300 31.67800
C  48.63300 18.21600 30.11900
C  48.68300 19.84100 32.19700
C  47.79800 16.23400 32.97800
C  47.66000 16.39200 34.54700
H  47.56200 17.83400 35.07600
N  48.91000 18.02100 27.07800
C  49.78800 18.66600 27.96600
C  50.93100 19.06300 27.15500
C  50.65700 18.81600 25.78700
C  49.35800 18.16900 25.77700
C  52.19700 19.61600 27.69200
C  51.37000 19.14800 24.46200
O  50.92900 18.94800 23.31900
C  52.89300 19.71500 24.52800
N  46.51800 16.84300 25.61300
C  47.35000 17.21300 24.60500
C  46.75700 16.99700 23.18700
C  45.47300 16.18500 23.52800
C  45.45400 16.11000 25.09500
C  46.44500 18.33400 22.40000
C  45.38400 14.77200 22.84200
C  43.97700 14.51900 22.33300
N  45.34700 16.02500 28.05100
C  44.41400 15.40500 27.26700
C  43.33000 14.94500 28.03100
C  43.71600 15.27700 29.38900
C  44.99000 15.94700 29.33300
C  42.08700 14.20700 27.53400
C  43.33200 15.20900 30.74800
O  42.35100 14.78200 31.30000
C  44.42900 15.94100 31.58100
C  43.72600 16.99600 32.32300
O  42.92200 17.80500 31.85000
O  44.14200 16.96700 33.69700
C  43.57100 17.88800 34.61600
H  50.50300 19.16700 29.92900
H  48.91700 17.91500 23.66500
H  43.63800 15.00500 25.28600
H  46.73900 18.20300 32.69100
H  49.62200 17.87300 31.92500
H  48.73200 20.62900 31.44600
H  49.52300 19.98900 32.87600
H  47.77100 20.11000 32.72900
H  48.79200 15.87800 32.70400
H  47.17800 15.40000 32.65200
H  48.59500 15.98200 34.92900
H  46.80900 15.78500 34.85700
H  52.35500 20.54900 27.15000
H  53.06000 19.00200 27.43600
H  52.14400 19.84500 28.75700
H  52.99200 20.61900 25.12800
H  53.32300 19.92000 23.54800
H  53.58900 18.97600 24.92400
H  47.41800 16.33000 22.63400
H  44.61100 16.78500 23.23700
H  45.38800 18.60000 22.37500
H  46.80800 18.22300 21.37900
H  46.94200 19.08000 23.02000
H  45.70200 14.06500 23.60800
H  46.05500 14.55900 22.01000
H  44.05300 14.01200 21.37100
H  43.39300 15.42700 22.18800
H  43.42900 13.82300 22.96900
H  42.24700 13.14100 27.70000
H  41.82100 14.41700 26.49800
H  41.18100 14.37500 28.11500
H  44.85700 15.13900 32.18200
H  43.94100 17.54200 35.58100
H  42.49400 17.97100 34.47000
H  43.99000 18.87300 34.40900

