158

Mg 15.80500 -2.29300 27.88800
C  15.06900 -0.20100 30.56900
C  17.85500 -4.09800 30.11400
C  17.27100 -3.92000 25.33600
C  14.77400 0.17800 25.64600
N  16.53900 -1.99200 30.08200
C  15.97300 -1.21500 30.97700
C  16.36700 -1.56400 32.37300
C  17.54200 -2.55600 32.18600
C  17.24400 -3.01100 30.76700
C  19.05200 -2.02300 32.27100
C  15.13500 -2.11200 33.21800
C  14.81300 -1.27000 34.50100
H  15.89600 -0.87700 35.48500
N  17.09200 -3.99200 27.74200
C  17.90100 -4.53400 28.78100
C  18.62300 -5.67200 28.24500
C  18.41900 -5.67000 26.83800
C  17.55300 -4.50000 26.57400
C  19.47200 -6.53300 29.07200
C  18.95200 -6.57700 25.77400
O  18.75300 -6.37100 24.60600
C  19.80600 -7.75200 26.16300
N  15.82600 -1.97700 25.82800
C  16.56200 -2.78100 24.98400
C  16.48300 -2.31000 23.53200
C  15.58900 -1.06900 23.58500
C  15.35000 -0.96200 25.09200
C  17.80700 -2.13000 22.82300
C  14.41500 -0.94000 22.62100
C  13.27100 -1.84000 23.08800
N  14.97200 -0.40500 27.95100
C  14.48800 0.42200 27.00700
C  13.66900 1.44200 27.68900
C  13.89200 1.27800 29.10000
C  14.74600 0.17300 29.19300
C  12.68800 2.36300 27.00300
C  13.56300 1.78200 30.38900
O  12.75200 2.63500 30.64700
C  14.35400 0.90700 31.37900
C  15.22100 1.92100 32.14900
O  16.15200 2.51600 31.67400
O  14.62000 2.33200 33.33500
C  15.30200 3.43800 34.06600
H  18.46300 -4.72000 30.77500
H  17.73500 -4.41100 24.47800
H  14.30100 0.76900 24.85800
H  16.65700 -0.61600 32.82600
H  17.41200 -3.28800 32.98300
H  19.66900 -2.58300 32.97500
H  19.04300 -0.99200 32.62500
H  19.56300 -2.00200 31.30800
H  15.25400 -3.09900 33.66600
H  14.17100 -1.99000 32.72400
H  13.97500 -1.78300 34.97200
H  14.26200 -0.39400 34.15900
H  19.49100 -7.56500 28.72000
H  19.02400 -6.54500 30.06600
H  20.45300 -6.11400 29.29600
H  20.83000 -7.52200 26.45900
H  20.01400 -8.27500 25.23000
H  19.34900 -8.44200 26.87200
H  15.92500 -3.14100 23.10000
H  16.12500 -0.13200 23.43200
H  17.99700 -1.09900 22.52500
H  17.64600 -2.56900 21.83800
H  18.67200 -2.58300 23.30600
H  14.64100 -1.22600 21.59400
H  14.13100 0.10700 22.51600
H  12.34700 -1.32200 23.34600
H  13.49300 -2.48600 23.93700
H  13.11300 -2.48200 22.22100
H  12.32500 3.09700 27.72300
H  11.81000 1.80500 26.67700
H  13.18800 2.92700 26.21500
H  13.57400 0.48000 32.00900
H  14.52700 3.99400 34.59300
H  15.88800 4.15800 33.49400
H  15.96400 3.10800 34.86700
Mg 1.18200 42.62500 25.49800
C  2.09700 42.56500 29.06200
C  -1.61300 40.85200 26.46900
C  0.77100 41.77500 22.26900
C  4.27700 43.85200 24.82900
N  0.31300 41.96100 27.57900
C  0.80000 42.02600 28.82800
C  -0.19200 41.51700 29.90600
C  -1.22600 40.83200 28.94700
C  -0.77200 41.14000 27.55800
C  -1.34900 39.23600 29.13000
C  -0.76900 42.71900 30.74300
C  -0.85300 42.51700 32.25800
H  -1.42500 41.19400 32.83500
N  -0.35000 41.72500 24.45200
C  -1.45300 41.05000 25.03100
C  -2.32800 40.59700 23.97600
C  -1.65700 40.89300 22.70000
C  -0.31700 41.49800 23.06000
C  -3.68900 39.95400 24.31100
C  -2.05300 40.63300 21.26300
O  -1.35700 40.85300 20.27900
C  -3.48700 40.17300 20.98700
N  2.36500 42.69000 23.83200
C  1.98800 42.30300 22.61100
C  3.13500 42.50700 21.63300
C  4.04800 43.56200 22.33400
C  3.49900 43.46900 23.72800
C  3.82100 41.11300 21.27600
C  3.92400 45.05000 21.87200
C  2.50200 45.58400 21.77800
N  2.81100 43.26000 26.65400
C  4.06800 43.74600 26.22200
C  4.88800 44.00800 27.34200
C  4.15000 43.54200 28.45100
C  2.92000 43.08200 28.01200
C  6.28600 44.60700 27.30400
C  4.15700 43.36000 29.94500
O  5.02500 43.67400 30.76700
C  2.82400 42.70400 30.31500
C  3.03800 41.52400 31.08500
O  3.74800 40.57300 30.72800
O  2.28600 41.56800 32.22000
C  2.21700 40.38200 33.04700
H  -2.51200 40.36700 26.85500
H  0.75400 41.53000 21.20500
H  5.26800 44.16100 24.48900
H  0.26100 40.77700 30.56500
H  -2.21100 41.28500 29.06200
H  -2.39300 39.05700 29.38900
H  -0.72000 38.85100 29.93200
H  -1.14700 38.70400 28.20000
H  -1.74600 43.01200 30.35700
H  -0.15700 43.61000 30.60300
H  -1.53700 43.25900 32.67100
H  0.14800 42.74100 32.62600
H  -3.80800 39.35800 25.21600
H  -3.80600 39.22600 23.50900
H  -4.52100 40.65700 24.27100
H  -4.27400 40.60700 21.60400
H  -3.60600 39.09300 21.07400
H  -3.74200 40.39100 19.94900
H  2.79200 42.95200 20.69900
H  5.07400 43.19600 22.28800
H  3.15000 40.27200 21.44700
H  4.68800 41.01400 21.92900
H  4.11400 41.05800 20.22700
H  4.20100 44.91100 20.82700
H  4.78900 45.56500 22.28900
H  2.40700 45.78900 20.71100
H  2.42800 46.48600 22.38600
H  1.67400 44.96500 22.12200
H  6.33800 45.64800 26.98300
H  7.01300 44.01700 26.74600
H  6.69400 44.59200 28.31500
H  2.30700 43.38000 30.99600
H  2.10600 39.43000 32.52900
H  1.43800 40.47000 33.80500
H  3.14800 40.25700 33.60000

