158

Mg 24.35100 -4.61400 45.98600
C  26.43600 -2.38800 44.48400
C  21.84100 -3.73700 43.66300
C  22.47300 -7.24800 46.96500
C  27.01300 -5.80800 47.94300
N  24.17600 -3.24800 44.20100
C  25.13500 -2.30200 43.96200
C  24.64700 -1.29600 42.92800
C  23.10200 -1.57300 42.78700
C  23.01700 -2.92200 43.60000
C  22.22200 -0.51700 43.45900
C  25.42300 -1.36300 41.54000
C  25.51000 -0.03000 40.82700
H  24.69900 0.01600 39.55200
N  22.33000 -5.31500 45.47600
C  21.48400 -4.82000 44.56600
C  20.23000 -5.47400 44.66400
C  20.40700 -6.61200 45.42700
C  21.85900 -6.44100 45.97800
C  19.00700 -5.07700 43.96900
C  19.44900 -7.74800 45.67500
O  18.31100 -7.67600 45.28400
C  19.82300 -9.03300 46.32800
N  24.74700 -6.43800 47.12100
C  23.77500 -7.24100 47.47100
C  24.30300 -8.39500 48.29600
C  25.59400 -7.78100 48.87000
C  25.91300 -6.62600 47.88800
C  23.37600 -8.96100 49.39800
C  26.76100 -8.85400 48.94700
C  27.77300 -9.05100 50.09500
N  26.28800 -4.24400 46.22300
C  27.23500 -4.71300 47.10200
C  28.45300 -3.93000 46.96900
C  28.18100 -3.05800 45.90600
C  26.87300 -3.26600 45.48400
C  29.59800 -4.03900 47.88600
C  28.80000 -1.92200 45.16600
O  29.90000 -1.31600 45.19800
C  27.65100 -1.48400 44.20300
C  27.40200 -0.06300 44.54000
O  27.23000 0.35700 45.68100
O  27.67900 0.71300 43.46500
C  27.82700 2.10800 43.79900
H  20.93900 -3.37400 43.16600
H  21.89500 -8.05500 47.42000
H  27.73700 -6.14000 48.69000
H  24.75900 -0.33300 43.42500
H  22.74600 -1.79000 41.78100
H  22.75500 0.33600 43.87800
H  21.71700 -0.90900 44.34300
H  21.44900 -0.10300 42.81200
H  24.88500 -2.11500 40.96400
H  26.36100 -1.87300 41.76100
H  26.57800 0.13500 40.68300
H  25.12600 0.76500 41.46500
H  19.02500 -5.68400 43.06400
H  18.88700 -4.03500 43.67100
H  18.06600 -5.46800 44.35600
H  19.78600 -8.93200 47.41300
H  20.84300 -9.31700 46.06700
H  19.02000 -9.72300 46.06900
H  24.57700 -9.26900 47.70600
H  25.33200 -7.27600 49.80000
H  22.41400 -8.45000 49.36700
H  23.72400 -8.78200 50.41500
H  23.35400 -10.03800 49.22700
H  27.39100 -8.77700 48.06100
H  26.25200 -9.81400 48.85600
H  27.64900 -10.10300 50.35100
H  27.63000 -8.23500 50.80400
H  28.81100 -8.88700 49.80400
H  29.35100 -4.46300 48.86000
H  29.85000 -3.06200 48.29600
H  30.51200 -4.36600 47.39100
H  28.01200 -1.50500 43.17500
H  27.71900 2.74900 42.92400
H  28.71500 2.38700 44.36600
H  26.97600 2.39600 44.41700
Mg 29.36300 58.00800 40.79500
C  26.36700 56.38100 39.69700
C  31.09500 55.52800 39.17800
C  32.21300 60.03400 40.73700
C  27.45600 60.84100 41.60200
N  28.75000 56.10800 39.63100
C  27.48800 55.66700 39.33700
C  27.59100 54.36100 38.50300
C  29.11900 54.00800 38.47900
C  29.70400 55.26600 39.12200
C  29.58700 52.66800 39.22600
C  26.93600 54.48800 37.14800
C  27.05900 55.79200 36.40600
H  26.85300 55.80700 34.91700
N  31.34300 57.74100 40.25500
C  31.90500 56.63000 39.68400
C  33.33000 56.71600 39.47600
C  33.74800 57.98800 40.07900
C  32.44500 58.65000 40.41600
C  34.17200 55.67100 38.82500
C  35.15900 58.54100 40.20200
O  36.08500 57.99700 39.58500
C  35.49500 59.71200 41.02200
N  29.73900 60.13000 41.07000
C  30.99300 60.67600 41.08500
C  30.95000 62.16900 41.41000
C  29.39700 62.41300 41.70500
C  28.80400 61.02800 41.39000
C  32.07300 62.61300 42.41500
C  28.82200 63.57500 40.87600
C  28.71200 64.96200 41.60700
N  27.29800 58.47700 40.84400
C  26.66700 59.70500 41.22200
C  25.22400 59.52500 41.21100
C  25.04600 58.17100 40.66700
C  26.33600 57.64900 40.36400
C  24.22000 60.53500 41.69100
C  24.08700 57.26500 40.12900
O  22.84100 57.29900 40.11900
C  24.88600 56.10000 39.36900
C  24.45500 54.82600 40.05000
O  23.82700 54.00200 39.42700
O  24.95200 54.60000 41.27500
C  24.94200 53.21700 41.78200
H  31.71000 54.74000 38.74000
H  33.06600 60.70700 40.63100
H  26.85500 61.71000 41.87700
H  26.94600 53.67100 39.04800
H  29.35700 53.99400 37.41500
H  28.68900 52.22600 39.65600
H  30.29100 52.89900 40.02600
H  29.95200 51.92900 38.51200
H  25.89900 54.18200 37.28800
H  27.39100 53.77600 36.46000
H  28.01100 56.24400 36.68500
H  26.29300 56.47600 36.77000
H  33.73100 54.69300 38.63500
H  35.03400 55.61500 39.49000
H  34.63100 56.04100 37.90800
H  34.73200 59.80200 41.79500
H  35.54300 60.59200 40.38000
H  36.49100 59.51300 41.41900
H  31.22100 62.63600 40.46300
H  29.19300 62.64800 42.75000
H  31.55400 62.92800 43.32100
H  32.65700 63.49300 42.14900
H  32.74800 61.84600 42.79400
H  27.91800 63.25500 40.35600
H  29.52800 63.74900 40.06400
H  27.79700 64.96400 42.20000
H  28.70200 65.71800 40.82200
H  29.58500 64.98500 42.26000
H  24.23400 61.49500 41.17400
H  24.49100 60.81200 42.70900
H  23.20700 60.13500 41.73000
H  24.59900 56.22800 38.32600
H  24.34900 53.30400 42.69200
H  25.96200 52.92000 42.02600
H  24.42300 52.41300 41.26000

