158

Mg 6.94500 54.32600 41.50600
C  6.93000 50.73200 41.15300
C  10.23800 54.33900 40.75100
C  6.73500 57.71200 41.42800
C  3.52600 54.12800 42.00800
N  8.33800 52.74800 40.91000
C  8.13700 51.34600 40.81800
C  9.44200 50.56400 40.46300
C  10.50900 51.71000 40.72200
C  9.69400 53.04700 40.80300
C  11.40000 51.58300 41.99900
C  9.50200 50.03400 39.01500
C  9.20500 50.99500 37.84400
H  7.94000 50.77600 36.97400
N  8.31300 55.80500 41.18700
C  9.63400 55.63300 40.85600
C  10.35500 56.95800 40.65300
C  9.30400 57.94900 40.95600
C  8.00200 57.18000 41.18000
C  11.81500 57.14300 40.32100
C  9.48900 59.47600 41.01400
O  10.61100 59.96100 40.70100
C  8.39200 60.55500 41.45200
N  5.26600 55.74400 41.59000
C  5.47500 57.13700 41.67400
C  4.23100 57.83200 42.10100
C  3.17100 56.68300 42.09200
C  4.02200 55.42100 41.85500
C  4.31300 58.52000 43.48400
C  1.95900 56.83600 41.10300
C  0.62200 57.36400 41.73400
N  5.51400 52.82600 41.60100
C  4.21500 52.88000 41.98700
C  3.65600 51.57500 42.14200
C  4.72400 50.72800 41.80900
C  5.79800 51.48400 41.49300
C  2.33700 51.22200 42.59100
C  5.06200 49.35900 41.93000
O  4.45800 48.40400 42.38600
C  6.53600 49.25600 41.44700
C  6.61700 48.39300 40.27000
O  6.35500 48.70600 39.10500
O  6.91400 47.11700 40.71600
C  6.97700 46.16700 39.57500
H  11.32600 54.31600 40.66600
H  6.52900 58.76800 41.61600
H  2.54100 54.09500 42.47800
H  9.74300 49.76300 41.13800
H  11.19300 51.68000 39.87400
H  11.06100 50.81700 42.69600
H  11.23800 52.48400 42.59000
H  12.45600 51.51400 41.73600
H  8.86400 49.15100 39.00500
H  10.46300 49.58200 38.76900
H  10.00800 50.93300 37.11000
H  9.11100 51.96200 38.33900
H  11.97200 58.04500 39.72900
H  12.16900 56.30000 39.72700
H  12.54800 57.18300 41.12700
H  8.67000 61.60300 41.33900
H  8.01800 60.32600 42.45000
H  7.54100 60.52100 40.77100
H  3.96700 58.53600 41.31200
H  2.79000 56.57700 43.10700
H  4.30400 59.60900 43.50700
H  5.21100 58.21600 44.02200
H  3.38300 58.25100 43.98600
H  1.78200 55.90400 40.56800
H  2.23500 57.43600 40.23600
H  0.58500 57.60400 42.79600
H  -0.19800 56.66200 41.57900
H  0.18800 58.29600 41.37100
H  1.87300 50.79800 41.70000
H  1.66300 52.02000 42.90300
H  2.25700 50.46100 43.36700
H  7.11700 48.79300 42.24500
H  7.07600 45.13300 39.90300
H  7.78700 46.45500 38.90500
H  6.06900 46.22600 38.97400
Mg -6.09700 25.44500 25.85600
C  -4.41600 26.87400 28.60600
C  -7.19600 22.99400 28.00900
C  -6.82100 23.48500 23.16300
C  -4.25100 27.65200 23.80200
N  -5.77300 25.03500 28.09000
C  -5.28800 25.89000 29.02600
C  -5.62100 25.50900 30.43700
C  -6.27300 24.06800 30.18800
C  -6.41200 24.00800 28.63900
C  -5.41700 22.85300 30.81500
C  -6.67500 26.44800 31.09900
C  -6.64900 26.72000 32.62500
H  -5.84400 25.78400 33.53700
N  -6.95200 23.58900 25.65200
C  -7.46000 22.79300 26.65000
C  -8.21000 21.69500 26.10000
C  -8.03700 21.75200 24.69400
C  -7.20800 22.98200 24.48100
C  -8.94000 20.63200 26.90400
C  -8.44800 20.80500 23.59300
O  -8.19500 21.01200 22.44900
C  -9.26200 19.46000 23.86800
N  -5.52400 25.49600 23.74600
C  -6.04100 24.64800 22.84000
C  -5.58700 24.98000 21.45300
C  -4.99100 26.45500 21.60300
C  -4.88500 26.54800 23.14400
C  -4.55300 23.89500 20.87100
C  -5.81500 27.66500 21.01300
C  -5.01200 28.50700 19.92400
N  -4.67500 27.00300 26.10700
C  -4.04200 27.80000 25.17300
C  -3.27600 28.83600 25.83600
C  -3.42700 28.53300 27.16400
C  -4.17700 27.37700 27.28800
C  -2.43500 29.97000 25.20300
C  -2.92200 28.95600 28.54000
O  -2.17700 29.82700 28.92100
C  -3.58500 27.82800 29.47900
C  -2.44700 27.06000 30.01800
O  -1.64300 26.42100 29.39000
O  -2.38200 27.07100 31.41700
C  -1.27600 26.47400 32.18300
H  -7.53700 22.20100 28.67800
H  -6.95200 22.89300 22.25500
H  -3.78200 28.33200 23.08700
H  -4.69500 25.42500 31.00600
H  -7.30400 24.06900 30.54000
H  -4.78100 22.26000 30.15800
H  -6.18600 22.21300 31.24800
H  -4.87000 23.33300 31.62700
H  -7.71900 26.31600 30.81300
H  -6.50000 27.42800 30.65500
H  -7.65800 26.89500 32.99700
H  -6.18700 27.69700 32.76800
H  -8.26700 19.79400 27.08900
H  -9.84600 20.22100 26.45800
H  -9.21900 21.09900 27.84900
H  -8.69400 18.80600 24.53000
H  -9.37600 18.76900 23.03200
H  -10.21000 19.65700 24.36800
H  -6.38200 25.07300 20.71400
H  -3.97600 26.49800 21.20600
H  -4.22400 23.46400 21.81700
H  -3.73400 24.29700 20.27500
H  -5.05500 23.14000 20.26700
H  -6.12100 28.22700 21.89500
H  -6.60700 27.22600 20.40600
H  -5.66400 29.24800 19.46100
H  -4.40900 27.85400 19.29300
H  -4.28900 29.11800 20.46500
H  -1.96500 29.55800 24.31000
H  -1.85200 30.62400 25.85000
H  -3.24400 30.60100 24.83300
H  -4.22800 28.17900 30.28600
H  -0.99900 25.51400 31.74500
H  -1.76800 26.23500 33.12600
H  -0.46600 27.14500 32.46400

