158

Mg 0.86500 8.38700 26.59000
C  1.38200 10.17200 29.41900
C  0.99000 5.37800 28.16100
C  0.89900 6.71100 23.50600
C  1.68600 11.34600 24.84800
N  1.32100 7.86500 28.51600
C  1.20100 8.75500 29.56600
C  0.92800 8.05700 30.85300
C  1.40200 6.62800 30.54300
C  1.23800 6.57800 28.95800
C  2.82200 6.16200 30.83400
C  -0.46600 8.31000 31.39900
C  -0.65600 8.01700 32.89600
H  0.48900 7.39200 33.66000
N  0.59500 6.42500 25.92200
C  0.76300 5.27600 26.68300
C  0.53300 4.08300 25.92200
C  0.49600 4.45500 24.60900
C  0.63100 5.91500 24.61400
C  0.50900 2.66700 26.51600
C  0.24800 3.62300 23.41200
O  0.04800 4.08500 22.28500
C  0.05500 2.10700 23.59600
N  1.23900 8.90500 24.45500
C  1.30500 8.02400 23.44800
C  1.69100 8.74700 22.20300
C  1.80100 10.26700 22.52300
C  1.56000 10.24000 24.05100
C  2.95200 8.14200 21.58900
C  0.79700 11.22100 21.78400
C  -0.75900 11.01900 22.06300
N  1.25600 10.41200 26.99600
C  1.64400 11.48600 26.23300
C  1.87300 12.68000 26.99500
C  1.80500 12.13500 28.31400
C  1.49000 10.81000 28.26300
C  2.16000 14.07800 26.54600
C  1.96400 12.47600 29.76100
O  2.33700 13.49900 30.30400
C  1.55200 11.18900 30.46600
C  2.69900 10.94800 31.45700
O  3.81800 10.55400 31.22200
O  2.27600 11.46200 32.61800
C  3.21800 11.72400 33.68400
H  1.11500 4.39600 28.62100
H  1.10500 6.31800 22.50800
H  1.87200 12.30200 24.35300
H  1.66800 8.38200 31.58400
H  0.67500 5.95200 30.99300
H  3.27600 5.92200 29.87300
H  2.91100 5.34900 31.55400
H  3.29400 7.05900 31.23600
H  -1.22800 7.71700 30.89400
H  -0.75400 9.36000 31.33700
H  -1.54100 7.40000 33.05200
H  -0.86400 8.95500 33.41200
H  0.64700 2.72300 27.59500
H  1.36000 2.11500 26.11700
H  -0.39300 2.15000 26.18700
H  -0.83700 1.93500 24.19800
H  0.94500 1.69400 24.07000
H  0.00300 1.66400 22.60100
H  0.77300 8.60900 21.63100
H  2.81800 10.65400 22.44900
H  3.64100 7.80600 22.36300
H  3.45500 8.89900 20.98800
H  2.66300 7.25000 21.03200
H  0.99700 11.12100 20.71700
H  1.17900 12.18500 22.12100
H  -1.40300 10.88200 21.19500
H  -0.90000 12.02900 22.45000
H  -0.95300 10.34600 22.89800
H  1.27400 14.56500 26.13900
H  2.90900 14.06200 25.75500
H  2.55700 14.61400 27.40800
H  0.59000 11.34800 30.95300
H  4.03400 11.00600 33.77800
H  2.74400 11.62900 34.66000
H  3.54400 12.76400 33.67900
Mg 47.28100 16.15500 28.29500
C  45.80800 15.93300 31.45600
C  49.90500 18.00900 29.73000
C  48.79200 16.09600 25.35700
C  44.51700 14.76400 26.88900
N  47.76300 16.95400 30.36900
C  46.97100 16.74500 31.51000
C  47.62300 17.35300 32.78900
C  48.77500 18.27100 32.15400
C  48.86700 17.72500 30.64300
C  48.61100 19.81600 32.24600
C  48.02900 16.15200 33.82700
C  48.00400 16.43900 35.33500
H  48.21800 17.82100 35.94400
N  49.04500 16.90700 27.70700
C  50.03100 17.46600 28.47800
C  51.21900 17.53100 27.67900
C  50.93900 17.03000 26.41400
C  49.53900 16.59200 26.42100
C  52.56700 17.99200 28.22900
C  51.90700 16.95900 25.25900
O  51.68200 16.32800 24.22900
C  53.22100 17.73700 25.18300
N  46.69900 15.71200 26.29700
C  47.50700 15.75200 25.20800
C  46.85200 15.28100 23.87400
C  45.47700 14.70500 24.45400
C  45.53700 15.21200 25.99100
C  46.62900 16.34500 22.82300
C  45.26000 13.26400 24.23700
C  46.16300 12.21100 25.02800
N  45.54900 15.54000 28.94700
C  44.45400 14.99600 28.22800
C  43.47500 14.58700 29.14200
C  43.98700 14.96000 30.42500
C  45.17700 15.59900 30.26500
C  42.22100 13.90500 28.79800
C  43.69500 14.88900 31.87800
O  42.76600 14.41800 32.52300
C  44.84400 15.64200 32.57700
C  44.27000 16.87000 33.17200
O  44.06500 17.90000 32.57500
O  43.89400 16.53800 34.45100
C  42.95600 17.40900 35.15300
H  50.81400 18.48800 30.10000
H  49.34700 15.98700 24.42300
H  43.68800 14.15200 26.53000
H  46.89400 17.99200 33.28800
H  49.77700 18.06500 32.53200
H  47.75900 20.14200 32.84200
H  48.68600 20.40300 31.33000
H  49.48700 20.04800 32.85200
H  48.99000 15.71000 33.56600
H  47.35900 15.32300 33.59800
H  48.82000 15.81200 35.69600
H  47.04800 16.00600 35.62900
H  52.70100 17.89200 29.30600
H  52.80500 18.98500 27.84900
H  53.31700 17.30300 27.84100
H  53.19600 18.78000 25.49600
H  53.54800 17.87500 24.15200
H  54.04300 17.28600 25.73800
H  47.45300 14.42100 23.57800
H  44.58100 15.24900 24.15500
H  46.84100 17.30400 23.29600
H  45.59700 16.49000 22.50400
H  47.35600 16.21200 22.02200
H  45.25300 13.09500 23.16000
H  44.24400 13.13800 24.61300
H  46.59200 12.71300 25.89400
H  46.94300 11.87000 24.34700
H  45.62000 11.32400 25.35700
H  42.25400 13.18200 29.61300
H  42.18900 13.42600 27.81900
H  41.35200 14.55600 28.89400
H  45.21000 15.05600 33.42000
H  41.96600 16.96700 35.04500
H  42.99500 18.38100 34.66100
H  43.35100 17.48800 36.16600

