158

Mg 26.65600 49.43300 26.02900
C  24.89000 50.87600 28.77000
C  29.21400 48.87200 28.38700
C  28.65000 48.65700 23.49500
C  24.34100 50.83500 23.88800
N  26.99700 49.90000 28.23600
C  26.07200 50.33400 29.23500
C  26.62200 50.19400 30.67400
C  28.10000 49.95100 30.42200
C  28.12700 49.50700 28.89800
C  28.92900 51.25600 30.68200
C  25.97700 49.04200 31.42900
C  25.30800 49.34100 32.76500
H  26.20800 49.79800 33.94000
N  28.55400 48.69500 25.96100
C  29.43100 48.45800 27.03600
C  30.65000 47.87100 26.47800
C  30.60300 47.97900 25.05000
C  29.22700 48.45700 24.81800
C  31.84000 47.43200 27.29300
C  31.61500 47.81300 23.98500
O  31.47200 48.18800 22.83900
C  32.99600 47.46600 24.46200
N  26.56900 49.84000 24.00600
C  27.45600 49.28800 23.13400
C  26.98900 49.35300 21.63800
C  25.55200 50.00200 21.81800
C  25.44300 50.23600 23.31600
C  27.80900 50.26900 20.76700
C  24.37900 48.93300 21.44100
C  23.03800 49.57800 20.93900
N  24.94700 50.62100 26.28000
C  24.07000 51.03300 25.29300
C  23.00300 51.79900 25.88000
C  23.24200 51.71500 27.25300
C  24.42100 50.97100 27.42600
C  21.90600 52.57000 25.22900
C  22.71300 52.04700 28.57200
O  21.67800 52.56900 28.91900
C  23.79200 51.56600 29.58700
C  24.34400 52.66200 30.34200
O  25.01000 53.53500 29.82900
O  23.96700 52.56400 31.65100
C  24.64300 53.29600 32.66900
H  30.02000 48.68800 29.09900
H  29.15400 48.21000 22.63600
H  23.67500 51.29400 23.15400
H  26.41500 51.12500 31.20100
H  28.57900 49.26100 31.11600
H  29.51100 51.44600 29.78000
H  29.64000 50.97400 31.45900
H  28.37700 52.10800 31.07900
H  26.67600 48.22400 31.60500
H  25.20300 48.63200 30.77900
H  24.74200 48.46900 33.09300
H  24.68000 50.18200 32.47000
H  32.65800 48.14600 27.19300
H  32.04800 46.39800 27.01900
H  31.59200 47.63100 28.33600
H  32.93600 46.55800 25.06100
H  33.45900 48.29100 25.00400
H  33.57900 47.24600 23.56800
H  26.81800 48.36500 21.21100
H  25.34800 50.91700 21.26200
H  28.83000 50.30000 21.14700
H  27.37400 51.26400 20.67500
H  27.77800 49.65900 19.86400
H  24.36200 48.38000 22.37900
H  24.77500 48.27800 20.66500
H  22.30500 49.59800 21.74500
H  22.53800 49.03300 20.13900
H  23.15500 50.53000 20.42100
H  22.23100 53.59900 25.38400
H  20.98600 52.53300 25.81300
H  21.77600 52.29400 24.18300
H  23.36700 50.79700 30.23200
H  23.88900 53.99300 33.03300
H  25.55400 53.77400 32.30900
H  24.85400 52.59400 33.47700
Mg 9.90800 48.20400 26.23700
C  7.93500 48.58200 29.12200
C  12.70600 49.24700 28.14000
C  11.63000 48.14600 23.40900
C  6.89700 47.67500 24.48700
N  10.29900 48.86200 28.30700
C  9.34700 48.65300 29.36900
C  9.92900 49.04000 30.71600
C  11.33200 49.65000 30.28800
C  11.46900 49.31600 28.79500
C  11.42000 51.16000 30.61500
C  10.04600 47.78300 31.70600
C  9.82500 48.01100 33.26900
H  9.49400 46.76800 34.09300
N  11.94300 48.58400 25.87200
C  12.93000 48.90300 26.76000
C  14.18500 48.94600 26.03600
C  13.87300 48.57800 24.71700
C  12.42300 48.45500 24.56700
C  15.48000 49.37000 26.74700
C  14.83200 48.35300 23.60100
O  14.43300 48.03300 22.53000
C  16.33800 48.42800 23.69500
N  9.36700 47.89600 24.27700
C  10.27500 47.93500 23.25400
C  9.60800 47.80300 21.84200
C  8.17300 47.27600 22.24400
C  8.13400 47.64300 23.72700
C  9.41900 49.08400 20.98100
C  7.76300 45.82000 21.86900
C  6.47800 45.66600 21.09200
N  7.82800 48.13700 26.66700
C  6.75200 47.92900 25.83400
C  5.53400 47.96800 26.56600
C  5.97100 48.27300 27.89700
C  7.37600 48.37900 27.88800
C  4.18200 47.67200 25.96200
C  5.49200 48.47800 29.27100
O  4.35700 48.67300 29.70900
C  6.82200 48.60600 30.14200
C  6.95700 47.32700 31.01500
O  7.27200 46.21400 30.63500
O  6.19600 47.60900 32.11000
C  5.81500 46.56000 33.01100
H  13.45600 49.66400 28.81500
H  12.12300 48.10900 22.43500
H  6.00100 47.30400 23.98700
H  9.27300 49.80700 31.12700
H  12.20400 49.15400 30.71600
H  11.04400 51.70500 29.75000
H  12.42100 51.31300 31.01800
H  10.77400 51.37900 31.46600
H  11.02800 47.34600 31.52900
H  9.34200 46.99300 31.44600
H  9.03300 48.73700 33.45300
H  10.78100 48.45700 33.54500
H  15.26500 49.24400 27.80800
H  15.88900 50.38100 26.73900
H  16.24000 48.69600 26.35100
H  16.50300 47.57200 24.34900
H  16.74900 49.30300 24.19800
H  16.67800 48.10500 22.71100
H  10.18100 47.17000 21.16500
H  7.53000 47.95100 21.67900
H  9.59000 49.98000 21.57700
H  8.47100 49.32500 20.50100
H  10.18200 48.95800 20.21200
H  7.62600 45.31200 22.82300
H  8.58400 45.44600 21.25700
H  5.91600 44.86700 21.57600
H  6.63800 45.46100 20.03400
H  5.95500 46.62100 21.03800
H  4.15200 46.62600 25.65600
H  3.98900 48.34200 25.12400
H  3.35600 47.84000 26.65300
H  6.95900 49.47600 30.78400
H  5.85000 47.14400 33.93100
H  6.41400 45.65000 32.96800
H  4.76300 46.31800 32.85700

