158

Mg 26.24700 -0.68900 29.32000
C  28.30800 -1.19300 32.25700
C  23.61300 -0.17900 31.53600
C  24.16400 -0.60700 26.69600
C  28.83100 -1.89500 27.41000
N  26.03500 -0.58200 31.66300
C  26.99600 -0.68100 32.60400
C  26.48200 -0.31500 34.01200
C  24.91200 -0.01900 33.70600
C  24.81600 -0.34300 32.19800
C  23.92000 -0.72600 34.71700
C  27.17900 0.90800 34.74600
C  27.97600 0.57500 36.01800
H  27.37600 1.25000 37.30000
N  24.14600 -0.34100 29.13100
C  23.23900 -0.10900 30.14000
C  21.91400 -0.00900 29.54800
C  22.08200 -0.07700 28.12700
C  23.48600 -0.38300 27.94300
C  20.69900 0.28400 30.47200
C  21.04800 -0.04700 27.03600
O  21.27300 -0.11000 25.83200
C  19.61800 0.16900 27.46900
N  26.41800 -1.20900 27.36700
C  25.52800 -0.88200 26.40500
C  26.11000 -0.85300 25.08000
C  27.58200 -1.41000 25.26500
C  27.62000 -1.48100 26.76900
C  25.27200 -1.61000 23.98700
C  28.72200 -0.59200 24.58500
C  29.02900 0.77500 25.19800
N  28.16500 -1.40400 29.66300
C  29.13600 -1.90600 28.82800
C  30.34000 -2.28800 29.57300
C  30.05700 -1.87500 30.86300
C  28.74600 -1.38000 30.91400
C  31.63000 -2.60600 28.90400
C  30.72700 -1.77800 32.15000
O  31.85900 -2.16900 32.51500
C  29.54100 -1.40700 33.14100
C  29.43900 -2.46100 34.12800
O  28.71600 -3.48000 34.09000
O  30.27100 -2.20400 35.16400
C  30.04500 -3.08500 36.35000
H  22.80700 0.05100 32.23600
H  23.53200 -0.51500 25.81000
H  29.66900 -2.20000 26.78100
H  26.57500 -1.20700 34.63000
H  24.79800 1.05800 33.83200
H  23.65300 -1.75600 34.48300
H  22.94600 -0.23700 34.70500
H  24.45200 -0.74900 35.66900
H  26.49600 1.73000 34.96100
H  27.91300 1.44100 34.14100
H  29.04100 0.73700 35.85300
H  27.96700 -0.49600 36.22100
H  20.01600 -0.56200 30.54500
H  20.13900 1.18300 30.21300
H  20.96200 0.53700 31.50000
H  19.36300 -0.57900 28.21900
H  18.92900 0.16400 26.62400
H  19.46600 1.16500 27.88200
H  26.12600 0.15300 24.66000
H  27.71300 -2.41200 24.85800
H  24.76700 -0.93700 23.29400
H  24.56000 -2.15100 24.61000
H  25.89900 -2.31000 23.43600
H  28.54400 -0.43800 23.52100
H  29.68300 -1.10000 24.66200
H  30.04700 0.71100 25.58100
H  28.33900 0.97300 26.01800
H  28.86100 1.51100 24.41200
H  31.94600 -1.64000 28.51000
H  31.45300 -3.19900 28.00700
H  32.45200 -2.95600 29.53000
H  29.75300 -0.46000 33.63700
H  30.88100 -2.82100 36.99700
H  30.14600 -4.09700 35.95800
H  29.14400 -2.95900 36.95000
Mg 35.80300 48.62700 25.22400
C  35.89400 47.06600 28.26300
C  34.32800 51.27800 26.64700
C  35.20800 49.73400 22.14300
C  37.11200 45.61800 23.76000
N  35.35300 49.17800 27.20700
C  35.56700 48.41200 28.33300
C  35.22600 49.14500 29.72300
C  34.61700 50.40900 29.06100
C  34.84400 50.36300 27.57700
C  33.24900 50.96000 29.59500
C  36.54700 49.18300 30.63600
C  36.27200 48.92300 32.12500
H  35.89500 50.15600 32.96600
N  34.92400 50.37700 24.51000
C  34.38600 51.33600 25.23500
C  34.06000 52.49500 24.34100
C  34.27500 52.01100 23.00500
C  34.84200 50.64100 23.15700
C  33.52300 53.75100 24.88900
C  33.86400 52.55100 21.60100
O  34.02000 52.01800 20.51200
C  33.16100 53.85900 21.52400
N  36.18200 47.76300 23.21300
C  35.69000 48.43200 22.15900
C  35.75000 47.54700 20.89300
C  36.76800 46.46500 21.28100
C  36.76800 46.56900 22.83900
C  34.34500 46.95300 20.53800
C  38.26200 46.61300 20.76600
C  38.46600 46.05800 19.36800
N  36.43300 46.73500 25.83600
C  36.94900 45.61300 25.14400
C  37.09300 44.47600 25.99200
C  36.61300 44.94000 27.27800
C  36.25100 46.33100 27.13100
C  37.53400 43.06100 25.58100
C  36.34500 44.60400 28.71100
O  36.50500 43.56000 29.38100
C  35.96000 46.00400 29.36500
C  34.65400 45.78300 30.09000
O  33.58000 45.93500 29.60300
O  34.97100 45.47700 31.43000
C  33.69700 45.13300 32.16900
H  33.90000 52.18100 27.08600
H  34.96800 50.19500 21.18300
H  37.45600 44.67100 23.33800
H  34.44400 48.54000 30.18200
H  35.37100 51.10300 29.43000
H  32.43100 50.93000 28.87500
H  33.31200 52.02100 29.83600
H  32.93900 50.42000 30.49000
H  36.96200 50.18800 30.56800
H  37.33100 48.56200 30.20400
H  37.25700 48.63800 32.49600
H  35.65700 48.05400 32.36000
H  33.44700 54.49300 24.09400
H  34.30500 54.18900 25.50800
H  32.61800 53.54300 25.46100
H  32.23500 53.78100 22.09300
H  33.07900 54.25100 20.51000
H  33.71200 54.66800 22.00300
H  36.11100 48.11600 20.03600
H  36.42900 45.46100 21.02400
H  33.89400 47.38000 19.64200
H  33.68700 47.20000 21.37100
H  34.38500 45.86500 20.49400
H  38.95300 46.10300 21.43700
H  38.59200 47.64800 20.85100
H  38.47300 46.80600 18.57500
H  37.63600 45.37800 19.18000
H  39.37200 45.45400 19.40100
H  37.71600 43.12300 24.50800
H  36.90300 42.19000 25.76000
H  38.47400 42.88700 26.10400
H  36.68100 46.21200 30.15600
H  33.87500 44.95000 33.22900
H  33.10100 44.28600 31.82800
H  33.08300 46.03200 32.13200

