158

Mg 45.56000 5.09500 48.24900
C  43.41700 7.75100 47.46600
C  42.96000 2.89900 47.92600
C  47.84500 2.69900 48.49900
C  48.28100 7.44400 47.87000
N  43.41900 5.27400 47.77400
C  42.75700 6.52000 47.52100
C  41.24800 6.22900 47.40600
C  41.07800 4.74200 47.86600
C  42.57300 4.26500 47.85700
C  40.36100 4.50000 49.24900
C  40.51600 6.56900 46.06400
C  39.49300 7.71600 46.13600
H  38.68700 7.86400 44.85400
N  45.43700 3.00900 48.15000
C  44.24800 2.29200 48.05200
C  44.55100 0.91100 48.28300
C  45.95100 0.79200 48.35900
C  46.49100 2.19700 48.35000
C  43.46900 -0.15300 48.33400
C  46.68200 -0.53800 48.49000
O  46.17600 -1.67500 48.56000
C  48.13600 -0.55500 48.58900
N  47.80200 5.12100 48.01300
C  48.43500 3.96000 48.33900
C  49.96200 4.13200 48.40900
C  50.13500 5.64600 48.19700
C  48.67100 6.14100 48.01800
C  50.43700 3.58500 49.80000
C  51.08000 6.04800 46.96500
C  52.41800 6.72500 47.30200
N  45.84400 7.16000 47.89100
C  46.97100 7.93700 47.82700
C  46.57900 9.27800 47.42200
C  45.21000 9.28100 47.40100
C  44.79000 7.93600 47.60700
C  47.53100 10.43400 47.28200
C  44.00800 10.05700 47.13600
O  43.90000 11.26000 46.88900
C  42.78000 9.09100 47.14900
C  41.89700 9.58500 48.25200
O  41.76000 9.10500 49.38600
O  41.05900 10.54800 47.72100
C  39.98100 11.10900 48.66800
H  42.06900 2.27500 47.83100
H  48.60700 1.93400 48.65800
H  49.20600 8.00000 48.04000
H  40.81700 6.78800 48.23700
H  40.49900 4.19900 47.11800
H  39.91100 5.39000 49.68800
H  41.14200 4.20800 49.95000
H  39.64200 3.68900 49.13200
H  40.16500 5.69300 45.51900
H  41.20400 7.06700 45.38000
H  39.90900 8.67800 46.43500
H  38.71700 7.34700 46.80700
H  43.56100 -0.84700 47.49900
H  42.46400 0.26000 48.42100
H  43.63400 -0.70900 49.25700
H  48.45600 -0.13200 47.63700
H  48.34400 -1.62300 48.52200
H  48.58200 -0.06800 49.45600
H  50.37500 3.50300 47.62000
H  50.56700 6.13100 49.07200
H  50.51300 2.49700 49.77900
H  49.74800 3.81900 50.61100
H  51.39900 4.02500 50.06200
H  50.55200 6.78400 46.35800
H  51.22600 5.19500 46.30200
H  52.64000 6.68100 48.36900
H  52.33900 7.76800 46.99600
H  53.23300 6.20500 46.80000
H  48.32400 10.22400 46.56500
H  47.94100 10.55300 48.28500
H  46.79200 11.19600 47.03400
H  42.24000 9.00200 46.20600
H  39.86000 12.17700 48.49000
H  40.28600 11.01500 49.71000
H  39.02800 10.58100 48.63400
Mg 49.18200 46.57000 43.21900
C  46.00300 47.35000 42.19600
C  48.91900 43.58800 41.53400
C  52.49800 46.24700 43.54200
C  49.57500 49.97000 44.21900
N  47.57600 45.58900 42.07700
C  46.34700 46.09100 41.73700
C  45.51200 45.04700 40.97200
C  46.53400 43.88100 40.85200
C  47.73500 44.40600 41.49900
C  45.90800 42.46900 41.36600
C  45.01600 45.54300 39.58900
C  43.93400 44.69300 38.96100
H  44.32100 43.78400 37.75000
N  50.50400 44.95800 42.76400
C  50.17500 43.81000 42.17700
C  51.35500 42.97700 42.04500
C  52.42200 43.69700 42.70600
C  51.91600 45.05900 42.96900
C  51.29900 41.59100 41.50900
C  53.89800 43.18100 42.97600
O  54.20600 42.05200 42.56700
C  54.96200 43.94500 43.61200
N  50.87800 47.96300 43.64100
C  52.10300 47.51600 43.89800
C  53.02300 48.70900 44.39100
C  52.11600 49.91100 44.23400
C  50.73600 49.26900 43.99300
C  53.46300 48.38400 45.78600
C  52.61700 50.95800 43.19200
C  52.30700 52.41900 43.57800
N  48.04700 48.29800 43.37400
C  48.31500 49.60000 43.82700
C  47.07500 50.35500 43.80800
C  46.16000 49.46900 43.23000
C  46.79500 48.29300 42.89900
C  46.91600 51.76600 44.30000
C  44.78700 49.40900 42.79600
O  43.81900 50.16000 42.92600
C  44.66300 48.02700 42.06900
C  43.70900 47.09000 42.70100
O  43.73900 46.84400 43.91400
O  42.80800 46.60500 41.71700
C  41.78600 45.71800 42.25500
H  48.86800 42.63100 41.01100
H  53.58400 46.13900 43.57500
H  49.67000 50.96300 44.66300
H  44.66500 44.69200 41.55900
H  46.87000 43.78700 39.82000
H  44.88600 42.43400 40.99000
H  45.87100 42.38800 42.45200
H  46.25300 41.53600 40.92000
H  45.91000 45.66900 38.97700
H  44.54400 46.51500 39.73100
H  43.12400 45.38200 38.72200
H  43.49900 44.09200 39.75900
H  50.78000 40.86800 42.13900
H  52.26900 41.15000 41.28200
H  50.72700 41.74100 40.59400
H  54.55900 44.39200 44.52100
H  55.35800 44.67700 42.90900
H  55.76400 43.27500 43.92000
H  53.83300 48.71700 43.66100
H  52.19800 50.33300 45.23600
H  53.71100 47.32300 45.77900
H  52.67600 48.49400 46.53200
H  54.42300 48.85500 46.00200
H  52.09500 50.80900 42.24700
H  53.69500 51.04600 43.05800
H  51.33900 52.52100 43.08800
H  53.11400 53.03200 43.17500
H  52.34300 52.67100 44.63800
H  45.83200 51.87200 44.28300
H  47.47200 52.41300 43.62100
H  47.27500 51.99100 45.30500
H  44.45800 48.25500 41.02300
H  41.28300 46.19800 43.09400
H  42.35000 44.85000 42.59600
H  41.08900 45.48000 41.45200

