158

Mg 47.04000 16.32700 28.94100
C  44.92400 15.57600 31.79500
C  49.16500 17.95300 30.94500
C  48.54600 17.17100 26.23500
C  44.20700 15.00300 27.00700
N  47.04400 16.68100 31.13000
C  46.15400 16.20300 32.13100
C  46.54600 16.67500 33.56400
C  47.82800 17.54300 33.19800
C  48.08100 17.38200 31.73600
C  47.72700 19.05900 33.51300
C  46.78200 15.41100 34.47800
C  46.50200 15.60400 36.01800
H  46.58800 16.99700 36.76800
N  48.73200 17.34000 28.65200
C  49.57100 17.90100 29.57200
C  50.75700 18.47600 28.96000
C  50.46000 18.34700 27.60200
C  49.15000 17.69000 27.43400
C  51.95600 19.09500 29.69000
C  51.37900 18.74700 26.41500
O  51.09800 18.48600 25.21300
C  52.58300 19.67300 26.69500
N  46.42200 16.10200 26.95300
C  47.35200 16.49000 26.01600
C  46.84900 16.26200 24.55300
C  45.57800 15.44000 24.82200
C  45.43400 15.46500 26.38700
C  46.55800 17.60800 23.77400
C  45.54900 14.00300 24.28700
C  44.30500 13.67300 23.40100
N  45.00200 15.50800 29.24800
C  44.02700 15.03800 28.33800
C  42.88200 14.60600 29.05300
C  43.17100 14.82300 30.41900
C  44.54500 15.29200 30.45300
C  41.63600 14.00600 28.52100
C  42.63600 14.60400 31.79200
O  41.63900 14.07700 32.28400
C  43.71600 15.24500 32.69100
C  43.10700 16.53500 33.16400
O  42.95200 17.56500 32.51100
O  43.01300 16.54200 34.53700
C  42.50200 17.71900 35.24100
H  49.91900 18.43800 31.56900
H  49.01600 17.45400 25.29000
H  43.50200 14.57100 26.29300
H  45.77800 17.36000 33.92400
H  48.71600 17.22700 33.74400
H  48.14200 19.70300 32.73700
H  48.23100 19.32600 34.44200
H  46.72000 19.38100 33.77700
H  47.80600 15.14900 34.21300
H  46.09500 14.60400 34.22100
H  47.18200 14.91500 36.52000
H  45.49500 15.23700 36.21600
H  51.96100 20.16700 29.49500
H  52.91000 18.70200 29.33800
H  51.94700 18.97900 30.77400
H  52.86300 19.92300 25.67200
H  53.29200 18.97400 27.13900
H  52.44200 20.53400 27.34900
H  47.56400 15.68600 23.96500
H  44.61700 15.82900 24.48500
H  45.49200 17.83200 23.76300
H  46.96200 17.49300 22.76800
H  47.04100 18.35100 24.40900
H  45.57900 13.36400 25.17000
H  46.44300 13.91700 23.67100
H  44.58800 12.83600 22.76300
H  43.99300 14.36100 22.61500
H  43.39800 13.63700 24.00500
H  41.41700 14.60800 27.63900
H  40.81400 14.03500 29.23500
H  41.86800 12.97400 28.25800
H  43.79400 14.67300 33.61500
H  41.54300 17.36900 35.62300
H  42.14600 18.56000 34.64500
H  43.21400 18.03300 36.00400
Mg 0.86800 43.53800 25.38000
C  3.11300 43.43600 28.22900
C  -1.78900 43.18000 27.39100
C  -0.91700 42.79800 22.61400
C  3.83300 43.50600 23.40600
N  0.66100 43.46600 27.55600
C  1.70200 43.34900 28.50300
C  1.04200 43.30900 29.85000
C  -0.52300 43.09600 29.60000
C  -0.57200 43.25200 28.09400
C  -1.09000 41.81600 30.10800
C  1.38100 44.54800 30.75900
C  0.78300 44.65400 32.21300
H  0.32500 43.36500 32.76900
N  -1.08300 43.09500 25.07000
C  -2.05000 43.07300 26.00400
C  -3.32500 42.84600 25.34900
C  -3.09500 42.55600 24.03700
C  -1.59200 42.90300 23.85400
C  -4.63700 42.74500 26.09200
C  -4.02900 41.88300 22.98700
O  -3.71200 41.77400 21.79700
C  -5.35300 41.36700 23.42800
N  1.47400 43.02100 23.32900
C  0.47600 42.90700 22.39900
C  1.04200 42.74800 21.04000
C  2.54000 43.25600 21.18300
C  2.65000 43.30800 22.74200
C  0.94400 41.29300 20.57100
C  2.87400 44.57000 20.39800
C  2.36200 45.87300 20.91300
N  3.07400 43.59900 25.70600
C  4.13700 43.56700 24.80000
C  5.35100 43.57500 25.47500
C  5.06600 43.46800 26.77600
C  3.66600 43.55100 26.92800
C  6.75100 43.68300 24.82200
C  5.55700 43.33500 28.15200
O  6.72100 43.26200 28.53300
C  4.30700 43.35600 29.19500
C  4.31300 42.03000 29.97400
O  3.92700 40.93700 29.51000
O  4.84600 42.25700 31.24200
C  4.66000 41.22800 32.34100
H  -2.64000 42.94800 28.03400
H  -1.46400 42.66000 21.67900
H  4.72100 43.49800 22.77100
H  1.54900 42.51300 30.39600
H  -1.02800 43.97300 30.00500
H  -1.69700 42.08100 30.97300
H  -0.37600 41.10100 30.51700
H  -1.67700 41.36300 29.30900
H  1.22300 45.45300 30.17300
H  2.45100 44.43800 30.93400
H  -0.06000 45.34200 32.14900
H  1.55800 45.15100 32.79600
H  -4.83600 41.69200 26.29100
H  -5.48300 43.26800 25.64600
H  -4.41100 43.24700 27.03300
H  -5.33100 40.62700 24.22800
H  -5.79800 40.84800 22.57900
H  -5.94500 42.24300 23.69400
H  0.40500 43.35200 20.39300
H  3.20500 42.45200 20.86900
H  0.42800 40.68900 21.31700
H  1.89100 40.76100 20.48300
H  0.38400 41.24600 19.63700
H  2.39400 44.48200 19.42300
H  3.95300 44.59100 20.24200
H  1.65100 46.36000 20.24600
H  3.27100 46.41500 21.17100
H  1.92600 45.70600 21.89700
H  7.54700 43.48700 25.53900
H  6.77200 44.73400 24.53400
H  6.71600 43.04800 23.93600
H  4.45200 44.22500 29.83600
H  3.74400 41.43700 32.89400
H  5.49700 41.33200 33.03200
H  4.55700 40.28900 31.79800

