158

Mg 8.56400 2.84900 26.62300
C  9.90600 1.36200 29.53500
C  6.71200 4.98800 28.70100
C  7.22800 4.07700 23.97300
C  10.12600 0.21200 24.70700
N  8.27100 3.09600 28.85600
C  9.04100 2.47700 29.86700
C  8.69900 3.08900 31.24000
C  7.55000 4.06700 30.95400
C  7.51400 4.12900 29.37400
C  6.26000 3.74800 31.67000
C  9.96200 3.61100 31.96000
C  9.81800 4.64000 33.11500
H  10.69000 4.19900 34.31900
N  7.24200 4.35800 26.37900
C  6.52800 5.10200 27.31800
C  5.68700 6.05900 26.63300
C  5.85200 5.84900 25.20000
C  6.82800 4.75200 25.15300
C  4.82400 7.09200 27.35900
C  5.17800 6.63000 24.03400
O  5.44700 6.40900 22.89600
C  4.27500 7.75800 24.30900
N  8.72500 2.23300 24.74000
C  8.01100 2.97000 23.77400
C  8.07200 2.32600 22.45300
C  9.06600 1.23600 22.69000
C  9.29100 1.15100 24.11300
C  6.63600 1.81600 22.06000
C  10.45300 1.30600 21.93000
C  10.87000 0.01600 21.15800
N  9.79400 1.14400 26.99000
C  10.39000 0.22800 26.10700
C  11.21900 -0.68100 26.88500
C  11.03000 -0.31900 28.25200
C  10.17000 0.77000 28.25700
C  12.09600 -1.85400 26.36200
C  11.36500 -0.61900 29.65800
O  12.01400 -1.50600 30.16300
C  10.63500 0.40100 30.49500
C  9.70400 -0.34500 31.34500
O  8.64400 -0.86100 30.97300
O  10.16300 -0.28100 32.68300
C  9.33300 -1.00200 33.65200
H  6.20200 5.74400 29.30100
H  6.75200 4.42200 23.05200
H  10.45900 -0.59300 24.04900
H  8.38800 2.21000 31.80500
H  7.83500 5.06100 31.29800
H  6.19200 2.67300 31.83500
H  5.40200 4.00300 31.04800
H  6.00100 4.34000 32.54800
H  10.62500 4.08400 31.23600
H  10.49400 2.72500 32.30700
H  8.76900 4.64500 33.41400
H  10.13800 5.62500 32.77700
H  4.95000 7.27300 28.42700
H  3.74900 6.97600 27.22200
H  4.98200 8.09500 26.96400
H  3.87800 8.04500 23.33600
H  4.73900 8.58400 24.84800
H  3.50500 7.39800 24.99100
H  8.40400 2.97800 21.64500
H  8.58500 0.27700 22.49800
H  6.53200 0.74500 21.88200
H  6.42800 2.37200 21.14600
H  5.85800 1.99500 22.80100
H  11.23900 1.58200 22.63300
H  10.30100 2.04600 21.14500
H  11.18900 0.23700 20.14000
H  10.01200 -0.62000 20.93800
H  11.66700 -0.48400 21.70900
H  11.55800 -2.44400 25.62000
H  12.52300 -2.47500 27.15000
H  13.04700 -1.52300 25.94300
H  11.32700 1.00300 31.08400
H  9.61800 -2.04900 33.55000
H  8.24900 -0.89200 33.65500
H  9.63800 -0.67800 34.64700
Mg 37.21100 49.95300 25.15700
C  37.47600 47.90700 28.02400
C  36.26100 52.63400 27.15400
C  36.40600 51.43400 22.36400
C  37.96600 47.03800 23.25100
N  36.88700 50.20900 27.28400
C  37.07400 49.23500 28.27600
C  36.89500 49.81100 29.69700
C  36.36600 51.26500 29.43500
C  36.48700 51.35800 27.89600
C  34.96700 51.62700 30.08300
C  38.23100 49.82400 30.48600
C  38.25500 49.14900 31.87500
H  37.06000 49.53200 32.76900
N  36.48900 51.75300 24.78600
C  36.16100 52.79200 25.74000
C  35.70300 53.92000 25.03600
C  35.67800 53.54600 23.62500
C  36.26500 52.20600 23.52800
C  35.08600 55.12100 25.67900
C  35.34200 54.42100 22.49600
O  35.38700 54.00900 21.36300
C  35.01400 55.87800 22.65900
N  37.21800 49.33400 23.12300
C  36.92200 50.18500 22.11000
C  37.14900 49.58000 20.70500
C  37.94800 48.27500 21.00600
C  37.69300 48.18400 22.59400
C  35.73700 49.40800 19.93700
C  39.50400 48.30200 20.84100
C  40.10900 47.01600 20.25400
N  37.68300 47.86200 25.54400
C  37.97300 46.87200 24.64900
C  38.12800 45.60300 25.37700
C  37.99000 45.95400 26.73900
C  37.67800 47.33100 26.81300
C  38.24500 44.25700 24.64700
C  38.08500 45.45100 28.10300
O  38.32500 44.36600 28.64700
C  37.58100 46.71700 28.96500
C  36.28400 46.36000 29.49700
O  35.18000 46.43700 28.93600
O  36.43300 46.03600 30.85000
C  35.27800 45.66000 31.59400
H  36.00600 53.57700 27.64200
H  36.11600 52.02900 21.49400
H  38.20900 46.20500 22.58700
H  36.14800 49.22500 30.23200
H  37.02400 51.98100 29.92800
H  35.07300 52.47000 30.76500
H  34.52300 50.77300 30.59500
H  34.21100 51.86000 29.33300
H  38.65400 50.79400 30.74700
H  38.98400 49.25000 29.94600
H  39.20300 49.35600 32.37200
H  38.28900 48.08800 31.62800
H  34.21100 55.50600 25.15500
H  35.82700 55.85400 25.99800
H  34.58900 54.75000 26.57400
H  34.02400 56.02400 23.09100
H  35.08900 56.36700 21.68800
H  35.73900 56.37600 23.30300
H  37.77900 50.29500 20.17600
H  37.50200 47.43100 20.47900
H  35.81900 49.72400 18.89700
H  34.99000 49.97900 20.48800
H  35.42200 48.36800 20.01600
H  39.97800 48.50500 21.80100
H  39.71700 49.15900 20.20300
H  39.48400 46.14200 20.43800
H  41.04300 46.78800 20.76800
H  40.31500 47.30100 19.22200
H  37.93800 43.48200 25.35000
H  39.32500 44.24000 24.50300
H  37.73500 44.10600 23.69500
H  38.31600 46.84800 29.75900
H  35.48800 45.36500 32.62200
H  34.86900 44.87800 30.95300
H  34.63800 46.53900 31.52600

