158

Mg 35.80200 0.63500 28.85200
C  33.73000 1.85300 31.28800
C  38.38000 0.36900 31.24600
C  37.97900 -0.02300 26.37000
C  33.42300 1.54100 26.33800
N  36.02700 1.20200 30.98300
C  34.98100 1.55100 31.78500
C  35.38700 1.51500 33.26300
C  36.93400 1.35400 33.18300
C  37.15600 0.92000 31.75100
C  37.81600 2.50700 33.71200
C  34.59800 0.53600 34.22200
C  34.34900 1.01900 35.63800
H  34.87000 2.41000 36.13900
N  37.91000 0.11200 28.84500
C  38.75400 0.02500 29.93300
C  40.06700 -0.49300 29.47900
C  39.95500 -0.57300 27.98500
C  38.56400 -0.14600 27.69500
C  41.20800 -0.86000 30.37700
C  41.04900 -0.90400 27.03700
O  40.89200 -0.94600 25.85300
C  42.31500 -1.38400 27.59400
N  35.62100 0.42000 26.66300
C  36.69200 0.22400 25.89200
C  36.26000 0.28300 24.37000
C  34.77700 0.48400 24.51200
C  34.54400 0.83300 25.91700
C  37.06600 1.38400 23.63500
C  33.87800 -0.76700 24.12100
C  32.61700 -0.40300 23.40200
N  33.97400 1.52600 28.76100
C  33.08400 1.80900 27.65300
C  31.99700 2.41500 28.17200
C  32.06100 2.40100 29.62600
C  33.35100 1.88900 29.85100
C  30.83500 2.87100 27.39300
C  31.39000 2.72000 30.91100
O  30.33300 3.31600 31.10600
C  32.43500 2.36000 32.00900
C  32.74400 3.62800 32.79200
O  33.52300 4.50600 32.48900
O  31.74300 3.73700 33.80900
C  31.78300 5.02800 34.54300
H  39.21900 0.29900 31.94200
H  38.69700 -0.20500 25.56800
H  32.83300 1.87500 25.48200
H  35.14100 2.53100 33.57300
H  37.26900 0.57000 33.86400
H  37.20300 3.33000 34.08000
H  38.39100 2.84300 32.84900
H  38.41900 2.21800 34.57200
H  35.12900 -0.40900 34.33500
H  33.65500 0.37500 33.70100
H  34.81500 0.26300 36.27000
H  33.30300 0.94500 35.93600
H  41.03600 -0.51300 31.39600
H  41.93400 -0.16900 29.94600
H  41.48100 -1.91400 30.43300
H  42.88000 -0.58100 28.06700
H  42.91400 -1.77300 26.77000
H  42.07100 -2.21700 28.25400
H  36.53600 -0.66100 23.90200
H  34.58800 1.41700 23.98200
H  37.52700 2.13400 24.27700
H  36.38100 1.96200 23.01400
H  37.84000 0.93500 23.01200
H  33.54600 -1.29200 25.01700
H  34.37000 -1.41600 23.39700
H  32.79000 -0.85300 22.42500
H  32.48900 0.67700 23.32600
H  31.76900 -0.84400 23.92700
H  30.28900 2.01600 26.99200
H  31.19200 3.49800 26.57700
H  30.09100 3.45800 27.93100
H  32.07600 1.56200 32.65900
H  32.53700 4.87000 35.31400
H  30.85200 5.20500 35.08100
H  31.89700 6.00700 34.07700
Mg 46.91300 24.53100 28.42600
C  47.48900 26.82900 31.15800
C  46.12400 22.16800 30.68500
C  46.57100 22.38600 25.78800
C  48.76400 26.68900 26.40900
N  46.91800 24.55100 30.66600
C  46.96300 25.57000 31.54300
C  46.50500 25.18400 32.98800
C  46.32100 23.63800 32.78400
C  46.55500 23.38100 31.29900
C  47.17600 22.80600 33.84500
C  45.26400 26.05900 33.48900
C  45.44900 26.69800 34.88900
H  46.19600 25.93600 35.99300
N  46.31100 22.65600 28.26400
C  46.01000 21.85800 29.30900
C  45.66600 20.52900 28.77700
C  45.65300 20.54500 27.37400
C  46.19900 21.89500 27.03900
C  45.43500 19.29900 29.67400
C  45.20400 19.56200 26.36600
O  45.31700 19.68300 25.12500
C  44.54400 18.39700 26.81300
N  47.61500 24.50800 26.39900
C  47.31400 23.55300 25.48100
C  47.80500 23.87400 24.03300
C  48.57500 25.18200 24.35500
C  48.26600 25.55000 25.83100
C  48.72000 22.74800 23.51000
C  48.24900 26.26100 23.27600
C  46.86100 26.92300 23.30200
N  47.97700 26.28500 28.65900
C  48.66500 27.09800 27.74900
C  49.13100 28.32500 28.32000
C  48.53800 28.26200 29.59600
C  47.95200 27.03100 29.82400
C  49.92500 29.48400 27.68300
C  48.37500 29.02200 30.77100
O  48.77100 30.23900 30.89100
C  47.70800 28.12700 31.89000
C  48.65400 27.92500 33.02100
O  49.65600 27.27100 33.02400
O  48.17000 28.72800 34.05100
C  49.00300 28.75000 35.27000
H  45.68800 21.47400 31.40600
H  46.36900 21.66900 24.98900
H  49.37300 27.29900 25.73800
H  47.40200 25.27800 33.60000
H  45.28700 23.33600 32.95400
H  48.10900 22.40500 33.44800
H  46.56500 22.01900 34.28700
H  47.36700 23.40300 34.73700
H  44.35200 25.46600 33.55500
H  45.11600 26.86500 32.77000
H  44.42800 26.80400 35.25500
H  45.83900 27.71500 34.87300
H  44.42400 18.93300 29.49700
H  45.56600 19.40700 30.75000
H  46.06800 18.50800 29.27200
H  43.77300 18.65200 27.54100
H  45.23900 17.68900 27.26400
H  43.99800 17.95100 25.98200
H  46.93900 24.15100 23.43200
H  49.65700 25.07600 24.27200
H  48.24400 22.27600 22.65100
H  48.98300 22.16800 24.39500
H  49.64800 23.15200 23.10500
H  48.51500 25.76000 22.34500
H  49.03100 27.01900 23.30400
H  46.94100 27.99900 23.45800
H  46.27200 26.45500 24.09100
H  46.28300 26.68000 22.41000
H  50.12300 29.28500 26.62900
H  50.83600 29.70700 28.23700
H  49.19900 30.29600 27.71900
H  46.81700 28.67300 32.20300
H  48.48700 28.52100 36.20200
H  49.37100 29.76400 35.42600
H  49.89400 28.12200 35.25100

