158

Mg 8.06100 2.06300 28.19800
C  9.74800 0.75400 30.93200
C  6.23300 4.05400 30.37600
C  6.17000 3.22400 25.59400
C  9.35200 -0.44200 26.20200
N  7.84500 2.15200 30.45900
C  8.84600 1.72800 31.27900
C  8.71200 2.41400 32.69400
C  7.48400 3.34700 32.62700
C  7.10400 3.17800 31.04200
C  6.37600 2.87800 33.64800
C  10.04300 3.02700 33.32500
C  10.55700 2.58400 34.73800
H  10.90800 3.69800 35.78500
N  6.51400 3.40800 27.97900
C  5.85900 4.12800 28.99800
C  4.92800 5.02600 28.45000
C  4.85600 4.75500 27.06500
C  5.86400 3.77700 26.81200
C  4.12400 5.94700 29.27100
C  3.96100 5.39700 25.98500
O  4.06700 5.05800 24.78400
C  2.97800 6.43500 26.38700
N  7.82700 1.46800 26.24000
C  7.09200 2.16800 25.27700
C  7.45000 1.76900 23.77700
C  8.31700 0.52800 24.11500
C  8.59200 0.56100 25.59400
C  6.30600 1.50800 22.79300
C  9.75100 0.56700 23.45400
C  10.20500 -0.77400 22.90600
N  9.29700 0.54500 28.43700
C  9.69400 -0.45200 27.59400
C  10.57400 -1.36200 28.29900
C  10.60500 -0.91100 29.58700
C  9.82600 0.20900 29.66300
C  11.41100 -2.49800 27.85100
C  11.21700 -1.22100 30.84500
O  11.94100 -2.08900 31.25800
C  10.69200 -0.07700 31.81000
C  10.05700 -0.70200 32.99300
O  9.04900 -1.36300 32.97100
O  10.83500 -0.45800 34.14400
C  10.34900 -1.07000 35.44300
H  5.75800 4.72800 31.09100
H  5.72300 3.52400 24.64400
H  9.79300 -1.29700 25.68600
H  8.52500 1.64300 33.44100
H  7.64200 4.42000 32.73200
H  6.16400 3.78500 34.21400
H  6.90300 2.14800 34.26300
H  5.42300 2.48000 33.30000
H  9.96800 4.11400 33.29800
H  10.82600 2.69100 32.64500
H  11.42200 1.95900 34.51400
H  9.85500 1.88300 35.18900
H  4.21900 5.70500 30.32900
H  3.05200 5.91300 29.07900
H  4.36400 7.00500 29.16500
H  2.48900 6.74500 25.46400
H  3.41400 7.29800 26.89100
H  2.21900 5.96400 27.01100
H  8.01300 2.60600 23.36600
H  7.71500 -0.34000 23.84700
H  5.34600 1.67400 23.28000
H  6.44700 0.48600 22.44000
H  6.45000 2.12200 21.90400
H  10.53500 0.94200 24.11300
H  9.79900 1.25200 22.60700
H  9.36100 -1.45600 23.00400
H  10.88900 -1.30600 23.56700
H  10.69300 -0.83500 21.93400
H  12.36100 -2.04300 27.57000
H  11.01800 -2.91200 26.92300
H  11.51300 -3.14300 28.72400
H  11.61500 0.37300 32.17700
H  10.02600 -0.27300 36.11300
H  11.17300 -1.61100 35.90600
H  9.66100 -1.89100 35.24200
Mg 23.91500 -5.53700 46.02300
C  26.18400 -3.23100 44.49000
C  21.54000 -4.35600 43.76100
C  22.01300 -8.10800 46.88600
C  26.72100 -6.97600 47.63600
N  23.86900 -3.94800 44.31800
C  24.92600 -3.16900 43.92500
C  24.51900 -2.26400 42.72500
C  22.96100 -2.43300 42.77500
C  22.72800 -3.62800 43.67000
C  22.14900 -1.21200 43.34900
C  25.02300 -2.88500 41.39200
C  25.88700 -1.96300 40.54000
H  25.61600 -2.09200 38.97800
N  21.96600 -6.11800 45.53400
C  21.18600 -5.47000 44.61100
C  20.00500 -6.20300 44.43000
C  20.13200 -7.37300 45.25700
C  21.39700 -7.23300 45.96500
C  18.94500 -5.88100 43.35100
C  19.12000 -8.56400 45.24700
O  18.03000 -8.45100 44.69700
C  19.56100 -9.85700 45.85500
N  24.33300 -7.28700 47.06000
C  23.31100 -8.16200 47.40200
C  23.84500 -9.34400 48.22800
C  25.22900 -8.86400 48.63300
C  25.49500 -7.64900 47.72700
C  22.98500 -9.75300 49.41600
C  26.33500 -9.99200 48.72200
C  26.97700 -10.20000 50.10200
N  26.05400 -5.10200 46.24400
C  27.05000 -5.75700 46.92800
C  28.34800 -5.04800 46.82200
C  28.00400 -4.03200 45.85300
C  26.66400 -4.22300 45.44400
C  29.59100 -5.46600 47.54900
C  28.54200 -2.89100 45.11000
O  29.67400 -2.48500 45.13600
C  27.40500 -2.39400 44.10200
C  27.32400 -0.95900 44.37300
O  26.48600 -0.49800 45.16100
O  28.14200 -0.10800 43.60400
C  28.26600 1.27200 44.06400
H  20.79300 -4.01200 43.04200
H  21.41000 -8.90100 47.33200
H  27.55000 -7.43500 48.17800
H  24.83800 -1.23000 42.85700
H  22.50400 -2.52300 41.78900
H  22.83300 -0.39100 43.56700
H  21.60600 -1.44900 44.26300
H  21.46600 -0.84000 42.58500
H  24.24400 -3.16100 40.68000
H  25.62800 -3.77500 41.56900
H  26.90600 -2.33700 40.63600
H  25.76900 -0.94300 40.90600
H  19.02500 -6.67000 42.60400
H  19.07000 -4.86800 42.96800
H  17.97100 -5.79100 43.83300
H  20.60500 -10.00200 45.57800
H  18.87300 -10.63400 45.52200
H  19.44900 -9.57800 46.90300
H  24.03500 -10.13600 47.50400
H  25.21000 -8.40300 49.62000
H  23.49100 -9.70200 50.37900
H  22.60400 -10.74900 49.19200
H  22.12200 -9.08800 49.39300
H  27.05000 -9.81100 47.92000
H  25.90300 -10.95100 48.43500
H  28.06300 -10.21300 50.00800
H  26.69700 -11.12100 50.61300
H  26.77100 -9.45200 50.86800
H  29.80500 -6.48800 47.24000
H  29.36800 -5.32800 48.60800
H  30.43600 -4.81900 47.31500
H  27.68000 -2.67700 43.08600
H  27.35600 1.85700 43.93400
H  29.01500 1.70900 43.40400
H  28.68600 1.37300 45.06500

