158

Mg 41.43300 8.94600 29.77900
C  43.40500 10.03800 32.42900
C  39.17000 7.68500 31.95200
C  39.80300 7.66900 27.12100
C  43.86900 10.09500 27.60500
N  41.36800 8.72300 32.01900
C  42.19300 9.38900 32.87800
C  41.64800 9.40100 34.38700
C  40.27900 8.64700 34.21100
C  40.26000 8.27400 32.65800
C  39.96300 7.38700 35.06700
C  41.45200 10.79300 34.99800
C  42.23600 11.01800 36.36000
H  41.66700 11.82400 37.51000
N  39.82200 7.75100 29.55700
C  38.96600 7.37400 30.56000
C  37.81300 6.60500 30.05500
C  38.00900 6.61200 28.64300
C  39.28600 7.43000 28.36700
C  36.69100 6.11600 30.88800
C  37.05700 6.05600 27.56300
O  37.24500 6.08700 26.34400
C  35.65900 5.42400 27.85900
N  41.69500 8.96300 27.60500
C  40.88800 8.40900 26.71100
C  41.40900 8.41600 25.27400
C  42.64700 9.32900 25.50700
C  42.76400 9.48000 26.97900
C  41.58400 7.11800 24.50400
C  42.49400 10.72100 24.80400
C  41.59000 11.72900 25.50000
N  43.32600 9.84900 29.92700
C  44.17700 10.26000 28.99700
C  45.36600 10.83000 29.59400
C  45.06900 10.89900 31.00300
C  43.86700 10.25900 31.10100
C  46.59100 11.34600 28.90300
C  45.53300 11.31600 32.30100
O  46.45000 12.07000 32.64800
C  44.46100 10.76200 33.30700
C  45.12200 9.89000 34.33000
O  45.32100 8.67400 34.12700
O  45.45200 10.58600 35.44300
C  45.79400 9.68400 36.52600
H  38.37800 7.30200 32.59800
H  39.21700 7.28000 26.28600
H  44.61000 10.54300 26.94100
H  42.26500 8.80400 35.05800
H  39.52200 9.43100 34.24600
H  40.59800 7.43400 35.95200
H  39.99700 6.46500 34.48600
H  38.94700 7.50000 35.44600
H  40.41300 11.08800 35.15100
H  41.93600 11.39400 34.22900
H  43.13500 11.62000 36.23000
H  42.54900 10.05100 36.75300
H  36.37900 5.09300 30.67500
H  35.91600 6.85200 30.67400
H  36.84300 6.08000 31.96600
H  35.86500 4.60900 28.55300
H  35.07700 5.24200 26.95600
H  35.02000 6.14000 28.37500
H  40.65000 8.98900 24.74200
H  43.59800 8.89100 25.20400
H  41.47900 7.19100 23.42100
H  40.85700 6.40200 24.88900
H  42.60800 6.77300 24.64400
H  42.02800 10.58300 23.82800
H  43.45000 11.21800 24.63800
H  41.74700 11.77600 26.57800
H  40.53100 11.60200 25.27500
H  41.89100 12.75400 25.28100
H  46.88000 10.55600 28.20900
H  47.36600 11.38900 29.66900
H  46.52000 12.35700 28.50100
H  44.11200 11.66700 33.80400
H  45.69700 10.18300 37.49000
H  46.73700 9.13900 36.48300
H  44.93500 9.02200 36.63800
Mg -10.90700 40.51900 39.10300
C  -9.98600 37.24500 38.46600
C  -7.58500 41.50900 38.35500
C  -11.90000 43.68000 38.63100
C  -14.22000 39.43600 39.38000
N  -9.09200 39.54900 38.31900
C  -8.92900 38.16100 38.26500
C  -7.46900 37.79300 37.87600
C  -6.67400 39.12600 38.31900
C  -7.85200 40.13800 38.33100
C  -5.94400 39.14500 39.66000
C  -7.38700 37.50200 36.31600
C  -7.16000 36.00900 35.93600
H  -8.04200 35.41900 34.90300
N  -9.88800 42.38900 38.65200
C  -8.52400 42.60200 38.34000
C  -8.27700 43.97700 38.17500
C  -9.50500 44.57700 38.31800
C  -10.52900 43.57200 38.46900
C  -6.92400 44.54600 37.99000
C  -9.65600 46.08100 38.28000
O  -8.73900 46.80700 37.92000
C  -10.94100 46.73000 38.56800
N  -12.87600 41.45500 39.02200
C  -12.98000 42.79500 38.92800
C  -14.44100 43.17100 38.96600
C  -15.25700 41.85600 39.25700
C  -14.05500 40.84100 39.24900
C  -14.91700 44.31300 39.93800
C  -16.40400 41.45300 38.26700
C  -17.70900 41.09300 38.95800
N  -11.93100 38.71500 39.16200
C  -13.29400 38.41600 39.13900
C  -13.43900 36.99400 39.03400
C  -12.16200 36.48300 38.74400
C  -11.30800 37.59500 38.78500
C  -14.80400 36.31600 39.12900
C  -11.43500 35.27000 38.38000
O  -11.84000 34.12600 38.24000
C  -9.91000 35.70400 38.24000
C  -9.15300 34.90200 39.26200
O  -9.51800 34.75400 40.43900
O  -8.18100 34.20800 38.62200
C  -7.43300 33.31600 39.50000
H  -6.53100 41.77800 38.26300
H  -12.26800 44.69600 38.47300
H  -15.23000 39.03800 39.49500
H  -7.05000 37.02800 38.53000
H  -6.05500 39.49400 37.50000
H  -4.95200 39.59400 39.60900
H  -5.59800 38.15500 39.95700
H  -6.53700 39.59700 40.45500
H  -6.60400 38.11700 35.87200
H  -8.37200 37.73500 35.91300
H  -7.22100 35.32600 36.78300
H  -6.15200 35.96200 35.52400
H  -6.48900 44.93100 38.91300
H  -6.83400 45.28600 37.19500
H  -6.27200 43.77600 37.57900
H  -10.89400 47.80800 38.71900
H  -11.16200 46.53800 39.61700
H  -11.74600 46.44000 37.89300
H  -14.70600 43.47500 37.95400
H  -15.60300 41.86900 40.29000
H  -14.08100 44.81400 40.42700
H  -15.64500 44.03300 40.69900
H  -15.36200 45.09500 39.32200
H  -16.20600 40.63800 37.57100
H  -16.65800 42.30300 37.63400
H  -17.81300 41.51500 39.95700
H  -17.89200 40.02000 39.00100
H  -18.45800 41.48600 38.27100
H  -14.73000 35.48100 39.82700
H  -15.04400 35.98800 38.11800
H  -15.52500 36.96600 39.62600
H  -9.62100 35.49600 37.21000
H  -8.04000 32.46200 39.80100
H  -6.91900 33.73000 40.36700
H  -6.63300 32.92000 38.87400

