158

Mg -0.75900 17.34800 26.58000
C  -1.23200 14.96100 29.28700
C  -1.31500 19.87900 28.94000
C  -0.71200 19.55300 24.14400
C  -0.47600 14.73800 24.52500
N  -1.37900 17.36200 28.93600
C  -1.47200 16.29300 29.80400
C  -1.67100 16.85400 31.22700
C  -1.64400 18.37400 31.02200
C  -1.38900 18.56900 29.54200
C  -2.93800 19.19600 31.44400
C  -0.78400 16.20200 32.41800
C  -0.45100 17.17200 33.58200
H  -0.48400 16.62900 34.97600
N  -0.98200 19.43500 26.53100
C  -1.04600 20.32600 27.63100
C  -1.04100 21.65600 27.07000
C  -0.80000 21.60300 25.67400
C  -0.75300 20.18400 25.40100
C  -1.32800 22.90500 27.90900
C  -0.62500 22.62000 24.67800
O  -0.54700 22.46300 23.46200
C  -0.50100 24.12800 25.10600
N  -0.67200 17.16900 24.60200
C  -0.62800 18.19900 23.74100
C  -0.76400 17.73500 22.35000
C  -0.20900 16.28600 22.50800
C  -0.43000 16.04500 23.98800
C  -2.24700 17.76800 21.80100
C  1.35100 16.07200 22.13100
C  2.51000 16.49600 23.10000
N  -0.91800 15.26200 26.76600
C  -0.78400 14.31000 25.87600
C  -0.95500 13.03500 26.42900
C  -1.04600 13.26100 27.73700
C  -1.05200 14.59200 27.96800
C  -1.06800 11.82200 25.58000
C  -1.18100 12.50000 29.01000
O  -1.32600 11.29100 29.17500
C  -1.28400 13.62800 30.09600
C  -0.14700 13.32000 30.97800
O  0.97100 13.76000 30.89600
O  -0.57300 12.36100 31.84200
C  0.29400 12.07200 32.97900
H  -1.27400 20.64000 29.72300
H  -0.62500 20.19400 23.26400
H  -0.43200 13.97600 23.74400
H  -2.66100 16.49100 31.50600
H  -0.82400 18.81800 31.58700
H  -3.45200 19.63900 30.59100
H  -2.68900 19.78600 32.32600
H  -3.70500 18.46100 31.68800
H  0.17000 16.02600 31.92000
H  -1.14200 15.25300 32.81700
H  -1.17400 17.98700 33.56300
H  0.55100 17.56700 33.41500
H  -1.86800 23.63500 27.30600
H  -0.49600 23.44000 28.36600
H  -1.94500 22.59900 28.75400
H  0.42200 24.15800 25.68500
H  -1.39300 24.53700 25.58100
H  -0.29300 24.84700 24.31400
H  -0.18300 18.39800 21.70900
H  -0.84300 15.53900 22.03100
H  -2.61900 18.68900 22.25200
H  -2.80200 16.93800 22.23900
H  -2.12400 17.74700 20.71800
H  1.48400 16.62400 21.20100
H  1.34500 15.07000 21.70300
H  2.09700 16.59500 24.10300
H  3.05700 17.41900 22.90500
H  3.21600 15.66500 23.09100
H  -1.57400 12.18600 24.68500
H  -1.68000 11.08000 26.09300
H  -0.08700 11.45500 25.28000
H  -2.21600 13.54900 30.65700
H  0.90500 11.17400 32.89300
H  -0.32700 11.89400 33.85700
H  0.89300 12.97200 33.11900
Mg 43.80400 3.33800 47.10700
C  41.83600 6.31100 46.86300
C  40.71300 1.60800 46.83600
C  45.49500 0.80100 46.72100
C  46.69700 5.50200 46.69400
N  41.51200 3.99700 46.97500
C  40.99800 5.28800 46.97500
C  39.46500 5.23100 47.11600
C  39.16800 3.61900 47.30300
C  40.54500 3.02300 47.11200
C  38.57500 3.18700 48.64600
C  38.69000 5.92900 45.95200
C  39.36300 6.09100 44.55800
H  38.78100 5.35700 43.34900
N  43.18300 1.47900 46.64800
C  41.93700 0.91500 46.65600
C  42.12400 -0.49500 46.35100
C  43.49500 -0.74800 46.20400
C  44.14200 0.50900 46.50600
C  40.93200 -1.35000 46.00600
C  43.97100 -2.13000 45.85700
O  43.18200 -3.07800 45.70000
C  45.42500 -2.39300 45.80500
N  45.76000 3.22200 46.80200
C  46.25000 1.99800 46.79200
C  47.76400 1.94900 47.13200
C  48.15600 3.44700 46.53000
C  46.81200 4.12500 46.69600
C  48.02600 1.86700 48.64100
C  48.65400 3.42700 45.00800
C  50.18100 3.58700 44.67500
N  44.26200 5.45500 47.05100
C  45.43900 6.16600 46.75400
C  45.26300 7.54000 46.65100
C  43.84200 7.65300 46.75600
C  43.27800 6.35300 46.91900
C  46.28400 8.56500 46.42600
C  42.73300 8.62800 46.70300
O  42.79800 9.85600 46.51400
C  41.38700 7.76800 46.78500
C  40.74600 8.19100 48.07200
O  41.21700 8.13100 49.16400
O  39.54400 8.86800 47.81600
C  38.76000 9.62000 48.89500
H  39.79400 1.02500 46.75200
H  46.07900 -0.10300 46.90700
H  47.63900 6.04500 46.59300
H  39.21700 5.70800 48.06500
H  38.48800 3.24300 46.54000
H  38.05300 3.95900 49.21200
H  39.37200 2.85400 49.31100
H  37.92100 2.36000 48.37100
H  38.40100 6.95800 46.16300
H  37.77900 5.36200 45.76000
H  40.41500 5.84200 44.70200
H  39.41200 7.15600 44.32900
H  41.22400 -1.79700 45.05600
H  40.04000 -0.78100 45.74100
H  40.76300 -2.08000 46.79700
H  45.97700 -2.41500 46.74500
H  45.74500 -1.46900 45.32300
H  45.72000 -3.31100 45.29500
H  48.26100 1.16500 46.56100
H  48.88200 3.93700 47.17900
H  48.31500 2.85200 49.00700
H  48.74800 1.06400 48.79100
H  47.08700 1.54100 49.08900
H  48.12800 4.31100 44.64800
H  48.26600 2.46500 44.67400
H  50.67600 3.94200 45.57900
H  50.34500 4.42200 43.99400
H  50.64500 2.71900 44.20500
H  47.03000 8.69400 47.21000
H  45.87700 9.56800 46.30300
H  46.87800 8.35200 45.53700
H  40.77400 8.01200 45.91700
H  38.77700 9.05800 49.82900
H  37.80100 9.75400 48.39500
H  39.23100 10.59700 49.00400

