158

Mg -0.28400 7.85600 26.78000
C  0.60500 10.03100 29.26200
C  -0.75600 5.32500 28.92900
C  -0.63900 5.80300 24.09400
C  0.55600 10.40900 24.48000
N  0.06100 7.56300 28.82600
C  0.21700 8.70500 29.65600
C  -0.01800 8.33900 31.14000
C  -0.34100 6.75500 31.04700
C  -0.42900 6.50100 29.54900
C  0.55000 5.77100 31.79900
C  -1.28400 9.08700 31.73900
C  -1.75000 8.68300 33.16900
H  -0.75300 8.12500 34.13100
N  -0.70900 5.87800 26.51500
C  -0.85700 5.00000 27.58000
C  -1.28900 3.72800 27.02100
C  -1.19100 3.82300 25.62200
C  -0.85200 5.17800 25.35500
C  -1.67800 2.51200 27.87600
C  -1.51300 2.70900 24.52100
O  -1.26600 2.95700 23.31100
C  -2.11800 1.37100 24.90300
N  -0.15700 8.13900 24.49100
C  -0.38500 7.10900 23.68300
C  -0.11400 7.52500 22.20700
C  -0.18700 9.06100 22.32900
C  0.12900 9.23100 23.85500
C  1.25400 6.95200 21.67200
C  -1.58600 9.63600 22.02400
C  -1.63300 10.65100 20.86800
N  0.54500 9.85300 26.78500
C  0.75900 10.79400 25.81600
C  1.12300 12.03100 26.37500
C  1.18700 11.84900 27.74100
C  0.71400 10.53300 27.93000
C  1.42900 13.28500 25.55700
C  1.39900 12.38500 29.04900
O  1.77200 13.49000 29.32000
C  0.92500 11.24500 30.07300
C  2.15800 11.02100 30.89300
O  3.19600 10.59700 30.42600
O  2.01900 11.66500 32.12100
C  3.07800 11.62000 33.10100
H  -0.97900 4.48400 29.58900
H  -0.62700 5.09300 23.26500
H  0.59300 11.23300 23.76500
H  0.93600 8.54100 31.62700
H  -1.38300 6.65700 31.35300
H  0.73000 4.93900 31.11800
H  -0.04100 5.38200 32.62800
H  1.50400 6.15600 32.15900
H  -2.10000 9.08000 31.01700
H  -1.06700 10.15100 31.84100
H  -2.63800 8.05200 33.13800
H  -2.05000 9.61500 33.64800
H  -1.98600 2.81500 28.87700
H  -0.85800 1.79600 27.92700
H  -2.50100 1.96700 27.41300
H  -2.11800 0.69300 24.05000
H  -3.17300 1.61500 25.02800
H  -1.71600 0.85800 25.77600
H  -0.81100 7.17100 21.44700
H  0.60400 9.53200 21.74400
H  1.63100 6.25500 22.42000
H  1.90000 7.77400 21.36200
H  1.06700 6.26700 20.84500
H  -1.89400 10.19200 22.90900
H  -2.30800 8.87000 21.74200
H  -0.80800 10.42100 20.19400
H  -1.56700 11.66200 21.27000
H  -2.51200 10.43300 20.26200
H  0.73500 13.39000 24.72400
H  2.43700 13.15200 25.16200
H  1.28200 14.19700 26.13500
H  0.15400 11.55600 30.77700
H  2.63500 11.79100 34.08200
H  3.89600 12.29300 32.84500
H  3.37400 10.58000 33.23300
Mg 34.82000 2.97800 30.50600
C  32.31200 3.93900 32.78000
C  37.19900 3.36300 33.09900
C  37.17500 2.01200 28.44500
C  32.35800 2.69300 28.08200
N  34.71400 3.46600 32.63700
C  33.57100 3.74700 33.35700
C  33.90400 3.99900 34.81300
C  35.49400 3.99500 34.86100
C  35.86300 3.55000 33.49100
C  35.95600 5.38500 35.38100
C  33.19400 2.87800 35.69100
C  33.85400 2.48300 37.02900
H  34.42800 3.62000 37.81800
N  36.96000 2.69500 30.72100
C  37.67400 2.88200 31.85200
C  39.06600 2.43100 31.56800
C  39.12500 1.94600 30.23300
C  37.72300 2.15600 29.76700
C  40.16000 2.52400 32.58300
C  40.24500 1.34100 29.42500
O  40.08600 0.93700 28.27100
C  41.64700 1.23800 30.03100
N  34.81200 2.34200 28.55600
C  35.91000 2.14200 27.81100
C  35.59400 2.08000 26.32600
C  34.08300 1.87200 26.34900
C  33.68700 2.38400 27.71400
C  36.09000 3.31100 25.50600
C  33.70700 0.38700 26.31700
C  32.52900 0.03400 25.38100
N  32.74800 3.22300 30.38700
C  31.86200 3.11900 29.36000
C  30.53300 3.41000 29.80300
C  30.68600 3.73500 31.20000
C  32.00900 3.62400 31.48300
C  29.16800 3.20700 29.08100
C  29.95700 4.13900 32.34700
O  28.76300 4.41700 32.54500
C  31.00400 4.31600 33.40600
C  30.93300 5.63700 34.15700
O  30.99400 6.72100 33.64100
O  30.74500 5.40400 35.58400
C  31.16000 6.57100 36.36200
H  37.92500 3.58100 33.88500
H  37.97500 1.75200 27.75000
H  31.61100 2.56500 27.29600
H  33.51600 5.00100 34.99400
H  35.98400 3.30300 35.54700
H  36.19400 6.03000 34.53400
H  36.89300 5.26200 35.92400
H  35.27600 5.94300 36.02400
H  33.17200 1.97900 35.07500
H  32.14300 3.10100 35.87800
H  34.58700 1.70100 36.82900
H  33.04600 2.06600 37.63100
H  39.84400 2.86600 33.56800
H  40.99000 3.10700 32.18300
H  40.45800 1.47900 32.66200
H  41.66400 0.46900 30.80400
H  41.97300 2.14200 30.54500
H  42.32600 1.15700 29.18200
H  36.07600 1.16200 25.99200
H  33.60900 2.38700 25.51400
H  37.13400 3.30900 25.19100
H  36.06700 4.13800 26.21600
H  35.40000 3.65100 24.73300
H  33.56000 0.03900 27.34000
H  34.47100 -0.36600 26.12400
H  31.72000 -0.36000 25.99600
H  32.80600 -0.72100 24.64400
H  32.12400 0.87900 24.82500
H  29.33000 2.45100 28.31300
H  28.84500 4.12000 28.58000
H  28.42900 2.83100 29.78900
H  30.81000 3.54300 34.15000
H  31.38400 6.20800 37.36500
H  30.28200 7.20600 36.48200
H  31.99800 7.08600 35.89300

