158

Mg -2.89200 17.47200 26.60200
C  -3.30200 15.42600 29.43700
C  -3.61400 20.19100 28.67100
C  -2.91100 19.46700 24.00300
C  -3.03900 14.64900 24.67900
N  -3.22600 17.68400 28.80400
C  -3.23600 16.78500 29.84600
C  -3.50500 17.39500 31.26400
C  -3.90200 18.83400 30.85700
C  -3.56700 18.91400 29.29900
C  -5.34800 19.37300 31.18000
C  -2.29600 17.27200 32.18700
C  -2.71900 16.86400 33.57100
H  -1.84000 16.99500 34.92300
N  -2.98500 19.57100 26.42000
C  -3.26200 20.51900 27.34700
C  -3.17800 21.82600 26.70300
C  -2.85600 21.64200 25.36300
C  -2.98300 20.19900 25.14900
C  -3.44700 23.07600 27.40600
C  -2.51200 22.59200 24.27700
O  -2.61000 22.25700 23.08400
C  -1.96200 24.05700 24.57200
N  -2.98000 17.10200 24.66400
C  -2.95800 18.11500 23.74000
C  -3.01300 17.58800 22.26100
C  -2.93700 16.01700 22.57400
C  -2.91700 15.88000 24.06800
C  -4.30500 18.04000 21.55500
C  -1.64900 15.46100 21.97200
C  -0.28800 15.53700 22.68000
N  -3.07500 15.46900 26.94000
C  -3.13800 14.42600 26.03900
C  -3.17800 13.20200 26.70300
C  -3.26500 13.52400 28.07400
C  -3.22700 14.96500 28.13500
C  -3.30000 11.86800 26.02900
C  -3.40600 12.94900 29.35200
O  -3.37700 11.75400 29.73200
C  -3.57300 14.22300 30.26600
C  -2.73300 13.99800 31.45800
O  -1.50500 13.94700 31.43400
O  -3.50400 13.68000 32.56300
C  -2.80800 13.26600 33.75400
H  -3.67500 21.00200 29.40000
H  -2.72400 19.91200 23.02400
H  -3.08700 13.75200 24.05900
H  -4.34400 16.87500 31.72700
H  -3.26200 19.54600 31.37900
H  -5.78000 18.65100 31.87300
H  -6.06200 19.45600 30.36000
H  -5.42600 20.29100 31.76200
H  -1.92600 18.27400 32.40400
H  -1.59600 16.61600 31.66900
H  -3.13900 15.85900 33.62900
H  -3.53000 17.56000 33.78600
H  -2.45300 23.38500 27.72900
H  -4.14000 22.85400 28.21600
H  -3.89600 23.86700 26.80500
H  -1.11200 24.02400 25.25300
H  -2.65000 24.71800 25.09900
H  -1.79400 24.59700 23.64000
H  -2.11600 17.83600 21.69300
H  -3.88800 15.54700 22.32400
H  -4.84100 18.63900 22.29100
H  -4.96000 17.20800 21.29900
H  -4.13100 18.71600 20.71700
H  -1.58100 15.88900 20.97200
H  -1.89200 14.41600 21.78000
H  -0.10100 14.62700 23.24900
H  -0.16800 16.48500 23.20600
H  0.49500 15.60200 21.92500
H  -2.49600 11.14000 26.13600
H  -3.59400 11.88000 24.98000
H  -4.15800 11.48000 26.57800
H  -4.59500 14.17800 30.64200
H  -1.77400 13.00000 33.53500
H  -3.18400 12.31400 34.12800
H  -2.79800 13.95200 34.60200
Mg 43.22000 42.57700 26.42000
C  41.96200 44.93500 28.98100
C  44.72600 40.82100 28.98300
C  44.32000 40.59600 24.10800
C  41.93100 44.86500 24.04100
N  43.41000 42.86200 28.70800
C  42.68600 43.80000 29.53600
C  42.68300 43.32500 31.06700
C  43.70100 42.08900 31.01800
C  43.97400 41.91100 29.51300
C  44.94900 42.17400 31.93400
C  41.28200 43.07200 31.54900
C  41.11800 42.33400 32.85200
H  40.49000 42.91500 34.03300
N  44.38300 40.97600 26.50700
C  44.94000 40.39800 27.61400
C  45.65000 39.20300 27.19300
C  45.61300 39.17700 25.79600
C  44.75000 40.33100 25.43800
C  46.30700 38.18300 28.16600
C  46.28900 38.17500 24.83800
O  46.22700 38.22800 23.61700
C  47.10800 37.02000 25.36500
N  43.21900 42.79100 24.34000
C  43.59800 41.71700 23.64600
C  43.37300 41.96200 22.23800
C  42.33000 43.13800 22.20600
C  42.50600 43.65200 23.61200
C  44.66700 42.36300 21.48100
C  40.92100 42.63100 21.93500
C  40.43700 41.58500 22.87900
N  42.38500 44.58100 26.40900
C  41.91900 45.36600 25.38500
C  41.44900 46.64500 25.85200
C  41.35500 46.44800 27.22200
C  42.00500 45.21900 27.58700
C  40.96400 47.86100 25.08500
C  40.91700 47.08600 28.45300
O  40.39000 48.20900 28.59900
C  41.30000 46.12300 29.66000
C  42.21500 46.77300 30.67900
O  43.20900 47.46200 30.47000
O  41.66400 46.58400 31.91700
C  42.46200 47.11100 33.01400
H  45.12600 40.18400 29.77400
H  44.46900 39.80800 23.36700
H  41.35200 45.48700 23.35500
H  43.16600 44.09800 31.66600
H  43.17000 41.17100 31.27100
H  45.00900 43.19000 32.32400
H  45.80400 41.89100 31.32000
H  44.77600 41.44400 32.72500
H  40.72700 42.52500 30.78700
H  40.96100 44.11300 31.57700
H  42.14900 42.15300 33.15500
H  40.69700 41.35700 32.61700
H  45.77100 37.23400 28.15700
H  46.22200 38.49700 29.20600
H  47.35700 38.06600 27.89800
H  46.56000 36.31600 25.99200
H  47.95800 37.48000 25.86900
H  47.40800 36.43400 24.49600
H  42.80100 41.10500 21.88400
H  42.69400 43.93200 21.55500
H  45.50300 41.98900 22.07200
H  44.88800 43.41300 21.28900
H  44.75300 41.85400 20.52000
H  40.91700 42.41700 20.86700
H  40.26800 43.50300 21.95200
H  39.71800 42.04400 23.55700
H  41.15100 41.01800 23.47700
H  39.88500 40.80700 22.35300
H  41.31900 48.06200 24.07500
H  41.26300 48.72300 25.68200
H  39.88500 47.90300 24.93900
H  40.39800 45.65900 30.05900
H  42.15300 46.72300 33.98400
H  42.37500 48.18700 33.16100
H  43.48900 46.78800 32.84200

