158

Mg 26.81300 50.69400 26.75400
C  24.73200 51.55700 29.64600
C  29.14100 49.55300 28.94100
C  28.58900 49.67000 24.10000
C  24.35700 51.94100 24.76900
N  26.77500 50.39900 29.06500
C  25.85600 50.80200 29.99700
C  26.21400 50.40100 31.43300
C  27.74700 50.00400 31.16300
C  27.95500 50.00600 29.63500
C  28.83000 50.80000 31.91800
C  25.36300 49.27100 32.19500
C  24.77300 49.50000 33.55400
H  25.78500 49.94000 34.60000
N  28.58200 49.72100 26.58600
C  29.43100 49.35900 27.60500
C  30.57700 48.68700 27.09700
C  30.53000 48.78000 25.66500
C  29.20200 49.38400 25.41100
C  31.68200 48.26800 28.02000
C  31.51200 48.40600 24.53900
O  31.31300 48.74500 23.35800
C  32.87200 47.94800 24.88600
N  26.53500 50.71400 24.70900
C  27.39600 50.27500 23.74800
C  26.86400 50.58500 22.36000
C  25.43200 50.88200 22.60500
C  25.40100 51.21100 24.09800
C  27.67000 51.71700 21.63300
C  24.30000 49.90100 22.19400
C  23.11800 50.48900 21.45500
N  25.04400 51.69700 27.06000
C  24.11900 52.19000 26.12800
C  22.88300 52.69300 26.80400
C  23.14800 52.54500 28.15300
C  24.42400 51.88500 28.26900
C  21.68000 53.24100 26.08900
C  22.57000 52.77200 29.49800
O  21.60700 53.37100 29.79400
C  23.57100 52.12400 30.46600
C  23.97900 53.16100 31.50400
O  24.76800 54.01200 31.25600
O  23.22900 52.93100 32.61600
C  23.61700 53.69500 33.80500
H  29.83100 49.14700 29.68300
H  29.15600 49.35600 23.22200
H  23.58600 52.24300 24.05700
H  26.16300 51.31900 32.01900
H  27.90400 48.93600 31.31700
H  28.44500 50.96900 32.92300
H  29.11700 51.73100 31.42900
H  29.73400 50.19100 31.95600
H  25.89200 48.32000 32.14000
H  24.45100 49.19300 31.60400
H  24.34200 48.57300 33.93200
H  23.98100 50.24900 33.58900
H  32.34800 47.52300 27.58300
H  31.28100 47.90900 28.96800
H  32.13900 49.23600 28.22300
H  33.51800 48.04000 24.01200
H  32.82100 46.89000 25.14300
H  33.24600 48.47000 25.76700
H  27.07000 49.69900 21.76000
H  25.02800 51.79700 22.17100
H  28.44800 52.04800 22.32200
H  27.07200 52.57100 21.31600
H  28.34400 51.41800 20.83000
H  23.80600 49.43500 23.04600
H  24.74700 49.05800 21.66600
H  23.03300 49.89700 20.54400
H  23.31300 51.48300 21.05200
H  22.19100 50.55900 22.02400
H  20.96300 53.63000 26.81100
H  21.14600 52.59600 25.39100
H  22.15700 53.96500 25.42900
H  23.10600 51.27900 30.97200
H  22.71500 53.76500 34.41300
H  23.95500 54.72000 33.65400
H  24.38900 53.15000 34.34700
Mg 6.66600 53.91400 41.00100
C  5.77200 50.56400 40.43700
C  9.79600 53.10900 39.83700
C  7.46300 57.19300 41.22100
C  3.44500 54.55200 42.11800
N  7.66400 52.12900 40.13700
C  7.10500 50.84000 40.00200
C  8.02400 49.84300 39.39900
C  9.41200 50.59400 39.59500
C  8.96000 52.04000 39.91000
C  10.32100 50.02600 40.77300
C  7.77700 49.32700 37.92900
C  7.07900 50.41400 36.94200
H  6.68500 50.06900 35.50600
N  8.41900 55.06500 40.49800
C  9.58200 54.51900 40.10100
C  10.61700 55.56900 39.95900
C  9.91100 56.79600 40.39200
C  8.54900 56.39400 40.69800
C  11.92300 55.36300 39.41500
C  10.60400 58.22100 40.58100
O  11.78900 58.30900 40.30600
C  9.87800 59.50800 40.73800
N  5.42100 55.73500 41.35100
C  6.10000 56.85100 41.66600
C  5.08000 57.88300 42.22500
C  3.84400 56.99100 42.61000
C  4.24400 55.68700 41.98200
C  5.52700 58.89900 43.28800
C  2.40500 57.56300 42.25600
C  1.48800 58.00200 43.41800
N  4.89800 52.87700 41.20200
C  3.67000 53.19200 41.76900
C  2.88100 52.00700 42.01500
C  3.63800 50.96700 41.43600
C  4.87200 51.54700 41.01000
C  1.52200 51.97700 42.72200
C  3.61100 49.60300 41.03500
O  2.76200 48.74000 41.13500
C  4.96700 49.26900 40.48500
C  4.69900 48.68400 39.05900
O  4.28800 49.25200 38.06400
O  4.98500 47.38500 39.12400
C  4.56700 46.52500 38.05800
H  10.77800 52.85700 39.43100
H  7.74100 58.22400 41.45100
H  2.49300 54.56800 42.65200
H  8.06900 48.98100 40.06400
H  9.98600 50.60700 38.66800
H  9.90300 49.15200 41.27200
H  10.58500 50.77800 41.51600
H  11.25700 49.69100 40.32500
H  7.16900 48.42400 37.98100
H  8.73500 49.11400 37.45500
H  7.58600 51.37000 36.80900
H  6.22000 50.79000 37.49700
H  12.26400 54.33300 39.31100
H  12.65500 55.89200 40.02600
H  11.97600 55.69900 38.37900
H  10.44700 60.37300 40.39900
H  9.71100 59.61200 41.81000
H  8.91000 59.49700 40.23600
H  4.76700 58.43800 41.34100
H  3.93600 56.78500 43.67700
H  6.59700 59.00000 43.47100
H  5.11000 58.60000 44.25000
H  5.24700 59.92100 43.03300
H  1.84500 56.67900 41.95100
H  2.45200 58.27900 41.43600
H  1.30700 59.07500 43.48000
H  1.89400 57.68000 44.37700
H  0.49100 57.57600 43.30500
H  0.81800 52.75000 42.41600
H  1.61600 51.83500 43.79900
H  1.01200 51.05400 42.44700
H  5.52200 48.54600 41.08200
H  4.61400 45.48600 38.38300
H  5.26600 46.59300 37.22500
H  3.54100 46.65800 37.71400

