158

Mg -1.71100 17.58600 26.54800
C  -2.43700 15.10700 28.98100
C  -2.62900 19.87900 28.89000
C  -1.83700 19.92400 24.09800
C  -2.05500 15.05100 24.15100
N  -2.31300 17.54600 28.67200
C  -2.42400 16.41900 29.51500
C  -2.79100 16.75100 30.96100
C  -2.85500 18.36000 30.82900
C  -2.66600 18.61600 29.40900
C  -4.06000 19.12200 31.45800
C  -1.68200 16.27000 31.90800
C  -1.28400 17.12400 33.15900
H  -0.78100 16.43000 34.43700
N  -2.09500 19.68500 26.53900
C  -2.41000 20.42700 27.62100
C  -2.57600 21.74700 27.30000
C  -2.42600 21.78600 25.85900
C  -2.09900 20.43500 25.42100
C  -2.88400 22.86200 28.33800
C  -2.71000 22.98300 24.84100
O  -2.63400 22.76500 23.60600
C  -3.01800 24.28100 25.39500
N  -1.82100 17.52800 24.41900
C  -1.68900 18.63600 23.62400
C  -1.54800 18.14800 22.14600
C  -1.55600 16.61800 22.21300
C  -1.87200 16.36900 23.68100
C  -2.67000 18.66000 21.21500
C  -0.22000 15.85300 21.98400
C  -0.38400 14.55400 21.12600
N  -1.86100 15.49100 26.55100
C  -2.06600 14.60700 25.48800
C  -2.19000 13.21700 25.96700
C  -2.39500 13.40000 27.34800
C  -2.24900 14.78900 27.64200
C  -2.19700 12.03000 25.11900
C  -2.66400 12.65500 28.51600
O  -2.82800 11.46900 28.67800
C  -2.56400 13.78900 29.70000
C  -1.44000 13.39800 30.61300
O  -0.27200 13.65500 30.54300
O  -1.88000 12.46600 31.53500
C  -1.00100 12.16200 32.66800
H  -2.83700 20.59000 29.69200
H  -1.57500 20.65700 23.33200
H  -2.02400 14.31200 23.34700
H  -3.71400 16.31900 31.34800
H  -1.97500 18.78100 31.31700
H  -4.72900 18.31100 31.74500
H  -4.61400 19.87800 30.90100
H  -3.75500 19.58300 32.39800
H  -0.72400 16.16300 31.40000
H  -2.11600 15.34500 32.28800
H  -2.10300 17.74900 33.51500
H  -0.46500 17.77800 32.86000
H  -3.84200 23.33700 28.12500
H  -2.04400 23.55500 28.38800
H  -2.85300 22.44300 29.34300
H  -3.10800 24.98900 24.57200
H  -2.26000 24.56600 26.12400
H  -3.98000 24.32500 25.90600
H  -0.58700 18.55800 21.83800
H  -2.35500 16.20900 21.59400
H  -3.26000 19.47600 21.63200
H  -3.32900 17.83500 20.94600
H  -2.04700 19.01200 20.39300
H  0.24500 15.57900 22.93100
H  0.52600 16.45400 21.46500
H  -1.41200 14.19600 21.07100
H  0.29000 13.71700 21.30900
H  -0.18400 14.66900 20.06100
H  -3.25600 11.87000 24.91500
H  -1.74700 11.17000 25.61500
H  -1.62000 12.22300 24.21500
H  -3.40700 13.66000 30.37900
H  -0.22000 12.90500 32.83200
H  -0.55900 11.16700 32.63800
H  -1.61100 12.30500 33.56000
Mg 25.93100 1.17800 29.84000
C  27.94600 0.88200 32.83400
C  23.23700 1.38600 31.85000
C  24.08600 1.05000 27.09400
C  28.73400 0.36100 28.00500
N  25.71200 1.24500 32.13500
C  26.62700 1.05100 33.14800
C  25.97100 1.14200 34.57500
C  24.47000 1.23900 34.15600
C  24.38700 1.17200 32.62100
C  23.55300 0.17200 34.84200
C  26.56000 2.31400 35.44800
C  26.74600 1.93500 36.94700
H  26.49700 3.10600 37.84200
N  23.89100 1.32100 29.54800
C  22.93300 1.37600 30.52500
C  21.61300 1.53800 29.93600
C  21.84300 1.37100 28.54200
C  23.33500 1.24600 28.32900
C  20.44900 1.74400 30.83000
C  20.82400 1.29100 27.42600
O  21.26500 1.02300 26.27700
C  19.41600 1.61100 27.66400
N  26.28100 0.65700 27.89900
C  25.37500 0.84600 26.88400
C  25.99700 0.62700 25.48600
C  27.52100 0.55500 25.85200
C  27.50500 0.53900 27.39500
C  25.51400 -0.73200 24.84600
C  28.41200 1.76600 25.39200
C  29.82900 1.32800 25.02700
N  27.92200 0.76200 30.28700
C  28.94400 0.45200 29.41900
C  30.15800 0.18500 30.13000
C  29.77500 0.38000 31.44300
C  28.43000 0.73300 31.51800
C  31.47500 -0.24700 29.67100
C  30.28000 0.30600 32.79500
O  31.43100 -0.04700 33.17500
C  29.08800 0.76400 33.70700
C  28.94700 -0.35000 34.68700
O  28.47200 -1.44800 34.47300
O  29.39000 0.07400 35.94200
C  29.25400 -1.02400 36.94600
H  22.34600 1.32300 32.47900
H  23.52900 0.98500 26.15700
H  29.58900 0.12500 27.36900
H  26.20200 0.21000 35.09100
H  24.06700 2.22900 34.37100
H  22.86500 -0.29300 34.13600
H  22.93100 0.65700 35.59400
H  24.17800 -0.60000 35.28900
H  25.74200 3.03400 35.49100
H  27.37700 2.86900 34.98800
H  27.79500 1.69300 37.11400
H  26.18100 1.02900 37.16900
H  20.64000 2.53300 31.55700
H  20.17500 0.87500 31.42900
H  19.52200 2.00800 30.32100
H  19.02900 0.85500 28.34700
H  18.94400 1.53200 26.68500
H  19.23200 2.61800 28.03900
H  25.86700 1.45800 24.79300
H  27.94700 -0.41800 25.60900
H  24.77200 -1.22300 25.47600
H  26.26800 -1.50700 24.70800
H  25.15400 -0.60600 23.82500
H  28.64400 2.49900 26.16600
H  27.85600 2.35100 24.65900
H  29.97800 1.48200 23.95900
H  30.05500 0.30200 25.31700
H  30.49800 1.98500 25.58500
H  32.07500 -0.18600 30.57900
H  31.90000 0.41100 28.91300
H  31.42500 -1.28900 29.35600
H  29.13400 1.72300 34.22200
H  29.75800 -0.62700 37.82700
H  29.73500 -1.92200 36.55800
H  28.22700 -1.27600 37.21100

