158

Mg -1.71700 17.62200 26.94700
C  -1.91100 15.39600 29.61200
C  -2.73600 20.22000 29.09600
C  -1.66000 19.73800 24.29000
C  -1.29100 14.86600 24.69700
N  -1.94800 17.79300 29.11900
C  -2.04400 16.73700 30.04200
C  -2.38100 17.25300 31.46000
C  -2.96500 18.69000 31.16300
C  -2.46300 18.96500 29.64900
C  -4.51600 18.92300 31.30700
C  -1.30500 17.13200 32.56300
C  -1.72100 16.93600 34.00100
H  -0.63300 16.57300 35.03400
N  -2.18100 19.67800 26.73200
C  -2.48600 20.56600 27.71600
C  -2.54200 21.83800 27.11700
C  -2.01200 21.77500 25.82900
C  -1.92700 20.35100 25.55000
C  -3.13800 22.95600 27.96600
C  -1.57400 22.86000 24.81300
O  -1.04500 22.67700 23.70900
C  -1.73400 24.28800 25.26900
N  -1.48300 17.29900 24.88200
C  -1.47000 18.38200 23.96800
C  -1.33400 17.82900 22.55600
C  -0.95300 16.33600 22.71100
C  -1.17000 16.14500 24.20500
C  -2.54300 18.09100 21.58700
C  0.45900 16.05300 22.19600
C  1.51700 16.80200 23.01900
N  -1.62700 15.61800 27.07700
C  -1.50300 14.62100 26.04200
C  -1.53400 13.27400 26.63600
C  -1.64200 13.54400 28.01400
C  -1.68900 14.96600 28.26300
C  -1.38400 11.97600 25.86200
C  -1.65500 12.87700 29.20800
O  -1.59700 11.68200 29.45700
C  -2.14500 13.97600 30.24100
C  -1.41600 13.70000 31.54500
O  -0.23500 13.63400 31.78200
O  -2.44200 13.60200 32.52200
C  -1.84700 13.28600 33.92000
H  -3.11800 20.92400 29.83900
H  -1.79800 20.32600 23.38000
H  -1.27300 13.98800 24.04800
H  -3.25100 16.63100 31.67100
H  -2.58300 19.44900 31.84500
H  -4.80300 19.88100 31.74000
H  -4.82300 18.20900 32.07200
H  -4.99200 18.73800 30.34500
H  -0.84500 18.12000 32.51700
H  -0.59800 16.33900 32.32000
H  -2.44300 16.12000 34.01800
H  -2.07900 17.91400 34.32400
H  -4.01400 22.71000 28.56600
H  -3.62800 23.66600 27.29900
H  -2.41800 23.52500 28.55300
H  -1.27800 24.49200 26.23800
H  -2.80200 24.45600 25.40800
H  -1.31500 24.87800 24.45400
H  -0.55300 18.48200 22.16600
H  -1.73600 15.84100 22.13500
H  -3.44700 18.42600 22.09500
H  -2.82700 17.19900 21.02800
H  -2.34500 18.92300 20.91100
H  0.67300 16.51100 21.23000
H  0.62900 14.97700 22.16500
H  1.21600 16.96000 24.05400
H  1.86600 17.75100 22.61100
H  2.30900 16.05400 23.04300
H  -0.63100 12.23500 25.11800
H  -2.27900 11.56000 25.39900
H  -1.02500 11.19400 26.53100
H  -3.17900 13.77400 30.52300
H  -1.36200 12.33000 33.72300
H  -2.70700 13.10500 34.56500
H  -1.09900 13.96600 34.32600
Mg 47.24500 16.31000 28.45400
C  45.06400 15.59300 31.03400
C  48.65800 18.69100 30.31500
C  49.10100 17.26300 25.71300
C  45.16500 14.46300 26.34500
N  46.94100 16.94900 30.43000
C  46.08500 16.40200 31.41900
C  46.38900 16.88000 32.86300
C  47.23600 18.14900 32.43500
C  47.72700 17.91100 30.98100
C  46.34000 19.43500 32.52700
C  47.19300 15.80600 33.60800
C  47.00900 15.73500 35.17400
H  48.25200 15.74400 36.07500
N  48.84300 17.54200 28.12600
C  49.23700 18.51000 29.07600
C  50.21200 19.38600 28.49800
C  50.42100 18.96300 27.20300
C  49.43900 17.82500 26.93300
C  50.83900 20.57400 29.17400
C  51.48500 19.43500 26.14300
O  51.65900 18.93300 25.05400
C  52.44100 20.56500 26.38700
N  47.20400 15.96300 26.35600
C  48.09900 16.39000 25.42800
C  47.75400 15.82700 24.03500
C  46.49600 15.02400 24.22800
C  46.27800 15.13600 25.73500
C  47.74800 16.86800 22.92700
C  46.66300 13.52700 23.73500
C  47.46100 12.56900 24.62400
N  45.47600 15.19500 28.51700
C  44.67300 14.45300 27.66100
C  43.51800 13.90400 28.31900
C  43.67600 14.28500 29.66500
C  44.89200 15.05600 29.71900
C  42.45300 12.99400 27.72600
C  43.12300 14.12700 31.04100
O  42.08500 13.58000 31.47200
C  43.97100 14.97700 31.90600
C  43.19200 16.06200 32.49500
O  42.58200 16.94300 31.91600
O  43.26600 15.92900 33.81700
C  42.91600 17.12500 34.61800
H  49.13200 19.49100 30.88800
H  49.72100 17.55700 24.86300
H  44.35000 14.12600 25.70100
H  45.51100 17.15400 33.44900
H  48.12900 18.19100 33.05900
H  45.28100 19.18100 32.58700
H  46.54100 19.88600 31.55500
H  46.68100 20.06600 33.34700
H  48.25000 15.90200 33.35900
H  46.87300 14.83800 33.22200
H  46.57100 14.74400 35.29100
H  46.24400 16.41900 35.54300
H  51.81200 20.24000 29.53500
H  50.24200 21.02200 29.96800
H  51.06700 21.46800 28.59300
H  51.93700 21.49400 26.12300
H  53.31300 20.41800 25.74900
H  52.84600 20.61200 27.39700
H  48.54700 15.18200 23.65800
H  45.63500 15.47300 23.73400
H  47.71800 17.80100 23.49000
H  46.95700 16.83300 22.17800
H  48.67300 16.76900 22.36000
H  47.08200 13.65500 22.73700
H  45.66200 13.10900 23.62200
H  48.31800 12.22500 24.04500
H  46.87100 11.72700 24.98800
H  47.90100 13.12200 25.45400
H  42.15100 13.53100 26.82600
H  41.58900 12.78200 28.35700
H  42.84900 12.05800 27.33400
H  44.39900 14.33600 32.67600
H  41.84200 17.31200 34.58400
H  43.39500 18.03400 34.25400
H  43.23200 16.87100 35.63000

