158

Mg 2.84500 0.27700 43.52600
C  5.94200 2.01000 43.17400
C  1.26500 2.82300 41.98400
C  0.26400 -1.76400 42.88500
C  4.74000 -2.55400 44.54600
N  3.60900 1.99400 42.46100
C  4.80200 2.61700 42.52500
C  4.83300 3.93400 41.93400
C  3.32500 4.36800 41.80000
C  2.67900 3.00800 42.12500
C  2.89600 5.53600 42.79400
C  5.69300 4.21000 40.69600
C  6.51400 3.03700 40.12600
H  6.85300 3.08600 38.63000
N  0.95600 0.52800 42.80000
C  0.46900 1.71300 42.30500
C  -0.94300 1.57800 42.06200
C  -1.33000 0.23900 42.41100
C  -0.02900 -0.40900 42.72300
C  -1.82100 2.72700 41.56300
C  -2.73900 -0.46000 42.34100
O  -3.71400 0.20200 41.98000
C  -2.99300 -1.83500 42.67600
N  2.55100 -1.90800 43.56700
C  1.41600 -2.45600 43.22400
C  1.46300 -3.99000 43.47200
C  2.83100 -4.25100 44.17000
C  3.46400 -2.79000 44.07000
C  0.27700 -4.74900 44.21900
C  3.84400 -5.28600 43.63900
C  4.25300 -6.31500 44.70900
N  4.85400 -0.21200 43.91700
C  5.43600 -1.31600 44.45200
C  6.77300 -0.97900 44.94800
C  7.05400 0.30900 44.41600
C  5.84400 0.71400 43.80700
C  7.76600 -2.00100 45.63100
C  8.03500 1.29200 44.30200
O  9.26600 1.24800 44.60200
C  7.38900 2.45700 43.56000
C  7.29500 3.64500 44.44500
O  8.20900 4.46500 44.45500
O  6.05600 3.90600 45.03800
C  5.74300 5.22900 45.61300
H  0.79000 3.74700 41.64800
H  -0.57900 -2.44500 42.74700
H  5.26400 -3.39700 45.00200
H  5.24700 4.57500 42.71200
H  3.06900 4.65500 40.78000
H  2.25000 5.14400 43.57900
H  2.40900 6.29400 42.18000
H  3.76900 6.06800 43.17200
H  6.28400 5.12500 40.73600
H  5.08000 4.46800 39.83200
H  6.11600 2.05300 40.37300
H  7.48400 3.18600 40.60000
H  -2.80700 2.71700 42.02900
H  -1.90300 2.80000 40.47900
H  -1.25700 3.61000 41.86600
H  -4.04900 -2.10100 42.61400
H  -2.66700 -2.10200 43.68100
H  -2.52200 -2.52400 41.97600
H  1.45600 -4.39000 42.45800
H  2.57800 -4.32900 45.22800
H  -0.09600 -4.14400 45.04600
H  0.55300 -5.73200 44.59800
H  -0.56900 -4.97100 43.56900
H  4.65900 -4.78300 43.11800
H  3.26000 -5.89900 42.95300
H  5.26100 -6.06000 45.03500
H  4.36700 -7.32600 44.31900
H  3.65000 -6.29600 45.61700
H  7.96200 -2.89800 45.04300
H  7.40100 -2.30500 46.61200
H  8.70000 -1.45100 45.74100
H  8.01800 2.57400 42.67700
H  5.92800 5.12600 46.68200
H  4.66800 5.29600 45.44700
H  6.26300 6.09000 45.19300
Mg 45.85000 44.76900 43.14000
C  42.43000 44.16500 43.38100
C  46.38900 41.41900 42.64000
C  49.06200 45.55800 42.15700
C  45.12500 48.21400 43.40300
N  44.57100 43.01000 43.02200
C  43.22200 43.00800 43.13000
C  42.60600 41.61100 42.90700
C  43.84400 40.76600 43.01400
C  45.04100 41.74500 42.79300
C  44.05400 39.99500 44.33300
C  41.83700 41.49400 41.55600
C  42.51200 42.09800 40.32600
H  41.89100 41.66200 38.97200
N  47.45100 43.66300 42.54200
C  47.50100 42.27600 42.52200
C  48.86700 41.79700 42.16600
C  49.70000 42.97700 42.18600
C  48.72600 44.15400 42.28200
C  49.30300 40.32100 41.95800
C  51.14500 42.85800 41.97800
O  51.69600 41.76400 41.85200
C  51.97900 44.12600 41.82800
N  46.86600 46.62400 42.72100
C  48.18700 46.64500 42.33500
C  48.64600 48.06300 42.36300
C  47.46000 48.87600 42.79600
C  46.38800 47.85800 43.01000
C  49.90300 48.27500 43.27800
C  47.09600 49.96300 41.74900
C  46.65100 51.30800 42.28900
N  44.15700 46.01600 43.44300
C  44.00300 47.41400 43.48200
C  42.64300 47.76500 43.73700
C  41.92900 46.53300 43.69900
C  42.95600 45.49700 43.50600
C  42.12000 49.18400 43.84000
C  40.65200 45.85800 43.76200
O  39.51400 46.32200 43.97100
C  40.93900 44.30400 43.63700
C  40.43700 43.60600 44.75700
O  39.92600 42.48000 44.75700
O  40.73200 44.24700 45.96500
C  40.50400 43.44400 47.13700
H  46.59300 40.35000 42.55200
H  50.11800 45.81600 42.06200
H  44.95800 49.28000 43.57400
H  41.83600 41.51900 43.67300
H  43.92600 40.07200 42.17800
H  44.99900 40.07000 44.87100
H  43.94500 38.95500 44.02400
H  43.29600 40.28100 45.06200
H  40.81200 41.81900 41.73500
H  41.73200 40.41600 41.43500
H  43.55700 41.80300 40.22200
H  42.51800 43.18800 40.32600
H  50.06300 40.30300 41.17800
H  48.42200 39.82100 41.55400
H  49.64600 39.87800 42.89300
H  51.75400 44.86000 42.60100
H  51.68800 44.48900 40.84200
H  53.01900 43.79800 41.81200
H  49.01200 48.16700 41.34200
H  47.73200 49.37300 43.72700
H  50.71100 48.29000 42.54700
H  50.03500 47.43100 43.95500
H  49.80500 49.18800 43.86500
H  46.25700 49.70500 41.10300
H  47.93500 50.22600 41.10500
H  47.19600 52.10700 41.78500
H  46.70200 51.54900 43.35100
H  45.61000 51.44200 41.99800
H  41.43200 49.35600 44.66900
H  41.63200 49.53100 42.92900
H  42.86100 49.93100 44.12500
H  40.35100 43.95100 42.79000
H  41.37200 42.83300 47.38500
H  39.58400 42.86100 47.09100
H  40.42500 44.16100 47.95400

