158

Mg 26.24900 -0.64300 29.59700
C  28.00500 -0.85100 32.57000
C  23.38400 -0.53900 31.32100
C  24.54500 -0.60800 26.61700
C  29.11700 -1.40400 27.85200
N  25.72700 -0.74000 31.66900
C  26.64200 -0.64400 32.72100
C  25.86700 -0.36600 34.07400
C  24.40200 -0.47100 33.64800
C  24.48800 -0.62800 32.11900
C  23.45200 -1.57200 34.36500
C  26.29100 1.05500 34.66900
C  27.04200 1.12000 35.97800
H  26.55800 2.01800 37.11300
N  24.18800 -0.62900 29.05000
C  23.17300 -0.55100 29.93600
C  21.93100 -0.54000 29.18000
C  22.28500 -0.45800 27.85000
C  23.71500 -0.64500 27.75900
C  20.59700 -0.66700 29.87800
C  21.35000 -0.36400 26.68200
O  21.83400 -0.32700 25.52800
C  19.86200 -0.12600 26.86500
N  26.69400 -1.26700 27.52100
C  25.89800 -0.89600 26.50700
C  26.65000 -0.71000 25.13700
C  27.99100 -1.31100 25.51500
C  27.94600 -1.26700 27.06300
C  26.00200 -1.50700 23.97600
C  29.22900 -0.67600 24.88000
C  29.61300 0.72400 25.33400
N  28.20000 -1.06300 30.06100
C  29.30600 -1.27100 29.25400
C  30.48400 -1.48200 30.05900
C  30.07800 -1.25700 31.34800
C  28.65700 -1.07000 31.32100
C  31.81100 -1.97800 29.56700
C  30.46700 -1.16900 32.75400
O  31.58600 -1.37000 33.21800
C  29.16400 -0.79700 33.66100
C  29.11800 -1.85100 34.70900
O  28.87500 -3.07700 34.57600
O  29.38400 -1.27100 35.92100
C  29.58400 -2.21800 37.03500
H  22.47200 -0.21800 31.82900
H  24.16500 -0.48000 25.60100
H  30.01500 -1.70300 27.30600
H  26.12600 -1.21300 34.70900
H  23.85600 0.46200 33.78700
H  22.82600 -1.99600 33.58000
H  22.72200 -1.11200 35.03200
H  24.00800 -2.39600 34.81000
H  25.46200 1.76000 34.73700
H  26.97300 1.35300 33.87200
H  28.07700 1.38100 35.76000
H  26.95000 0.08200 36.29600
H  19.97700 -1.37900 29.33300
H  20.16300 0.32900 29.96700
H  20.63200 -1.05100 30.89800
H  19.23700 0.01800 25.98400
H  19.82800 0.68800 27.58800
H  19.43800 -0.91100 27.49100
H  26.76500 0.36400 24.99200
H  27.99700 -2.39100 25.36800
H  25.35200 -0.80800 23.45100
H  25.32700 -2.30100 24.29600
H  26.72600 -1.87000 23.24700
H  29.02600 -0.55500 23.81600
H  30.14800 -1.25800 24.94900
H  30.59500 0.54500 25.77100
H  28.89900 1.02600 26.10000
H  29.62000 1.44300 24.51400
H  31.84000 -2.11700 28.48700
H  31.89500 -2.97800 29.99300
H  32.58100 -1.35400 30.02100
H  29.23400 0.20000 34.09800
H  29.73600 -3.24800 36.71300
H  28.71100 -2.19800 37.68700
H  30.42900 -1.77000 37.55800
Mg 41.10200 7.34600 29.52400
C  42.75200 8.91800 32.19000
C  38.83700 6.05900 31.61300
C  39.87100 5.82400 26.80600
C  43.96300 8.25500 27.52500
N  40.87700 7.43700 31.64200
C  41.58500 8.22700 32.60500
C  40.95400 8.09400 33.98700
C  39.86600 6.96500 33.75600
C  39.91100 6.73700 32.24400
C  40.05500 5.68100 34.64700
C  40.34000 9.39100 34.51600
C  39.94400 9.35800 36.02000
H  40.31500 10.55600 36.98400
N  39.46900 6.23500 29.20600
C  38.64500 5.81400 30.19800
C  37.62100 4.98100 29.61600
C  37.75800 5.04400 28.21100
C  39.08300 5.67900 27.99600
C  36.59800 4.27300 30.51300
C  36.82700 4.52200 27.14300
O  36.98800 4.62800 25.95600
C  35.50500 3.91300 27.62000
N  41.82800 7.01400 27.45300
C  41.05400 6.45200 26.48800
C  41.75600 6.36400 25.12200
C  42.96200 7.31400 25.39000
C  42.95000 7.62800 26.87100
C  42.19200 4.91000 24.70100
C  42.82800 8.69800 24.51800
C  41.55600 9.56900 24.74000
N  42.96800 8.33500 29.81100
C  43.99200 8.67900 28.93100
C  45.09200 9.36500 29.55600
C  44.60600 9.58800 30.87300
C  43.38400 8.86900 30.94400
C  46.40500 9.63900 28.90900
C  44.84300 10.14600 32.17600
O  45.80500 10.87100 32.54800
C  43.56400 9.81000 33.11300
C  44.08300 9.07800 34.30800
O  44.67700 7.97300 34.31200
O  43.74100 9.83300 35.40800
C  44.06100 9.25500 36.70400
H  38.04100 5.78200 32.30800
H  39.34300 5.31500 25.99600
H  44.79100 8.45000 26.84000
H  41.64300 7.72900 34.74800
H  38.92900 7.47300 33.98400
H  41.04700 5.66900 35.09700
H  39.86700 4.76500 34.08600
H  39.30500 5.83500 35.42300
H  39.49600 9.68500 33.89200
H  41.01500 10.24500 34.46900
H  40.31300 8.44400 36.48300
H  38.88000 9.13300 36.09500
H  35.68600 4.86300 30.42000
H  36.85900 4.22800 31.57100
H  36.30300 3.27100 30.20200
H  35.60800 3.07200 28.30600
H  35.00300 3.45400 26.76900
H  34.88500 4.67200 28.09700
H  41.04500 6.83700 24.44400
H  43.86500 6.91500 24.92800
H  42.96400 4.95000 23.93200
H  41.34100 4.39500 24.25500
H  42.53300 4.32500 25.55500
H  42.86900 8.53200 23.44200
H  43.73300 9.13600 24.93800
H  40.90800 9.45300 23.87100
H  41.88100 10.58800 24.95000
H  41.02400 9.19300 25.61400
H  46.06200 9.80100 27.88700
H  47.12300 8.83800 29.08900
H  46.79900 10.56600 29.32600
H  43.08700 10.73900 33.42200
H  43.75900 8.20800 36.66200
H  43.44800 9.76500 37.44700
H  45.11500 9.39300 36.94900

