158

Mg 8.27700 3.94500 28.07900
C  9.58400 2.49600 30.90600
C  6.43900 6.13100 29.94000
C  7.16200 5.33500 25.23700
C  9.99800 1.55500 26.22400
N  8.11300 4.30200 30.18800
C  8.72300 3.61300 31.15900
C  8.39400 4.29900 32.52500
C  7.25600 5.30300 32.19600
C  7.21100 5.19500 30.64500
C  5.91500 5.14100 32.85700
C  9.62100 4.85700 33.17600
C  9.46700 5.81400 34.36000
H  10.35200 5.62400 35.57100
N  6.99400 5.52700 27.63200
C  6.35600 6.31600 28.56200
C  5.59700 7.37800 27.86600
C  5.74600 7.10300 26.44500
C  6.63000 5.94800 26.35500
C  4.96300 8.53200 28.60200
C  5.13200 7.76300 25.20800
O  5.26700 7.38500 24.02400
C  4.12400 8.88800 25.39900
N  8.51800 3.53400 26.01200
C  7.92300 4.19300 24.99000
C  8.34700 3.69200 23.60100
C  9.35300 2.60300 23.97800
C  9.27800 2.50800 25.50400
C  7.16700 3.31100 22.75800
C  10.81300 2.87400 23.46000
C  11.34200 1.82700 22.39400
N  9.45500 2.23600 28.40200
C  10.15700 1.42400 27.58800
C  10.99600 0.49100 28.35300
C  10.86300 0.94200 29.66400
C  9.90900 1.98300 29.61400
C  11.82300 -0.57700 27.75500
C  11.31400 0.73600 31.09300
O  12.22900 0.08200 31.62000
C  10.46600 1.72500 31.88100
C  9.67200 0.85600 32.79000
O  8.60700 0.29100 32.48700
O  10.29700 0.75900 33.97000
C  9.56500 -0.05200 34.89000
H  5.86900 6.80100 30.58800
H  7.07700 5.93100 24.32600
H  10.56700 0.83000 25.63800
H  7.99100 3.52700 33.18100
H  7.75900 6.23900 32.43900
H  5.05100 5.24300 32.20100
H  5.84100 6.03000 33.48400
H  5.75700 4.40800 33.64900
H  10.15000 5.53000 32.50100
H  10.30600 4.06500 33.48000
H  8.43300 5.70500 34.68700
H  9.69000 6.79100 33.93200
H  5.12300 8.46800 29.67900
H  3.87400 8.48100 28.63300
H  5.42900 9.48200 28.34100
H  3.36200 8.58300 26.11700
H  3.61600 9.05100 24.44800
H  4.60000 9.81900 25.70600
H  8.89800 4.48500 23.09400
H  9.00800 1.62600 23.63900
H  6.15500 3.62300 23.02100
H  7.11000 2.23500 22.59700
H  7.32400 3.64800 21.73400
H  11.49700 2.88500 24.30900
H  10.86300 3.93000 23.19200
H  11.22700 2.19800 21.37600
H  10.85500 0.86100 22.52800
H  12.41500 1.66600 22.49700
H  12.46700 -0.16700 26.97600
H  11.16200 -1.38200 27.43300
H  12.46000 -0.93200 28.56500
H  11.15300 2.36700 32.43100
H  9.20900 -1.01500 34.52500
H  8.63300 0.37200 35.26300
H  10.12300 -0.23500 35.80800
Mg -5.04200 26.71400 25.63000
C  -4.25300 28.13800 28.57700
C  -6.92500 24.32800 27.08400
C  -5.40500 25.19700 22.59400
C  -3.03400 29.08400 23.97100
N  -5.42200 26.22300 27.56700
C  -5.12800 27.03900 28.61900
C  -5.73500 26.45500 29.88700
C  -6.43400 25.17000 29.46600
C  -6.34300 25.26900 27.94500
C  -5.81800 23.82000 30.07600
C  -6.64800 27.50600 30.63400
C  -6.49300 27.57200 32.19400
H  -6.42900 26.27100 32.98200
N  -5.98700 24.93900 24.98500
C  -6.82000 24.17400 25.69100
C  -7.35100 23.11200 24.86800
C  -6.70900 23.27700 23.61300
C  -5.93200 24.47800 23.67500
C  -8.23200 22.03100 25.44800
C  -6.84200 22.47600 22.34100
O  -6.14300 22.79500 21.34400
C  -7.87200 21.37100 22.21000
N  -4.28100 27.05200 23.56600
C  -4.66700 26.32500 22.52300
C  -4.21300 26.91400 21.20200
C  -3.64600 28.32000 21.73000
C  -3.64300 28.15000 23.21000
C  -3.09600 25.96000 20.56000
C  -4.52700 29.60300 21.28800
C  -4.03500 30.48700 20.19000
N  -3.86100 28.34200 26.10600
C  -3.11900 29.22500 25.39300
C  -2.52500 30.19500 26.23800
C  -2.97000 29.80600 27.55700
C  -3.72900 28.67100 27.38000
C  -1.60200 31.27300 25.98800
C  -2.86100 30.05600 28.93000
O  -2.20900 30.88300 29.58200
C  -3.68200 28.98000 29.73300
C  -2.66300 28.26300 30.59800
O  -1.71600 27.63000 30.21500
O  -2.99000 28.40900 31.96300
C  -1.96900 27.69700 32.81300
H  -7.49400 23.50200 27.51600
H  -5.65200 24.96500 21.55600
H  -2.72500 30.01600 23.49300
H  -4.86300 26.13200 30.45500
H  -7.51900 25.17700 29.56200
H  -4.93900 23.95800 30.70600
H  -5.39200 23.27000 29.23700
H  -6.61000 23.23100 30.53800
H  -7.69800 27.32200 30.40800
H  -6.36500 28.49300 30.26900
H  -7.33200 28.11700 32.62800
H  -5.60000 28.16300 32.39300
H  -8.58200 21.32300 24.69600
H  -8.98500 22.39900 26.14400
H  -7.56200 21.39800 26.03100
H  -7.73300 20.57100 22.93700
H  -7.79600 21.00100 21.18700
H  -8.87700 21.79300 22.22400
H  -5.07100 27.04800 20.54300
H  -2.62200 28.25100 21.36300
H  -2.86700 25.00900 21.04100
H  -2.22800 26.57700 20.32700
H  -3.46800 25.52200 19.63400
H  -5.00600 30.17600 22.08300
H  -5.41800 29.22000 20.79100
H  -4.51700 30.24600 19.24200
H  -2.97200 30.24700 20.14800
H  -4.11900 31.53700 20.47000
H  -1.51200 31.54800 24.93600
H  -0.63200 30.94000 26.35700
H  -1.86300 32.18700 26.52100
H  -4.38700 29.53000 30.35700
H  -2.08300 26.63300 32.60700
H  -2.21100 28.07500 33.80700
H  -0.93500 27.82700 32.49500

