158

Mg 25.60200 51.70900 26.55300
C  23.17100 52.53900 29.03500
C  27.72600 50.69500 29.14100
C  28.08400 51.24600 24.41100
C  23.53700 52.94400 24.03800
N  25.49100 51.77400 28.85900
C  24.35600 52.00500 29.56900
C  24.66200 51.60300 30.98500
C  26.13100 51.06500 31.02100
C  26.51800 51.18100 29.57400
C  27.10800 51.72200 32.10800
C  23.67000 50.60100 31.58000
C  22.98700 51.06500 32.83400
H  23.14200 50.25600 34.11600
N  27.63900 51.08300 26.74100
C  28.28300 50.68200 27.89400
C  29.66700 50.35900 27.55100
C  29.80400 50.38200 26.12600
C  28.47000 50.92800 25.72100
C  30.55000 49.66900 28.58700
C  31.01000 49.97900 25.26200
O  31.12100 50.06000 24.00800
C  32.32200 49.40200 25.93600
N  25.75300 52.00800 24.52000
C  26.87600 51.76500 23.94500
C  26.66000 51.89400 22.43500
C  25.23600 52.42600 22.29400
C  24.76100 52.41700 23.67700
C  27.70300 52.82100 21.66000
C  24.36500 51.55000 21.35800
C  23.36100 52.30100 20.48200
N  23.76000 52.53600 26.48800
C  23.06200 53.06700 25.37000
C  21.74300 53.51200 25.88800
C  21.79400 53.33500 27.29100
C  22.97100 52.71600 27.60600
C  20.63800 53.98400 25.06800
C  20.97200 53.42100 28.45000
O  19.80600 53.75200 28.51000
C  21.82400 52.90400 29.62100
C  22.10000 54.01700 30.53300
O  22.56200 55.10300 30.22200
O  21.51300 53.64900 31.71800
C  21.26500 54.87200 32.54900
H  28.40700 50.32700 29.91100
H  28.80400 51.18300 23.59200
H  22.91400 53.41000 23.27200
H  24.63700 52.53200 31.55500
H  26.24100 49.98500 30.92400
H  27.55500 50.93300 32.71300
H  26.51800 52.44100 32.67800
H  27.85500 52.27000 31.53400
H  24.18000 49.66500 31.81000
H  22.94500 50.47400 30.77600
H  21.91700 51.05900 32.62700
H  23.21500 52.11200 33.03100
H  30.59100 48.58600 28.47000
H  30.39500 49.91500 29.63700
H  31.54700 50.02500 28.33000
H  32.05300 48.55500 26.56600
H  32.81000 50.20500 26.48800
H  33.06700 49.05600 25.21800
H  26.73100 50.87600 22.05100
H  25.25500 53.45700 21.94100
H  27.13000 53.55100 21.08800
H  28.41300 52.28300 21.03300
H  28.31500 53.38200 22.36600
H  23.94200 50.77700 22.00000
H  25.01000 51.04300 20.64100
H  23.48400 52.07800 19.42200
H  23.37700 53.37200 20.68600
H  22.36900 51.95100 20.76700
H  19.78800 53.63100 25.65100
H  20.68000 53.55300 24.06800
H  20.44600 55.05300 24.97500
H  21.36100 52.03400 30.08600
H  21.45100 55.84900 32.10300
H  21.70300 54.84700 33.54600
H  20.21800 54.88600 32.84900
Mg 9.35000 47.55500 27.51200
C  7.20700 47.26800 30.25600
C  12.00800 47.95000 29.72000
C  11.30500 48.33900 25.01200
C  6.54700 47.57900 25.50000
N  9.50600 47.78800 29.74700
C  8.49500 47.49200 30.66100
C  9.00300 47.60300 32.17600
C  10.56900 47.86900 31.86500
C  10.76000 47.78100 30.33800
C  11.21500 49.15800 32.50400
C  8.62300 46.48500 33.21900
C  9.40400 46.41900 34.51000
H  8.94900 45.62000 35.67700
N  11.42500 47.89000 27.30100
C  12.31900 48.04600 28.30900
C  13.60000 48.29800 27.72800
C  13.43100 48.28100 26.31100
C  11.99000 48.18500 26.13200
C  14.80000 48.32400 28.50500
C  14.42600 48.27600 25.17800
O  14.10600 48.10400 24.04100
C  15.78900 48.45300 25.50000
N  8.91200 48.03200 25.50200
C  9.93900 48.29000 24.70300
C  9.42400 48.34900 23.24500
C  7.83700 48.04100 23.38500
C  7.74200 47.80600 24.88700
C  9.79200 49.75100 22.55100
C  7.45100 46.79400 22.58000
C  6.02800 46.77700 21.93700
N  7.31700 47.36200 27.69800
C  6.25600 47.48100 26.81500
C  5.00300 47.30800 27.46900
C  5.31600 47.16300 28.81700
C  6.70400 47.30500 28.92700
C  3.71800 47.34300 26.81300
C  4.76600 47.07300 30.15600
O  3.61000 47.02700 30.52100
C  6.00200 46.93400 31.14000
C  6.05500 45.54200 31.78300
O  6.74000 44.61900 31.43600
O  5.22000 45.52800 32.87300
C  5.20700 44.22900 33.62900
H  12.78100 48.14700 30.46500
H  11.92300 48.60000 24.15000
H  5.66500 47.56200 24.85700
H  8.58200 48.50800 32.61400
H  11.03500 46.94000 32.19500
H  12.27500 48.93700 32.62800
H  10.81300 49.36100 33.49700
H  11.06300 50.09900 31.97600
H  8.70100 45.50900 32.74000
H  7.59500 46.66900 33.53000
H  9.60900 47.45200 34.79100
H  10.34100 45.93700 34.22800
H  15.59000 47.61600 28.25700
H  14.78100 48.30600 29.59500
H  15.31600 49.25400 28.26600
H  16.37100 48.23900 24.60400
H  16.07100 47.71500 26.25200
H  15.86500 49.49700 25.80500
H  9.86500 47.55200 22.64600
H  7.12200 48.86300 23.36000
H  10.23000 50.39500 23.31400
H  8.91200 50.18200 22.07300
H  10.52300 49.49700 21.78400
H  7.47000 45.92900 23.24300
H  8.17900 46.52300 21.81500
H  5.29100 46.20400 22.49900
H  6.04100 46.43500 20.90200
H  5.73700 47.81500 21.77600
H  3.32400 48.35900 26.86500
H  3.10900 46.74200 27.48800
H  3.89000 46.90100 25.83200
H  5.82400 47.76000 31.82900
H  6.19900 44.02500 34.03200
H  4.82800 43.35100 33.10600
H  4.64500 44.45400 34.53500

