158

Mg 16.73400 51.60200 26.57600
C  18.63900 50.25000 29.20900
C  14.12700 52.12100 28.94600
C  14.85400 52.89500 24.18300
C  19.02100 50.50800 24.27800
N  16.55700 51.24800 28.83300
C  17.45900 50.81500 29.71700
C  17.02000 51.00400 31.17200
C  15.43200 51.19300 30.92900
C  15.39300 51.59800 29.44000
C  14.45600 50.03900 31.20300
C  17.75700 52.24100 31.73100
C  17.47800 52.74100 33.15100
H  16.76900 51.69800 34.06300
N  14.84800 52.50000 26.59200
C  13.85200 52.51100 27.58100
C  12.69300 53.33500 27.17000
C  12.95900 53.75800 25.82000
C  14.27600 53.06000 25.47100
C  11.56200 53.71100 28.05400
C  12.28900 54.75900 24.83700
O  12.72600 55.00400 23.73200
C  11.00500 55.44300 25.14800
N  16.80500 51.44700 24.45900
C  15.98100 52.21500 23.71300
C  16.46000 52.17000 22.21900
C  17.80900 51.43900 22.25800
C  17.89100 51.11700 23.74100
C  15.48500 51.60100 21.06500
C  18.99200 52.11300 21.54000
C  19.75300 53.21700 22.26400
N  18.46400 50.43800 26.63600
C  19.34900 50.07200 25.55700
C  20.48000 49.46100 26.20400
C  20.22300 49.40800 27.60800
C  19.01800 50.12100 27.83100
C  21.59100 48.86600 25.37000
C  20.71900 48.90000 28.90000
O  21.65300 48.19000 29.18300
C  19.82300 49.55900 29.96900
C  19.29500 48.53900 30.93000
O  18.42100 47.71100 30.55600
O  19.80400 48.76100 32.17900
C  19.14800 48.05100 33.26500
H  13.30100 52.31700 29.63300
H  14.30800 53.26400 23.31300
H  19.83600 50.29600 23.58300
H  17.14700 50.14300 31.82900
H  15.09000 52.02000 31.55000
H  13.52700 50.42000 31.62800
H  14.86900 49.29600 31.88400
H  14.17400 49.40500 30.36300
H  17.37600 53.03100 31.08400
H  18.80000 52.05900 31.47100
H  16.84900 53.62800 33.07900
H  18.41500 53.05200 33.61300
H  11.62300 53.41200 29.10100
H  10.67500 53.31400 27.56100
H  11.35200 54.78000 28.09600
H  10.44900 55.66400 24.23700
H  11.03400 56.33800 25.76900
H  10.45700 54.74400 25.78000
H  16.63700 53.19700 21.89900
H  17.75700 50.46400 21.77400
H  14.67400 51.16200 21.64600
H  15.85500 50.81400 20.40800
H  14.99700 52.38700 20.48800
H  18.55800 52.41900 20.58800
H  19.61100 51.22400 21.41800
H  20.67300 52.67400 22.47800
H  19.20800 53.44000 23.18100
H  19.96200 54.11500 21.68200
H  21.86400 49.31100 24.41200
H  21.20200 47.86800 25.16800
H  22.48900 48.84000 25.98700
H  20.45400 50.26000 30.51500
H  19.25100 46.97100 33.15900
H  18.07700 48.16500 33.09300
H  19.46600 48.46900 34.22000
Mg -12.04600 16.48100 41.16900
C  -8.75700 15.19700 40.61200
C  -10.95400 19.47900 39.74300
C  -15.22300 17.48900 41.10500
C  -13.02400 13.27100 42.17600
N  -10.05500 17.16100 39.96900
C  -8.89900 16.55400 40.09400
C  -7.81100 17.40000 39.27600
C  -8.53300 18.81700 39.20500
C  -9.95400 18.49000 39.63200
C  -7.89200 19.99000 40.02000
C  -7.36100 16.69600 37.95300
C  -5.86700 16.51300 37.78300
H  -5.25000 17.06100 36.51700
N  -12.95000 18.30200 40.58200
C  -12.32000 19.43100 40.11100
C  -13.37100 20.44600 39.93100
C  -14.61700 19.89900 40.41300
C  -14.31300 18.51800 40.69600
C  -13.05400 21.76800 39.34900
C  -15.98100 20.57500 40.53000
O  -15.99600 21.81400 40.36000
C  -17.34400 19.93200 40.76300
N  -13.85500 15.48800 41.61800
C  -14.97800 16.16600 41.60000
C  -16.17200 15.27800 42.03600
C  -15.50100 13.93500 42.39400
C  -14.06100 14.20400 41.99200
C  -17.14200 15.86800 43.10800
C  -16.07900 12.71700 41.54400
C  -16.17900 11.39500 42.34800
N  -11.15600 14.58000 41.41500
C  -11.68600 13.41000 41.87900
C  -10.63800 12.45000 42.02200
C  -9.43500 13.06500 41.59100
C  -9.83600 14.40600 41.22900
C  -10.80800 11.01800 42.57300
C  -7.95900 12.99300 41.30700
O  -7.18700 12.06100 41.62600
C  -7.58300 14.30800 40.57600
C  -6.36300 14.88300 41.13300
O  -6.38800 15.65700 42.08600
O  -5.25400 14.42100 40.43700
C  -4.03600 14.67400 41.19500
H  -10.69200 20.48400 39.40600
H  -16.28000 17.74800 41.20100
H  -13.22600 12.32700 42.68600
H  -6.95300 17.66300 39.89300
H  -8.72000 19.06600 38.16100
H  -6.98700 19.78900 40.59300
H  -8.61600 20.26900 40.78600
H  -7.63800 20.88800 39.45700
H  -7.82700 17.31200 37.18300
H  -7.75400 15.68200 37.88700
H  -5.82800 15.42700 37.86800
H  -5.39400 16.99700 38.63700
H  -13.91900 22.20800 38.85300
H  -12.23800 21.76900 38.62600
H  -12.78200 22.34500 40.23300
H  -18.17900 20.61300 40.59900
H  -17.47400 19.52700 41.76700
H  -17.44700 19.15300 40.00800
H  -16.78300 15.26100 41.13300
H  -15.64000 13.69200 43.44800
H  -18.02000 16.08200 42.49800
H  -16.74600 16.79300 43.52600
H  -17.47500 15.08600 43.79100
H  -15.57100 12.58100 40.59000
H  -17.11700 12.98300 41.34400
H  -15.46000 10.65100 42.00600
H  -17.15700 10.94500 42.17600
H  -15.92400 11.48800 43.40400
H  -11.74700 11.03100 43.12600
H  -9.93500 10.70400 43.14600
H  -10.85600 10.45700 41.64000
H  -7.41000 14.08000 39.52400
H  -4.25000 14.22300 42.16400
H  -3.89100 15.74300 41.35500
H  -3.18600 14.17600 40.72900

