158

Mg 2.65600 -1.53100 44.42400
C  6.00200 -0.83300 43.62800
C  1.64900 0.87900 42.33000
C  -0.52500 -2.55100 44.81400
C  3.76200 -4.70000 45.58700
N  3.72700 -0.09100 43.27400
C  5.09000 0.08300 43.06700
C  5.34100 1.12700 42.06400
C  3.90800 1.72700 41.78600
C  3.00900 0.76700 42.55700
C  3.67700 3.22900 42.16900
C  6.06400 0.54700 40.76000
C  6.92100 1.56800 40.10400
H  6.41900 2.07900 38.77000
N  0.83200 -0.83800 43.75200
C  0.61900 0.20400 42.93500
C  -0.73600 0.50000 42.78900
C  -1.47200 -0.59400 43.36700
C  -0.34700 -1.37500 44.06800
C  -1.15000 1.75700 41.98500
C  -2.93600 -0.75300 43.30700
O  -3.66300 0.10400 42.77200
C  -3.62500 -1.98200 43.87000
N  1.77100 -3.43000 45.04400
C  0.42100 -3.48000 45.22000
C  0.04500 -4.91000 45.79400
C  1.41800 -5.48300 46.23200
C  2.38100 -4.50000 45.61700
C  -1.03900 -5.01400 46.83800
C  1.69900 -6.93100 45.87000
C  2.46900 -7.84700 46.87700
N  4.47500 -2.58700 44.68300
C  4.74700 -3.79900 45.17500
C  6.14900 -3.99900 45.27600
C  6.72700 -2.82200 44.72800
C  5.63800 -2.04100 44.29700
C  6.84000 -5.21900 45.85600
C  7.91900 -2.12900 44.42000
O  9.07100 -2.43800 44.58000
C  7.48300 -0.83600 43.64400
C  8.10100 0.31300 44.37900
O  7.88800 0.56700 45.54500
O  8.66700 1.08000 43.40700
C  9.38300 2.34100 43.69500
H  1.43800 1.59700 41.53500
H  -1.54100 -2.94400 44.88900
H  4.09500 -5.70500 45.85600
H  5.97200 1.91300 42.47800
H  3.64200 1.79900 40.73100
H  4.68100 3.64300 42.26600
H  3.23100 3.35900 43.15500
H  3.10400 3.71800 41.38100
H  5.33300 0.12300 40.07100
H  6.65800 -0.33600 40.99000
H  7.90200 1.09800 40.03900
H  7.06100 2.48700 40.67300
H  -2.16300 2.12400 42.14700
H  -1.14600 1.57700 40.91000
H  -0.38500 2.46800 42.29600
H  -4.67800 -1.87100 43.61000
H  -3.38700 -1.85800 44.92600
H  -3.18800 -2.85900 43.39200
H  -0.16900 -5.63600 45.01000
H  1.49000 -5.25400 47.29600
H  -1.63500 -4.12000 46.65900
H  -0.83500 -5.23100 47.88600
H  -1.63800 -5.86800 46.52200
H  2.18600 -6.91100 44.89500
H  0.82000 -7.48400 45.53900
H  3.47400 -8.06300 46.51300
H  1.89800 -8.76700 46.99800
H  2.75900 -7.44600 47.84800
H  6.20200 -6.10200 45.88800
H  7.15400 -4.91700 46.85500
H  7.71000 -5.45200 45.24200
H  7.91800 -0.76900 42.64700
H  8.71800 3.16900 43.44900
H  10.20200 2.41600 42.97900
H  9.82100 2.36700 44.69300
Mg -10.92100 16.37300 41.90400
C  -7.56700 15.66900 41.72400
C  -10.32000 19.47400 40.64200
C  -14.21800 16.70000 41.70800
C  -11.43600 12.93300 42.80000
N  -9.13100 17.38200 41.14200
C  -7.86500 16.97400 41.21600
C  -6.95400 18.13100 40.73800
C  -7.84200 19.37200 40.61200
C  -9.19900 18.71600 40.86800
C  -7.58400 20.61600 41.56600
C  -6.17500 17.80000 39.36100
C  -4.76900 18.23200 39.21200
H  -4.17600 18.59700 37.86900
N  -12.14500 17.94400 41.20600
C  -11.71700 19.18000 40.71100
C  -12.86200 20.02300 40.44200
C  -14.03700 19.28200 40.85000
C  -13.51500 17.88900 41.23900
C  -12.74400 21.46000 39.91300
C  -15.49300 19.80400 40.83200
O  -15.69400 20.93700 40.38000
C  -16.68100 19.07800 41.20200
N  -12.58400 14.95100 42.04700
C  -13.86500 15.40100 42.04100
C  -14.81800 14.27000 42.43700
C  -13.99600 13.02700 42.34700
C  -12.56600 13.66100 42.51800
C  -15.35100 14.48400 43.87800
C  -14.15900 12.28500 41.01200
C  -15.58200 11.64700 40.68300
N  -9.78300 14.62300 42.24000
C  -10.10900 13.29600 42.54200
C  -8.96000 12.50800 42.71900
C  -7.93100 13.45200 42.43900
C  -8.44500 14.76700 42.27000
C  -8.92900 11.07700 43.20400
C  -6.47500 13.50000 42.37200
O  -5.61500 12.63300 42.52700
C  -6.17700 14.97700 41.91700
C  -5.17500 15.67300 42.87100
O  -5.29700 15.95500 44.06400
O  -4.15300 16.08100 42.06000
C  -2.90300 16.79000 42.58600
H  -9.99100 20.44100 40.25700
H  -15.29300 16.89400 41.70600
H  -11.63300 11.88800 43.04800
H  -6.24300 18.26400 41.55400
H  -7.87200 19.81300 39.61500
H  -7.87400 21.51400 41.02000
H  -6.51800 20.74200 41.75100
H  -8.20800 20.54500 42.45700
H  -6.80800 18.28500 38.61700
H  -6.33800 16.74000 39.16600
H  -4.16200 17.36500 39.47400
H  -4.51100 19.03800 39.89800
H  -13.31000 21.59200 38.99100
H  -11.70100 21.77100 39.95700
H  -13.24500 22.06000 40.67300
H  -17.60600 19.65500 41.23800
H  -16.55000 18.85300 42.26100
H  -16.86900 18.17100 40.62700
H  -15.66700 14.17500 41.76100
H  -14.15300 12.26400 43.10800
H  -16.44000 14.53000 43.84800
H  -14.91100 15.38200 44.31200
H  -15.07700 13.74400 44.63000
H  -13.26500 11.69200 40.81700
H  -13.99100 13.03600 40.24000
H  -15.56800 10.56700 40.83000
H  -15.83900 11.80600 39.63600
H  -16.32900 12.03200 41.37800
H  -7.99000 10.58900 42.94400
H  -9.73300 10.42900 42.85400
H  -8.98500 10.90700 44.27900
H  -5.63700 14.86900 40.97600
H  -3.07100 17.15900 43.59700
H  -2.66800 17.58100 41.87300
H  -2.10800 16.04900 42.50300

