158

Mg 47.57800 15.66300 29.14900
C  45.50300 15.28100 31.85300
C  49.58400 17.68400 31.15900
C  49.61700 16.49200 26.61100
C  45.08800 14.54200 27.04400
N  47.46500 16.45000 31.17300
C  46.63300 15.94700 32.16000
C  46.96400 16.58000 33.52100
C  48.15800 17.54600 33.25700
C  48.44500 17.21200 31.74300
C  47.91300 19.03500 33.49200
C  47.30300 15.53600 34.58300
C  47.27300 15.88400 36.02700
H  46.88200 17.27700 36.43700
N  49.50500 16.63400 28.94300
C  50.07400 17.44400 29.89000
C  51.42500 17.79000 29.44900
C  51.44000 17.42300 28.11600
C  50.10900 16.88600 27.79200
C  52.41900 18.53100 30.32100
C  52.54000 17.62100 27.10000
O  52.48200 17.28400 25.98000
C  53.85300 18.36100 27.58900
N  47.38400 15.68500 27.14800
C  48.37400 16.03000 26.26600
C  47.91400 15.80200 24.80800
C  46.53700 14.96200 24.95100
C  46.27100 15.09500 26.44800
C  47.76400 17.18900 24.13200
C  46.63900 13.45900 24.36800
C  46.82100 12.26600 25.34700
N  45.70500 15.07500 29.34500
C  44.76700 14.57500 28.41300
C  43.51600 14.08800 29.14600
C  43.86800 14.28200 30.48100
C  45.13700 14.91700 30.56900
C  42.22400 13.65800 28.58500
C  43.29500 14.19000 31.77500
O  42.18200 13.76600 32.07200
C  44.30200 14.94200 32.76400
C  43.53100 16.12500 33.27000
O  43.04200 16.99000 32.58600
O  43.31100 16.04400 34.61200
C  42.73400 17.17600 35.33800
H  50.20600 18.33100 31.78100
H  50.23800 16.70100 25.73700
H  44.33500 14.25500 26.30600
H  46.04000 17.04400 33.86600
H  49.06900 17.22800 33.76400
H  46.91100 19.13400 33.91000
H  47.97400 19.51700 32.51700
H  48.69900 19.41200 34.14600
H  48.29800 15.19600 34.29500
H  46.60600 14.72100 34.38800
H  48.24000 15.57600 36.42500
H  46.64600 15.20000 36.59800
H  53.22800 17.82200 30.49800
H  52.16200 18.90300 31.31300
H  52.80800 19.37000 29.74500
H  53.59900 19.40300 27.78600
H  54.58200 18.34300 26.77800
H  54.19900 17.87000 28.49800
H  48.76800 15.17400 24.55500
H  45.68100 15.35900 24.40500
H  46.77800 17.26700 23.67300
H  48.44600 17.13500 23.28300
H  48.02300 18.05000 24.74800
H  47.47900 13.39300 23.67600
H  45.68200 13.29500 23.87100
H  45.86800 11.76100 25.50500
H  47.27300 12.65600 26.25800
H  47.50200 11.53800 24.90500
H  42.34400 13.87100 27.52300
H  41.44800 14.29700 29.00700
H  42.04000 12.59300 28.72600
H  44.52100 14.25500 33.58100
H  43.13100 18.09500 34.90700
H  43.08000 17.17200 36.37200
H  41.65000 17.11400 35.24700
Mg 47.74900 24.55400 29.34900
C  48.54100 27.01600 31.72800
C  46.52100 22.60700 31.87300
C  47.28100 22.03800 27.03600
C  49.63000 26.36000 26.97100
N  47.48400 24.85100 31.48200
C  47.84100 25.98300 32.29700
C  47.28500 25.79300 33.71400
C  46.94800 24.28200 33.77500
C  46.97400 23.87400 32.27900
C  47.72900 23.39400 34.72300
C  46.18100 26.80800 34.13600
C  46.00300 27.17500 35.59200
H  46.82800 26.61400 36.74700
N  46.91800 22.64000 29.46900
C  46.45700 22.05900 30.63400
C  45.84300 20.79000 30.25500
C  46.10600 20.59200 28.83400
C  46.85200 21.78200 28.38600
C  45.25700 19.95600 31.28800
C  45.82400 19.36100 28.03900
O  46.23500 19.17300 26.91300
C  44.96700 18.28500 28.53500
N  48.60400 24.11600 27.31300
C  48.10000 23.09600 26.59000
C  48.60100 23.17800 25.12300
C  49.26700 24.61300 25.08700
C  49.16800 25.06400 26.51700
C  49.58000 21.95900 24.80400
C  48.54100 25.62100 24.04500
C  47.30600 26.25900 24.58600
N  48.85100 26.27400 29.31600
C  49.55100 26.88500 28.26700
C  50.08900 28.23200 28.74100
C  49.66700 28.29600 30.09100
C  48.90200 27.08700 30.36900
C  50.85100 29.23400 27.87100
C  49.65000 29.19700 31.21600
O  49.96100 30.36600 31.32400
C  48.98300 28.33700 32.43000
C  49.97200 28.14600 33.54800
O  51.09300 27.71100 33.26600
O  49.58200 28.80300 34.69000
C  50.62100 29.02900 35.69600
H  45.98100 22.06400 32.65100
H  47.05000 21.21500 26.35700
H  50.00600 27.00400 26.17300
H  48.17100 25.89900 34.34000
H  45.89000 24.17100 34.01000
H  48.19500 22.67100 34.05400
H  47.00600 22.87500 35.35100
H  48.48100 23.87400 35.34900
H  45.26100 26.24800 33.96900
H  46.22200 27.68400 33.48800
H  44.97200 26.91300 35.82600
H  46.05800 28.25500 35.46000
H  44.36000 19.42500 30.96900
H  45.02500 20.41400 32.25000
H  45.97200 19.15600 31.47700
H  44.08600 18.65900 29.05600
H  45.64200 17.65600 29.11600
H  44.71500 17.58800 27.73600
H  47.65000 23.01600 24.61700
H  50.31000 24.57500 24.77300
H  50.56100 22.34100 25.09000
H  49.58200 21.69700 23.74600
H  49.38200 21.08500 25.42400
H  48.32300 25.03600 23.15100
H  49.28700 26.39200 23.85500
H  47.62400 27.22900 24.96700
H  46.91100 25.87600 25.52700
H  46.54100 26.28900 23.81100
H  51.71300 29.40500 28.51600
H  50.21500 30.11900 27.90600
H  51.24900 29.03100 26.87700
H  48.15500 28.90300 32.85600
H  51.61500 28.85700 35.28300
H  50.42400 28.48600 36.62000
H  50.56400 30.06600 36.02700

