158

Mg 8.83700 3.12400 27.05100
C  10.30400 1.67700 30.00700
C  7.02200 5.18500 29.26000
C  7.22200 4.27400 24.32000
C  10.34400 0.66100 25.15800
N  8.49800 3.26000 29.45300
C  9.37700 2.64300 30.38000
C  9.03300 3.29000 31.78300
C  7.90000 4.33600 31.46200
C  7.83100 4.26800 29.96400
C  6.51500 4.39000 32.20500
C  10.39700 3.87000 32.44100
C  10.24600 4.92400 33.49400
H  11.19200 4.78900 34.66300
N  7.33100 4.54100 26.76500
C  6.76600 5.29200 27.81000
C  5.84900 6.18900 27.16800
C  5.93700 6.02300 25.76300
C  6.82300 4.88900 25.53600
C  4.99500 7.22000 27.91400
C  5.43000 6.86200 24.53900
O  5.75900 6.68000 23.35600
C  4.51000 8.03000 24.87000
N  8.89300 2.66900 24.91900
C  8.15600 3.25700 24.05100
C  8.31200 2.60700 22.63500
C  9.38300 1.43400 22.93300
C  9.52500 1.56900 24.42200
C  7.00300 2.02800 22.04500
C  10.79300 1.60400 22.29300
C  11.53200 0.32400 21.85900
N  10.19900 1.63100 27.37800
C  10.74200 0.73700 26.50500
C  11.82700 0.03000 27.16000
C  11.64500 0.32800 28.53800
C  10.63000 1.27000 28.63300
C  12.67300 -1.10400 26.57300
C  12.14600 0.09400 29.92700
O  12.93500 -0.71400 30.22600
C  11.35800 1.00000 30.94600
C  10.89600 0.17100 32.07800
O  10.00400 -0.66400 32.08200
O  11.66300 0.45400 33.19100
C  11.53100 -0.26400 34.40700
H  6.60300 5.99700 29.85800
H  6.75400 4.60600 23.39100
H  10.77800 -0.15900 24.58200
H  8.64500 2.42400 32.31900
H  8.28500 5.33100 31.68200
H  6.25600 3.49300 32.76800
H  5.65900 4.64700 31.58200
H  6.56000 5.13100 33.00300
H  10.81700 4.32000 31.54200
H  10.92000 2.99400 32.82600
H  9.22400 4.88900 33.87000
H  10.32200 5.93300 33.08800
H  5.16900 8.23200 27.54600
H  5.09400 7.25900 28.99900
H  3.99400 6.93800 27.58900
H  5.18700 8.79600 25.24700
H  3.77200 7.78300 25.63400
H  3.91200 8.37500 24.02700
H  8.74200 3.32800 21.94000
H  8.88300 0.50000 22.67700
H  7.00600 0.94600 22.17500
H  6.89000 2.35000 21.01000
H  6.18300 2.50800 22.58000
H  11.44700 2.13100 22.98900
H  10.70700 2.20600 21.38800
H  12.00200 0.66500 20.93600
H  10.76700 -0.44500 21.74600
H  12.28600 0.08500 22.60800
H  12.99000 -0.87100 25.55600
H  12.13200 -2.05000 26.58200
H  13.57300 -1.15500 27.18600
H  12.12100 1.70100 31.28500
H  11.06700 -1.24000 34.26300
H  11.08500 0.19600 35.28900
H  12.56100 -0.43200 34.72200
Mg 1.03900 43.09500 26.32100
C  3.26300 42.78700 29.01000
C  -1.43900 41.83200 28.43900
C  -0.93800 43.25100 23.72500
C  3.81200 43.71400 24.19000
N  0.97200 42.40000 28.51000
C  1.95100 42.57900 29.41800
C  1.39400 42.50000 30.85400
C  -0.10900 41.97100 30.65800
C  -0.23700 42.10400 29.11400
C  -0.46600 40.42300 31.15700
C  1.41900 43.92400 31.53800
C  1.62800 43.77800 33.14300
H  1.23500 42.50200 33.96100
N  -0.87100 42.66900 26.11900
C  -1.77100 42.12900 27.06100
C  -3.05300 41.94200 26.45600
C  -2.96900 42.47600 25.16200
C  -1.58900 42.78000 24.92900
C  -4.19500 41.20500 27.06700
C  -3.95000 42.60100 24.09700
O  -3.69200 43.22100 23.07100
C  -5.31800 42.05600 24.24000
N  1.41200 43.38600 24.21800
C  0.41300 43.54200 23.39500
C  0.83400 43.79600 21.95500
C  2.38700 44.11400 22.12100
C  2.60500 43.68600 23.58300
C  0.50300 42.59300 20.95300
C  2.76600 45.60200 21.79200
C  1.81200 46.69800 22.15100
N  3.11300 43.25700 26.49900
C  4.08500 43.54300 25.57200
C  5.41500 43.46600 26.14100
C  5.12500 43.19000 27.50500
C  3.73000 43.05700 27.64700
C  6.72900 43.79300 25.52500
C  5.70500 42.98400 28.86500
O  6.88200 42.97500 29.13700
C  4.50500 42.86300 29.92100
C  4.76500 41.67600 30.78300
O  4.80200 40.47400 30.46500
O  4.93300 42.24400 32.07200
C  5.09400 41.31100 33.19200
H  -2.28700 41.67400 29.10900
H  -1.50900 43.23400 22.79400
H  4.69500 44.05800 23.64800
H  2.01200 41.79000 31.40400
H  -0.94600 42.49900 31.11400
H  -1.30300 40.54800 31.84400
H  0.39000 39.94100 31.63000
H  -0.73300 39.86800 30.25800
H  0.54100 44.53900 31.34000
H  2.28700 44.42500 31.10800
H  0.98100 44.57500 33.51100
H  2.68600 43.97700 33.31200
H  -5.01700 41.92000 27.05700
H  -4.07900 40.91500 28.11100
H  -4.36100 40.27700 26.52100
H  -5.83800 42.38900 25.13800
H  -5.30100 40.97400 24.10500
H  -6.05200 42.44200 23.53300
H  0.22200 44.66200 21.70400
H  2.96800 43.40900 21.52600
H  0.00100 41.72600 21.38200
H  1.33600 42.35300 20.29300
H  -0.24800 43.05400 20.31000
H  2.87400 45.64500 20.70800
H  3.75000 45.85900 22.18600
H  0.80800 46.39700 22.44900
H  1.65500 47.35800 21.29800
H  2.24200 47.22400 23.00300
H  7.59500 43.47400 26.10500
H  6.92000 44.85300 25.36000
H  6.78700 43.25800 24.57700
H  4.53900 43.79400 30.48900
H  4.94500 41.90000 34.09700
H  6.08100 40.86100 33.29600
H  4.35100 40.51700 33.25800

