158

Mg 44.01700 4.00200 47.49500
C  41.77600 6.75700 47.14000
C  41.25400 1.89600 46.80400
C  46.09000 1.48600 47.21600
C  46.62800 6.37300 47.73600
N  41.81400 4.25400 47.04400
C  41.12000 5.46800 46.97600
C  39.61600 5.14100 46.73500
C  39.53600 3.65000 46.92300
C  40.95900 3.21800 46.84700
C  38.75900 3.19200 48.22500
C  39.23600 5.51800 45.26600
C  37.75000 5.99000 45.11100
H  37.22200 5.93900 43.68600
N  43.77200 1.96900 47.13700
C  42.52700 1.27600 46.91300
C  42.71700 -0.10400 46.70000
C  44.19300 -0.21800 46.78500
C  44.76900 1.08000 47.10900
C  41.63500 -1.11700 46.38700
C  44.84300 -1.54100 46.54500
O  44.16100 -2.56100 46.30400
C  46.22500 -1.65900 46.66900
N  46.08700 3.93600 47.28100
C  46.72200 2.76100 47.39200
C  48.25700 2.95200 47.32300
C  48.39700 4.55700 47.59300
C  46.93700 5.00100 47.52900
C  49.11000 2.12300 48.28800
C  49.41800 5.20700 46.64100
C  50.36000 6.20900 47.36500
N  44.25400 6.11700 47.44300
C  45.33000 6.89300 47.64900
C  44.95900 8.29000 47.66800
C  43.58200 8.23400 47.48700
C  43.19100 6.92000 47.44000
C  45.81900 9.45000 47.83700
C  42.38400 9.09000 47.39500
O  42.31700 10.31800 47.60900
C  41.14600 8.13200 47.07200
C  40.19100 8.18600 48.19900
O  40.39300 7.69100 49.32800
O  39.11100 8.89900 47.72000
C  37.96300 9.02800 48.62300
H  40.38300 1.23900 46.76300
H  46.76300 0.62900 47.28300
H  47.46300 7.07100 47.82300
H  39.08800 5.74200 47.47400
H  39.17300 3.06600 46.07700
H  38.55300 4.07500 48.82900
H  39.30700 2.46200 48.82200
H  37.73500 2.83800 48.10600
H  39.27000 4.62400 44.64400
H  39.86700 6.30900 44.86100
H  37.63500 7.05500 45.30900
H  37.03900 5.51400 45.78600
H  40.68100 -0.90000 46.86900
H  41.83600 -2.16500 46.60700
H  41.59700 -0.90500 45.31800
H  46.40000 -1.25500 47.66700
H  46.76200 -1.15700 45.86400
H  46.49700 -2.71400 46.68600
H  48.44700 2.70000 46.28000
H  48.65500 4.58300 48.65200
H  48.45700 1.40900 48.79200
H  49.68600 2.75200 48.96600
H  49.90400 1.56800 47.79000
H  48.88900 5.68300 45.81500
H  50.14500 4.50400 46.23500
H  50.07200 7.25600 47.27800
H  51.37200 6.18700 46.96000
H  50.50600 5.98600 48.42200
H  46.47000 9.57300 46.97200
H  46.32700 9.51300 48.79900
H  45.22400 10.36200 47.88100
H  40.70800 8.37600 46.10400
H  37.12800 8.58500 48.08200
H  37.72000 10.08400 48.73700
H  38.05300 8.54600 49.59700
Mg 49.39000 44.55500 42.95700
C  45.99100 45.16300 42.40000
C  48.72900 41.21600 42.29500
C  52.70900 43.97300 42.77200
C  49.94100 47.94500 43.04400
N  47.59300 43.34200 42.29500
C  46.32800 43.80100 42.06600
C  45.44700 42.62400 41.58700
C  46.28000 41.38000 42.16000
C  47.64600 42.04500 42.15100
C  45.86500 40.88500 43.58900
C  45.28800 42.55000 40.03400
C  43.85400 42.27900 39.51100
H  43.44000 42.91700 38.28700
N  50.56800 42.81500 42.73400
C  50.12900 41.52900 42.50700
C  51.19000 40.68800 42.50200
C  52.36200 41.38400 42.72200
C  51.93200 42.74800 42.81600
C  51.03300 39.23500 42.27900
C  53.77100 40.83500 42.66900
O  53.95800 39.64100 42.37000
C  54.97500 41.68600 42.90900
N  51.09400 45.73900 42.75200
C  52.33800 45.28100 42.81800
C  53.37700 46.49200 42.93600
C  52.47300 47.74000 43.03100
C  51.07100 47.13700 42.80800
C  54.34500 46.37700 44.13600
C  52.74900 48.88200 42.09800
C  52.75500 50.34100 42.78800
N  48.23200 46.27800 42.93200
C  48.57200 47.56200 43.00600
C  47.34000 48.33600 43.14700
C  46.27900 47.44900 42.95200
C  46.91200 46.20300 42.76400
C  47.26600 49.89000 43.29000
C  44.91500 47.35600 42.80500
O  44.09900 48.21200 42.97600
C  44.62900 45.81400 42.48900
C  43.88600 45.06800 43.50000
O  44.27800 44.63700 44.54900
O  42.62800 44.67700 43.01500
C  41.70300 43.98700 43.92300
H  48.53200 40.18400 42.00100
H  53.79900 44.01200 42.84000
H  50.13400 48.98200 43.32800
H  44.49500 42.66500 42.11500
H  46.30100 40.50200 41.51500
H  44.77800 40.86200 43.66300
H  46.26400 41.60300 44.30500
H  46.20300 39.87100 43.80500
H  46.03300 41.86400 39.63000
H  45.54500 43.55400 39.69700
H  43.16800 42.55600 40.31100
H  43.86600 41.19500 39.39800
H  51.70300 38.58500 42.84100
H  51.19500 39.04000 41.21900
H  50.02000 38.87200 42.45300
H  55.19400 42.22000 41.98500
H  55.76600 40.93600 42.91700
H  54.83000 42.24500 43.83400
H  53.95700 46.54600 42.01500
H  52.44800 48.14500 44.04300
H  54.18700 47.12600 44.91200
H  55.31300 46.60200 43.68900
H  54.28400 45.37100 44.55000
H  51.96100 48.87700 41.34500
H  53.71600 48.78900 41.60400
H  53.72500 50.82600 42.89800
H  52.26800 50.25700 43.76000
H  52.11000 51.03800 42.25200
H  48.24100 50.33200 43.49300
H  46.61300 50.17100 44.11700
H  46.76700 50.31300 42.41700
H  44.18200 45.65700 41.50700
H  41.86800 44.38100 44.92600
H  41.98200 42.93400 43.88900
H  40.65700 44.14000 43.66000

