158

Mg 10.76500 47.46900 25.58700
C  8.06400 48.04200 27.97800
C  12.91800 48.64700 27.95700
C  12.96200 47.30800 23.31300
C  8.15800 47.12500 23.02100
N  10.44600 48.27600 27.75300
C  9.34500 48.25800 28.51800
C  9.70900 48.34500 29.98600
C  11.14100 49.05400 29.87300
C  11.56900 48.62500 28.44500
C  11.06400 50.59200 29.95200
C  9.78700 46.97800 30.74100
C  10.17300 47.23800 32.24400
H  9.33600 46.44200 33.34400
N  12.70200 47.85600 25.66000
C  13.46300 48.29600 26.70700
C  14.80500 48.44000 26.27200
C  14.89100 48.06700 24.93200
C  13.50200 47.73200 24.54100
C  15.84200 49.02600 27.11400
C  16.01200 47.97600 23.99800
O  15.88900 47.86300 22.79100
C  17.37500 48.01200 24.48600
N  10.50800 47.31700 23.45800
C  11.64900 47.21600 22.81700
C  11.43000 46.60300 21.41400
C  9.93900 46.64500 21.19000
C  9.50400 46.90400 22.67000
C  12.31400 47.26100 20.31700
C  9.29100 45.36100 20.59700
C  9.07500 45.38500 19.05500
N  8.53000 47.50000 25.50900
C  7.66500 47.36700 24.37500
C  6.29600 47.45400 24.91300
C  6.41400 47.69900 26.28000
C  7.76800 47.78300 26.58700
C  5.14500 47.19300 24.08400
C  5.65900 47.87200 27.44000
O  4.48200 48.02000 27.58300
C  6.69300 48.10000 28.61300
C  6.41400 46.98900 29.58100
O  6.75000 45.75100 29.50000
O  5.52600 47.44800 30.51300
C  5.05300 46.59800 31.61200
H  13.66900 48.96900 28.68100
H  13.68800 46.76600 22.70300
H  7.32500 47.15300 22.31600
H  9.01500 49.04600 30.44800
H  11.83700 48.60200 30.57900
H  10.04300 50.94400 30.09900
H  11.38300 51.11600 29.05100
H  11.70100 50.93200 30.76800
H  10.56400 46.35300 30.30000
H  8.80000 46.51900 30.68200
H  10.30400 48.28200 32.52800
H  11.17200 46.83700 32.41900
H  16.63300 48.31800 27.36100
H  15.48700 49.34200 28.09500
H  16.16500 49.94300 26.62200
H  17.56000 47.33900 25.32400
H  17.73700 48.99900 24.77300
H  17.95900 47.69600 23.62200
H  11.73800 45.55800 21.45400
H  9.52200 47.57400 20.80300
H  12.68900 48.20200 20.72000
H  11.62900 47.43500 19.48700
H  13.07600 46.56200 19.97300
H  8.35000 45.16900 21.11300
H  9.95200 44.51200 20.77100
H  9.60600 46.22300 18.60300
H  7.99500 45.50900 18.98200
H  9.34100 44.41200 18.64200
H  5.03100 47.89500 23.25700
H  4.20000 47.25300 24.62200
H  5.26500 46.18600 23.68400
H  6.46500 49.07600 29.04200
H  5.11700 45.53100 31.39700
H  3.99400 46.81400 31.75700
H  5.55100 46.77000 32.56600
Mg -12.31600 16.64600 41.01700
C  -9.65600 14.41600 40.83700
C  -10.55000 19.04500 39.19500
C  -15.10300 18.39700 40.75900
C  -14.12900 13.87200 42.46900
N  -10.34900 16.69200 40.06000
C  -9.39800 15.70000 40.17900
C  -8.08500 16.13700 39.59500
C  -8.35800 17.71300 39.35400
C  -9.85600 17.87600 39.47000
C  -7.60900 18.69900 40.17900
C  -7.65300 15.42600 38.25700
C  -6.10300 15.36200 37.96400
H  -5.61000 16.13900 36.73300
N  -12.79000 18.51700 40.14800
C  -11.88600 19.35000 39.45900
C  -12.67900 20.42600 38.92400
C  -13.97400 20.31200 39.48100
C  -14.03700 19.00900 40.08900
C  -12.26200 21.41800 37.97100
C  -15.03500 21.56500 39.45200
O  -14.66100 22.63400 39.01600
C  -16.48100 21.45000 39.98900
N  -14.23400 16.18800 41.57500
C  -15.24100 17.12100 41.37500
C  -16.57000 16.73000 42.14200
C  -16.20400 15.36400 42.79300
C  -14.80200 15.05200 42.23100
C  -16.99800 17.78600 43.17700
C  -17.22000 14.27700 42.45000
C  -17.77600 13.57800 43.77800
N  -11.97600 14.57600 41.58400
C  -12.82600 13.59800 42.07700
C  -12.06700 12.44600 42.46900
C  -10.77400 12.70900 42.04500
C  -10.82300 14.01800 41.42600
C  -12.57900 11.16700 43.15000
C  -9.40200 12.25500 41.83100
O  -8.90800 11.18700 42.21300
C  -8.64000 13.33200 41.02700
C  -7.41300 13.87200 41.80400
O  -7.57900 14.57000 42.80700
O  -6.22600 13.58400 41.15900
C  -4.99600 14.22200 41.68000
H  -9.98900 19.71000 38.53500
H  -16.04700 18.94100 40.68300
H  -14.74700 13.15100 43.00800
H  -7.24800 16.15300 40.29200
H  -8.12600 17.96900 38.32100
H  -7.46400 19.63300 39.63500
H  -6.64300 18.24500 40.40100
H  -8.14700 18.87100 41.11100
H  -8.19000 15.82800 37.39700
H  -8.03800 14.41400 38.38400
H  -5.69900 14.34900 37.97900
H  -5.63600 15.87900 38.80200
H  -12.82500 21.41100 37.03800
H  -11.17600 21.39400 37.87700
H  -12.23400 22.37800 38.48500
H  -17.06900 20.62300 39.59200
H  -17.08900 22.34300 39.84700
H  -16.43000 21.31200 41.06900
H  -17.43300 16.71800 41.47500
H  -16.21400 15.50300 43.87400
H  -17.66400 18.52100 42.72400
H  -16.15700 18.43700 43.41500
H  -17.51200 17.45100 44.07800
H  -16.74000 13.53500 41.81200
H  -18.04200 14.76900 41.92900
H  -18.61200 14.15500 44.17200
H  -17.08000 13.47100 44.61000
H  -18.00100 12.54500 43.51200
H  -12.80500 10.48100 42.33300
H  -13.49500 11.34600 43.71300
H  -11.81100 10.73600 43.79300
H  -8.35200 13.08000 40.00700
H  -4.11000 13.62600 41.46300
H  -4.92400 14.29100 42.76500
H  -4.68900 15.17600 41.25100

