158

Mg 43.09900 3.70700 47.76100
C  41.50900 6.73700 47.04700
C  40.18000 2.08400 47.03200
C  44.81900 0.79000 47.72200
C  46.24100 5.40100 47.47700
N  41.03000 4.37800 47.16000
C  40.59000 5.74300 47.07100
C  39.08900 5.67400 46.53800
C  38.71600 4.25000 46.79500
C  40.02800 3.49000 47.02500
C  37.66100 4.18400 47.99500
C  39.01400 6.17100 45.04100
C  37.53200 6.45900 44.62700
H  37.24700 6.11200 43.15000
N  42.58300 1.72700 47.51000
C  41.30300 1.26200 47.23300
C  41.39800 -0.18300 47.07700
C  42.70200 -0.55100 47.45100
C  43.45400 0.72200 47.52800
C  40.11500 -0.93700 46.78100
C  43.15100 -1.98000 47.66200
O  42.35100 -2.89800 47.40900
C  44.53600 -2.41400 48.05200
N  45.26400 3.25100 47.35700
C  45.63700 1.94400 47.65400
C  47.16800 1.77200 47.71400
C  47.63000 3.25100 47.82300
C  46.34200 4.01500 47.52200
C  47.59300 0.93300 48.94500
C  48.70200 3.58700 46.70000
C  49.68500 4.64400 47.08800
N  43.76500 5.69000 47.44100
C  45.06400 6.15000 47.34200
C  44.90600 7.59700 47.33100
C  43.55500 7.89600 47.20600
C  42.90500 6.69400 47.23100
C  46.06300 8.53500 47.43000
C  42.64000 8.97500 47.12200
O  42.87200 10.17700 47.04200
C  41.22800 8.24800 46.94100
C  40.32000 8.77600 47.97200
O  40.13800 8.35900 49.06400
O  39.63200 9.89700 47.39800
C  38.66400 10.47900 48.24300
H  39.21700 1.60700 46.83900
H  45.40100 -0.13100 47.78700
H  47.10800 6.02600 47.70000
H  38.47900 6.34400 47.14500
H  38.32500 3.74200 45.91400
H  36.62200 4.12100 47.67200
H  37.72800 5.07700 48.61700
H  37.85900 3.34300 48.66100
H  39.44800 5.47200 44.32700
H  39.55800 7.11500 45.00400
H  37.42700 7.53600 44.76000
H  36.87000 5.91400 45.30000
H  40.07500 -1.07900 45.70100
H  39.19400 -0.44100 47.09000
H  40.16800 -1.90100 47.28600
H  45.09600 -2.31700 47.12300
H  44.44600 -3.47100 48.30200
H  45.00300 -1.88400 48.88200
H  47.57200 1.29800 46.81900
H  47.85700 3.51100 48.85700
H  48.19300 1.61700 49.54400
H  48.23900 0.09800 48.67400
H  46.67200 0.63900 49.45000
H  48.26800 3.81900 45.72700
H  49.12700 2.59200 46.57000
H  50.71800 4.31700 46.97500
H  49.30300 4.97300 48.05500
H  49.71400 5.46500 46.37200
H  45.74200 9.55700 47.63100
H  46.58400 8.63400 46.47800
H  46.70000 8.18200 48.24100
H  40.94000 8.48300 45.91600
H  37.74500 9.89300 48.21200
H  38.31300 11.34200 47.67700
H  38.92800 10.88200 49.22100
Mg -12.06200 15.74600 42.47800
C  -8.55600 16.57300 42.78300
C  -12.52600 19.23100 41.95300
C  -15.07400 15.04200 41.70100
C  -11.08700 12.32200 42.96600
N  -10.58500 17.62600 42.19600
C  -9.25400 17.67900 42.36100
C  -8.73800 19.11900 42.22400
C  -10.04200 19.96100 42.54100
C  -11.16000 18.87900 42.15100
C  -10.05400 20.38900 44.02500
C  -8.07900 19.45800 40.83400
C  -6.56400 19.84900 40.85800
H  -5.78300 18.85700 39.97900
N  -13.60700 16.96900 41.92500
C  -13.61000 18.36000 41.81500
C  -14.92600 18.73900 41.46700
C  -15.74300 17.57000 41.48000
C  -14.83400 16.44700 41.74600
C  -15.25800 20.14100 41.02500
C  -17.22400 17.52600 41.22300
O  -17.85400 18.48800 40.84200
C  -18.06700 16.26900 41.36400
N  -12.86100 13.96400 42.33600
C  -14.21800 13.94000 42.13100
C  -14.69700 12.44700 41.97300
C  -13.41200 11.62100 42.26900
C  -12.38100 12.70300 42.55400
C  -15.98300 12.08600 42.87500
C  -13.03600 10.61100 41.10100
C  -12.87900 9.08100 41.48700
N  -10.18600 14.66500 42.73500
C  -10.01700 13.26000 43.02300
C  -8.63900 12.99000 43.08100
C  -8.03600 14.26300 43.04200
C  -9.00900 15.23800 42.91200
C  -7.94800 11.68100 43.14400
C  -6.73900 14.93500 43.14100
O  -5.59600 14.48500 43.28700
C  -7.05700 16.47600 42.96400
C  -6.71900 17.15500 44.19800
O  -7.22500 16.96700 45.26700
O  -5.64800 17.99900 43.98500
C  -5.06800 18.59400 45.17200
H  -12.72000 20.30500 41.98600
H  -16.10500 14.70500 41.57400
H  -10.75700 11.28600 43.06500
H  -7.99400 19.37600 42.97800
H  -10.04500 20.86600 41.93300
H  -9.49000 19.66300 44.61000
H  -11.08600 20.31100 44.36700
H  -9.72000 21.42000 44.13800
H  -8.60100 20.29800 40.37600
H  -8.16000 18.51500 40.29300
H  -6.17700 19.72000 41.86900
H  -6.38000 20.84100 40.44700
H  -15.39100 20.20500 39.94500
H  -14.59100 20.95400 41.31300
H  -16.22700 20.39800 41.45300
H  -19.11300 16.57500 41.38600
H  -17.79200 15.83500 42.32500
H  -17.92300 15.62400 40.49700
H  -15.09300 12.34400 40.96300
H  -13.38600 11.10900 43.23100
H  -16.84400 11.79600 42.27300
H  -16.28900 12.91200 43.51700
H  -15.82900 11.28800 43.60200
H  -12.13000 10.83500 40.53700
H  -13.86400 10.56700 40.39300
H  -13.38500 8.46100 40.74700
H  -13.38600 8.91000 42.43600
H  -11.87900 8.74200 41.75900
H  -7.27300 11.34700 42.35700
H  -8.64100 10.85300 43.28900
H  -7.37900 11.65600 44.07400
H  -6.44500 16.84800 42.14200
H  -5.06800 17.80900 45.92800
H  -5.66400 19.46000 45.46000
H  -4.04200 18.90400 44.97800

