158

Mg 1.24500 8.01300 27.41200
C  1.59200 10.42200 29.86800
C  1.11100 5.63500 29.91700
C  0.95300 5.80000 24.99400
C  1.22600 10.65200 25.02900
N  1.15200 8.04100 29.70600
C  1.33600 9.15400 30.47800
C  1.20500 8.76600 31.97400
C  1.45300 7.19300 31.91900
C  1.18900 6.89900 30.42100
C  2.82300 6.65400 32.39400
C  -0.22600 9.07700 32.52400
C  -0.62200 8.66400 33.93000
H  0.51300 8.34200 34.86300
N  1.13000 5.94100 27.41200
C  1.09700 5.11100 28.57200
C  0.98700 3.78300 28.12600
C  0.87000 3.80300 26.71500
C  1.01100 5.25400 26.27400
C  0.77700 2.55700 29.01200
C  0.54500 2.71900 25.71000
O  0.38300 2.97800 24.52100
C  0.28300 1.32400 26.11100
N  1.14200 8.23200 25.38700
C  0.98000 7.13600 24.57300
C  0.79200 7.47300 23.04300
C  0.51600 9.02200 23.15000
C  0.87700 9.35700 24.65200
C  2.08500 7.01500 22.19200
C  -0.89000 9.44600 22.75700
C  -1.08300 10.00600 21.33700
N  1.40900 10.16000 27.37400
C  1.47700 11.08400 26.37000
C  1.72600 12.45000 26.89900
C  1.69400 12.24100 28.29700
C  1.57600 10.81300 28.50200
C  1.91000 13.79600 26.10500
C  1.90400 12.86100 29.55100
O  2.23700 14.02900 29.74200
C  1.69100 11.71800 30.66500
C  2.63600 11.74100 31.71800
O  3.83800 11.49900 31.65300
O  2.09300 12.23700 32.91600
C  2.96900 12.32000 34.05100
H  1.04600 4.86000 30.68300
H  0.73300 5.09500 24.19000
H  1.21500 11.49300 24.33300
H  2.00400 9.23800 32.54600
H  0.68300 6.79300 32.57900
H  3.12900 5.93300 31.63600
H  2.74700 6.12500 33.34400
H  3.56700 7.44700 32.47500
H  -0.99600 8.77200 31.81500
H  -0.30000 10.15700 32.39800
H  -1.30100 7.81100 33.90300
H  -1.15700 9.51400 34.35300
H  1.38700 1.71500 28.68600
H  -0.26200 2.22600 29.01300
H  1.00100 2.77700 30.05600
H  1.14400 0.92600 26.64800
H  0.31100 0.66200 25.24600
H  -0.52800 1.15800 26.82100
H  -0.07400 6.88800 22.73500
H  1.10500 9.64800 22.48000
H  1.62900 6.19200 21.64200
H  2.88600 6.64700 22.83400
H  2.38800 7.82400 21.52700
H  -1.14600 10.31100 23.36900
H  -1.53600 8.57700 22.88100
H  -0.37200 10.79700 21.09700
H  -2.05700 10.49600 21.33200
H  -0.95900 9.22100 20.59200
H  1.81600 13.69700 25.02400
H  2.92700 14.09800 26.35400
H  1.22500 14.60800 26.35100
H  0.73800 11.85700 31.17700
H  2.35000 12.26100 34.94600
H  3.46000 13.28900 34.15100
H  3.73900 11.56100 34.18600
Mg 41.00100 8.57200 30.34600
C  42.81900 9.75300 33.02100
C  38.48400 7.71500 32.53200
C  39.30900 7.52600 27.65400
C  43.56900 9.54000 28.19900
N  40.74800 8.53200 32.57200
C  41.60800 9.26600 33.42000
C  40.97700 9.42200 34.80800
C  39.74400 8.40700 34.73100
C  39.64000 8.16600 33.19100
C  39.75300 7.09800 35.57600
C  40.50200 10.82200 35.19900
C  40.04400 11.02400 36.66100
H  40.60200 12.16100 37.51600
N  39.20000 7.67800 30.13200
C  38.27800 7.40800 31.15500
C  37.10300 6.74200 30.55100
C  37.22700 6.84400 29.18800
C  38.60100 7.38100 28.91400
C  35.88000 6.28300 31.32700
C  36.22400 6.51300 28.08100
O  36.49300 6.76600 26.90500
C  34.90500 5.90200 28.32800
N  41.46400 8.31900 28.20700
C  40.56000 7.92000 27.33500
C  41.13200 7.94900 25.92700
C  42.38400 8.90400 26.07200
C  42.45200 8.97900 27.57000
C  41.53600 6.55400 25.33600
C  42.36700 10.24600 25.37300
C  41.87400 11.53700 26.04400
N  42.86000 9.42100 30.52300
C  43.82700 9.72400 29.59100
C  44.88600 10.47200 30.21200
C  44.54200 10.54600 31.55500
C  43.29900 9.84100 31.74400
C  46.07400 11.00800 29.53500
C  44.95400 11.03200 32.81600
O  45.93300 11.71800 33.20500
C  43.87000 10.52000 33.82200
C  44.60200 9.90200 34.93000
O  45.05400 8.76100 34.91300
O  44.82100 10.77200 35.97200
C  45.68200 10.31900 37.06700
H  37.66000 7.44600 33.19800
H  38.80700 7.25000 26.72500
H  44.35900 10.08100 27.67300
H  41.67100 9.01500 35.54400
H  38.83800 8.93200 35.03300
H  40.06500 6.38400 34.81400
H  38.80900 6.79000 36.02600
H  40.50300 7.10600 36.36700
H  39.67700 11.06100 34.52800
H  41.27100 11.57100 35.01400
H  40.27200 10.13500 37.25000
H  38.97900 11.20900 36.52100
H  36.15700 6.09400 32.36400
H  35.47100 5.35400 30.92900
H  35.09300 7.03400 31.39600
H  35.01600 4.91400 28.77500
H  34.41100 5.80900 27.36000
H  34.23200 6.41300 29.01600
H  40.53500 8.35300 25.10900
H  43.37800 8.54100 25.80800
H  42.61500 6.47800 25.47000
H  41.24900 6.40900 24.29500
H  41.10600 5.71200 25.87800
H  41.77900 10.12800 24.46300
H  43.37100 10.41600 24.98700
H  42.73600 12.19800 25.95500
H  41.43600 11.48000 27.04100
H  41.02600 11.91900 25.47600
H  45.83500 11.54100 28.61400
H  46.65800 10.16600 29.16300
H  46.76000 11.58600 30.15400
H  43.49600 11.51900 34.04400
H  45.00400 9.79800 37.74200
H  46.03500 11.20000 37.60300
H  46.51100 9.65700 36.81600

