158

Mg 25.45500 0.97300 29.79300
C  27.67300 0.48300 32.43600
C  23.01400 1.70100 32.05600
C  23.09800 1.14000 27.23000
C  27.74100 -0.21700 27.58700
N  25.45800 1.14300 31.95700
C  26.45200 0.83900 32.82600
C  26.01500 1.08100 34.25800
C  24.50100 1.12800 34.16300
C  24.31200 1.41400 32.60500
C  23.58000 -0.02100 34.63600
C  26.75500 2.27000 34.93400
C  26.85700 2.23400 36.45300
H  26.31000 3.32500 37.34000
N  23.36000 1.36900 29.65700
C  22.52600 1.64200 30.69600
C  21.24700 1.91500 30.24500
C  21.21700 1.67100 28.86200
C  22.59300 1.37200 28.53800
C  19.97400 2.14400 31.11000
C  20.11100 1.60900 27.96100
O  20.20600 1.22300 26.80800
C  18.69200 2.14700 28.34300
N  25.51400 0.84000 27.67900
C  24.40100 0.89000 26.83000
C  24.76000 0.34300 25.38700
C  26.33500 0.13400 25.48200
C  26.51600 0.23500 27.00900
C  23.91700 -0.87100 24.80700
C  27.32400 1.05800 24.74000
C  27.51200 2.46000 25.29000
N  27.41800 0.47100 29.93500
C  28.19500 -0.07400 28.92300
C  29.53400 -0.36200 29.46800
C  29.36700 -0.17800 30.84700
C  28.02900 0.29500 31.06800
C  30.69000 -0.90000 28.72100
C  30.01100 -0.23900 32.10900
O  31.11600 -0.66000 32.28500
C  29.01500 0.27000 33.18900
C  28.89800 -0.72100 34.28800
O  28.55300 -1.89600 34.14200
O  29.26100 -0.14700 35.46000
C  29.40900 -1.05800 36.61300
H  22.21100 1.94200 32.75600
H  22.44000 1.13100 26.35800
H  28.50200 -0.57300 26.88900
H  26.23500 0.16200 34.80200
H  24.23800 2.02600 34.72100
H  22.65200 -0.14500 34.07700
H  23.44100 0.14000 35.70500
H  24.21000 -0.91000 34.66000
H  26.22200 3.17500 34.64300
H  27.79800 2.33500 34.62200
H  27.91600 2.29600 36.70200
H  26.51500 1.27400 36.84100
H  20.17700 2.15300 32.18100
H  19.25200 1.34300 30.95400
H  19.50300 3.10900 30.92100
H  18.28300 1.40300 29.02600
H  18.04500 2.18700 27.46700
H  18.82700 3.13800 28.77500
H  24.61700 1.26500 24.82300
H  26.59900 -0.85200 25.09900
H  23.51900 -0.45900 23.88000
H  23.12000 -1.25700 25.44300
H  24.50800 -1.75000 24.55100
H  26.96500 1.14700 23.71400
H  28.33000 0.73600 24.47200
H  28.52600 2.56200 25.67500
H  26.90400 2.74800 26.14700
H  27.58000 3.28300 24.57800
H  31.49300 -1.03200 29.44700
H  30.96800 -0.37100 27.81000
H  30.35800 -1.86300 28.33500
H  29.40800 1.19600 33.60800
H  29.19400 -2.11500 36.46000
H  28.79500 -0.63000 37.40600
H  30.40800 -0.87200 37.00800
Mg 48.77000 35.61800 28.36200
C  46.48900 34.08900 30.71100
C  48.84400 38.31900 30.48500
C  50.34900 37.36300 25.97300
C  48.37400 32.99800 26.33500
N  47.77800 36.08100 30.36800
C  46.99300 35.36300 31.18500
C  46.63800 36.06000 32.49300
C  47.24500 37.47900 32.32400
C  47.99900 37.29400 30.96100
C  46.22000 38.63800 32.30600
C  47.18200 35.41400 33.78100
C  48.59400 34.81500 33.70500
H  49.79300 35.70100 34.11200
N  49.43900 37.55900 28.28400
C  49.47800 38.51400 29.26700
C  50.17800 39.70700 28.84700
C  50.53400 39.44000 27.48800
C  50.10800 38.06700 27.18900
C  50.38300 40.92900 29.67200
C  51.34100 40.28000 26.58300
O  51.69800 39.97900 25.42600
C  51.91900 41.62200 27.05300
N  49.23000 35.31700 26.40800
C  49.92700 36.13300 25.58600
C  50.38500 35.37200 24.37700
C  49.97800 33.90100 24.61800
C  49.15400 34.04400 25.88700
C  49.91100 35.87600 23.05400
C  51.23500 33.00400 24.76500
C  51.67000 32.17000 23.57700
N  47.75000 33.80100 28.49100
C  47.61400 32.84300 27.52700
C  46.74200 31.78400 28.00500
C  46.23400 32.25000 29.23800
C  46.94000 33.42200 29.53000
C  46.49300 30.51800 27.31800
C  45.26700 31.99800 30.26200
O  44.40400 31.10400 30.35600
C  45.40800 33.19500 31.26000
C  45.71000 32.66100 32.61600
O  46.77500 32.17500 32.92500
O  44.65100 32.88000 33.40700
C  44.83500 32.68000 34.81400
H  49.04500 39.19000 31.11400
H  51.01500 37.77600 25.21200
H  48.35200 32.11100 25.69900
H  45.55200 36.03800 32.58100
H  48.05700 37.67700 33.02300
H  45.83600 38.79500 31.29800
H  46.67100 39.53400 32.73500
H  45.36500 38.17500 32.79700
H  46.52500 34.57100 33.99400
H  47.20500 36.15200 34.58300
H  48.72000 34.41400 32.70000
H  48.70600 33.96000 34.37200
H  50.22900 41.83000 29.07900
H  51.32600 40.90200 30.21900
H  49.56300 40.99900 30.38700
H  51.21100 42.44700 26.97400
H  52.73200 41.75800 26.34000
H  52.41200 41.42000 28.00400
H  51.46700 35.48400 24.43700
H  49.30300 33.40400 23.92100
H  50.79200 36.26900 22.54700
H  49.11900 36.60800 23.21100
H  49.58800 35.11500 22.34400
H  51.11300 32.39300 25.66000
H  52.12400 33.59200 24.99300
H  52.54200 32.63500 23.11900
H  50.91400 32.23900 22.79400
H  51.73000 31.09900 23.77000
H  47.42100 30.20900 26.83500
H  45.67500 30.51500 26.59800
H  46.25300 29.78400 28.08700
H  44.48800 33.77900 31.24100
H  44.33800 33.51300 35.31200
H  45.87500 32.82300 35.10900
H  44.43700 31.70400 35.09000

