158

Mg 45.45200 4.32300 47.55600
C  43.37800 7.03800 47.51400
C  42.61400 2.26800 47.11900
C  47.54600 1.71400 46.74400
C  48.25100 6.44100 47.42700
N  43.28100 4.63400 47.18600
C  42.66600 5.85600 47.19400
C  41.12400 5.82800 47.00600
C  40.90600 4.25100 47.07600
C  42.35000 3.66100 47.08400
C  39.94600 3.78100 48.22500
C  40.52100 6.38500 45.65000
C  41.43400 6.22000 44.48900
H  40.65200 5.57300 43.31000
N  45.12800 2.33800 47.07500
C  43.85300 1.66800 47.10700
C  44.13700 0.23100 47.05200
C  45.52100 0.04700 46.84500
C  46.12100 1.42300 46.83800
C  42.97700 -0.76700 47.14800
C  46.18300 -1.38900 46.63500
O  45.62800 -2.42400 46.87600
C  47.71700 -1.53100 46.32500
N  47.62700 4.16000 47.07100
C  48.20700 2.88900 47.01900
C  49.69600 2.92300 47.09200
C  49.86600 4.47100 47.39200
C  48.53600 5.07800 47.27700
C  50.22000 1.95600 48.21300
C  50.88600 5.20100 46.52200
C  52.31600 4.84000 46.97400
N  45.83900 6.37200 47.44200
C  47.04200 7.10700 47.47400
C  46.72200 8.50700 47.51400
C  45.31600 8.52800 47.58400
C  44.83400 7.19700 47.44600
C  47.70000 9.61600 47.55500
C  44.21700 9.34800 47.74500
O  44.20900 10.55200 47.82000
C  42.95000 8.51400 47.62000
C  42.09200 8.74100 48.74300
O  42.40600 8.52200 49.88800
O  40.90500 9.17200 48.34400
C  39.81600 9.26700 49.35100
H  41.70000 1.72400 46.86900
H  48.19700 0.83800 46.69100
H  49.10700 7.11600 47.48800
H  40.59000 6.17700 47.89000
H  40.40200 3.81300 46.21500
H  40.52500 3.27300 48.99600
H  39.24000 3.11700 47.72500
H  39.36500 4.58100 48.68500
H  40.35500 7.46100 45.71500
H  39.52700 6.03600 45.37200
H  42.25300 5.52800 44.68600
H  41.92700 7.14100 44.17800
H  42.04400 -0.35400 47.53000
H  43.18400 -1.68900 47.69000
H  42.61400 -1.05300 46.16100
H  47.87600 -2.50700 45.86700
H  48.29500 -1.40700 47.24100
H  47.96300 -0.85200 45.50900
H  50.12100 2.57800 46.14900
H  50.16800 4.59600 48.43200
H  50.71600 1.12600 47.71000
H  49.41000 1.57100 48.83200
H  50.93600 2.53100 48.80000
H  50.90100 6.29000 46.53900
H  50.92500 4.89400 45.47600
H  52.33900 3.96500 47.62400
H  52.81200 5.72100 47.37900
H  52.90000 4.61900 46.08100
H  48.16300 9.75200 48.53200
H  47.27200 10.60100 47.36900
H  48.51400 9.45200 46.84900
H  42.42100 8.78300 46.70500
H  40.20400 10.10600 49.92800
H  39.86900 8.34700 49.93200
H  38.80300 9.44800 48.99100
Mg -5.49100 25.27000 25.84800
C  -4.04400 26.17500 28.96800
C  -7.73500 23.30400 27.72400
C  -6.51300 23.87900 23.06500
C  -3.18400 27.22300 24.23300
N  -5.82300 24.77900 28.12600
C  -5.08100 25.28300 29.14000
C  -5.61300 24.77300 30.54000
C  -6.64100 23.70500 30.02000
C  -6.67800 23.87200 28.52300
C  -6.48400 22.24100 30.60900
C  -6.25000 25.97700 31.35100
C  -5.78800 26.08300 32.81500
H  -5.10500 24.90000 33.57200
N  -6.95800 23.92700 25.42300
C  -7.81500 23.27100 26.30300
C  -8.79200 22.50700 25.55900
C  -8.52100 22.66800 24.18600
C  -7.20300 23.41000 24.13400
C  -9.99700 21.81000 26.19500
C  -9.28000 22.31900 23.00200
O  -8.84100 22.38000 21.85800
C  -10.67300 21.74000 23.10000
N  -4.76700 25.41300 23.96900
C  -5.37000 24.69500 22.97200
C  -4.75500 25.12500 21.61900
C  -3.98600 26.40500 21.98700
C  -3.94900 26.37000 23.50700
C  -4.15200 23.92300 20.91200
C  -4.44900 27.71500 21.32100
C  -3.35000 28.40600 20.43000
N  -3.91500 26.48700 26.40100
C  -3.03400 27.25200 25.62200
C  -2.07000 27.98100 26.45000
C  -2.45400 27.56500 27.71100
C  -3.56700 26.65300 27.69000
C  -0.98300 28.96300 25.97600
C  -1.98600 27.78600 29.09800
O  -1.12100 28.50000 29.61900
C  -2.98300 26.85100 29.90800
C  -2.10600 26.05000 30.83000
O  -1.78400 24.89600 30.64000
O  -1.94000 26.72100 31.99200
C  -1.14800 26.01200 32.95700
H  -8.44800 22.65200 28.23100
H  -6.74600 23.52900 22.05700
H  -2.53600 27.92400 23.70300
H  -4.88400 24.19100 31.10300
H  -7.62800 23.97900 30.39300
H  -6.47600 21.47600 29.83200
H  -7.27500 22.07700 31.34000
H  -5.56000 22.11500 31.17300
H  -7.33200 26.09900 31.30900
H  -5.80500 26.86800 30.91000
H  -6.57400 26.51100 33.43700
H  -5.09200 26.90800 32.66200
H  -9.69800 21.46200 27.18400
H  -10.27500 20.97600 25.54900
H  -10.85300 22.47300 26.31800
H  -10.55500 20.68600 23.35000
H  -11.19900 21.77300 22.14600
H  -11.27900 22.39300 23.72900
H  -5.68500 25.45200 21.15400
H  -2.92900 26.21600 21.79400
H  -3.07600 23.98600 20.74300
H  -4.57500 23.76900 19.91900
H  -4.20700 23.08200 21.60300
H  -4.86000 28.31600 22.13200
H  -5.32800 27.53600 20.70200
H  -3.62900 28.38500 19.37600
H  -2.44100 27.85200 20.66300
H  -3.19500 29.45600 20.67800
H  -0.20100 28.50300 25.37200
H  -0.59300 29.29700 26.93800
H  -1.27000 29.94200 25.59200
H  -3.54800 27.39400 30.66600
H  -0.12900 26.37700 32.82600
H  -1.09800 24.92500 33.02500
H  -1.28300 26.34800 33.98500

