158

Mg 47.76000 25.28800 28.42000
C  48.58300 27.43100 31.09700
C  47.42700 22.75700 30.82200
C  46.95600 23.27800 25.87000
C  48.81900 27.85000 26.21900
N  47.84900 25.15400 30.74800
C  48.13000 26.21300 31.61700
C  47.98300 25.75600 33.04000
C  47.83000 24.22100 32.96100
C  47.69400 24.00000 31.45000
C  48.92100 23.33000 33.59900
C  46.84100 26.58900 33.82700
C  47.25400 27.59800 34.85100
H  46.41500 27.86200 36.09100
N  47.38800 23.24200 28.32700
C  47.18600 22.38000 29.39700
C  46.71700 21.10600 28.87600
C  46.58600 21.22700 27.49800
C  46.95500 22.64400 27.15400
C  46.54200 19.95900 29.83900
C  46.16400 20.20000 26.43500
O  46.01300 20.42100 25.25800
C  45.89200 18.82600 27.00200
N  47.89700 25.51400 26.34500
C  47.44500 24.52800 25.47900
C  47.86400 24.94400 24.04200
C  48.17600 26.46800 24.15600
C  48.28500 26.65400 25.62500
C  49.03200 24.08200 23.52900
C  47.09000 27.42100 23.56500
C  46.84400 27.39000 22.06900
N  48.57700 27.22600 28.57200
C  48.98000 28.06100 27.57600
C  49.36300 29.27900 28.18000
C  49.27700 29.10500 29.60500
C  48.72300 27.82800 29.76700
C  49.76300 30.49700 27.40800
C  49.47300 29.65200 30.84400
O  49.95400 30.75900 31.12500
C  49.03700 28.60300 31.91900
C  50.22900 28.25200 32.80900
O  51.08500 27.40000 32.57600
O  50.18800 29.10300 33.85600
C  51.21600 29.08700 34.96300
H  47.28100 22.01900 31.61300
H  46.67300 22.68100 25.00000
H  49.09700 28.67400 25.55900
H  49.01200 25.93600 33.35100
H  46.91400 24.06300 33.52900
H  49.80700 23.88900 33.90000
H  49.26400 22.52600 32.94800
H  48.50700 22.78900 34.45000
H  46.38100 25.74300 34.33700
H  46.11500 26.96400 33.10600
H  47.38600 28.58900 34.41700
H  48.15900 27.22100 35.32800
H  47.03900 20.04600 30.80500
H  46.91400 19.04200 29.38300
H  45.51400 19.69000 30.08100
H  45.38900 18.24100 26.23200
H  45.21200 18.86300 27.85300
H  46.88200 18.37900 27.09300
H  46.96000 24.77500 23.45700
H  49.13700 26.73500 23.71800
H  48.84800 23.55400 22.59400
H  49.35200 23.35100 24.27100
H  49.94100 24.62500 23.27300
H  47.36700 28.46100 23.73800
H  46.10100 27.22300 23.97900
H  47.44400 26.61800 21.58700
H  47.18300 28.32300 21.61900
H  45.79100 27.27000 21.81500
H  50.81400 30.68300 27.63000
H  49.17200 31.31000 27.82800
H  49.47000 30.51900 26.35900
H  48.15800 28.97000 32.44900
H  51.61800 30.07500 35.18800
H  52.12700 28.52100 34.76600
H  50.74600 28.71900 35.87500
Mg 26.44100 49.11600 26.91300
C  24.35600 50.27900 29.48500
C  28.81400 48.38800 29.27900
C  28.50100 48.23700 24.42200
C  24.06600 50.43900 24.58400
N  26.56200 49.28400 29.15300
C  25.55100 49.65300 29.96700
C  25.91700 49.40900 31.44500
C  27.44900 49.01000 31.40000
C  27.64800 48.85700 29.83800
C  28.39600 50.04300 32.07400
C  25.07600 48.26000 32.12600
C  24.72800 48.18200 33.64800
H  25.55200 49.02100 34.58400
N  28.38400 48.36600 26.83000
C  29.18600 48.12500 27.91300
C  30.46100 47.60900 27.46700
C  30.42700 47.66500 26.02800
C  29.02600 48.10500 25.68100
C  31.47700 46.98000 28.43900
C  31.46500 47.26800 25.00500
O  31.28800 47.48400 23.81100
C  32.68500 46.73200 25.57100
N  26.26800 49.36200 24.82000
C  27.21100 48.76200 24.04600
C  26.66000 48.77500 22.62700
C  25.22900 49.40800 22.67100
C  25.14600 49.73800 24.11300
C  27.58600 49.47300 21.59000
C  23.99900 48.44200 22.28900
C  22.92000 49.19000 21.42600
N  24.63700 50.20900 26.95000
C  23.79300 50.65200 25.95800
C  22.75900 51.42900 26.52300
C  22.95400 51.33300 27.92700
C  24.11100 50.59200 28.13100
C  21.68900 52.29900 25.76000
C  22.39700 51.71100 29.18100
O  21.48900 52.49100 29.45400
C  23.24700 50.92200 30.32600
C  23.77400 51.89900 31.35900
O  24.72500 52.62100 31.24300
O  23.08700 51.62300 32.53300
C  23.17400 52.73600 33.39300
H  29.55500 48.22300 30.06300
H  28.98200 47.65800 23.63000
H  23.38500 50.85400 23.83800
H  25.78600 50.34500 31.98700
H  27.62400 48.01500 31.80700
H  29.07300 50.44200 31.31800
H  29.04500 49.51400 32.77200
H  27.94100 50.76800 32.74900
H  25.65400 47.35200 31.95500
H  24.14700 48.32700 31.56000
H  24.83100 47.15500 33.99800
H  23.69200 48.47400 33.82000
H  31.37100 47.20200 29.50100
H  32.48100 47.34700 28.22800
H  31.59200 45.89700 28.38800
H  33.20000 46.51400 24.63500
H  32.56300 45.74100 26.00800
H  33.09100 47.44200 26.29100
H  26.57300 47.72700 22.33900
H  25.35800 50.36700 22.17000
H  28.44700 49.92100 22.08600
H  27.19300 50.26200 20.94900
H  27.83400 48.79600 20.77300
H  23.51700 48.08300 23.19800
H  24.24900 47.61000 21.63100
H  23.30600 50.18300 21.19800
H  21.97400 49.24500 21.96600
H  22.72800 48.57500 20.54600
H  22.15300 52.46400 24.78800
H  21.66300 53.24900 26.29300
H  20.79600 51.68000 25.67100
H  22.71700 50.09000 30.79100
H  23.42500 53.72000 32.99600
H  23.77400 52.46600 34.26200
H  22.17000 52.95700 33.75400

