158

Mg 26.11100 1.39700 29.77700
C  27.93300 0.99100 32.67900
C  23.31600 1.93100 31.69200
C  24.08200 1.66200 26.96900
C  28.74400 0.54000 27.77700
N  25.70900 1.30000 31.89400
C  26.62100 1.22200 32.93200
C  26.00200 1.40500 34.31800
C  24.49600 1.61500 33.93400
C  24.53400 1.72300 32.40700
C  23.53200 0.46800 34.32200
C  26.52700 2.50400 35.18700
C  26.00700 2.60600 36.64500
H  26.95100 2.40100 37.83300
N  23.95200 1.67500 29.39500
C  22.99400 1.91100 30.33600
C  21.70000 2.24900 29.75000
C  21.96900 2.27100 28.29600
C  23.36000 1.86500 28.14000
C  20.46100 2.51700 30.57100
C  21.00000 2.54800 27.21100
O  21.35000 2.61200 26.04600
C  19.48300 2.76800 27.44200
N  26.39900 1.47700 27.62200
C  25.43100 1.44100 26.69000
C  25.88800 1.09900 25.19200
C  27.44300 0.82800 25.46500
C  27.54800 0.98800 27.06300
C  25.07600 0.07500 24.44000
C  28.46600 1.70500 24.71900
C  28.91600 1.13600 23.42700
N  28.01900 0.92400 30.07800
C  28.98500 0.60600 29.21500
C  30.17100 0.22300 29.90200
C  29.81700 0.41300 31.31000
C  28.46300 0.76200 31.34100
C  31.43200 -0.16200 29.34400
C  30.33600 0.46500 32.70300
O  31.51600 0.41000 33.13700
C  29.09700 0.68700 33.68900
C  28.87700 -0.37400 34.68500
O  28.18500 -1.37600 34.52300
O  29.61700 -0.06600 35.80600
C  29.56100 -0.98600 36.97200
H  22.47300 2.14200 32.35300
H  23.57700 1.70100 26.00200
H  29.55300 0.15300 27.15500
H  26.03900 0.44500 34.83300
H  24.15800 2.56400 34.35000
H  23.60000 -0.00600 35.30100
H  23.60500 -0.38400 33.64600
H  22.51100 0.83000 34.19900
H  26.51300 3.46600 34.67300
H  27.58400 2.33700 35.39500
H  25.24400 1.83500 36.75900
H  25.49600 3.56000 36.77600
H  20.55500 2.70900 31.64000
H  19.73800 1.74700 30.30200
H  20.02300 3.47100 30.27700
H  18.97400 2.97800 26.50100
H  19.34700 3.61500 28.11300
H  19.00600 1.82500 27.70600
H  25.76700 2.10300 24.78400
H  27.58600 -0.23300 25.26000
H  25.77100 -0.49200 23.82100
H  24.28200 0.58400 23.89400
H  24.43000 -0.48400 25.11800
H  29.38000 1.73700 25.31200
H  28.17900 2.75600 24.67200
H  28.71000 1.97200 22.75800
H  28.36500 0.20500 23.29400
H  29.96500 0.91100 23.23700
H  32.24500 -0.12000 30.06900
H  31.63200 0.52400 28.52100
H  31.26100 -1.18600 29.01200
H  29.31200 1.65800 34.13500
H  28.72200 -0.63000 37.57100
H  30.42600 -1.02300 37.63500
H  29.30900 -2.01400 36.71400
Mg 48.58800 15.58700 28.79800
C  46.66500 15.34800 31.63600
C  50.96300 17.47800 30.55500
C  50.40100 15.87700 26.00100
C  46.06300 14.03700 27.03700
N  48.75600 16.28600 30.92900
C  47.84400 16.08900 31.90300
C  48.47900 16.37400 33.22600
C  49.64500 17.36800 32.87100
C  49.86400 17.00800 31.40100
C  49.49100 18.94800 33.05200
C  48.91400 15.13000 34.05500
C  48.52800 15.14600 35.57500
H  48.33100 16.52700 36.23200
N  50.37300 16.63200 28.31400
C  51.23500 17.22400 29.20000
C  52.35100 17.77500 28.51100
C  52.29200 17.19000 27.19900
C  50.95800 16.53700 27.14900
C  53.43200 18.65700 29.10900
C  53.31300 17.24400 26.06300
O  53.23600 16.46000 25.10700
C  54.49100 18.12300 26.13600
N  48.26500 15.05000 26.74200
C  49.19500 15.22800 25.81000
C  48.71900 14.68600 24.43400
C  47.32200 14.08100 24.77800
C  47.18200 14.34500 26.30600
C  48.70700 15.87100 23.41700
C  47.24100 12.56200 24.26500
C  45.86200 11.92000 23.92100
N  46.78700 14.86500 29.20200
C  45.85700 14.25300 28.37800
C  44.70800 13.92000 29.14600
C  45.05900 14.20100 30.45200
C  46.22700 14.90200 30.43800
C  43.48300 13.19200 28.67000
C  44.54100 14.17900 31.74800
O  43.36800 13.93900 32.10000
C  45.58400 14.85400 32.64200
C  44.87200 15.94100 33.30100
O  44.46500 17.00400 32.82500
O  44.59500 15.58500 34.56000
C  43.88800 16.54000 35.41600
H  51.71700 18.08100 31.06500
H  50.92000 15.91700 25.04100
H  45.39300 13.46000 26.39700
H  47.69000 16.82600 33.82700
H  50.58400 17.13900 33.37600
H  48.45100 19.26700 33.11900
H  49.99900 19.58500 32.32900
H  50.04700 19.24700 33.94100
H  50.00400 15.11600 34.04700
H  48.64200 14.16300 33.63300
H  49.35300 14.67800 36.11100
H  47.64300 14.56400 35.83100
H  52.93100 19.21000 29.90300
H  53.66500 19.43400 28.38000
H  54.29500 18.09000 29.45800
H  54.05900 19.09900 26.35700
H  54.92700 18.31100 25.15400
H  55.23100 17.84100 26.88500
H  49.51700 13.95900 24.28500
H  46.57600 14.67000 24.24500
H  48.67800 16.86300 23.86900
H  47.87700 15.78800 22.71500
H  49.69300 15.77600 22.96400
H  47.55200 11.99200 25.14000
H  47.96800 12.41800 23.46600
H  45.61900 11.16700 24.67100
H  45.99600 11.43200 22.95600
H  45.03800 12.61600 23.76100
H  42.81300 12.98300 29.50400
H  43.86300 12.25900 28.25400
H  42.95400 13.68100 27.85200
H  46.02300 14.15200 33.35100
H  42.93400 16.66500 34.90400
H  44.38400 17.49300 35.60000
H  43.66300 15.99400 36.33200

