158

Mg 35.99500 49.02500 24.91200
C  36.21200 47.53400 28.07700
C  34.63800 51.85300 26.25000
C  35.47900 50.06900 21.77700
C  36.94100 45.93300 23.49000
N  35.59500 49.57200 26.92700
C  35.77200 48.82300 28.11100
C  35.40200 49.66100 29.30200
C  34.75200 50.97500 28.69800
C  35.01200 50.81500 27.18200
C  33.31200 51.35300 29.01500
C  36.63600 49.87400 30.20200
C  36.39700 49.75700 31.74600
H  35.50800 50.80400 32.42500
N  35.14400 50.71900 24.08600
C  34.68000 51.80300 24.83400
C  34.24100 52.85700 23.91400
C  34.34900 52.27800 22.58000
C  35.03000 50.93600 22.76000
C  33.74700 54.18500 24.35000
C  33.94200 52.82800 21.24800
O  34.09200 52.26400 20.15900
C  33.25600 54.14200 21.25200
N  36.38300 48.20100 22.90000
C  36.05900 48.83500 21.74700
C  36.39300 47.97200 20.49700
C  37.00900 46.71600 21.15700
C  36.79500 46.94200 22.63600
C  35.14500 47.73100 19.58100
C  38.53600 46.54800 20.77200
C  39.58400 47.60400 21.10700
N  36.45200 47.13600 25.57900
C  36.79400 46.00600 24.91300
C  37.01700 44.86800 25.85600
C  36.74100 45.41700 27.06300
C  36.50200 46.77900 26.86600
C  37.56900 43.48600 25.53000
C  36.56100 45.11700 28.41900
O  36.68700 44.07800 29.02300
C  36.28400 46.50300 29.18200
C  34.98900 46.28900 29.74100
O  33.92500 46.24700 29.12100
O  35.09000 45.99200 31.13200
C  33.84100 45.69700 31.84300
H  34.26300 52.74400 26.75800
H  35.33300 50.50900 20.78900
H  37.19000 44.93500 23.12200
H  34.64600 49.16600 29.91200
H  35.39600 51.79900 29.00300
H  33.23900 52.35000 29.44900
H  32.94000 50.63800 29.74800
H  32.72400 51.37200 28.09800
H  37.00700 50.88200 30.01800
H  37.47400 49.22100 29.95800
H  37.30000 49.56000 32.32500
H  35.74000 48.88800 31.77700
H  33.92000 54.32300 25.41700
H  32.72300 54.23900 23.97900
H  34.30300 55.02200 23.92700
H  33.94700 54.89600 21.62800
H  32.34000 54.09600 21.84000
H  32.96700 54.29100 20.21100
H  37.06300 48.61100 19.92300
H  36.30700 45.90600 20.95700
H  34.97000 48.69300 19.09900
H  34.24400 47.58700 20.17700
H  35.27000 46.97100 18.80900
H  38.55000 46.54500 19.68200
H  38.92800 45.60600 21.15600
H  39.09800 48.29400 21.79800
H  39.88700 48.19300 20.24100
H  40.44500 47.24300 21.66900
H  37.98300 43.41800 24.52400
H  36.81500 42.72100 25.71600
H  38.45700 43.30900 26.13700
H  37.00300 46.74300 29.96500
H  32.95500 46.17600 31.42500
H  33.90000 45.93300 32.90600
H  33.69300 44.62200 31.74400
Mg -0.02200 43.49200 26.43200
C  2.61700 43.10100 28.91100
C  -2.07000 42.08400 28.92200
C  -2.49700 43.62400 24.29100
C  2.41300 44.16600 24.24000
N  0.27200 42.76900 28.69800
C  1.37500 42.77800 29.47800
C  1.09700 42.59400 30.93900
C  -0.32300 41.96800 30.86500
C  -0.75500 42.27900 29.44400
C  -0.53500 40.44400 31.17800
C  1.14100 44.00000 31.66700
C  1.73800 44.01700 33.16500
H  1.57400 42.75600 34.02000
N  -1.96500 42.91700 26.55400
C  -2.59800 42.43500 27.66200
C  -4.01100 42.16600 27.21500
C  -4.16700 42.51600 25.84900
C  -2.86100 43.03000 25.50500
C  -5.00500 41.54600 28.20600
C  -5.26700 42.38700 24.95800
O  -5.22700 42.78500 23.80200
C  -6.62800 41.93500 25.45500
N  -0.02800 43.62000 24.41000
C  -1.20000 43.84700 23.76000
C  -0.89900 44.26200 22.30600
C  0.57300 44.71500 22.41400
C  1.05600 44.13300 23.75200
C  -1.20000 43.14900 21.26900
C  0.74000 46.27300 22.24000
C  1.14400 46.67100 20.83000
N  2.04200 43.48600 26.48400
C  2.89500 43.80300 25.47000
C  4.23500 43.73700 25.96300
C  4.16100 43.59900 27.28500
C  2.81000 43.30900 27.54600
C  5.38800 44.09000 25.08700
C  4.93400 43.57700 28.49700
O  6.10000 43.65700 28.77800
C  3.90600 43.36000 29.54200
C  4.34900 42.09100 30.20900
O  4.38000 40.96300 29.74700
O  4.79300 42.39200 31.53000
C  5.09000 41.14600 32.24000
H  -2.76800 41.64200 29.63600
H  -3.27400 43.74300 23.53300
H  3.22100 44.37200 23.53400
H  1.78700 41.87300 31.37900
H  -0.99000 42.40100 31.61200
H  -1.05000 39.99300 30.33000
H  -1.15100 40.30700 32.06700
H  0.42000 39.93100 31.29500
H  0.15700 44.46800 31.64800
H  1.81000 44.66300 31.11900
H  1.26300 44.84800 33.68500
H  2.76800 44.37400 33.17000
H  -5.51000 42.37600 28.70000
H  -4.63200 40.87200 28.97700
H  -5.73600 40.90800 27.70900
H  -6.81900 42.44900 26.39700
H  -6.62100 40.84500 25.48700
H  -7.27300 42.38200 24.69900
H  -1.60800 45.06900 22.12000
H  1.16600 44.06400 21.77200
H  -2.26300 43.26200 21.05700
H  -0.97600 42.14300 21.62400
H  -0.63400 43.37800 20.36600
H  1.47200 46.66000 22.94800
H  -0.21800 46.75100 22.44400
H  2.15000 47.08600 20.88800
H  0.41500 47.43100 20.55000
H  1.16600 45.82500 20.14300
H  5.95600 44.89700 25.55000
H  4.99600 44.40300 24.11900
H  5.96000 43.16900 25.20100
H  3.94000 44.08600 30.35400
H  5.35300 41.43900 33.25600
H  5.96700 40.68200 31.78700
H  4.17600 40.55400 32.27200

