158

Mg 40.73600 9.31300 29.98100
C  42.60100 10.79600 32.48700
C  38.27600 8.49900 32.28400
C  38.98000 7.76900 27.51700
C  43.37400 9.72300 27.78400
N  40.52000 9.60600 32.18300
C  41.38900 10.26000 32.99000
C  40.75400 10.31500 34.44400
C  39.57100 9.34400 34.38500
C  39.42700 9.15300 32.85800
C  39.72100 8.06700 35.26500
C  40.40600 11.76700 34.95100
C  41.24600 12.30300 36.07900
H  40.61600 13.12500 37.26600
N  38.81000 8.43300 29.94000
C  38.00500 8.12800 30.94800
C  36.82700 7.51400 30.49100
C  36.88800 7.45600 29.06100
C  38.24900 7.92700 28.73500
C  35.69900 6.97600 31.42600
C  35.93300 6.94600 28.08100
O  36.02000 6.97400 26.83900
C  34.63800 6.40800 28.51900
N  41.05500 8.89800 27.85100
C  40.25900 8.10600 27.08700
C  40.77400 7.85000 25.64700
C  42.27500 8.40100 25.77800
C  42.22400 9.08800 27.22400
C  40.67400 6.41100 24.96800
C  42.70700 9.40800 24.66200
C  42.14800 10.84300 24.59300
N  42.71200 9.94500 30.10300
C  43.65000 10.15400 29.09500
C  44.81900 10.86600 29.62000
C  44.37800 11.14400 30.93900
C  43.16500 10.54500 31.18300
C  46.05900 11.24600 28.94200
C  44.74400 11.84400 32.14500
O  45.86000 12.30600 32.38100
C  43.65200 11.58300 33.28600
C  44.24800 10.70800 34.31600
O  44.44300 9.48500 34.22600
O  44.42700 11.42500 35.50900
C  44.46800 10.58500 36.72900
H  37.65600 8.08800 33.08400
H  38.30900 7.35900 26.75900
H  44.25800 9.82200 27.15100
H  41.65200 9.94100 34.93500
H  38.75900 9.95500 34.77800
H  40.64700 8.06500 35.84000
H  39.73800 7.11200 34.73900
H  38.85300 8.09200 35.92300
H  39.37100 11.90500 35.26400
H  40.55700 12.42500 34.09500
H  42.13000 12.88600 35.82100
H  41.54700 11.35300 36.51900
H  34.82000 7.61300 31.33300
H  35.90800 7.00100 32.49500
H  35.50900 5.92000 31.23700
H  34.09200 6.07600 27.63500
H  34.22000 7.28200 29.01900
H  34.69900 5.57300 29.21600
H  40.19300 8.35800 24.87800
H  43.02000 7.61000 25.86500
H  41.63000 6.02800 24.61100
H  40.13300 6.53200 24.02900
H  39.97900 5.73900 25.47100
H  42.49000 8.92700 23.70900
H  43.77900 9.49900 24.83400
H  42.81900 11.54800 25.08300
H  41.30100 10.90400 25.27700
H  41.77600 11.11600 23.60600
H  45.85400 11.84300 28.05300
H  46.46800 10.32100 28.53800
H  46.69700 11.65600 29.72500
H  43.29500 12.51500 33.72500
H  44.21000 11.21700 37.57900
H  45.54500 10.43300 36.79800
H  43.89200 9.66800 36.60500
Mg -12.33900 16.96200 40.08300
C  -8.69000 15.98300 39.94800
C  -11.11500 20.25800 39.69600
C  -15.32500 17.69300 39.47800
C  -12.98500 13.46300 39.76200
N  -10.16400 18.02000 39.78400
C  -8.94100 17.42900 39.78700
C  -7.86600 18.40000 39.55300
C  -8.57200 19.80000 39.86900
C  -10.04300 19.35600 39.75000
C  -8.23100 20.61200 41.06300
C  -7.12500 18.26900 38.13100
C  -5.67600 17.83900 38.30200
H  -4.99400 16.95700 37.25800
N  -13.13100 18.74400 39.75300
C  -12.53800 19.94800 39.59700
C  -13.54600 20.87000 39.27300
C  -14.81700 20.22700 39.30000
C  -14.51300 18.78200 39.51900
C  -13.28200 22.34800 39.08900
C  -16.18400 20.88900 39.08400
O  -16.24300 22.12700 38.91900
C  -17.39200 20.10500 39.03100
N  -13.89600 15.71500 39.73100
C  -15.06100 16.25500 39.41200
C  -16.21200 15.20600 39.13300
C  -15.34400 13.90500 38.95400
C  -13.98700 14.38200 39.57000
C  -17.40700 15.04200 40.25900
C  -15.10500 13.42800 37.49800
C  -15.01700 11.88500 37.35500
N  -11.18400 15.04800 40.01900
C  -11.65100 13.73200 39.91100
C  -10.47700 12.87400 39.82000
C  -9.34500 13.72400 39.97700
C  -9.79600 15.07700 39.97600
C  -10.49300 11.39100 39.55200
C  -7.87400 13.73500 39.89600
O  -7.09200 12.78300 39.72400
C  -7.45100 15.16800 39.93300
C  -6.61900 15.33300 41.11800
O  -6.82100 16.02000 42.11700
O  -5.40500 14.69500 40.92200
C  -4.47000 14.65200 42.03100
H  -10.84600 21.31500 39.75500
H  -16.32100 17.92800 39.09700
H  -13.25100 12.40400 39.74900
H  -7.18100 18.19600 40.37600
H  -8.29900 20.48000 39.06200
H  -7.70300 21.52200 40.77800
H  -7.47900 20.04100 41.60700
H  -9.13800 20.72300 41.65700
H  -7.10100 19.29500 37.76400
H  -7.61100 17.65100 37.37600
H  -5.54600 17.42300 39.30200
H  -5.18400 18.81100 38.27500
H  -13.79000 22.71900 38.19900
H  -12.21400 22.53900 38.98700
H  -13.63200 22.92000 39.94800
H  -17.41600 19.69900 38.01900
H  -18.25200 20.74200 39.23800
H  -17.37000 19.39700 39.85900
H  -16.77700 15.38300 38.21700
H  -15.62000 13.19400 39.73400
H  -18.27500 15.61800 39.93700
H  -17.10900 15.34400 41.26400
H  -17.93400 14.09000 40.18600
H  -14.17500 13.78300 37.05500
H  -15.93300 13.70700 36.84600
H  -15.93500 11.62400 36.82800
H  -15.13100 11.47500 38.35800
H  -14.04900 11.53500 36.99600
H  -10.06200 11.11200 38.59000
H  -11.53100 11.05900 39.54800
H  -9.94100 10.95000 40.38300
H  -6.81600 15.50200 39.11300
H  -3.83700 13.76500 42.03700
H  -4.99100 14.69900 42.98800
H  -3.87000 15.54600 41.86000

