158

Mg 8.38900 2.91200 27.95700
C  9.83100 1.66900 30.80100
C  6.27800 4.82500 29.93700
C  6.67000 3.69300 25.12100
C  9.96400 0.22000 26.11400
N  8.10200 3.20700 30.14000
C  8.97500 2.71200 31.08200
C  8.65500 3.36800 32.41400
C  7.33400 4.16300 32.17400
C  7.24200 4.12000 30.63000
C  6.11400 3.58600 32.89000
C  9.97600 4.11700 32.96300
C  10.72600 3.50600 34.24800
H  11.03700 4.48700 35.46200
N  6.71600 4.16600 27.56600
C  6.03200 4.85300 28.51700
C  5.11600 5.79600 27.73900
C  5.29200 5.50400 26.36400
C  6.21500 4.37900 26.29900
C  4.18600 6.82300 28.43300
C  4.74900 6.23500 25.16100
O  4.96100 5.97200 23.96800
C  3.82100 7.37900 25.36100
N  8.35800 2.06700 25.93000
C  7.57900 2.61800 24.94900
C  7.62200 1.90400 23.60000
C  8.78300 0.81400 23.86500
C  9.07300 1.01000 25.39200
C  6.21400 1.25500 23.28600
C  10.09700 0.97000 23.01000
C  10.33200 -0.14600 22.02500
N  9.72600 1.34300 28.27800
C  10.32800 0.38100 27.51300
C  11.23500 -0.40600 28.25200
C  11.07900 0.11700 29.58200
C  10.10600 1.14200 29.49900
C  11.95400 -1.55000 27.84600
C  11.48200 -0.07900 30.95000
O  12.23100 -0.97700 31.36300
C  10.76400 1.01600 31.76500
C  10.02800 0.39400 32.90500
O  8.89600 -0.11500 32.89400
O  10.76200 0.43300 34.07800
C  10.10200 0.03500 35.34900
H  5.70200 5.54200 30.52600
H  6.29200 4.13300 24.19500
H  10.36000 -0.61000 25.52600
H  8.46100 2.57200 33.13200
H  7.50800 5.18600 32.50700
H  6.07100 2.61100 33.37600
H  5.39800 3.58600 32.06800
H  5.80900 4.32600 33.63000
H  9.64300 5.10200 33.29200
H  10.71600 4.16800 32.16500
H  11.53200 2.80500 34.03300
H  10.00300 2.78900 34.63800
H  4.59300 7.82400 28.57300
H  4.12600 6.51000 29.47500
H  3.20700 6.80800 27.95400
H  2.89600 7.03700 25.82500
H  3.60700 7.85100 24.40300
H  4.22100 8.11100 26.06300
H  8.01200 2.66200 22.92000
H  8.41400 -0.19800 23.70000
H  5.75000 1.95700 22.59300
H  5.50000 1.05700 24.08500
H  6.38000 0.33700 22.72300
H  10.99600 1.18300 23.58900
H  10.06600 1.87200 22.39900
H  10.89500 0.17000 21.14700
H  9.34600 -0.49200 21.71600
H  11.03900 -0.89300 22.38700
H  12.21200 -1.51300 26.78800
H  11.49400 -2.47300 28.19800
H  12.93900 -1.65000 28.30300
H  11.42100 1.76200 32.21300
H  9.83600 -1.01700 35.25100
H  9.14700 0.54400 35.47800
H  10.70400 0.19000 36.24500
Mg -5.23400 24.52600 25.68200
C  -4.09200 25.77700 28.70700
C  -7.35700 22.51300 27.40800
C  -6.50200 23.42300 22.68700
C  -3.21900 26.78200 23.95800
N  -5.57800 24.15800 27.83400
C  -5.16900 24.88200 28.82900
C  -5.85200 24.66300 30.16400
C  -6.71200 23.43400 29.76100
C  -6.58100 23.31400 28.26300
C  -6.55800 22.13100 30.50100
C  -6.58800 25.92000 30.77700
C  -6.37700 26.09400 32.37100
H  -5.71600 25.06300 33.24700
N  -6.68300 23.06300 25.15000
C  -7.44800 22.42600 26.01900
C  -8.30400 21.59700 25.33800
C  -8.12500 21.81900 23.91300
C  -7.10700 22.87600 23.84700
C  -9.36400 20.73100 26.00100
C  -8.78700 21.18000 22.73500
O  -8.69900 21.59500 21.58800
C  -9.74200 19.97700 22.94300
N  -4.96200 25.12600 23.61300
C  -5.42200 24.38700 22.57000
C  -5.02100 25.06900 21.19500
C  -4.05800 26.18000 21.65000
C  -4.14200 26.06600 23.19400
C  -4.27400 24.04000 20.28200
C  -4.46700 27.49700 21.00000
C  -3.31700 28.41200 20.63100
N  -3.89400 25.98000 26.19200
C  -3.13500 26.77400 25.38900
C  -2.31900 27.63500 26.24200
C  -2.64300 27.24300 27.55100
C  -3.59800 26.18900 27.46300
C  -1.40300 28.65600 25.76200
C  -2.46900 27.58100 29.00100
O  -1.82600 28.47600 29.46600
C  -3.40100 26.53400 29.81800
C  -2.53600 25.74900 30.77100
O  -2.00500 24.66400 30.50800
O  -2.36700 26.39700 31.98900
C  -1.42600 25.84300 32.95900
H  -8.00200 21.84200 27.97900
H  -6.90800 23.12100 21.71900
H  -2.51400 27.45600 23.46700
H  -5.02900 24.36700 30.81500
H  -7.75500 23.71600 29.90700
H  -7.16700 21.29200 30.16400
H  -6.64500 22.30600 31.57300
H  -5.53200 21.77300 30.42300
H  -7.65400 25.74300 30.62900
H  -6.21200 26.74600 30.17300
H  -7.38000 26.32000 32.73400
H  -5.70700 26.92300 32.60200
H  -9.13900 19.68500 25.79000
H  -10.35000 20.89600 25.56600
H  -9.49600 20.78600 27.08200
H  -9.25500 19.32000 23.66300
H  -9.96100 19.63400 21.93200
H  -10.62400 20.43600 23.39000
H  -5.99000 25.30100 20.75300
H  -3.05600 25.99800 21.26100
H  -3.48300 24.53000 19.71400
H  -4.99600 23.63300 19.57300
H  -3.89500 23.24500 20.92400
H  -5.08600 28.05400 21.70300
H  -4.96200 27.32100 20.04500
H  -3.10300 28.26500 19.57200
H  -2.37400 28.05100 21.04300
H  -3.44600 29.44700 20.94700
H  -0.65400 28.37800 25.02000
H  -0.89500 29.11900 26.60800
H  -1.98200 29.39100 25.20300
H  -4.11700 27.18600 30.31900
H  -1.91600 24.99200 33.43200
H  -1.05000 26.48100 33.75800
H  -0.63600 25.35500 32.38800

