158

Mg 30.31600 57.41900 39.52000
C  27.81500 55.36000 38.40800
C  32.70100 55.08200 38.78800
C  32.67300 59.84700 39.89700
C  27.80700 60.11200 39.84400
N  30.23700 55.58000 38.47800
C  29.09400 54.78700 38.31500
C  29.42900 53.29500 38.09800
C  30.86900 53.24400 38.59000
C  31.32100 54.72000 38.62400
C  31.15600 52.38000 39.85800
C  29.04100 52.74500 36.73100
C  29.40300 53.59500 35.51600
H  28.17800 54.01300 34.52800
N  32.44400 57.43700 39.38700
C  33.22000 56.37100 39.05400
C  34.58300 56.85900 39.05900
C  34.64400 58.21900 39.32400
C  33.16900 58.52500 39.56800
C  35.73500 56.07700 38.57700
C  35.90900 59.06000 39.29900
O  36.97600 58.59600 38.98000
C  35.89600 60.46100 39.59700
N  30.23800 59.64500 39.77900
C  31.37400 60.33100 40.02100
C  31.06300 61.80800 40.35400
C  29.47800 61.93500 40.15000
C  29.13700 60.45600 39.93500
C  31.41700 62.22500 41.77900
C  28.92700 62.71100 38.93700
C  27.93800 63.85500 39.16600
N  28.19100 57.72700 39.30200
C  27.34900 58.81100 39.44900
C  25.99000 58.37300 39.02900
C  26.12800 57.00800 38.74200
C  27.48300 56.74800 38.86100
C  24.77800 59.23600 38.78900
C  25.40300 55.82500 38.38700
O  24.20800 55.69500 38.10500
C  26.49700 54.66000 38.30200
C  26.22500 53.70800 39.45300
O  26.82300 53.54900 40.53400
O  25.16500 52.94900 39.00500
C  24.68800 51.97600 39.97500
H  33.39300 54.24900 38.92900
H  33.35000 60.67200 40.12800
H  27.06400 60.90700 39.93500
H  28.76600 52.72500 38.74700
H  31.50100 52.87300 37.78300
H  30.61500 51.44700 39.69800
H  30.73800 52.93600 40.69800
H  32.21800 52.14100 39.90000
H  27.95200 52.72000 36.75700
H  29.52900 51.77400 36.64600
H  30.17700 53.05700 34.96900
H  29.85200 54.53200 35.84300
H  36.49800 56.60500 38.00600
H  35.31600 55.27700 37.96700
H  36.16700 55.55100 39.42900
H  35.26600 61.01600 38.90200
H  36.91700 60.83800 39.53100
H  35.58700 60.61100 40.63100
H  31.63700 62.43200 39.66800
H  29.07400 62.24800 41.11200
H  32.41300 61.86400 42.03600
H  30.70800 61.91000 42.54500
H  31.53800 63.30500 41.86900
H  28.54100 62.03500 38.17400
H  29.81300 63.13800 38.46900
H  27.06200 63.61600 38.56400
H  28.30100 64.87900 39.07200
H  27.54500 63.76200 40.17900
H  24.58800 59.68600 39.76400
H  23.85400 58.67000 38.66700
H  24.81200 60.00800 38.02100
H  26.30100 54.13700 37.36700
H  25.53400 51.44500 40.41100
H  24.17500 51.15100 39.48000
H  24.04000 52.41500 40.73300
Mg 9.96900 47.78400 26.05000
C  8.20900 47.67400 28.88500
C  12.48400 49.30700 27.76400
C  11.85000 47.74500 23.21100
C  7.30800 46.49300 24.27500
N  10.17000 48.46600 28.04200
C  9.42500 48.21800 29.09200
C  9.92800 48.77200 30.38700
C  11.06500 49.65200 29.87600
C  11.29200 49.08000 28.45000
C  10.82000 51.21100 29.86200
C  10.36700 47.74500 31.49500
C  9.79100 47.72400 32.90900
H  9.77200 46.36800 33.65100
N  11.89500 48.37500 25.55700
C  12.83500 48.85600 26.42500
C  14.07600 48.94500 25.77000
C  13.98000 48.35700 24.45300
C  12.53000 48.13400 24.34700
C  15.38900 49.46800 26.43900
C  15.03300 48.06300 23.28000
O  14.71700 47.74600 22.15100
C  16.45900 48.29400 23.51900
N  9.50400 47.59600 23.96100
C  10.47300 47.46800 23.04700
C  9.94100 47.28400 21.59700
C  8.59600 46.51200 21.93400
C  8.42500 46.82700 23.47700
C  9.77800 48.61500 20.87600
C  8.75400 45.06500 21.50200
C  9.94200 44.34500 22.21100
N  8.07700 47.33700 26.44200
C  7.09400 46.82300 25.64000
C  5.87400 46.66000 26.29700
C  6.24400 46.93300 27.65500
C  7.60300 47.30300 27.65400
C  4.51400 46.24800 25.84400
C  5.79500 47.05300 29.03100
O  4.67100 46.94500 29.53400
C  7.11400 47.35000 29.89200
C  7.39800 46.06100 30.59600
O  8.12600 45.19000 30.16500
O  6.75600 46.01200 31.83700
C  6.89500 44.77300 32.57000
H  13.21500 49.81200 28.39800
H  12.42000 47.69900 22.28100
H  6.50800 45.99800 23.72000
H  9.13700 49.39200 30.81000
H  12.00200 49.44700 30.39300
H  9.89000 51.39600 30.40000
H  10.76900 51.61000 28.84900
H  11.64400 51.72200 30.36000
H  11.45300 47.76200 31.58300
H  10.17000 46.82300 30.94700
H  8.83600 48.25000 32.92700
H  10.48800 48.32200 33.49600
H  15.10600 49.67500 27.47100
H  15.85200 50.31200 25.92800
H  16.11100 48.65200 26.47900
H  17.07100 48.36900 22.62000
H  16.85400 47.54200 24.20200
H  16.47900 49.26800 24.00800
H  10.60300 46.68800 20.97000
H  7.68800 46.93300 21.50100
H  10.29700 49.36700 21.47000
H  8.76000 48.96600 20.70600
H  10.22900 48.52100 19.88800
H  8.98900 45.00300 20.43900
H  7.81900 44.56500 21.75500
H  10.42100 43.62300 21.55000
H  9.50100 43.79200 23.04000
H  10.75000 44.97900 22.57700
H  3.73900 46.76000 26.41400
H  4.37100 45.18100 26.02000
H  4.38000 46.50400 24.79300
H  6.89200 48.14400 30.60600
H  7.01600 45.04100 33.61900
H  7.67000 44.08400 32.23200
H  5.92700 44.32000 32.35500

