158

Mg 0.09200 7.60400 25.20700
C  0.85700 9.69100 27.79800
C  0.47100 4.89500 27.28900
C  -0.41800 5.61700 22.61600
C  0.28300 10.31800 23.05200
N  0.70800 7.28800 27.28500
C  0.85600 8.34900 28.18900
C  1.19400 7.81000 29.59500
C  1.14500 6.30400 29.36300
C  0.77700 6.10300 27.92800
C  2.45400 5.55500 29.70000
C  0.22100 8.28600 30.65200
C  0.94800 8.67900 32.00600
H  1.52700 7.50700 32.84000
N  -0.20700 5.57400 25.05800
C  -0.07700 4.63200 25.99100
C  -0.25800 3.27000 25.33900
C  -0.51100 3.40700 23.99300
C  -0.45200 4.97400 23.84300
C  -0.07500 2.01700 26.15800
C  -0.77700 2.29800 22.94900
O  -1.17900 2.54700 21.83900
C  -0.50700 0.77700 23.37200
N  0.09100 7.90300 23.15800
C  -0.24900 6.96500 22.25900
C  -0.56900 7.46400 20.88300
C  -0.37300 8.99900 21.05300
C  0.07400 9.09800 22.51100
C  0.19900 6.86700 19.72800
C  -1.54100 9.95400 20.64500
C  -2.85700 9.85200 21.30400
N  0.59200 9.56700 25.33700
C  0.62900 10.53900 24.37700
C  0.78600 11.86000 24.95100
C  1.01400 11.53500 26.29500
C  0.78100 10.14700 26.50100
C  0.84100 13.18500 24.39100
C  1.30200 12.13300 27.55900
O  1.62000 13.27400 27.90100
C  1.20800 10.97200 28.67900
C  2.43000 10.96900 29.54300
O  3.44900 10.38200 29.30800
O  2.17800 11.57800 30.71800
C  3.32900 11.68900 31.69900
H  0.48300 4.09100 28.02800
H  -0.86800 4.96600 21.86300
H  0.14600 11.24100 22.48600
H  2.22800 8.10500 29.77300
H  0.45800 5.87300 30.09100
H  2.68600 4.86100 28.89100
H  2.33400 4.95100 30.59900
H  3.26900 6.25900 29.86800
H  -0.53200 7.52600 30.86200
H  -0.27600 9.16900 30.25000
H  0.23800 9.31300 32.53700
H  1.85000 9.20000 31.68200
H  -1.04700 1.54200 26.03400
H  0.01000 2.36000 27.19000
H  0.85000 1.47600 25.96100
H  -1.34200 0.43100 23.98300
H  0.46200 0.82200 23.86800
H  -0.39000 0.10900 22.51900
H  -1.62800 7.32300 20.66800
H  0.54400 9.30500 20.54900
H  -0.38700 6.60100 18.84800
H  0.69300 5.94200 20.02300
H  0.88200 7.62600 19.34600
H  -1.69900 9.76900 19.58300
H  -1.13100 10.96400 20.61200
H  -2.78400 9.13200 22.11900
H  -3.58400 9.54800 20.55100
H  -3.19200 10.77700 21.77400
H  0.00400 13.71000 24.85200
H  0.68300 13.21900 23.31300
H  1.77900 13.63100 24.72200
H  0.46200 11.37500 29.36400
H  3.75500 10.71400 31.93700
H  3.03700 12.10100 32.66500
H  4.15300 12.24500 31.25200
Mg 25.61600 2.02300 30.31000
C  27.74200 1.84200 33.03900
C  23.09600 2.49300 32.62100
C  23.32000 1.77900 27.78400
C  28.13300 1.28600 28.15200
N  25.41300 2.02500 32.69800
C  26.47300 2.13500 33.52200
C  26.00900 2.47000 35.02300
C  24.48600 2.69800 34.80700
C  24.27500 2.40100 33.29400
C  23.56800 1.78000 35.66000
C  26.80300 3.72900 35.57800
C  27.59600 3.60900 36.85400
H  27.32300 4.59700 37.94700
N  23.51800 2.00800 30.31700
C  22.64800 2.30300 31.31200
C  21.25900 2.27000 30.78900
C  21.31200 1.95300 29.45200
C  22.78900 1.84400 29.13400
C  19.98800 2.49000 31.62500
C  20.14900 1.61600 28.48400
O  20.38300 1.35100 27.31200
C  18.70200 1.71300 28.97200
N  25.66900 1.56100 28.22300
C  24.68000 1.73300 27.34900
C  25.19100 1.95800 25.88800
C  26.67200 1.53300 26.03900
C  26.87800 1.51700 27.54600
C  24.33100 1.21000 24.86100
C  27.67000 2.41900 25.33700
C  27.80400 3.87900 25.75100
N  27.53100 1.60500 30.48100
C  28.47900 1.33900 29.57300
C  29.74400 1.13200 30.21700
C  29.48500 1.22900 31.56000
C  28.14600 1.61600 31.70200
C  31.07900 0.66300 29.59800
C  30.09400 1.10800 32.87700
O  31.27000 0.85400 33.13200
C  28.97100 1.51500 33.95000
C  28.70500 0.44100 35.01400
O  27.83700 -0.40400 34.84100
O  29.50500 0.52300 36.10000
C  29.25800 -0.37600 37.19900
H  22.29000 2.79500 33.29200
H  22.55900 2.03000 27.04200
H  29.00100 1.20700 27.49500
H  26.26900 1.54500 35.53700
H  24.17800 3.74300 34.83600
H  23.40100 0.87000 35.08400
H  22.61200 2.30200 35.72100
H  23.89600 1.63600 36.68900
H  26.01800 4.45700 35.78300
H  27.48300 4.04900 34.78800
H  28.66200 3.65200 36.63100
H  27.39200 2.62500 37.27800
H  19.39100 3.31800 31.24300
H  20.11300 2.55700 32.70500
H  19.49700 1.54100 31.41000
H  18.03700 1.61300 28.11500
H  18.65700 2.65200 29.52500
H  18.37700 0.86600 29.57700
H  25.07400 3.02600 25.70600
H  26.69700 0.50200 25.68500
H  24.95200 0.51400 24.29800
H  23.85300 1.90100 24.16600
H  23.57500 0.58400 25.33500
H  27.55700 2.29500 24.26000
H  28.64500 1.95100 25.47600
H  28.80100 4.20400 26.04900
H  27.17400 4.13000 26.60500
H  27.47100 4.57700 24.98300
H  31.37200 1.32500 28.78200
H  31.00200 -0.35200 29.21000
H  31.82100 0.67100 30.39600
H  29.26100 2.45200 34.42500
H  28.77800 -1.26500 36.78800
H  28.66100 0.09200 37.98200
H  30.26300 -0.53500 37.58800

