158

Mg 25.93100 1.17800 29.84000
C  27.94600 0.88200 32.83400
C  23.23700 1.38600 31.85000
C  24.08600 1.05000 27.09400
C  28.73400 0.36100 28.00500
N  25.71200 1.24500 32.13500
C  26.62700 1.05100 33.14800
C  25.97100 1.14200 34.57500
C  24.47000 1.23900 34.15600
C  24.38700 1.17200 32.62100
C  23.55300 0.17200 34.84200
C  26.56000 2.31400 35.44800
C  26.74600 1.93500 36.94700
H  26.49700 3.10600 37.84200
N  23.89100 1.32100 29.54800
C  22.93300 1.37600 30.52500
C  21.61300 1.53800 29.93600
C  21.84300 1.37100 28.54200
C  23.33500 1.24600 28.32900
C  20.44900 1.74400 30.83000
C  20.82400 1.29100 27.42600
O  21.26500 1.02300 26.27700
C  19.41600 1.61100 27.66400
N  26.28100 0.65700 27.89900
C  25.37500 0.84600 26.88400
C  25.99700 0.62700 25.48600
C  27.52100 0.55500 25.85200
C  27.50500 0.53900 27.39500
C  25.51400 -0.73200 24.84600
C  28.41200 1.76600 25.39200
C  29.82900 1.32800 25.02700
N  27.92200 0.76200 30.28700
C  28.94400 0.45200 29.41900
C  30.15800 0.18500 30.13000
C  29.77500 0.38000 31.44300
C  28.43000 0.73300 31.51800
C  31.47500 -0.24700 29.67100
C  30.28000 0.30600 32.79500
O  31.43100 -0.04700 33.17500
C  29.08800 0.76400 33.70700
C  28.94700 -0.35000 34.68700
O  28.47200 -1.44800 34.47300
O  29.39000 0.07400 35.94200
C  29.25400 -1.02400 36.94600
H  22.34600 1.32300 32.47900
H  23.52900 0.98500 26.15700
H  29.58900 0.12500 27.36900
H  26.20200 0.21000 35.09100
H  24.06700 2.22900 34.37100
H  22.86500 -0.29300 34.13600
H  22.93100 0.65700 35.59400
H  24.17800 -0.60000 35.28900
H  25.74200 3.03400 35.49100
H  27.37700 2.86900 34.98800
H  27.79500 1.69300 37.11400
H  26.18100 1.02900 37.16900
H  20.64000 2.53300 31.55700
H  20.17500 0.87500 31.42900
H  19.52200 2.00800 30.32100
H  19.02900 0.85500 28.34700
H  18.94400 1.53200 26.68500
H  19.23200 2.61800 28.03900
H  25.86700 1.45800 24.79300
H  27.94700 -0.41800 25.60900
H  24.77200 -1.22300 25.47600
H  26.26800 -1.50700 24.70800
H  25.15400 -0.60600 23.82500
H  28.64400 2.49900 26.16600
H  27.85600 2.35100 24.65900
H  29.97800 1.48200 23.95900
H  30.05500 0.30200 25.31700
H  30.49800 1.98500 25.58500
H  32.07500 -0.18600 30.57900
H  31.90000 0.41100 28.91300
H  31.42500 -1.28900 29.35600
H  29.13400 1.72300 34.22200
H  29.75800 -0.62700 37.82700
H  29.73500 -1.92200 36.55800
H  28.22700 -1.27600 37.21100
Mg 47.66300 24.78800 28.32500
C  48.69300 27.10600 30.96700
C  46.49900 22.70000 30.78400
C  47.15600 22.65200 25.91600
C  49.19100 27.13100 26.06000
N  47.58600 24.93400 30.54400
C  47.91900 25.96400 31.33000
C  47.41200 25.80200 32.83400
C  46.99800 24.25900 32.80400
C  46.96000 23.90900 31.28700
C  47.98100 23.24100 33.57300
C  46.21100 26.75200 33.33000
C  46.48700 27.62800 34.63400
H  46.76400 26.83900 35.87300
N  46.84200 22.94200 28.31800
C  46.40400 22.26600 29.44500
C  45.89200 21.00200 28.95800
C  46.05600 20.97300 27.54900
C  46.69800 22.19700 27.18000
C  45.39900 19.98800 29.89600
C  45.69300 19.91700 26.52700
O  46.03200 20.04100 25.36700
C  45.01900 18.69800 27.03300
N  48.23800 24.84800 26.35800
C  47.78700 23.85500 25.53200
C  48.18300 24.11600 24.04700
C  48.57800 25.61200 24.10500
C  48.74000 25.90200 25.55300
C  49.40000 23.18100 23.55000
C  47.51400 26.54900 23.37400
C  46.14500 26.45200 23.88300
N  48.85600 26.74200 28.43400
C  49.26700 27.53700 27.38800
C  49.83900 28.76300 27.92700
C  49.66500 28.59300 29.32400
C  49.07900 27.36400 29.56500
C  50.59000 29.86700 27.08600
C  49.87400 29.23800 30.57700
O  50.40800 30.33400 30.77300
C  49.20200 28.32000 31.65300
C  50.08500 28.16100 32.85300
O  51.04100 27.41300 32.88800
O  49.68700 28.99600 33.81500
C  50.31000 28.98800 35.11600
H  46.13400 22.02200 31.55900
H  46.98500 22.02500 25.03700
H  49.53400 27.83900 25.30300
H  48.29500 25.97700 33.45000
H  45.97700 24.06700 33.13400
H  48.95000 23.15900 33.08200
H  47.51400 22.28000 33.79200
H  48.18200 23.65100 34.56300
H  45.34100 26.12700 33.53400
H  45.66900 27.39500 32.63700
H  45.60700 28.23000 34.85900
H  47.37100 28.25100 34.50000
H  46.25900 19.41200 30.23900
H  44.57600 19.34300 29.59000
H  44.96600 20.61700 30.67400
H  45.47900 18.28300 27.93000
H  45.17700 17.89700 26.31000
H  43.96800 18.95900 27.15900
H  47.30100 23.89900 23.44500
H  49.58500 25.70200 23.69700
H  50.34700 23.71500 23.62500
H  49.16400 22.92900 22.51700
H  49.51000 22.30300 24.18800
H  47.50900 26.19500 22.34300
H  47.96800 27.53600 23.46300
H  45.85300 27.35000 24.42800
H  46.00200 25.57500 24.51500
H  45.46100 26.21600 23.06800
H  51.24500 29.38700 26.35900
H  51.37300 30.36700 27.65600
H  49.92800 30.60600 26.63400
H  48.33300 28.88700 31.98800
H  50.42200 30.05100 35.32900
H  51.28100 28.49300 35.11800
H  49.64600 28.63100 35.90400

