158

Mg -2.35800 17.52500 26.40000
C  -2.87800 15.05500 29.03600
C  -2.84800 19.91400 28.74800
C  -2.44500 19.73400 23.90600
C  -2.72400 14.85800 24.02900
N  -2.78200 17.36000 28.68200
C  -2.82600 16.34700 29.59500
C  -2.76500 16.87600 30.99900
C  -2.85000 18.42800 30.84800
C  -2.86900 18.59700 29.31800
C  -3.94900 19.21400 31.63900
C  -1.57800 16.18700 31.84000
C  -0.79500 17.01100 32.91000
H  -0.53400 16.37100 34.25300
N  -2.50200 19.52900 26.35200
C  -2.66100 20.41500 27.41400
C  -2.56300 21.78000 26.96800
C  -2.31900 21.69800 25.52200
C  -2.43100 20.28700 25.20800
C  -2.69200 22.98900 27.83400
C  -2.03700 22.74800 24.58800
O  -1.99400 22.68900 23.35200
C  -1.62700 24.10700 25.13000
N  -2.60400 17.34800 24.32300
C  -2.49800 18.37200 23.47600
C  -2.41400 17.98900 22.00100
C  -2.75700 16.48400 22.09200
C  -2.62900 16.18000 23.55700
C  -3.33900 18.69000 20.90400
C  -1.86900 15.54800 21.19600
C  -2.73100 14.34400 20.67700
N  -2.68800 15.44900 26.47200
C  -2.79800 14.53900 25.42000
C  -3.02200 13.24800 25.95900
C  -2.98100 13.36200 27.37600
C  -2.80400 14.76100 27.62400
C  -3.28900 11.97100 25.08600
C  -3.08100 12.62300 28.58300
O  -3.25900 11.43500 28.75200
C  -2.98700 13.68100 29.77300
C  -1.65700 13.35300 30.47000
O  -0.51300 13.52300 29.93900
O  -1.83000 12.78800 31.68000
C  -0.70800 12.37600 32.42700
H  -3.04600 20.76400 29.40400
H  -2.53400 20.46700 23.10100
H  -2.69400 13.99700 23.35800
H  -3.68900 16.51600 31.45300
H  -1.90500 18.84200 31.19900
H  -4.47900 19.93600 31.01800
H  -3.53300 19.76000 32.48500
H  -4.54400 18.49300 32.20000
H  -0.80400 16.03600 31.08800
H  -1.96800 15.26100 32.26400
H  -1.25500 17.99700 32.97700
H  0.20300 17.18600 32.50800
H  -3.11700 22.77200 28.81400
H  -3.41500 23.65100 27.35700
H  -1.80600 23.62300 27.79800
H  -2.53700 24.61900 25.44300
H  -1.26800 24.69100 24.28200
H  -0.90800 24.06300 25.94800
H  -1.36400 18.05300 21.71500
H  -3.84500 16.47400 22.01900
H  -4.09200 18.01200 20.50300
H  -2.67800 19.02200 20.10400
H  -3.83600 19.48000 21.46800
H  -0.99800 15.14300 21.71000
H  -1.54700 16.18000 20.36800
H  -2.62100 14.22400 19.60000
H  -3.78900 14.42400 20.92800
H  -2.40300 13.37900 21.06200
H  -4.08900 12.19200 24.37900
H  -3.50000 11.02300 25.58100
H  -2.40500 11.82900 24.46400
H  -3.72900 13.68000 30.57200
H  -1.13700 11.80800 33.25300
H  -0.21500 13.29900 32.73300
H  -0.03200 11.82000 31.77800
Mg 53.77000 24.15200 44.64100
C  51.14800 26.39300 44.01700
C  51.98700 21.67200 43.00500
C  56.41800 22.30500 44.92200
C  55.72500 26.95700 45.69200
N  51.85800 24.10700 43.53900
C  51.04200 25.16600 43.30500
C  49.89500 24.77400 42.32100
C  50.13100 23.25100 42.22800
C  51.33700 22.97400 42.98000
C  48.94700 22.35500 42.48500
C  49.88400 25.55800 40.89200
C  51.26000 26.18200 40.53400
H  52.09400 25.48000 39.49600
N  54.16000 22.21900 43.99400
C  53.23800 21.30900 43.50100
C  53.90400 20.08700 43.38100
C  55.11300 20.16900 44.08600
C  55.32600 21.58900 44.27800
C  53.31700 18.88000 42.71000
C  56.09100 18.97100 44.50000
O  55.75300 17.82400 44.27200
C  57.43800 19.17400 45.17100
N  55.85200 24.62900 45.03300
C  56.71900 23.63800 45.18500
C  58.10200 24.02900 45.78300
C  57.88800 25.54900 45.98500
C  56.38400 25.74200 45.56400
C  58.68100 23.13300 46.97900
C  58.83700 26.45600 45.15600
C  60.25400 26.38400 45.52800
N  53.56000 26.19700 44.82100
C  54.37800 27.17500 45.48600
C  53.61100 28.36100 45.68500
C  52.34000 28.08700 45.30300
C  52.40100 26.75000 44.71500
C  54.02700 29.66200 46.49400
C  50.96000 28.55500 45.24000
O  50.44700 29.59700 45.57700
C  50.18600 27.51600 44.30300
C  49.72700 28.21600 43.05200
O  50.40700 28.83300 42.22600
O  48.33800 28.20500 43.01500
C  47.77300 28.88500 41.86200
H  51.33100 20.93100 42.54500
H  57.20300 21.63000 45.26900
H  56.25800 27.75400 46.21500
H  48.97600 24.96700 42.87500
H  50.27600 22.98000 41.18300
H  49.20400 21.65600 43.28000
H  48.80000 21.69500 41.63000
H  48.12700 22.92700 42.92000
H  49.22700 26.41800 41.02000
H  49.56300 24.94200 40.05200
H  51.96500 26.39900 41.33700
H  50.98000 27.15200 40.12300
H  52.53300 19.15900 42.00600
H  52.76600 18.21000 43.36900
H  53.99200 18.13000 42.29800
H  57.87400 18.18900 45.33300
H  57.11600 19.66400 46.09000
H  58.01500 19.83300 44.52200
H  58.84000 23.93500 44.98700
H  57.90600 25.80900 47.04300
H  59.21400 22.24200 46.64500
H  57.80200 22.91300 47.58400
H  59.34800 23.79100 47.53600
H  58.46100 27.47300 45.04700
H  58.81500 25.99000 44.17000
H  60.17600 25.94500 46.52300
H  60.80600 27.32200 45.47600
H  60.87200 25.65400 45.00500
H  53.68700 30.50200 45.88700
H  55.11500 29.72800 46.48200
H  53.66600 29.56300 47.51800
H  49.28400 27.19400 44.82500
H  48.31300 28.67900 40.93700
H  47.77200 29.96700 42.00000
H  46.72200 28.62600 41.73700

