158

Mg 47.00100 25.47300 27.99200
C  47.76200 27.66800 30.46900
C  46.42700 23.01600 30.31400
C  46.10600 23.41800 25.51600
C  47.74600 27.87400 25.66500
N  47.03400 25.39200 30.17900
C  47.27900 26.40800 31.02800
C  47.24000 25.95600 32.47800
C  46.73800 24.50600 32.46300
C  46.73400 24.26000 30.86600
C  47.58300 23.53700 33.32500
C  46.53300 27.04500 33.40500
C  45.72700 26.57700 34.60000
H  45.51600 27.53800 35.83800
N  46.45100 23.48200 27.92800
C  46.27900 22.60800 29.00200
C  45.80400 21.32900 28.54000
C  45.54800 21.48400 27.17200
C  46.12500 22.82200 26.78300
C  45.49400 20.19300 29.57300
C  44.85500 20.61600 26.21200
O  44.46700 20.99100 25.10900
C  44.43300 19.33200 26.64700
N  47.03300 25.61900 25.85000
C  46.51500 24.65500 25.06600
C  46.53400 25.01500 23.58700
C  47.02300 26.49200 23.64500
C  47.24400 26.74100 25.14800
C  47.47200 24.18500 22.67800
C  45.95300 27.52800 23.05300
C  46.38800 28.43300 21.91200
N  47.75200 27.30900 28.00700
C  48.07600 28.18700 26.97900
C  48.45500 29.43800 27.50200
C  48.45100 29.21000 28.88300
C  48.00600 27.96100 29.13600
C  48.76700 30.66800 26.76200
C  48.75800 29.88500 30.15200
O  49.20900 31.00700 30.27500
C  48.19500 28.91900 31.24100
C  49.26300 28.64100 32.15100
O  50.24700 27.90500 31.93000
O  49.12400 29.35100 33.29200
C  50.34500 29.39800 34.16400
H  46.23800 22.30900 31.12500
H  45.88200 22.77300 24.66400
H  47.95800 28.59500 24.87300
H  48.28300 26.04000 32.78400
H  45.69600 24.45400 32.77800
H  48.13900 24.04100 34.11500
H  48.28400 23.07400 32.63100
H  47.01600 22.74700 33.81900
H  45.78100 27.49500 32.75800
H  47.33400 27.71300 33.72300
H  46.16000 25.63100 34.92400
H  44.75900 26.20700 34.26200
H  44.89200 19.35000 29.23500
H  45.13600 20.68500 30.47700
H  46.39800 19.66300 29.87500
H  44.03400 18.75800 25.81100
H  43.69500 19.38400 27.44600
H  45.38200 18.82600 26.82000
H  45.53700 25.02000 23.14700
H  47.94700 26.62000 23.08100
H  48.18300 23.60700 23.26900
H  47.95700 24.79600 21.91700
H  46.92900 23.48400 22.04300
H  45.42700 28.19600 23.73500
H  45.14700 26.95000 22.60000
H  45.70000 28.23800 21.08900
H  47.43100 28.26600 21.64400
H  46.25700 29.48300 22.17400
H  49.16200 31.42200 27.44300
H  47.86900 31.13800 26.36200
H  49.52300 30.40200 26.02300
H  47.27800 29.37700 31.61200
H  49.99700 29.05800 35.13900
H  50.66000 30.43500 34.27900
H  51.21800 28.79200 33.92100
Mg 9.39100 48.43200 25.86300
C  7.36300 48.98800 28.72700
C  12.07000 50.10800 27.63600
C  11.43200 48.23200 23.10100
C  6.68000 47.42800 24.16400
N  9.68600 49.40600 27.99000
C  8.73000 49.51300 28.97400
C  9.43400 49.86100 30.27600
C  10.82200 50.41600 29.82900
C  10.87200 50.01100 28.36700
C  11.10100 51.92900 30.09400
C  9.50600 48.68900 31.19800
C  9.11000 48.98100 32.67400
H  8.91500 47.80200 33.61400
N  11.46100 48.94300 25.47100
C  12.31700 49.69700 26.30000
C  13.60500 49.60800 25.72000
C  13.45400 49.06200 24.39600
C  12.08600 48.67600 24.27300
C  14.84300 50.28000 26.43000
C  14.63000 48.84900 23.38800
O  14.39900 48.32900 22.29800
C  16.09000 49.41000 23.58700
N  9.19200 47.89600 23.89600
C  10.10900 47.91200 22.92200
C  9.47700 47.48400 21.53300
C  8.09600 46.97000 22.01200
C  7.94600 47.42900 23.43500
C  9.46800 48.69800 20.57200
C  7.90900 45.40300 21.89100
C  8.57600 44.52500 22.96200
N  7.34100 48.22600 26.25000
C  6.32800 47.95200 25.40600
C  5.12200 47.91500 26.13600
C  5.44900 48.35800 27.40400
C  6.86400 48.57700 27.45800
C  3.83000 47.57900 25.56500
C  4.83500 48.69300 28.74400
O  3.69100 48.76200 29.10400
C  6.13000 48.89900 29.69100
C  6.15000 47.67300 30.53000
O  6.73200 46.60900 30.25000
O  5.21200 47.74800 31.54000
C  5.04100 46.46000 32.32100
H  12.86800 50.63300 28.16500
H  12.07900 48.07700 22.23600
H  5.85400 46.98900 23.60100
H  8.90900 50.70200 30.72800
H  11.66700 49.84000 30.20500
H  10.71300 52.41400 29.19800
H  12.16500 52.16100 30.13000
H  10.58300 52.25600 30.99500
H  10.50100 48.25500 31.09400
H  8.89800 47.84400 30.87600
H  8.12900 49.42800 32.51700
H  9.81100 49.66700 33.15000
H  14.68500 50.59900 27.46000
H  15.19900 51.16300 25.90000
H  15.64600 49.54300 26.43800
H  15.89800 50.45000 23.32500
H  16.74300 48.98800 22.82200
H  16.46600 49.15700 24.57800
H  10.15500 46.72500 21.14400
H  7.39900 47.39600 21.29100
H  9.70600 49.63300 21.08000
H  8.49300 48.85500 20.11000
H  10.27900 48.58900 19.85100
H  8.37200 45.16300 20.93300
H  6.85600 45.12300 21.89200
H  9.37600 45.01300 23.51900
H  8.95000 43.68500 22.37700
H  7.87200 44.25000 23.74700
H  3.64200 46.51500 25.42700
H  3.83600 48.10200 24.60800
H  3.03700 47.92700 26.22700
H  5.98600 49.84900 30.20600
H  5.39700 46.70900 33.32100
H  5.61200 45.60900 31.95100
H  4.00200 46.14900 32.43200

