158

Mg 43.84400 3.90000 47.55800
C  41.50100 6.48500 46.90400
C  41.33400 1.56100 47.51600
C  46.28700 1.66000 47.51700
C  46.35300 6.39200 46.91300
N  41.63700 4.01800 47.10000
C  40.93300 5.14900 46.86600
C  39.44000 4.66500 46.64600
C  39.41800 3.20700 47.36400
C  40.86000 2.89200 47.31000
C  38.92900 3.24500 48.85000
C  39.12200 4.71400 45.18200
C  37.84600 5.46600 44.76700
H  37.99500 6.59400 43.66200
N  43.78700 1.92100 47.66100
C  42.70400 1.12300 47.54400
C  43.11400 -0.24200 47.53300
C  44.49400 -0.31700 47.56600
C  44.91200 1.12400 47.59000
C  42.10800 -1.38100 47.42400
C  45.36200 -1.59900 47.54400
O  44.78100 -2.69200 47.57000
C  46.83100 -1.65000 47.46800
N  45.97900 3.95000 47.23400
C  46.72900 2.92900 47.44100
C  48.21900 3.28500 47.62800
C  48.19100 4.74400 47.13700
C  46.74800 5.06600 47.12400
C  48.65400 3.01400 49.15400
C  48.88300 5.02300 45.83700
C  47.97100 4.49100 44.64800
N  43.95800 6.05900 47.16800
C  45.05300 6.87700 46.83500
C  44.61800 8.25600 46.64400
C  43.23000 8.14800 46.76700
C  42.86600 6.75700 46.92400
C  45.42500 9.46500 46.36000
C  41.95100 8.90400 46.66100
O  41.77200 10.13900 46.49800
C  40.74600 7.79400 46.79500
C  40.00100 8.10800 47.97400
O  40.26000 7.90400 49.13500
O  38.85900 8.81300 47.61200
C  38.04200 9.32900 48.71800
H  40.60900 0.74500 47.48100
H  46.96900 0.81200 47.60800
H  47.14300 7.13900 46.81800
H  38.76100 5.38700 47.10000
H  38.92000 2.37300 46.87000
H  38.35700 4.16200 48.99100
H  39.71000 3.11200 49.59900
H  38.12200 2.52800 48.99800
H  38.96900 3.66500 44.92700
H  39.95500 4.98300 44.53300
H  37.50000 6.07700 45.60000
H  37.04300 4.80700 44.43500
H  42.61100 -2.21600 46.93400
H  41.16500 -1.18700 46.91300
H  41.74300 -1.50600 48.44300
H  47.14500 -1.36000 48.47100
H  47.19100 -0.96900 46.69700
H  47.21500 -2.65600 47.30000
H  48.90000 2.77800 46.94400
H  48.64900 5.28500 47.96500
H  49.39600 2.21700 49.11300
H  47.77800 2.75900 49.75000
H  49.01000 3.90300 49.67300
H  49.79800 4.44100 45.73100
H  49.20400 6.06500 45.80600
H  47.56600 5.35500 44.12100
H  47.25000 3.69200 44.82100
H  48.62700 3.95900 43.95900
H  45.92500 9.43600 45.39100
H  46.16900 9.59800 47.14500
H  44.84500 10.38800 46.33600
H  40.05000 7.88100 45.96000
H  37.15700 9.81500 48.30700
H  38.63200 9.99600 49.34500
H  37.76800 8.49000 49.35800
Mg 41.13500 8.12400 29.53500
C  42.52300 9.74000 32.21700
C  38.79600 6.88800 31.83300
C  39.85200 6.41300 27.02600
C  43.73200 9.36700 27.47200
N  40.77900 8.11200 31.79500
C  41.46600 8.99400 32.61000
C  40.90200 9.00500 33.99900
C  39.71300 7.99600 33.91600
C  39.62900 7.69900 32.42800
C  39.90000 6.67600 34.75900
C  40.44600 10.44500 34.51300
C  39.48700 10.48000 35.72100
H  39.96500 11.50000 36.79000
N  39.56300 6.93900 29.46500
C  38.70400 6.51300 30.47700
C  37.68200 5.68900 29.93600
C  37.95600 5.53700 28.58700
C  39.20200 6.26800 28.28900
C  36.73200 4.93300 30.87400
C  37.15500 4.83300 27.46000
O  37.52100 4.64200 26.30800
C  35.88100 4.15000 27.62700
N  41.66100 7.97500 27.53800
C  40.92700 7.19800 26.68800
C  41.63100 7.18300 25.33900
C  42.62900 8.37200 25.41400
C  42.65000 8.65300 26.90900
C  42.25100 5.76900 25.05600
C  42.32500 9.65400 24.68800
C  40.94100 10.22300 25.01000
N  42.84600 9.23600 29.73100
C  43.73600 9.68000 28.81600
C  44.63800 10.54900 29.44600
C  44.29100 10.58000 30.82600
C  43.14700 9.74100 30.94900
C  45.72500 11.35100 28.74200
C  44.54200 11.11700 32.06300
O  45.42300 11.89400 32.48100
C  43.36200 10.59900 33.05200
C  43.98500 9.92300 34.16300
O  44.61600 8.88600 34.11700
O  43.75400 10.53900 35.40300
C  44.18900 9.82900 36.61800
H  38.03500 6.56300 32.54600
H  39.48200 5.88600 26.14400
H  44.50700 9.77200 26.81800
H  41.68700 8.67700 34.68000
H  38.79300 8.49400 34.21900
H  40.24300 5.84600 34.14100
H  38.96900 6.36100 35.23000
H  40.62900 6.75200 35.56600
H  40.13700 10.91900 33.58100
H  41.33900 10.98700 34.82500
H  39.43800 9.47700 36.14300
H  38.54300 10.89800 35.37000
H  35.81400 4.66100 30.35300
H  36.36900 5.56300 31.68600
H  37.24100 4.09700 31.35300
H  35.15100 4.73300 28.18800
H  36.12300 3.22100 28.14400
H  35.44600 4.05900 26.63100
H  40.87500 7.38900 24.58200
H  43.61700 8.07900 25.05800
H  43.28800 5.88600 24.74100
H  41.58100 5.25300 24.36700
H  42.24100 5.11000 25.92400
H  42.21200 9.42800 23.62800
H  43.13600 10.36500 24.84600
H  41.08600 11.30100 25.08100
H  40.51000 9.93300 25.96900
H  40.31300 10.00600 24.14600
H  46.00600 12.23800 29.31000
H  45.46500 11.45000 27.68800
H  46.60900 10.71700 28.67100
H  42.99500 11.54700 33.44400
H  44.41500 8.77300 36.46700
H  43.48200 9.89000 37.44500
H  45.06000 10.34900 37.01800

