158

Mg -11.41500 37.47700 43.09000
C  -9.09400 35.04100 42.20300
C  -9.58800 39.78700 41.41100
C  -14.15800 39.52600 43.11800
C  -13.60900 34.77600 44.10400
N  -9.57800 37.37100 41.85000
C  -8.84100 36.26700 41.52800
C  -7.60700 36.51500 40.78500
C  -7.62700 38.10200 40.69400
C  -9.02100 38.48000 41.41200
C  -6.39400 38.78400 41.30400
C  -7.55400 35.83400 39.34300
C  -6.65200 34.70000 39.08400
H  -5.49000 34.94400 38.12600
N  -11.79200 39.40000 42.38900
C  -10.85000 40.24400 41.73800
C  -11.39000 41.59000 41.60300
C  -12.75700 41.49400 42.05800
C  -12.99000 40.13100 42.54900
C  -10.60900 42.76900 40.99900
C  -13.74100 42.63100 42.06300
O  -13.33300 43.69600 41.74100
C  -15.25100 42.47500 42.31900
N  -13.57100 37.11200 43.51500
C  -14.37800 38.22000 43.64800
C  -15.80700 37.86000 44.11100
C  -15.71800 36.29500 44.24200
C  -14.23400 35.98100 43.92300
C  -16.28800 38.61100 45.37400
C  -16.66000 35.43700 43.34900
C  -17.48700 34.38200 44.07900
N  -11.36000 35.41200 43.37800
C  -12.26500 34.42800 43.83900
C  -11.57100 33.13600 43.95900
C  -10.36700 33.34100 43.21600
C  -10.29400 34.69500 42.88800
C  -12.11200 31.80200 44.53100
C  -9.17000 32.69400 42.86800
O  -8.63800 31.62100 43.04700
C  -8.27700 33.76600 42.28900
C  -7.19100 33.97700 43.32600
O  -7.32900 34.38300 44.47100
O  -5.91600 33.84300 42.76900
C  -4.76100 34.33800 43.57200
H  -8.98000 40.59100 40.99000
H  -14.93300 40.22800 43.43500
H  -14.29600 33.95500 44.32400
H  -6.84400 36.29800 41.53300
H  -7.67200 38.46300 39.66700
H  -5.89300 39.30400 40.48800
H  -5.64200 38.09300 41.68400
H  -6.72100 39.59100 41.96000
H  -7.36100 36.66000 38.65900
H  -8.58300 35.58500 39.08700
H  -7.16400 33.77500 38.81800
H  -6.20900 34.46200 40.05100
H  -11.15200 43.20000 40.15800
H  -9.65300 42.47300 40.56800
H  -10.34000 43.46900 41.79000
H  -15.74000 43.41000 42.04400
H  -15.48200 42.18800 43.34500
H  -15.61000 41.74300 41.59600
H  -16.40400 38.21300 43.27000
H  -15.84000 36.02500 45.29100
H  -15.57600 39.34300 45.75600
H  -16.60900 38.18700 46.32500
H  -17.16400 39.22500 45.16500
H  -16.08700 34.79000 42.68500
H  -17.32200 36.05400 42.74200
H  -17.44300 33.40700 43.59400
H  -18.54300 34.64900 44.03800
H  -17.19500 34.34000 45.12800
H  -12.54000 31.13600 43.78100
H  -12.93100 32.01400 45.21900
H  -11.32000 31.21700 44.99900
H  -7.84800 33.40600 41.35300
H  -3.82500 34.46600 43.02900
H  -4.53600 33.53300 44.27200
H  -4.95300 35.28000 44.08500
Mg 1.42200 41.77700 25.53200
C  3.07700 41.91800 28.58600
C  -1.42300 40.76900 27.25000
C  0.04700 40.98500 22.53400
C  4.48200 42.62200 23.84000
N  0.86000 41.59700 27.74100
C  1.68900 41.73400 28.81000
C  0.85300 41.60300 30.17600
C  -0.61500 41.19100 29.66600
C  -0.41600 41.24300 28.15600
C  -1.06000 39.78800 30.24800
C  0.88600 42.86500 31.13300
C  1.41700 42.74900 32.61400
H  1.31200 41.42100 33.44500
N  -0.38400 41.00500 25.03600
C  -1.44000 40.58200 25.80200
C  -2.56900 40.18800 24.98900
C  -2.09800 40.13700 23.66900
C  -0.79700 40.74400 23.63000
C  -3.97500 39.83700 25.59100
C  -2.86100 39.82000 22.41800
O  -2.34000 39.73300 21.30100
C  -4.29700 39.40500 22.42600
N  2.10500 42.00000 23.50400
C  1.34200 41.56000 22.44000
C  2.04000 41.65500 21.12200
C  3.39000 42.32900 21.46800
C  3.32800 42.42600 23.01400
C  2.17700 40.32400 20.33500
C  3.61200 43.68300 20.76100
C  2.84800 44.85200 21.35800
N  3.38000 42.38200 26.04000
C  4.54500 42.55000 25.28800
C  5.69200 42.59900 26.17100
C  5.15000 42.41800 27.46700
C  3.74500 42.18400 27.34400
C  7.10500 42.78100 25.78500
C  5.46800 42.32000 28.87000
O  6.56900 42.49400 29.35400
C  4.16900 41.99000 29.68900
C  4.36000 40.82600 30.53800
O  3.99100 39.68600 30.32100
O  5.11300 41.22100 31.59700
C  5.32000 40.29800 32.68100
H  -2.31500 40.52100 27.82900
H  -0.34000 40.60100 21.58800
H  5.44300 42.83700 23.36700
H  1.28900 40.79900 30.76900
H  -1.25500 42.02600 29.94900
H  -1.01700 38.96500 29.53400
H  -2.11200 39.85600 30.52300
H  -0.53900 39.44100 31.14100
H  -0.07300 43.37700 31.21700
H  1.52500 43.59500 30.63700
H  1.21600 43.59300 33.27300
H  2.49400 42.77800 32.44500
H  -4.68200 40.52400 25.12500
H  -4.13800 39.93600 26.66400
H  -4.21500 38.82800 25.25600
H  -4.89600 40.22000 22.83100
H  -4.34800 38.45100 22.95100
H  -4.74500 39.47800 21.43500
H  1.28000 42.24200 20.60700
H  4.22300 41.70900 21.13600
H  1.36100 40.29200 19.61400
H  2.12300 39.51800 21.06700
H  3.11400 40.32300 19.77700
H  3.37700 43.53900 19.70600
H  4.65800 43.97000 20.86200
H  2.08200 44.56200 22.07700
H  2.29600 45.36300 20.56900
H  3.50500 45.57800 21.83900
H  7.30700 42.34200 24.80800
H  7.76600 42.32300 26.52000
H  7.43900 43.81100 25.65900
H  4.15800 42.86000 30.34600
H  6.39100 40.14700 32.81200
H  4.82700 39.33700 32.53600
H  4.88000 40.79200 33.54700

