158

Mg 1.05400 8.17500 26.23100
C  1.92500 9.91700 29.18300
C  1.42200 5.20500 28.19800
C  0.63100 6.42100 23.46800
C  1.29100 11.11700 24.45000
N  1.57800 7.67000 28.37700
C  1.78800 8.56200 29.39600
C  1.75500 7.86300 30.77100
C  2.00200 6.37600 30.40200
C  1.61900 6.37600 28.93000
C  3.44000 5.96500 30.69000
C  0.34700 8.19500 31.47900
C  0.27500 8.03500 32.99200
H  1.48300 7.54800 33.80900
N  0.84000 6.13000 25.94100
C  0.99500 5.06900 26.79400
C  0.69000 3.84300 26.13300
C  0.25300 4.16400 24.83100
C  0.56300 5.61000 24.68100
C  0.67800 2.54000 26.73100
C  -0.26400 3.21300 23.64400
O  -0.42000 3.54400 22.47800
C  -0.66000 1.78500 23.98100
N  1.11600 8.69700 24.21100
C  0.81800 7.82000 23.26200
C  0.86700 8.54900 21.87000
C  0.63600 10.06500 22.29900
C  0.95800 9.95600 23.76600
C  2.21300 8.38400 21.08100
C  -0.85800 10.46600 22.14800
C  -1.28600 11.56700 21.14200
N  1.48600 10.17000 26.66100
C  1.45800 11.29700 25.80400
C  1.63400 12.51600 26.58800
C  1.85400 12.02000 27.91700
C  1.82900 10.57700 27.90200
C  1.36200 13.94400 26.14300
C  2.19500 12.36600 29.21700
O  2.48100 13.46600 29.56700
C  2.01400 11.09100 30.13600
C  3.09400 10.92800 31.09300
O  4.27100 10.96000 30.71900
O  2.66600 10.90100 32.35300
C  3.78400 11.18400 33.25000
H  1.62200 4.30200 28.77900
H  0.37000 5.89800 22.54600
H  1.16400 12.04800 23.89200
H  2.64000 8.24700 31.28000
H  1.34800 5.64600 30.87900
H  4.05600 6.63100 31.29500
H  3.86900 5.81600 29.70000
H  3.41600 4.95900 31.10800
H  -0.47300 7.79200 30.88500
H  0.19600 9.24600 31.23400
H  -0.59700 7.42400 33.22600
H  0.02700 8.96700 33.50000
H  1.25200 2.44900 27.65300
H  1.15700 1.80500 26.08500
H  -0.36400 2.22500 26.79800
H  -1.34200 1.72000 24.83000
H  0.25300 1.22900 24.19700
H  -1.14000 1.34300 23.10800
H  0.07300 8.18300 21.21800
H  1.29800 10.71200 21.72400
H  2.92600 8.03900 21.83000
H  2.60600 9.34700 20.75400
H  2.10500 7.60000 20.33100
H  -1.24200 10.50600 23.16700
H  -1.36300 9.59700 21.72600
H  -0.46900 11.95800 20.53600
H  -1.68200 12.38100 21.74800
H  -1.96600 11.03200 20.47900
H  1.31200 14.12300 25.06900
H  2.28400 14.42100 26.47500
H  0.54600 14.42600 26.68200
H  1.05100 11.37900 30.55700
H  4.57300 10.43400 33.19700
H  3.39300 11.12800 34.26600
H  4.13600 12.17900 32.98100
Mg 16.78200 -0.97900 27.63600
C  16.11000 1.00200 30.54100
C  18.80900 -2.93400 29.72400
C  18.13500 -2.24900 24.93300
C  15.06500 1.37900 25.79300
N  17.39300 -0.88000 29.74800
C  16.96500 -0.01900 30.85100
C  17.45500 -0.42100 32.22300
C  18.45200 -1.60000 31.82700
C  18.23800 -1.83300 30.34100
C  19.90300 -1.44100 32.21700
C  16.31500 -0.71800 33.30800
C  16.33400 0.10400 34.66800
H  17.75700 0.63900 35.17300
N  18.22200 -2.42300 27.31400
C  18.80700 -3.22800 28.33800
C  19.58500 -4.23000 27.69100
C  19.40800 -4.09900 26.23100
C  18.54100 -2.88300 26.07700
C  20.32500 -5.33300 28.48900
C  19.91700 -4.83100 24.97800
O  19.62000 -4.62100 23.82500
C  21.04600 -5.87600 25.21300
N  16.66300 -0.52700 25.57700
C  17.38000 -1.14500 24.67900
C  17.16200 -0.49200 23.26800
C  15.98400 0.54900 23.56000
C  15.83700 0.42200 25.05200
C  18.48400 0.18300 22.65900
C  14.64700 0.19300 22.82200
C  14.73200 0.23900 21.23600
N  15.70200 0.74100 28.01700
C  15.03100 1.58800 27.19800
C  14.44700 2.66700 28.01100
C  14.80800 2.41800 29.30400
C  15.66600 1.32300 29.26300
C  13.68500 3.89500 27.43600
C  14.64200 2.85200 30.66200
O  13.91300 3.74600 31.04100
C  15.58000 2.03100 31.49400
C  16.44600 3.07700 32.08500
O  17.44500 3.55200 31.54600
O  15.90300 3.54100 33.24700
C  16.57700 4.64000 33.96600
H  19.45700 -3.55900 30.34100
H  18.76000 -2.58900 24.10400
H  14.45700 2.09100 25.23000
H  18.11100 0.32300 32.67400
H  18.19400 -2.59200 32.19700
H  20.58300 -1.90800 31.50500
H  20.16000 -2.05800 33.07800
H  20.11700 -0.38900 32.41000
H  16.41000 -1.80000 33.40100
H  15.42700 -0.41200 32.75500
H  15.88700 -0.51500 35.44600
H  15.62700 0.91400 34.49000
H  20.27900 -6.30000 27.98800
H  19.84700 -5.36600 29.46800
H  21.37100 -5.06000 28.63300
H  20.64800 -6.77100 25.69100
H  21.87200 -5.55200 25.84600
H  21.41800 -6.15900 24.22800
H  16.82900 -1.31500 22.63500
H  16.32300 1.50300 23.15500
H  18.40800 1.26800 22.72600
H  18.56900 -0.13200 21.61900
H  19.40800 -0.18200 23.10800
H  13.84500 0.77900 23.27100
H  14.40800 -0.83800 23.08300
H  14.95100 1.30100 21.12500
H  13.77700 0.09500 20.73200
H  15.54600 -0.36500 20.83600
H  13.79100 4.10800 26.37300
H  14.16000 4.75100 27.91500
H  12.65400 3.81200 27.78300
H  14.89600 1.62300 32.23800
H  16.80700 5.52500 33.37200
H  17.54800 4.21800 34.22700
H  16.10000 4.88400 34.91500

