158

Mg 44.35200 3.79700 47.29100
C  42.27300 6.67000 46.88800
C  41.66200 1.86500 46.73400
C  46.37300 1.26900 46.79700
C  47.14300 6.06400 47.03100
N  42.19800 4.24600 46.85100
C  41.56200 5.40600 46.79800
C  40.08600 5.23700 46.51600
C  39.83300 3.71900 46.86300
C  41.33300 3.23500 46.81900
C  39.14000 3.47500 48.19800
C  39.75600 5.67900 45.04200
C  38.61200 6.66300 44.93700
H  38.35100 7.46000 43.59000
N  44.05400 1.76700 46.94600
C  42.82800 1.13700 46.84300
C  43.01900 -0.24600 46.76400
C  44.46800 -0.45200 46.75400
C  45.02600 0.88200 46.84900
C  41.88500 -1.25400 46.84200
C  45.11500 -1.80300 46.63800
O  44.48600 -2.82400 46.64500
C  46.58200 -1.98400 46.48400
N  46.49600 3.72600 46.83600
C  47.01300 2.50100 46.79400
C  48.54400 2.58500 46.82900
C  48.76400 4.07700 46.64700
C  47.41800 4.69400 46.88600
C  49.29100 1.97800 48.02700
C  49.34500 4.50900 45.26400
C  50.86200 4.82000 45.00600
N  44.67900 5.85300 47.16600
C  45.86700 6.61700 47.08800
C  45.53900 8.06600 46.95100
C  44.13100 8.11600 46.96900
C  43.67300 6.80100 47.09300
C  46.59600 9.15300 46.75600
C  42.97800 9.02900 46.87200
O  42.94600 10.23700 46.78900
C  41.68000 8.09400 46.83000
C  40.85300 8.37400 48.02500
O  41.19200 8.10300 49.14100
O  39.64200 8.90500 47.68800
C  38.67800 8.92000 48.84600
H  40.70800 1.36600 46.54900
H  47.06000 0.42100 46.81300
H  48.07200 6.63500 47.07600
H  39.62200 5.98400 47.15900
H  39.22100 3.27400 46.07900
H  39.00200 4.44100 48.68600
H  39.77100 2.85800 48.83800
H  38.18300 2.95300 48.19000
H  39.50600 4.84900 44.38200
H  40.63900 6.17100 44.63300
H  38.65700 7.37700 45.75900
H  37.66000 6.13500 44.98700
H  41.90800 -1.73100 47.82200
H  41.96700 -1.95200 46.00900
H  40.92400 -0.80400 46.59300
H  46.95500 -1.69100 45.50300
H  46.83000 -3.04500 46.48700
H  47.05000 -1.58100 47.38300
H  48.94900 1.98500 46.01500
H  49.37800 4.37800 47.49500
H  49.94100 1.18500 47.65700
H  48.67600 1.52700 48.80600
H  49.88100 2.74200 48.53500
H  48.72300 5.30100 44.84700
H  49.14900 3.66000 44.60800
H  51.25500 3.98800 44.42100
H  51.45600 4.76600 45.91800
H  51.07700 5.74000 44.46100
H  47.47500 8.88300 47.34300
H  46.20900 10.05900 47.22300
H  46.89500 9.24400 45.71200
H  41.21500 8.33100 45.87300
H  38.90000 9.60500 49.66500
H  38.50300 7.96400 49.33800
H  37.71000 9.31500 48.53800
Mg 34.59700 3.23500 29.85200
C  32.29200 3.68400 32.35900
C  37.15800 3.35500 32.06700
C  36.70100 2.49300 27.25200
C  31.90000 3.38300 27.52700
N  34.65500 3.44600 31.96900
C  33.61000 3.58200 32.83300
C  34.15200 3.43900 34.23200
C  35.68900 3.52000 34.10300
C  35.86400 3.50700 32.60400
C  36.39900 4.60500 35.04600
C  33.52400 2.27300 35.09400
C  33.19100 2.43200 36.63400
H  33.95800 3.53400 37.35900
N  36.63500 3.01100 29.69200
C  37.55700 3.08000 30.73100
C  38.96300 2.83200 30.21700
C  38.78300 2.52200 28.84600
C  37.31400 2.60600 28.52000
C  40.21400 3.05600 31.17500
C  39.85600 2.16700 27.90300
O  39.65100 1.96800 26.66400
C  41.23100 2.15900 28.34600
N  34.37700 2.80500 27.69100
C  35.35200 2.60300 26.83200
C  34.82400 2.87700 25.38800
C  33.31900 2.87800 25.53100
C  33.13600 3.06700 27.05300
C  35.38100 4.13900 24.75600
C  32.40900 1.84900 24.75700
C  32.43100 0.43300 25.28000
N  32.56100 3.49200 29.79800
C  31.59100 3.59100 28.80700
C  30.26700 3.87700 29.48000
C  30.57100 3.88500 30.80500
C  31.89900 3.61700 30.98700
C  28.93600 4.00800 28.69100
C  29.90600 4.09100 32.16200
O  28.70600 4.29200 32.43000
C  31.01000 3.87600 33.15700
C  30.96000 5.10800 34.07400
O  31.59400 6.13900 33.93800
O  30.25700 4.79800 35.19500
C  30.39300 5.79200 36.27000
H  37.91700 3.18800 32.83400
H  37.32000 2.45300 26.35400
H  31.02400 3.50800 26.88700
H  33.88500 4.34500 34.77600
H  36.01300 2.49300 34.26900
H  36.72400 5.41700 34.39600
H  37.21100 4.07200 35.54200
H  35.67100 5.00500 35.75100
H  34.17600 1.40000 35.08700
H  32.52500 2.00900 34.74700
H  33.35800 1.47800 37.13500
H  32.11500 2.61100 36.64400
H  40.57300 4.06600 30.97800
H  41.12200 2.50800 30.92200
H  40.01200 3.07800 32.24600
H  41.92000 1.98700 27.51900
H  41.25600 1.22100 28.90100
H  41.67700 2.93800 28.96300
H  35.16100 2.03700 24.78000
H  32.92800 3.82300 25.15500
H  36.01900 4.58800 25.51700
H  34.65400 4.86100 24.38300
H  35.91200 3.85300 23.84700
H  32.71000 1.92000 23.71200
H  31.39100 2.23500 24.80400
H  31.43900 -0.01100 25.19900
H  32.77600 0.37300 26.31200
H  33.15800 -0.09500 24.66300
H  28.21300 3.27800 29.05200
H  29.14600 3.73900 27.65500
H  28.68000 5.06800 28.68900
H  30.68600 2.99600 33.71200
H  29.73600 6.63800 36.06700
H  31.33800 6.23600 36.58200
H  29.88300 5.31300 37.10600

