158

Mg 54.44300 23.98600 43.06500
C  52.04700 26.43200 42.63300
C  52.13900 21.70200 42.16100
C  56.99400 21.85500 42.23800
C  56.90700 26.54200 42.99100
N  52.25500 24.03500 42.63400
C  51.49200 25.13800 42.47000
C  50.10700 24.75500 41.99300
C  50.11400 23.20100 42.13900
C  51.61500 22.94300 42.30900
C  49.38400 22.63300 43.32100
C  49.81300 25.14000 40.56300
C  51.00300 24.92900 39.53900
H  50.66100 24.75200 38.07700
N  54.51400 21.98600 42.48100
C  53.42600 21.14900 42.24400
C  53.89700 19.86400 41.81400
C  55.31000 19.92000 41.96700
C  55.67500 21.31600 42.25100
C  53.04400 18.63500 41.54400
C  56.22100 18.66900 41.81800
O  55.76800 17.58600 41.36900
C  57.66200 18.72600 42.09200
N  56.65500 24.10900 42.73000
C  57.50000 23.07600 42.49900
C  58.97900 23.45400 42.34200
C  58.87300 24.99500 42.59800
C  57.37600 25.22600 42.79600
C  60.02300 22.74900 43.24800
C  59.55400 25.88800 41.49800
C  58.75100 26.16000 40.22400
N  54.44800 26.01200 43.10700
C  55.47800 26.93400 43.03100
C  54.98900 28.27300 43.11600
C  53.63300 28.12600 43.05700
C  53.34800 26.72600 42.95200
C  55.80600 29.44500 43.00700
C  52.35900 28.83500 43.12600
O  52.10800 29.96700 43.41100
C  51.29000 27.82500 42.61300
C  50.81300 28.30400 41.32300
O  51.50700 28.25300 40.31000
O  49.50100 28.76000 41.33600
C  49.03200 29.14300 40.02700
H  51.44800 20.86600 42.02900
H  57.83300 21.22300 41.93900
H  57.64700 27.34400 43.03100
H  49.43200 25.18300 42.73300
H  49.63900 22.71500 41.28800
H  49.64600 23.29400 44.14700
H  49.77900 21.67400 43.65800
H  48.30300 22.52600 43.23200
H  49.41400 26.15300 40.49700
H  49.08700 24.48700 40.08000
H  51.60600 24.09200 39.89000
H  51.68300 25.77100 39.67000
H  52.99900 18.54600 40.45900
H  52.05100 18.78900 41.96900
H  53.51400 17.75700 41.98800
H  58.14800 17.75100 42.06200
H  57.99300 19.13800 43.04500
H  58.04600 19.30300 41.25000
H  59.25700 23.33800 41.29400
H  59.40400 25.15700 43.53600
H  60.65000 22.08200 42.65700
H  59.51100 22.22500 44.05500
H  60.71200 23.49800 43.63900
H  60.50600 25.40100 41.28200
H  59.86000 26.80800 41.99600
H  58.67200 27.23500 40.05900
H  57.73900 25.76100 40.28800
H  59.29000 25.70000 39.39500
H  55.17600 30.33300 43.06100
H  56.24700 29.40000 42.01100
H  56.55000 29.36600 43.79900
H  50.48000 27.81300 43.34100
H  49.38800 30.15800 39.84700
H  47.94400 29.18000 40.08500
H  49.40600 28.47900 39.24800
Mg 36.80900 50.20500 26.78400
C  37.22800 47.80800 29.22200
C  35.72600 52.37500 29.11000
C  36.27700 52.55300 24.30300
C  37.75300 47.93300 24.37600
N  36.21100 49.96100 28.86300
C  36.52500 48.89800 29.69200
C  36.18100 49.30000 31.16500
C  35.43800 50.70600 31.00700
C  35.90000 51.02800 29.58000
C  33.86800 50.74700 31.18800
C  37.51300 49.36600 32.08200
C  37.35500 48.96900 33.53200
H  35.95500 49.01900 34.16100
N  36.21700 52.28800 26.73400
C  35.82200 52.92400 27.81300
C  35.62100 54.35000 27.46400
C  35.67400 54.36300 26.02400
C  36.01400 53.02100 25.63200
C  35.29100 55.38800 28.54900
C  35.33000 55.46600 25.05600
O  35.17300 55.25800 23.88100
C  35.15700 56.81800 25.63300
N  36.88700 50.12800 24.70500
C  36.70600 51.29500 23.93700
C  36.98000 50.96000 22.40000
C  37.70200 49.57900 22.53900
C  37.42100 49.21700 23.90100
C  35.65400 50.85400 21.52000
C  39.19600 49.64900 22.08900
C  40.20600 49.75900 23.24600
N  37.35300 48.28700 26.72900
C  37.69700 47.44100 25.70000
C  38.15200 46.20900 26.19800
C  37.99500 46.28700 27.57800
C  37.45400 47.52700 27.87900
C  38.80900 45.07600 25.47200
C  38.27700 45.62900 28.86300
O  38.80400 44.52700 29.03300
C  37.69700 46.57700 29.98900
C  36.62400 45.93000 30.75100
O  35.52700 45.51500 30.34200
O  37.08900 45.77400 32.06300
C  36.03500 45.25800 32.94700
H  35.37700 53.03100 29.91000
H  35.95100 53.24900 23.52700
H  38.17100 47.20300 23.68000
H  35.52700 48.55100 31.60900
H  35.82100 51.42000 31.73600
H  33.37100 50.79100 30.21900
H  33.54300 51.55800 31.84100
H  33.60500 49.76400 31.57900
H  37.91200 50.37900 32.03900
H  38.21500 48.68800 31.59600
H  38.03500 49.52200 34.18100
H  37.62500 47.91500 33.58700
H  36.21800 55.94600 28.41400
H  35.20000 55.01900 29.57000
H  34.41400 55.88900 28.13900
H  34.21300 56.95100 26.16200
H  35.38500 57.61000 24.91900
H  35.93600 56.84900 26.39500
H  37.64400 51.72200 21.99100
H  37.11500 48.80100 22.05200
H  34.84400 51.19900 22.16300
H  35.44700 49.87700 21.08300
H  35.74500 51.40900 20.58600
H  39.38300 50.54800 21.50100
H  39.34800 48.83500 21.38000
H  40.72900 50.71600 23.27200
H  40.91900 48.96500 23.02300
H  39.90600 49.54300 24.27100
H  39.41800 45.47900 24.66300
H  38.07800 44.36000 25.09400
H  39.53600 44.58300 26.11700
H  38.58700 46.72400 30.60100
H  35.22500 45.97100 32.78900
H  36.45000 45.23700 33.95400
H  35.66700 44.24500 32.78600

