158

Mg -1.94600 16.96100 26.97100
C  -2.52600 14.63100 29.64400
C  -2.29500 19.44800 29.24700
C  -1.63600 18.88400 24.43900
C  -2.24400 14.14700 24.67100
N  -2.29500 16.93500 29.17100
C  -2.31500 15.93500 30.12100
C  -2.54600 16.40200 31.59300
C  -2.59400 17.98000 31.28500
C  -2.41700 18.14800 29.79100
C  -3.86700 18.60700 31.85000
C  -1.30800 15.94100 32.43900
C  -0.80400 16.73200 33.57600
H  -0.25000 16.05200 34.90400
N  -1.84200 18.97300 26.84000
C  -2.04500 19.84600 27.90700
C  -1.94500 21.13700 27.33900
C  -1.71800 21.02400 25.94400
C  -1.75600 19.60900 25.69300
C  -2.01300 22.36700 28.27100
C  -1.49300 22.09500 24.87100
O  -1.28100 21.83800 23.70300
C  -1.51000 23.47300 25.27500
N  -2.09600 16.57800 24.84700
C  -1.89500 17.63600 24.05700
C  -1.89400 17.24900 22.58600
C  -1.71100 15.68000 22.66100
C  -2.06800 15.41900 24.13100
C  -3.21400 17.70000 21.82900
C  -0.26600 15.10500 22.31500
C  0.85000 15.55900 23.18600
N  -2.27700 14.85400 27.08500
C  -2.37000 13.90900 26.04500
C  -2.43000 12.65400 26.70400
C  -2.59100 12.89500 28.10600
C  -2.48500 14.20900 28.24600
C  -2.45800 11.34600 26.03900
C  -2.89000 12.23900 29.41300
O  -3.24000 11.10500 29.67800
C  -2.70100 13.35300 30.44500
C  -1.49400 12.94500 31.21300
O  -0.31700 13.26800 31.00200
O  -1.86400 12.30600 32.38000
C  -0.99700 12.24500 33.56900
H  -2.35400 20.21400 30.02300
H  -1.61500 19.61000 23.62400
H  -2.38800 13.28800 24.01300
H  -3.43700 15.97500 32.05300
H  -1.80300 18.62300 31.67300
H  -4.09500 18.07400 32.77400
H  -4.62500 18.62500 31.06600
H  -3.71800 19.66200 32.07900
H  -0.44300 15.69200 31.82400
H  -1.61600 15.03900 32.96700
H  -1.71900 17.30900 33.70800
H  0.05800 17.31000 33.24300
H  -2.80300 23.05500 27.97100
H  -1.09700 22.95400 28.20100
H  -2.10200 22.14700 29.33400
H  -2.41200 23.72900 25.83000
H  -1.53300 23.99600 24.31900
H  -0.62800 23.67700 25.88200
H  -1.00900 17.65700 22.09800
H  -2.58100 15.24000 22.17300
H  -2.92400 18.24700 20.93100
H  -3.87600 18.32700 22.42600
H  -3.66400 16.78600 21.44200
H  -0.02900 15.50800 21.33100
H  -0.34100 14.02400 22.43600
H  1.47900 16.11400 22.49100
H  1.28900 14.67300 23.64500
H  0.45200 16.21500 23.96000
H  -3.20400 11.41800 25.24700
H  -2.86100 10.58100 26.70300
H  -1.50100 10.99200 25.65800
H  -3.40400 13.56800 31.24900
H  -0.93100 13.27600 33.91800
H  0.01100 11.92200 33.30800
H  -1.37100 11.68400 34.42500
Mg 8.08500 3.21400 27.82900
C  9.73200 1.90100 30.60400
C  6.09400 4.99200 29.93700
C  6.65900 4.32300 25.12900
C  9.85400 0.79100 25.83300
N  7.89600 3.34600 29.95800
C  8.78700 2.88200 30.89900
C  8.41900 3.36600 32.28300
C  7.10400 4.20400 32.05500
C  7.03900 4.18800 30.57900
C  5.82200 3.49500 32.62500
C  9.60700 4.14500 32.83100
C  9.45200 4.70800 34.29400
H  9.86100 3.87600 35.55600
N  6.54200 4.52400 27.55100
C  5.82800 5.12200 28.53500
C  4.96200 6.10700 27.87800
C  5.14600 6.03800 26.44100
C  6.16600 4.92500 26.32000
C  3.99300 7.07500 28.61600
C  4.48100 6.73200 25.34500
O  4.83500 6.54000 24.18500
C  3.32300 7.68600 25.56000
N  8.35000 2.60400 25.69000
C  7.62600 3.22900 24.88200
C  7.93300 2.74400 23.43500
C  8.87500 1.57600 23.68200
C  9.03400 1.64300 25.14900
C  6.67600 2.50900 22.58100
C  10.25600 1.62900 22.93300
C  11.23100 2.74500 23.32200
N  9.49400 1.64300 28.17100
C  10.13400 0.74600 27.23300
C  11.07600 -0.10600 27.94200
C  10.95000 0.30200 29.29200
C  10.00500 1.38900 29.32900
C  11.91200 -1.17000 27.39300
C  11.45900 0.17000 30.68100
O  12.30600 -0.58800 31.17600
C  10.72400 1.18300 31.53500
C  10.05300 0.42300 32.61100
O  9.03400 -0.28100 32.50800
O  10.89300 0.54000 33.72400
C  10.44600 -0.28800 34.89800
H  5.53100 5.68100 30.57000
H  6.05700 4.76400 24.33200
H  10.47000 0.03700 25.33800
H  8.25000 2.49900 32.92100
H  7.04400 5.23900 32.39100
H  6.00800 2.56700 33.16600
H  5.14600 3.28800 31.79600
H  5.42100 4.13300 33.41300
H  9.85700 4.87600 32.06300
H  10.38200 3.37900 32.87600
H  8.42200 4.92400 34.57500
H  9.94100 5.68200 34.27400
H  4.28800 8.10300 28.82600
H  3.76400 6.69600 29.61200
H  2.98100 7.09300 28.21000
H  3.27000 8.31700 26.44700
H  2.37700 7.16400 25.41800
H  3.25100 8.35400 24.70200
H  8.46900 3.57900 22.98400
H  8.31200 0.71600 23.32100
H  5.75600 2.78900 23.09300
H  6.62400 1.44400 22.35500
H  6.71100 3.19100 21.73100
H  9.90000 1.69600 21.90500
H  10.79000 0.68000 22.96500
H  10.64800 3.31800 24.04300
H  11.41200 3.35900 22.44000
H  12.15800 2.38000 23.76400
H  11.52500 -1.35900 26.39200
H  11.77900 -2.06500 28.00100
H  12.97200 -0.91700 27.37900
H  11.52200 1.83600 31.89000
H  10.23200 -1.23700 34.40600
H  9.54300 0.09300 35.37400
H  11.30400 -0.26300 35.56900

