158

Mg -2.73900 16.61900 26.15400
C  -3.32000 14.45800 28.91600
C  -3.63800 19.22900 28.19900
C  -2.42600 18.64000 23.53000
C  -2.58600 13.78800 24.12300
N  -3.15200 16.85700 28.36600
C  -3.40700 15.79800 29.24000
C  -3.78900 16.39500 30.64700
C  -3.91000 17.94200 30.36400
C  -3.61400 18.03400 28.87400
C  -5.31400 18.55600 30.73500
C  -2.89900 16.06100 31.91500
C  -2.92600 16.88900 33.17600
H  -2.64500 16.22000 34.51000
N  -2.98600 18.66000 25.83600
C  -3.29700 19.57300 26.81200
C  -3.22100 20.92800 26.24700
C  -2.82200 20.74800 24.82200
C  -2.79700 19.31100 24.64300
C  -3.67300 22.19200 26.91900
C  -2.62300 21.70600 23.77000
O  -2.36800 21.38700 22.63400
C  -2.52400 23.17300 24.09400
N  -2.80200 16.32100 24.08400
C  -2.36900 17.26400 23.23800
C  -2.03200 16.73300 21.83500
C  -1.94800 15.15800 22.07800
C  -2.46300 15.07900 23.55400
C  -3.06100 17.22700 20.74500
C  -0.59400 14.46400 21.94700
C  -0.48200 13.01600 21.44200
N  -2.82900 14.54100 26.44300
C  -2.75000 13.56100 25.51200
C  -2.88500 12.30500 26.19300
C  -3.02600 12.55600 27.55100
C  -3.05900 13.96900 27.56700
C  -2.81200 10.94900 25.46700
C  -3.10200 11.99500 28.85800
O  -3.10700 10.85200 29.25700
C  -3.35100 13.20400 29.79200
C  -2.15800 13.15800 30.61200
O  -1.08400 13.59700 30.35300
O  -2.45800 12.53100 31.79000
C  -1.48700 12.63200 32.85800
H  -3.79400 20.19500 28.68300
H  -2.02500 19.17700 22.66800
H  -2.50600 12.89000 23.50700
H  -4.77000 16.03500 30.95800
H  -3.20100 18.64800 30.79900
H  -5.49400 18.71100 31.79800
H  -6.11200 17.89500 30.39600
H  -5.42900 19.47800 30.16500
H  -1.84600 15.99700 31.64200
H  -3.26900 15.09300 32.25400
H  -3.83800 17.47400 33.05800
H  -2.12800 17.62100 33.05400
H  -4.40100 22.66800 26.26200
H  -2.76500 22.78700 27.02000
H  -4.01100 22.09800 27.95100
H  -3.50600 23.54300 24.38600
H  -2.21600 23.67200 23.17500
H  -1.69200 23.30400 24.78600
H  -1.04700 17.10900 21.55900
H  -2.64400 14.58700 21.46300
H  -2.73600 16.68100 19.85900
H  -2.80700 18.28400 20.67100
H  -4.06500 17.08500 21.14400
H  -0.17700 14.35000 22.94700
H  0.21500 14.98200 21.43200
H  0.33900 12.48500 21.92300
H  -0.14200 13.08200 20.40800
H  -1.46100 12.54300 21.51600
H  -2.68100 10.17800 26.22700
H  -1.87400 10.99700 24.91300
H  -3.67400 10.64300 24.87500
H  -4.17000 13.12600 30.50700
H  -0.71400 11.86300 32.85900
H  -2.08100 12.57100 33.77000
H  -0.97200 13.59100 32.88900
Mg 7.14400 53.09100 40.41700
C  6.84000 49.63700 40.23100
C  10.54900 52.70300 39.72100
C  7.12600 56.18700 39.21000
C  3.66000 53.30100 40.96000
N  8.50600 51.30200 40.17500
C  8.16900 50.08500 40.03600
C  9.41200 49.18900 39.79000
C  10.57300 50.21500 40.00600
C  9.81900 51.55400 40.05100
C  11.45800 50.03600 41.30800
C  9.56800 48.54100 38.44500
C  9.25400 49.27500 37.11600
H  8.02800 48.92300 36.26800
N  8.63300 54.44300 39.74600
C  9.98200 54.01700 39.52700
C  10.67600 55.19600 39.11000
C  9.67100 56.31500 39.00100
C  8.39600 55.72400 39.40200
C  12.15000 55.30700 38.75300
C  9.97800 57.75500 38.71000
O  11.11600 58.12400 38.44400
C  8.91800 58.77500 38.72100
N  5.62700 54.47800 40.07300
C  5.89200 55.70700 39.51000
C  4.60900 56.57100 39.46300
C  3.69300 55.79000 40.43700
C  4.28200 54.42300 40.41600
C  4.83600 58.02900 39.93700
C  2.12200 55.87600 40.24300
C  1.45800 56.58200 41.43500
N  5.53200 51.81900 40.58400
C  4.21300 52.04400 40.92000
C  3.51900 50.79500 41.18000
C  4.47900 49.76500 40.79000
C  5.72000 50.45700 40.42900
C  2.17800 50.54800 41.54600
C  4.74000 48.31800 40.69100
O  3.98800 47.37200 40.92200
C  6.24700 48.20900 40.27800
C  6.12700 47.58800 38.87100
O  5.65400 48.17900 37.90900
O  6.54700 46.25500 38.88600
C  6.25100 45.50900 37.62100
H  11.60000 52.64100 39.42800
H  7.07800 57.06000 38.55500
H  2.62400 53.32500 41.30600
H  9.48200 48.45700 40.59400
H  11.25200 50.20000 39.15300
H  11.40100 49.08100 41.83000
H  11.10100 50.89200 41.88200
H  12.52500 50.23800 41.21900
H  8.95700 47.64300 38.53100
H  10.58200 48.17500 38.28400
H  10.10600 49.39600 36.44700
H  9.15100 50.30000 37.47100
H  12.10000 55.71600 37.74400
H  12.60000 54.31600 38.70200
H  12.67500 55.95500 39.45500
H  8.41800 58.76000 39.69000
H  8.17300 58.62900 37.93800
H  9.41200 59.74700 38.71300
H  4.14200 56.62200 38.47900
H  3.80800 56.08600 41.48000
H  4.19300 58.63900 39.30300
H  5.83900 58.42800 39.79200
H  4.48900 58.25500 40.94500
H  1.62100 54.92700 40.04900
H  1.83700 56.52500 39.41500
H  1.75800 57.62600 41.51700
H  1.67600 55.98300 42.31900
H  0.37500 56.53700 41.31300
H  2.02700 49.74400 42.26600
H  1.63600 50.32100 40.62800
H  1.71900 51.39200 42.06100
H  6.85000 47.47700 40.81400
H  6.60100 44.48300 37.73500
H  6.98000 45.82600 36.87500
H  5.22200 45.60900 37.27600

