158

Mg 53.43100 24.58700 45.00200
C  50.76000 26.91700 44.22300
C  51.35400 22.05900 43.73600
C  56.01800 22.56500 44.60100
C  55.43800 27.24100 45.75800
N  51.37200 24.56000 44.16500
C  50.41900 25.57700 43.96300
C  49.10900 25.06900 43.30900
C  49.21000 23.61300 43.67500
C  50.76900 23.38400 43.85700
C  48.43500 23.16800 44.90700
C  49.01200 25.39600 41.79200
C  47.59200 25.13800 41.22100
H  47.39800 24.95200 39.73300
N  53.66700 22.53600 44.51800
C  52.70000 21.68400 44.02600
C  53.26500 20.35300 43.84200
C  54.58500 20.45300 44.24200
C  54.80400 21.87900 44.44900
C  52.38700 19.18500 43.35800
C  55.55100 19.26500 44.29100
O  55.17800 18.10900 44.09700
C  57.04400 19.35400 44.56400
N  55.48900 24.86400 45.21100
C  56.34400 23.85300 45.00400
C  57.77900 24.33200 45.32000
C  57.55100 25.80800 45.82200
C  56.06100 26.02500 45.44400
C  58.65700 23.48400 46.24600
C  58.57500 26.86900 45.23900
C  59.27300 27.80800 46.27400
N  53.24900 26.70300 45.07100
C  54.11700 27.60300 45.48200
C  53.35700 28.82800 45.71900
C  52.07600 28.61300 45.14100
C  52.04100 27.32500 44.75900
C  53.74500 30.16500 46.27000
C  50.76600 29.22500 44.86900
O  50.38900 30.36700 45.22300
C  49.91900 28.19500 44.10300
C  49.79200 28.69800 42.74700
O  50.73600 28.91200 42.01500
O  48.45800 28.77600 42.40300
C  48.19300 29.30400 41.05500
H  50.70700 21.21200 43.49700
H  56.92800 21.97900 44.45700
H  56.16200 27.94600 46.17200
H  48.23200 25.49800 43.79400
H  48.94500 22.94500 42.85600
H  48.02100 22.20800 44.60000
H  47.61300 23.87800 44.99900
H  49.03000 23.09200 45.81800
H  49.70700 24.73300 41.27600
H  49.17400 26.44600 41.55000
H  47.06100 26.05400 41.47900
H  47.14600 24.26500 41.69900
H  51.64700 19.46000 42.60600
H  51.65500 18.89700 44.11300
H  53.01700 18.40700 42.92800
H  57.42400 18.34300 44.71200
H  57.05600 19.92600 45.49200
H  57.49100 19.89000 43.72700
H  58.35800 24.31600 44.39600
H  57.68800 25.85400 46.90300
H  59.63200 23.44100 45.76100
H  58.28900 22.47000 46.40000
H  58.82200 24.00700 47.18800
H  58.07500 27.42900 44.44800
H  59.35000 26.24100 44.80000
H  60.33200 27.67700 46.05500
H  58.91500 27.72000 47.30000
H  58.91700 28.78100 45.93400
H  53.29000 30.21700 47.25900
H  53.45800 30.93800 45.55700
H  54.81500 30.27100 46.44900
H  48.91700 28.02700 44.49900
H  48.01400 30.36700 41.21100
H  47.21800 28.99700 40.67600
H  48.97800 29.15400 40.31400
Mg -10.01800 38.23300 40.93100
C  -7.88300 35.41800 40.64500
C  -7.46900 40.05700 39.43400
C  -12.07400 40.73200 40.65500
C  -12.54900 36.06700 42.03400
N  -7.96300 37.75300 40.10300
C  -7.31500 36.58300 40.10000
C  -5.90900 36.69100 39.44500
C  -5.78800 38.21800 39.17600
C  -7.19700 38.74800 39.58000
C  -4.59400 39.00300 39.85000
C  -5.89600 35.73500 38.19600
C  -4.73700 34.73900 38.14000
H  -3.76800 34.95800 36.92800
N  -9.74900 40.20700 40.28800
C  -8.60400 40.80800 39.70100
C  -8.91900 42.20700 39.49400
C  -10.27100 42.45700 39.81900
C  -10.78000 41.11600 40.29300
C  -7.87800 43.21600 38.93900
C  -11.03600 43.74500 39.69100
O  -10.42600 44.69600 39.28900
C  -12.50400 43.86200 40.07900
N  -11.96900 38.34500 41.24300
C  -12.64200 39.56000 41.04000
C  -14.12300 39.37700 41.28700
C  -14.28200 37.89900 41.68300
C  -12.87300 37.36400 41.59800
C  -14.64000 40.32000 42.40700
C  -15.41700 37.10100 40.94600
C  -16.83700 37.66400 41.21200
N  -10.16400 36.18000 41.44100
C  -11.26200 35.48200 41.89800
C  -10.81200 34.10500 42.17600
C  -9.46500 34.04100 41.68800
C  -9.14800 35.33800 41.25400
C  -11.64300 33.11400 42.98200
C  -8.43800 33.12500 41.45600
O  -8.38500 31.89300 41.65200
C  -7.23500 33.98200 40.81300
C  -6.05300 33.93200 41.86400
O  -5.33000 32.97600 41.93800
O  -5.92600 35.00500 42.75000
C  -4.84300 34.81700 43.83700
H  -6.69300 40.67400 38.97800
H  -12.85100 41.49900 40.63900
H  -13.40900 35.45100 42.30300
H  -5.14300 36.38600 40.15800
H  -5.59400 38.41600 38.12200
H  -3.98400 38.27900 40.39000
H  -4.90200 39.82000 40.50300
H  -3.91100 39.20900 39.02600
H  -5.95300 36.34800 37.29700
H  -6.81700 35.15300 38.15400
H  -5.07200 33.70300 38.18200
H  -4.01800 34.84300 38.95300
H  -8.01300 44.23100 39.31400
H  -8.03500 43.33800 37.86700
H  -6.82500 42.98600 39.09900
H  -12.64900 43.68400 41.14500
H  -13.11300 43.12500 39.55600
H  -12.95200 44.84100 39.90600
H  -14.75100 39.52100 40.40800
H  -14.46100 37.86500 42.75800
H  -14.74200 39.96000 43.43100
H  -15.61600 40.61700 42.02100
H  -14.08600 41.25800 42.41400
H  -15.45500 36.04500 41.21300
H  -15.23500 37.04200 39.87300
H  -17.43500 36.78700 41.46000
H  -17.21800 38.07000 40.27400
H  -16.92100 38.41800 41.99400
H  -12.64100 32.90800 42.59400
H  -11.76600 33.35200 44.03800
H  -11.07500 32.19500 42.83600
H  -6.86200 33.52200 39.89800
H  -3.95000 34.26600 43.54200
H  -5.32300 34.35700 44.70000
H  -4.53000 35.81100 44.15800

