158

Mg 54.81800 24.18100 44.28000
C  52.37500 26.67900 43.93400
C  52.46300 21.85500 43.36900
C  57.30700 22.03200 43.98800
C  57.16000 26.75900 44.87100
N  52.77100 24.27700 43.61100
C  51.95000 25.37600 43.46400
C  50.45900 25.02000 43.15600
C  50.50000 23.47100 43.42900
C  51.97200 23.10900 43.52700
C  49.69800 22.83500 44.65200
C  50.00200 25.40700 41.68700
C  51.11100 25.36300 40.62900
H  50.64000 25.12600 39.17300
N  54.83300 22.17900 43.86800
C  53.80000 21.37400 43.52200
C  54.22500 20.04800 43.51300
C  55.66300 20.08400 43.68400
C  56.00000 21.47100 43.89200
C  53.33000 18.85600 43.16400
C  56.56600 18.78900 43.79500
O  56.05200 17.67800 43.57100
C  58.02600 18.85000 44.12400
N  56.96000 24.36400 44.31800
C  57.77000 23.33500 44.11700
C  59.26200 23.72200 44.25100
C  59.16200 25.18600 44.51000
C  57.69000 25.48300 44.59700
C  60.11200 22.92100 45.35000
C  59.91600 26.04600 43.44800
C  59.10900 26.44100 42.14800
N  54.81400 26.25900 44.55900
C  55.78700 27.20500 44.84800
C  55.25800 28.49900 45.01800
C  53.88400 28.30700 44.66500
C  53.66700 26.99600 44.34800
C  56.02200 29.72800 45.32900
C  52.62800 28.98600 44.56600
O  52.32600 30.14500 44.79200
C  51.57200 27.96600 44.04100
C  50.98100 28.46600 42.76900
O  51.60500 28.54000 41.70000
O  49.67500 28.83200 42.95900
C  49.12900 29.40100 41.72700
H  51.60100 21.18900 43.29700
H  58.11400 21.32200 43.79300
H  57.90100 27.55600 44.96400
H  49.74300 25.48000 43.83800
H  50.23100 22.99300 42.48800
H  49.25100 23.63100 45.24700
H  50.34800 22.34600 45.37700
H  48.89200 22.18500 44.31100
H  49.59600 26.41800 41.66500
H  49.33200 24.62900 41.32100
H  51.90400 24.71000 40.99300
H  51.66700 26.30000 40.65200
H  53.67900 18.18700 42.37800
H  52.26600 19.07600 43.07500
H  53.39900 18.20400 44.03500
H  58.31300 17.90400 44.58400
H  58.14100 19.63100 44.87500
H  58.71600 19.05000 43.30400
H  59.71900 23.62200 43.26700
H  59.59600 25.49000 45.46300
H  60.99300 22.52100 44.84700
H  59.53200 22.04600 45.64200
H  60.26400 23.46900 46.28000
H  60.75200 25.42200 43.13300
H  60.44500 26.91000 43.85100
H  59.46800 27.46500 42.04600
H  58.02200 26.50600 42.20400
H  59.39600 26.03600 41.17700
H  55.44600 30.57600 44.95700
H  56.97900 29.77400 44.81000
H  56.32100 29.80100 46.37400
H  50.77900 27.87200 44.78300
H  48.09600 29.05200 41.74500
H  49.36300 29.00800 40.73800
H  49.23500 30.48200 41.63700
Mg 9.90000 47.27200 26.22700
C  7.63600 47.27100 28.80300
C  12.59700 47.77500 28.24500
C  12.13200 47.35500 23.45200
C  7.33100 46.87100 23.86800
N  10.04700 47.38200 28.32800
C  9.00900 47.41900 29.25600
C  9.61400 47.55700 30.67500
C  11.17300 47.93400 30.37900
C  11.32000 47.67800 28.90600
C  11.70800 49.27700 30.87600
C  9.39800 46.33500 31.62000
C  8.95700 46.63600 33.05100
H  9.16200 45.63700 34.15000
N  12.01100 47.58500 25.85600
C  12.93900 47.80800 26.89400
C  14.26700 47.98600 26.33400
C  14.18000 47.57200 25.01200
C  12.71800 47.48300 24.71800
C  15.42200 48.41000 27.14600
C  15.23400 47.22100 24.03500
O  14.98000 46.72600 22.92900
C  16.69000 47.35500 24.56600
N  9.78300 47.24500 24.01800
C  10.79200 47.17400 23.10600
C  10.41200 47.06400 21.64800
C  8.84000 46.86000 21.79300
C  8.62300 47.03100 23.33600
C  10.81900 48.35000 20.82200
C  8.26900 45.43500 21.29500
C  6.92900 45.61100 20.44700
N  7.94000 47.21100 26.23900
C  6.96800 47.00100 25.24500
C  5.65300 46.99300 25.87600
C  5.89600 47.04500 27.26200
C  7.30100 47.26200 27.44400
C  4.30200 46.77000 25.20200
C  5.21400 46.95100 28.58000
O  4.02600 46.84000 28.88100
C  6.36800 47.12100 29.61500
C  6.37200 45.88500 30.34300
O  6.91000 44.84400 30.00400
O  5.65800 46.03900 31.54200
C  5.68400 44.92000 32.42500
H  13.32100 47.97100 29.03900
H  12.80200 47.37800 22.59100
H  6.51900 46.90400 23.13900
H  9.12400 48.45100 31.06000
H  11.83500 47.16800 30.78300
H  12.03300 49.88800 30.03400
H  12.56400 49.15500 31.54000
H  10.87300 49.80800 31.33300
H  10.33800 45.81900 31.81600
H  8.72100 45.54800 31.28800
H  7.89100 46.86000 33.03000
H  9.52100 47.52900 33.32300
H  15.17300 48.69600 28.16800
H  15.80900 49.28900 26.63100
H  16.25800 47.71100 27.15300
H  17.33400 47.32500 23.68700
H  16.91600 46.47600 25.16900
H  16.75300 48.31900 25.07300
H  10.82800 46.13600 21.25500
H  8.28700 47.67400 21.32500
H  11.20500 49.07300 21.54200
H  9.96700 48.86700 20.38000
H  11.57300 48.14500 20.06200
H  7.99100 44.85200 22.17300
H  8.95600 44.80200 20.73300
H  6.48500 46.57500 20.69200
H  6.20800 44.92800 20.89600
H  6.97500 45.39800 19.37900
H  4.54900 46.59000 24.15600
H  3.62000 47.61500 25.29600
H  3.95900 45.82900 25.63100
H  6.04400 47.93800 30.25900
H  6.22500 45.19000 33.33200
H  5.99500 43.96100 32.01200
H  4.61000 44.95600 32.60800

