158

Mg 1.46600 7.99800 24.85300
C  2.10700 9.72300 28.00400
C  1.30500 5.10100 26.76600
C  1.35700 6.32000 21.97300
C  1.81900 10.99900 23.28200
N  2.01700 7.45700 27.13000
C  1.99000 8.29600 28.16000
C  1.84300 7.60000 29.52800
C  1.78100 6.14000 29.07200
C  1.67100 6.19100 27.53600
C  2.89400 5.21100 29.71100
C  0.57600 8.08800 30.42500
C  0.91900 8.43700 31.86200
H  1.97900 7.75300 32.64800
N  1.40700 5.93100 24.39500
C  1.24200 4.95200 25.31500
C  1.01100 3.69400 24.60100
C  0.99500 3.98400 23.22000
C  1.31200 5.44300 23.12700
C  0.69400 2.45900 25.39300
C  0.73200 3.02900 21.99500
O  0.47800 3.56700 20.89300
C  0.46300 1.55700 22.09400
N  1.73100 8.54000 22.94500
C  1.48300 7.65900 21.93100
C  1.38000 8.36600 20.56400
C  1.27400 9.87300 20.99800
C  1.64000 9.82500 22.44200
C  2.67200 8.12400 19.74100
C  -0.09200 10.54300 20.64000
C  -0.22100 11.06500 19.17400
N  1.89300 9.95800 25.45700
C  1.99600 11.06000 24.68800
C  2.11900 12.25200 25.50900
C  2.18300 11.77800 26.82600
C  2.07900 10.34600 26.71300
C  2.15900 13.71500 25.06400
C  2.26700 12.13100 28.18100
O  2.30400 13.25000 28.69900
C  2.09600 10.87700 28.96000
C  3.26500 10.72800 29.89300
O  4.15500 9.89400 29.79900
O  3.13100 11.50700 31.03900
C  4.13900 11.31600 32.04200
H  0.99000 4.25100 27.37500
H  1.43800 5.74500 21.04800
H  1.82000 11.97800 22.79800
H  2.70600 7.80600 30.16100
H  0.88000 5.66000 29.45500
H  2.46200 4.54000 30.45300
H  3.54100 5.94500 30.19200
H  3.53100 4.71300 28.98000
H  -0.15100 7.27600 30.44800
H  0.18600 8.99100 29.95700
H  -0.04800 8.28600 32.34200
H  1.08600 9.51400 31.83200
H  0.15200 1.67300 24.86800
H  0.02300 2.68100 26.22300
H  1.59000 1.89200 25.64600
H  0.52400 1.20300 21.06500
H  -0.53100 1.43900 22.52600
H  1.19300 1.00200 22.68300
H  0.53500 8.00100 19.98100
H  2.04000 10.40900 20.43800
H  2.66000 8.42700 18.69400
H  2.91700 7.06200 19.74500
H  3.53100 8.62400 20.19000
H  -0.33200 11.40500 21.26300
H  -0.82400 9.76700 20.85900
H  0.60600 10.73800 18.54400
H  -0.25000 12.15300 19.12900
H  -1.01400 10.50400 18.67700
H  2.66900 14.32600 25.80800
H  1.13400 13.98700 24.81100
H  2.67500 13.81600 24.11000
H  1.18800 10.91300 29.56200
H  5.15300 11.27100 31.64400
H  3.87800 10.39500 32.56300
H  4.24000 12.01900 32.87000
Mg 15.85900 52.44700 24.95600
C  17.65200 51.11000 27.79000
C  13.23700 53.23000 26.94000
C  14.16600 53.12200 22.29800
C  18.49600 50.99500 23.06500
N  15.57100 52.17200 27.05500
C  16.41800 51.72200 28.08500
C  15.77200 52.02200 29.43600
C  14.33400 52.39200 29.03400
C  14.33000 52.63200 27.57000
C  13.12400 51.61100 29.64500
C  16.57200 53.06800 30.24000
C  16.86700 52.81400 31.67400
H  16.11000 51.77300 32.53600
N  14.00500 53.22500 24.65400
C  13.05400 53.50800 25.60200
C  11.89800 54.12900 25.00800
C  12.10500 53.95700 23.56200
C  13.45200 53.41400 23.43500
C  10.79900 54.58900 25.83400
C  11.06200 54.21500 22.40600
O  11.37900 54.01500 21.25200
C  9.80800 54.95600 22.75400
N  16.20300 52.03300 22.95000
C  15.37500 52.38100 22.06600
C  15.81000 51.93500 20.62100
C  17.26200 51.43200 20.86600
C  17.32700 51.49900 22.42000
C  14.83400 50.91600 20.01100
C  18.35100 52.30200 20.20500
C  18.15500 52.22900 18.65100
N  17.72200 51.25900 25.27700
C  18.65200 50.78300 24.43200
C  19.65200 50.03300 25.09200
C  19.28800 50.15500 26.43800
C  18.10800 50.90600 26.47500
C  20.76700 49.38900 24.43700
C  19.67500 49.77200 27.79700
O  20.69600 49.18800 28.19400
C  18.72400 50.37800 28.70800
C  18.11500 49.26700 29.54500
O  17.40300 48.34800 29.14400
O  18.61700 49.26400 30.83900
C  18.16900 48.12700 31.65100
H  12.41400 53.48700 27.61000
H  13.63000 53.34100 21.37100
H  19.31400 50.59300 22.46300
H  15.72100 51.14000 30.07400
H  14.16400 53.42600 29.33400
H  12.42600 51.27300 28.87800
H  12.42800 52.17100 30.26900
H  13.50500 50.69000 30.08600
H  16.09000 54.04400 30.18400
H  17.53100 53.11500 29.72600
H  16.85400 53.70800 32.29700
H  17.92500 52.58500 31.80800
H  9.94900 53.94100 25.61900
H  10.51200 55.58800 25.50700
H  10.98200 54.72400 26.90000
H  9.16800 55.02800 21.87500
H  10.11300 55.89700 23.21200
H  9.19300 54.36600 23.43300
H  15.63500 52.82900 20.02300
H  17.44300 50.36500 20.73200
H  14.04200 51.39400 19.43400
H  14.30200 50.25600 20.69600
H  15.33000 50.17900 19.38000
H  19.32900 51.86300 20.40300
H  18.34000 53.32300 20.58900
H  17.41600 51.46300 18.41300
H  19.11600 52.02700 18.17800
H  17.74900 53.15700 18.25000
H  20.94000 48.47400 25.00300
H  21.69200 49.96300 24.50200
H  20.47000 49.37400 23.38900
H  19.24500 51.05600 29.38400
H  18.99900 47.42700 31.74800
H  17.44200 47.38000 31.33200
H  17.93000 48.33100 32.69500

