158

Mg 16.08600 -2.48500 27.45500
C  15.06600 -0.44800 30.11700
C  17.64400 -4.50600 29.73500
C  17.38900 -4.20900 24.84600
C  14.90000 -0.09100 25.22300
N  16.50000 -2.38200 29.68200
C  15.92500 -1.47600 30.59400
C  16.28700 -1.78700 32.06800
C  17.36000 -3.02900 31.80200
C  17.16300 -3.37300 30.34000
C  18.88300 -2.82900 32.12700
C  14.98300 -2.18300 32.84300
C  14.88700 -1.55600 34.29600
H  16.09300 -0.80600 34.94400
N  17.32700 -4.08200 27.30200
C  17.83300 -4.85800 28.41900
C  18.66100 -5.91900 27.91200
C  18.57200 -5.84300 26.54000
C  17.75400 -4.64800 26.14200
C  19.23500 -7.06200 28.82400
C  19.16400 -6.77500 25.55600
O  18.97100 -6.76900 24.33200
C  20.13900 -7.91400 26.01200
N  16.21300 -2.23300 25.38000
C  16.66000 -3.10000 24.47900
C  16.47900 -2.56500 22.99500
C  15.54400 -1.36600 23.18400
C  15.60100 -1.18800 24.68800
C  17.85600 -2.21800 22.27800
C  14.05000 -1.45300 22.72400
C  12.91400 -1.89800 23.65600
N  15.21900 -0.63600 27.57800
C  14.59900 0.14800 26.57500
C  13.76200 1.15000 27.16600
C  13.98900 1.02600 28.57000
C  14.82600 -0.09500 28.74400
C  12.98600 2.29100 26.43700
C  13.64500 1.58200 29.88800
O  12.98500 2.58000 30.20100
C  14.34200 0.65900 30.96800
C  15.29300 1.45200 31.83000
O  16.53700 1.40100 31.77300
O  14.54200 2.32100 32.63800
C  15.27200 3.22500 33.50900
H  18.18800 -5.16000 30.42000
H  17.59400 -4.86600 23.99800
H  14.37000 0.65600 24.62800
H  16.90600 -1.03500 32.55700
H  16.99500 -3.93700 32.28000
H  19.14200 -3.68500 32.74900
H  18.96200 -1.88500 32.66700
H  19.48200 -2.92000 31.22100
H  14.93200 -3.27100 32.88000
H  14.07200 -1.87400 32.33000
H  14.67300 -2.31200 35.05200
H  14.11900 -0.78300 34.33200
H  18.83200 -7.98800 28.41500
H  18.89500 -7.02800 29.85800
H  20.32400 -7.06100 28.86500
H  19.58800 -8.59300 26.66300
H  20.99800 -7.42300 26.46900
H  20.45300 -8.43600 25.10800
H  16.01800 -3.33200 22.37300
H  16.04200 -0.52400 22.70300
H  18.15100 -1.16900 22.30800
H  17.87800 -2.61600 21.26300
H  18.61400 -2.73200 22.86900
H  13.98200 -2.13200 21.87400
H  13.80100 -0.44200 22.40000
H  13.28000 -2.46800 24.51000
H  12.24100 -2.56700 23.12000
H  12.39300 -1.03100 24.06100
H  12.69100 1.91900 25.45600
H  13.68900 3.12100 26.36400
H  12.06600 2.59500 26.93600
H  13.63200 0.27300 31.69900
H  15.05600 4.26000 33.24600
H  16.31700 2.93700 33.61700
H  14.79500 2.97500 34.45600
Mg 27.16100 50.48200 26.07600
C  25.07900 51.51400 28.68600
C  29.50600 49.71700 28.40600
C  29.28300 49.98300 23.47200
C  24.69200 51.47300 23.82900
N  27.14900 50.42200 28.34500
C  26.27500 51.00400 29.17500
C  26.64700 50.76300 30.66200
C  28.24300 50.39900 30.48600
C  28.33600 50.19500 29.01100
C  29.09700 51.59900 30.99800
C  25.80300 49.64800 31.34800
C  25.22600 50.05800 32.71600
H  25.47800 49.17900 33.95300
N  29.07600 49.86600 25.93900
C  29.89000 49.60300 27.04300
C  31.20900 49.15800 26.57400
C  31.22000 49.23100 25.14500
C  29.80900 49.73700 24.81000
C  32.38100 48.83300 27.50200
C  32.27700 48.81700 24.14800
O  32.14000 49.00200 22.92600
C  33.61500 48.25800 24.55100
N  27.06600 50.77900 23.88500
C  28.01800 50.40600 23.06100
C  27.50200 50.19600 21.60900
C  25.99500 50.55800 21.81100
C  25.92800 51.00100 23.23800
C  28.22600 50.99200 20.51400
C  24.88800 49.60300 21.27200
C  23.99800 50.15200 20.13200
N  25.37400 51.41400 26.16900
C  24.39300 51.72700 25.20400
C  23.20900 52.32700 25.76000
C  23.40300 52.19800 27.09800
C  24.72500 51.62300 27.30900
C  22.00300 52.87700 25.05000
C  22.78600 52.48700 28.43100
O  21.69300 52.86100 28.85000
C  23.86100 52.02600 29.48700
C  24.26800 53.21200 30.37600
O  25.15900 53.95300 30.11500
O  23.69200 53.13800 31.60900
C  23.88000 54.29600 32.54500
H  30.36600 49.49200 29.04000
H  29.98200 49.72800 22.67400
H  23.86600 51.62800 23.13100
H  26.34600 51.62400 31.26000
H  28.43000 49.50400 31.07900
H  29.92400 51.76000 30.30700
H  29.40900 51.35900 32.01500
H  28.45000 52.46900 30.88700
H  26.44000 48.78000 31.51700
H  24.97100 49.30700 30.73200
H  24.14700 50.02900 32.56300
H  25.45300 51.07800 33.02500
H  33.13100 48.11900 27.16000
H  31.99000 48.63800 28.50000
H  32.94100 49.76700 27.54000
H  34.23300 48.80700 25.26100
H  34.14400 48.06500 23.61800
H  33.51300 47.27900 25.02100
H  27.56700 49.12000 21.44500
H  25.84000 51.49400 21.27500
H  29.06800 51.57400 20.89000
H  27.51700 51.49300 19.85400
H  28.62200 50.17200 19.91500
H  24.14700 49.45400 22.05700
H  25.36700 48.69700 20.89900
H  24.26800 51.10900 19.68600
H  22.93100 50.25000 20.32900
H  24.06800 49.51500 19.25000
H  22.34500 52.98600 24.02100
H  21.85000 53.87800 25.45200
H  21.12400 52.24300 24.94000
H  23.59900 51.24600 30.20100
H  24.12700 55.22600 32.03200
H  24.63600 54.15200 33.31700
H  22.95900 54.50900 33.08700

