158

Mg 5.93800 55.14100 40.29800
C  5.58100 51.58400 40.38500
C  9.27700 54.62700 39.55300
C  6.10000 58.23500 39.35300
C  2.43400 55.39700 40.73800
N  7.19800 53.28000 39.99800
C  6.88700 51.97400 40.09000
C  8.04900 51.09900 39.81600
C  9.28100 52.09000 39.94000
C  8.54400 53.47600 39.79000
C  10.06000 52.08100 41.25100
C  7.99700 50.44600 38.40600
C  7.55600 51.36100 37.19300
H  6.26900 51.13700 36.39300
N  7.48700 56.26200 39.72000
C  8.80800 55.93100 39.46000
C  9.66800 57.04900 39.31000
C  8.72500 58.12800 39.15900
C  7.34600 57.61200 39.47400
C  11.20400 57.01800 39.07700
C  9.12200 59.57400 38.82100
O  10.29300 59.82100 38.58500
C  8.17600 60.74300 38.94400
N  4.46000 56.53800 39.87000
C  4.80300 57.82400 39.65300
C  3.58400 58.77600 39.65600
C  2.43900 57.86700 40.21600
C  3.15600 56.49800 40.37500
C  3.71000 60.16200 40.27700
C  1.25400 57.70700 39.28200
C  -0.10000 58.26900 39.78600
N  4.29200 53.82400 40.56600
C  2.95100 54.07800 40.81000
C  2.25900 52.79100 40.97900
C  3.21700 51.76500 40.98800
C  4.42200 52.43200 40.55000
C  0.79900 52.58400 41.09500
C  3.41300 50.33400 41.01900
O  2.61900 49.43500 41.27800
C  4.99400 50.22000 40.72500
C  5.05800 49.31300 39.57400
O  4.78000 49.51000 38.38900
O  5.62300 48.12900 40.06600
C  5.50800 46.93800 39.20100
H  10.35000 54.59300 39.35300
H  6.02500 59.30500 39.15100
H  1.38900 55.59600 40.98600
H  8.16800 50.41000 40.65200
H  10.01400 51.95500 39.14500
H  9.96500 52.99700 41.83300
H  11.09800 51.83600 41.02300
H  9.64500 51.38200 41.97700
H  7.28700 49.62100 38.46200
H  9.00700 50.05800 38.28200
H  8.37300 51.25600 36.47900
H  7.70900 52.43600 37.28800
H  11.28000 56.62800 38.06200
H  11.70000 56.32400 39.75600
H  11.69700 57.98300 39.19000
H  8.86600 61.57900 38.83100
H  7.57800 60.75900 39.85500
H  7.60400 60.67800 38.01800
H  3.41400 58.97900 38.59800
H  2.06800 58.20500 41.18300
H  2.77200 60.35500 40.79800
H  3.79500 60.95200 39.53000
H  4.56100 60.24600 40.95300
H  1.00500 56.69100 38.97700
H  1.38800 58.29400 38.37300
H  -0.16200 58.70700 40.78300
H  -0.82000 57.45200 39.80600
H  -0.47100 59.01400 39.08200
H  0.47400 52.75300 40.06900
H  0.34200 53.34900 41.72300
H  0.42700 51.62200 41.44700
H  5.39600 49.76700 41.63200
H  6.07900 46.08700 39.57000
H  5.83000 47.25300 38.20900
H  4.48200 46.57000 39.19000
Mg -0.06900 43.36600 26.94300
C  2.03100 43.50400 29.78400
C  -2.73500 43.07600 29.06300
C  -1.91800 42.37700 24.33100
C  2.75800 43.58000 24.94100
N  -0.27400 43.41700 29.18000
C  0.72100 43.49400 30.15800
C  0.09200 43.47800 31.52900
C  -1.45600 43.25300 31.28200
C  -1.53000 43.30000 29.78300
C  -1.96900 42.01100 31.89800
C  0.39300 44.89000 32.20700
C  0.66200 44.92800 33.71100
H  0.08400 43.73200 34.46000
N  -2.08700 42.93900 26.67300
C  -3.01100 42.89700 27.72200
C  -4.28600 42.50600 27.18200
C  -4.05000 42.33900 25.75900
C  -2.63100 42.51300 25.51800
C  -5.49400 42.32900 28.06800
C  -5.05100 41.91900 24.62000
O  -4.82200 41.73100 23.41700
C  -6.47700 41.88500 25.06000
N  0.37900 43.08700 24.96600
C  -0.53600 42.62700 24.08600
C  0.06000 42.34500 22.67100
C  1.45500 43.18900 22.82600
C  1.54900 43.25400 24.34100
C  0.10900 40.76200 22.54700
C  1.46800 44.53200 22.05300
C  2.38400 44.63500 20.83000
N  1.96500 43.50400 27.24500
C  2.98500 43.65700 26.34600
C  4.24400 43.80000 27.01000
C  3.89400 43.79400 28.36100
C  2.49900 43.58000 28.48100
C  5.57800 44.02200 26.18800
C  4.37000 43.97200 29.66000
O  5.55200 44.15600 29.99400
C  3.23200 43.72400 30.64900
C  3.42700 42.50300 31.44800
O  2.95000 41.40400 31.23400
O  4.28200 42.77900 32.47800
C  4.62800 41.85500 33.53500
H  -3.52000 42.94500 29.81100
H  -2.56600 42.03000 23.52300
H  3.64700 43.62800 24.31000
H  0.48500 42.65700 32.12900
H  -2.07900 44.06200 31.66300
H  -2.79600 41.68500 31.26600
H  -2.43100 42.28100 32.84800
H  -1.26200 41.19800 32.06100
H  -0.47900 45.53100 32.08200
H  1.20600 45.38800 31.67900
H  0.27900 45.87600 34.09100
H  1.74700 44.90500 33.81600
H  -5.91200 43.33000 28.16900
H  -5.29300 41.90300 29.05100
H  -6.23700 41.72300 27.54800
H  -6.72600 41.00900 25.66000
H  -6.98100 41.87600 24.09300
H  -6.88100 42.74300 25.59700
H  -0.56200 42.70700 21.85200
H  2.26700 42.62000 22.37400
H  -0.80100 40.50400 22.00600
H  0.08300 40.39900 23.57500
H  1.02800 40.52800 22.01100
H  1.68800 45.38800 22.69100
H  0.45400 44.70100 21.69000
H  2.90800 45.59000 20.85400
H  1.73600 44.69000 19.95500
H  3.08800 43.81200 20.95000
H  5.50400 44.85800 25.49300
H  5.69200 43.10100 25.61700
H  6.46600 44.23100 26.78500
H  3.16200 44.59500 31.30200
H  5.20100 41.04800 33.07600
H  3.73300 41.56700 34.08600
H  5.29600 42.40200 34.19900

