158

Mg 0.69900 8.61400 28.05600
C  1.71100 10.78400 30.60900
C  0.61900 5.99100 30.25300
C  0.33500 6.53700 25.35800
C  1.49000 11.24100 25.76000
N  1.11000 8.46200 30.20000
C  1.40100 9.51800 31.10100
C  1.32500 8.98600 32.53300
C  1.41500 7.43300 32.30200
C  0.96000 7.27200 30.81700
C  2.83900 7.00300 32.59900
C  -0.00500 9.45800 33.17100
C  -0.18800 9.35300 34.69600
H  0.84800 8.72200 35.61100
N  0.39000 6.63100 27.79700
C  0.31800 5.68200 28.89600
C  -0.12000 4.42800 28.36800
C  -0.27900 4.60300 26.91300
C  0.10100 5.95300 26.66200
C  -0.27100 3.12300 29.25200
C  -0.63800 3.59500 25.80400
O  -0.62800 3.77000 24.59700
C  -1.06300 2.19900 26.22100
N  0.78900 8.88700 25.89300
C  0.74000 7.84700 25.05000
C  1.26600 8.20400 23.65300
C  1.26200 9.79900 23.74100
C  1.15200 10.01900 25.20100
C  2.65000 7.73200 23.20000
C  0.19400 10.52500 22.87300
C  -1.30700 10.15300 22.95000
N  1.39900 10.61400 28.10700
C  1.61900 11.57800 27.12000
C  1.94800 12.84700 27.70700
C  1.92200 12.54700 29.08300
C  1.59600 11.21800 29.26600
C  2.34200 14.10700 26.92700
C  2.14400 13.17000 30.35800
O  2.38300 14.34100 30.67800
C  1.87300 12.15500 31.43900
C  2.93500 12.06100 32.43800
O  4.11200 11.88100 32.25300
O  2.30800 12.33300 33.66700
C  3.17600 12.55000 34.82900
H  0.66400 5.18900 30.99300
H  0.47500 5.89300 24.48700
H  1.90700 11.93000 25.02300
H  2.17800 9.44100 33.03700
H  0.61400 6.84900 32.75400
H  3.46600 6.77900 31.73600
H  2.69200 6.04600 33.10000
H  3.36600 7.74000 33.20500
H  -0.69800 8.73600 32.74000
H  -0.22500 10.47800 32.85300
H  -1.10900 8.83800 34.96600
H  -0.37900 10.39500 34.95600
H  -1.33000 2.88200 29.15200
H  0.07600 3.20400 30.28200
H  0.32600 2.26000 28.95800
H  -1.49600 1.65500 25.38100
H  -1.89500 2.30700 26.91600
H  -0.17300 1.61700 26.46100
H  0.58500 7.77100 22.92100
H  2.22300 10.18300 23.39700
H  2.97000 8.50000 22.49500
H  2.67500 6.73300 22.76700
H  3.33900 7.70100 24.04500
H  0.63300 10.33700 21.89300
H  0.16400 11.59600 23.07400
H  -1.32100 9.15600 22.50900
H  -2.01700 10.85700 22.51700
H  -1.61100 10.09900 23.99600
H  2.31400 14.97800 27.58100
H  1.65000 14.13800 26.08600
H  3.34200 13.95500 26.52000
H  0.91600 12.39600 31.90100
H  3.83900 13.41500 34.80000
H  3.64900 11.69700 35.31500
H  2.43100 12.86000 35.56300
Mg 47.67100 15.79600 28.13600
C  45.79200 15.40800 31.01800
C  49.80300 17.94400 29.90600
C  49.40300 16.02100 25.30800
C  45.28000 13.92100 26.41100
N  47.75000 16.63300 30.13200
C  46.97900 16.19100 31.15600
C  47.56800 16.56700 32.46300
C  48.56500 17.65000 32.11900
C  48.75300 17.37100 30.62000
C  48.12800 19.08300 32.45100
C  48.09100 15.30700 33.27400
C  47.73100 15.39600 34.76800
H  47.54900 16.76500 35.52000
N  49.45300 16.68200 27.68600
C  50.10500 17.59800 28.53300
C  51.35100 17.99200 27.79200
C  51.27400 17.44900 26.46500
C  49.98000 16.69400 26.42300
C  52.34900 18.87100 28.52600
C  52.35000 17.60300 25.39100
O  52.19200 17.04200 24.25800
C  53.66400 18.36700 25.63800
N  47.26800 15.26500 26.00700
C  48.16100 15.46400 25.12400
C  47.71800 14.97000 23.72000
C  46.41900 14.16700 24.14200
C  46.33500 14.43200 25.60000
C  47.44400 16.02300 22.66300
C  46.62100 12.66100 23.79800
C  47.59500 11.91700 24.79700
N  45.74400 15.01200 28.50800
C  44.98600 14.02500 27.74700
C  43.88300 13.58800 28.64400
C  44.24900 13.96300 29.93100
C  45.33400 14.88200 29.77800
C  42.60200 12.75800 28.37300
C  43.97500 13.91200 31.33300
O  43.10800 13.26100 31.90700
C  44.84600 14.85500 32.08700
C  44.03800 15.93300 32.73100
O  43.35100 16.79400 32.16600
O  44.18200 15.71000 34.09600
C  43.32100 16.51600 35.01300
H  50.50500 18.49100 30.53900
H  49.91700 16.10800 24.34800
H  44.54400 13.27500 25.92800
H  46.70900 16.96300 33.00400
H  49.50100 17.55400 32.66900
H  47.06000 19.27700 32.35700
H  48.50900 19.84900 31.77500
H  48.57000 19.32500 33.41700
H  49.16100 15.10100 33.25600
H  47.62300 14.38600 32.92500
H  48.42600 14.80100 35.36000
H  46.73700 14.97000 34.90100
H  51.85800 19.42700 29.32500
H  52.82500 19.63700 27.91400
H  53.20800 18.29500 28.87100
H  54.15000 17.89300 26.49000
H  53.50600 19.42900 25.82400
H  54.29500 18.44000 24.75300
H  48.58000 14.40300 23.36700
H  45.61300 14.59700 23.54600
H  47.34800 17.00900 23.11700
H  46.63200 15.80600 21.97000
H  48.39700 16.31900 22.22500
H  46.96700 12.43500 22.78900
H  45.61600 12.24200 23.78800
H  48.37800 12.49400 25.28800
H  48.13400 11.19200 24.18600
H  47.10200 11.31100 25.55700
H  42.83400 12.05200 27.57600
H  41.74400 13.40800 28.20400
H  42.46600 12.13900 29.26000
H  45.34400 14.20200 32.80300
H  42.73200 17.19500 34.39700
H  43.81500 17.15000 35.74900
H  42.58300 15.89300 35.51800

