158

Mg 24.18300 -4.85700 45.02600
C  26.17200 -2.16400 43.79600
C  21.65800 -3.64700 43.13900
C  22.41900 -7.65300 45.90300
C  26.97800 -6.08200 46.67300
N  23.99500 -3.09700 43.48500
C  24.86500 -2.09300 43.30200
C  24.32200 -1.15800 42.20200
C  22.77400 -1.45100 42.27100
C  22.75000 -2.79400 43.03800
C  22.14000 -0.34200 43.09400
C  24.97900 -1.55400 40.85000
C  25.69900 -0.47700 40.02100
H  25.41000 -0.36200 38.60900
N  22.27500 -5.61200 44.53000
C  21.38900 -4.90300 43.79900
C  20.13200 -5.72400 43.74700
C  20.30600 -6.81900 44.69200
C  21.69300 -6.70300 45.14300
C  19.01300 -5.30900 42.82900
C  19.26700 -7.83700 45.02100
O  18.21900 -7.70500 44.41700
C  19.47700 -8.96000 46.07000
N  24.68000 -6.62600 45.96700
C  23.76600 -7.66400 46.20200
C  24.45800 -8.88900 46.89300
C  25.81200 -8.31700 47.25300
C  25.86200 -6.94200 46.58300
C  23.70400 -9.46800 48.11500
C  26.99800 -9.23400 46.82000
C  27.71600 -10.06500 47.92300
N  26.18900 -4.34000 45.20100
C  27.19700 -4.89400 45.95000
C  28.42200 -4.18400 45.74700
C  28.08900 -3.19300 44.90100
C  26.71100 -3.24500 44.66800
C  29.69600 -4.53100 46.40100
C  28.59400 -1.99700 44.25500
O  29.78200 -1.59500 44.31000
C  27.37300 -1.32300 43.45500
C  27.16700 0.14100 43.95100
O  26.41300 0.48100 44.85100
O  27.91600 1.04400 43.25300
C  28.03900 2.37400 43.88400
H  20.75000 -3.26900 42.66500
H  21.86600 -8.51200 46.28900
H  27.81500 -6.37500 47.31000
H  24.58700 -0.12200 42.41100
H  22.33900 -1.48500 41.27200
H  21.51800 -0.80600 43.86000
H  21.60000 0.26800 42.37000
H  22.91100 0.27800 43.55300
H  24.21500 -1.92200 40.16500
H  25.78300 -2.26000 41.05400
H  26.77000 -0.60000 40.17600
H  25.46700 0.51600 40.40800
H  19.06600 -4.32700 42.35800
H  18.08200 -5.45600 43.37500
H  18.91500 -5.96100 41.96000
H  19.71100 -8.52200 47.04000
H  20.25700 -9.65300 45.75700
H  18.55600 -9.52000 46.23900
H  24.37900 -9.60700 46.07700
H  25.85500 -8.20800 48.33700
H  23.12000 -10.28500 47.69100
H  22.89400 -8.80600 48.42100
H  24.33900 -9.81200 48.93200
H  27.73100 -8.57400 46.35700
H  26.67200 -9.77600 45.93200
H  28.76400 -10.25000 47.68700
H  27.22100 -11.03500 47.96700
H  27.67200 -9.51200 48.86200
H  29.90900 -5.42700 45.81800
H  29.51200 -4.81100 47.43900
H  30.46000 -3.77300 46.23000
H  27.44800 -1.29300 42.36800
H  27.11600 2.93400 44.03700
H  28.70700 3.03500 43.33100
H  28.38800 2.14500 44.89100
Mg 17.44300 52.22400 25.80800
C  19.08400 50.70000 28.54500
C  15.09700 53.24500 27.91400
C  15.98600 53.47600 23.10300
C  20.00500 50.75200 23.76900
N  17.18900 52.08800 28.00000
C  18.08000 51.59600 28.87100
C  17.62600 51.84800 30.29300
C  16.19300 52.48800 30.13000
C  16.11400 52.61500 28.56700
C  14.98600 51.73400 30.71500
C  18.61300 52.61600 31.20300
C  18.65300 52.32100 32.69400
H  17.50800 51.66600 33.47700
N  15.78200 53.31600 25.56900
C  14.91100 53.62000 26.58600
C  13.76500 54.33700 25.99600
C  14.03900 54.41300 24.59900
C  15.32300 53.71700 24.34500
C  12.59600 54.91200 26.86000
C  13.18100 55.08400 23.53800
O  13.56400 55.23800 22.36500
C  11.86400 55.56000 23.85600
N  17.93700 52.10900 23.68000
C  17.11300 52.72700 22.78100
C  17.66900 52.57900 21.31300
C  19.05500 51.91300 21.70300
C  19.03200 51.62800 23.18300
C  16.69400 51.72400 20.46300
C  20.32600 52.67400 21.33800
C  21.29600 51.96100 20.48300
N  19.05100 50.75700 26.04100
C  20.02900 50.31300 25.11900
C  21.06200 49.52200 25.81100
C  20.66700 49.61100 27.14800
C  19.48100 50.35100 27.28200
C  22.33000 48.85300 25.12500
C  21.16600 49.20500 28.49000
O  22.02400 48.49500 28.88200
C  20.17300 49.93200 29.40600
C  19.52300 48.88000 30.27700
O  19.06600 47.82600 29.87900
O  19.45100 49.26100 31.61200
C  18.89000 48.27300 32.53800
H  14.39100 53.62900 28.65300
H  15.54800 54.04100 22.27700
H  20.85300 50.34400 23.21400
H  17.38000 50.85500 30.66900
H  16.15400 53.45600 30.63000
H  15.14000 50.78200 31.22300
H  14.41800 51.49500 29.81600
H  14.48500 52.42200 31.39600
H  18.36000 53.67100 31.09200
H  19.57500 52.34100 30.77000
H  18.91600 53.23700 33.22400
H  19.52900 51.71300 32.92000
H  12.63000 55.99100 26.71200
H  12.94800 54.90400 27.89200
H  11.61400 54.45500 26.73600
H  11.86600 56.47800 24.44300
H  11.46400 54.64600 24.29500
H  11.33300 55.64100 22.90700
H  17.82500 53.58100 20.91400
H  19.01500 50.90900 21.28000
H  15.86700 51.49600 21.13500
H  17.11500 50.75400 20.20200
H  16.35700 52.31900 19.61400
H  20.81600 52.94100 22.27500
H  19.98400 53.64500 20.98200
H  21.35400 52.35600 19.46800
H  21.14900 50.88300 20.42100
H  22.27300 52.09300 20.94800
H  22.48200 49.37500 24.18100
H  21.91500 47.84600 25.06600
H  23.12900 48.74500 25.85800
H  20.72100 50.57400 30.09600
H  17.80100 48.22200 32.51300
H  19.23600 48.47600 33.55100
H  19.21300 47.26800 32.26700

