158

Mg 36.63000 50.28900 26.19000
C  36.96700 47.96800 28.91800
C  35.56100 52.63400 28.47200
C  36.01600 52.25800 23.51800
C  37.58000 47.66700 24.01400
N  36.15400 50.16200 28.46100
C  36.57800 49.23400 29.37500
C  36.44400 49.66300 30.84300
C  35.73400 51.13200 30.63700
C  35.75400 51.30500 29.08800
C  34.29900 51.37500 31.16800
C  37.83800 49.79900 31.63600
C  37.84500 48.90000 32.95200
H  36.66100 49.19900 33.95000
N  36.04100 52.21200 26.04500
C  35.59000 53.04000 27.08800
C  35.24800 54.30000 26.54200
C  35.30900 54.23800 25.07200
C  35.80800 52.80500 24.80300
C  34.89900 55.47900 27.45700
C  34.95100 55.23800 23.94900
O  35.13400 55.07300 22.75600
C  34.38000 56.57700 24.33700
N  36.76800 50.02700 24.10600
C  36.48700 50.95500 23.24200
C  36.81000 50.51200 21.80200
C  37.39400 49.09300 21.95400
C  37.24300 48.90300 23.45900
C  35.57100 50.68600 20.86600
C  38.90400 48.90000 21.50800
C  39.92500 49.75200 22.31100
N  37.14400 48.23500 26.36100
C  37.58700 47.37400 25.40900
C  37.87200 46.07900 26.07800
C  37.67600 46.29500 27.42900
C  37.18900 47.62300 27.57200
C  38.38700 44.87800 25.41900
C  37.73900 45.62700 28.77900
O  37.97100 44.48800 29.07900
C  37.28200 46.76600 29.72100
C  36.15100 46.29200 30.48900
O  34.98200 46.42500 30.18900
O  36.43300 45.77300 31.74200
C  35.45300 45.35100 32.72100
H  35.29900 53.39800 29.20700
H  35.74200 52.79700 22.60900
H  38.12200 47.00100 23.33900
H  35.85100 48.87700 31.31000
H  36.30900 51.94500 31.08100
H  34.36200 52.19500 31.88400
H  33.81800 50.50400 31.61300
H  33.55100 51.57700 30.40200
H  37.78100 50.82200 32.00900
H  38.72300 49.68500 31.01000
H  38.77200 48.94100 33.52500
H  37.65100 47.91900 32.51900
H  35.60100 56.24000 27.11300
H  35.11600 55.21700 28.49200
H  33.82900 55.68200 27.41400
H  33.48700 56.44500 24.94800
H  34.04500 57.08800 23.43400
H  35.20900 57.02400 24.88500
H  37.61700 51.15500 21.45200
H  36.76500 48.33300 21.49100
H  34.66000 50.88600 21.43100
H  35.47600 49.69600 20.41900
H  35.64000 51.35600 20.00900
H  39.03800 49.35600 20.52800
H  39.22300 47.88400 21.27400
H  40.79000 50.08900 21.73800
H  40.30100 49.16900 23.15200
H  39.59400 50.71200 22.70800
H  38.54100 44.08500 26.15000
H  39.36800 45.13000 25.01400
H  37.81000 44.53000 24.56300
H  38.09800 47.04300 30.38800
H  35.45800 44.27000 32.58100
H  34.39200 45.56400 32.59000
H  35.63100 45.68600 33.74300
Mg -11.80100 16.24500 41.76200
C  -8.83700 14.44500 41.38100
C  -10.09200 18.96000 40.22400
C  -14.68800 17.86000 41.36300
C  -13.39800 13.33500 42.73300
N  -9.68500 16.62400 40.99300
C  -8.66900 15.71000 40.79800
C  -7.38200 16.24600 40.08700
C  -7.81600 17.75700 39.91800
C  -9.29000 17.82600 40.43000
C  -6.88500 18.88000 40.46600
C  -7.04300 15.47100 38.76700
C  -5.49700 15.12200 38.49100
H  -4.93000 15.85600 37.26700
N  -12.35500 18.26400 41.06000
C  -11.55100 19.12300 40.45400
C  -12.31400 20.33500 40.18700
C  -13.67400 20.00800 40.42800
C  -13.59300 18.70700 41.00900
C  -11.65800 21.55900 39.61600
C  -14.90000 20.90100 40.15700
O  -14.76900 21.97500 39.55400
C  -16.29700 20.54000 40.60100
N  -13.80200 15.68400 42.08300
C  -14.79600 16.54100 41.74200
C  -16.17100 15.84700 41.97500
C  -15.75700 14.34900 42.50300
C  -14.27500 14.39900 42.46800
C  -17.24900 16.56700 42.89800
C  -16.33900 13.23000 41.60100
C  -17.36200 12.24800 42.16400
N  -11.31200 14.32000 42.07300
C  -12.02600 13.24400 42.55300
C  -11.13100 12.09600 42.68100
C  -9.87000 12.49000 42.22600
C  -10.05600 13.84200 41.85700
C  -11.43300 10.71600 43.32800
C  -8.49500 12.04900 41.93700
O  -7.94300 10.99800 42.10600
C  -7.75200 13.34200 41.43200
C  -6.69200 13.74100 42.46000
O  -6.88400 13.87600 43.63600
O  -5.46100 13.92500 41.88300
C  -4.40200 14.36700 42.76500
H  -9.65500 19.77500 39.64300
H  -15.65400 18.37000 41.36000
H  -13.86300 12.47900 43.22600
H  -6.45900 16.28500 40.66600
H  -7.81800 17.98600 38.85200
H  -6.07300 18.43100 41.03900
H  -7.47300 19.53100 41.11200
H  -6.39700 19.27500 39.57500
H  -7.29900 16.20800 38.00600
H  -7.71100 14.62500 38.60800
H  -5.38400 14.04500 38.36700
H  -4.77000 15.40600 39.25200
H  -10.63300 21.72400 39.94700
H  -12.26000 22.39900 39.96300
H  -11.63200 21.61100 38.52800
H  -16.93900 21.33700 40.22300
H  -16.37200 20.44500 41.68400
H  -16.67700 19.68200 40.04700
H  -16.52400 15.62600 40.96800
H  -15.91100 14.18700 43.56900
H  -17.76400 17.29000 42.26600
H  -16.68900 17.10000 43.66600
H  -17.84500 15.75800 43.32200
H  -15.60400 12.50200 41.25600
H  -16.78300 13.55400 40.66000
H  -17.81800 12.84500 42.95300
H  -16.78900 11.49600 42.70700
H  -17.97700 11.94900 41.31600
H  -10.69000 9.97400 43.03500
H  -12.43800 10.53300 42.94800
H  -11.61600 10.81700 44.39800
H  -7.23400 13.20500 40.48300
H  -3.89200 13.65100 43.41100
H  -4.68900 15.25700 43.32400
H  -3.62100 14.70800 42.08700

