158

Mg 1.44100 8.17500 26.71200
C  1.88800 9.62800 29.83500
C  1.60100 5.15800 28.23800
C  1.23100 6.93700 23.61400
C  1.74500 11.36300 25.31800
N  1.81500 7.55300 28.80200
C  1.68900 8.26400 29.90500
C  1.61400 7.40600 31.17900
C  1.91000 6.00400 30.66000
C  1.75800 6.23700 29.10400
C  3.25200 5.30400 30.94500
C  0.26400 7.61100 31.91500
C  0.45400 8.08400 33.38600
H  1.59700 7.48800 34.22500
N  1.43700 6.31600 26.01900
C  1.41800 5.14400 26.80300
C  1.28500 4.02800 25.88700
C  1.21600 4.54400 24.56800
C  1.25600 5.97900 24.66100
C  1.22200 2.58700 26.46900
C  1.09600 3.75300 23.33000
O  0.87500 4.28700 22.21100
C  1.13300 2.28100 23.40600
N  1.35500 9.04800 24.73200
C  1.31500 8.30100 23.61800
C  1.53500 9.07600 22.36500
C  1.23900 10.47400 22.84100
C  1.48100 10.30300 24.38900
C  2.85500 8.96600 21.56400
C  -0.11600 11.03700 22.45000
C  -1.43500 10.57500 23.12200
N  1.79800 10.15000 27.34900
C  1.92000 11.33800 26.67700
C  2.08300 12.41700 27.59500
C  2.06400 11.77200 28.88700
C  1.94800 10.40300 28.67400
C  2.07700 13.90200 27.28500
C  2.23600 12.03900 30.29700
O  2.47800 13.04800 30.89600
C  2.01900 10.64300 31.01500
C  3.08600 10.41400 32.05600
O  4.17400 9.85100 31.88000
O  2.79300 11.22400 33.15500
C  3.81000 11.53300 34.19100
H  1.64500 4.15600 28.66900
H  1.43200 6.52900 22.62100
H  1.75100 12.35200 24.85500
H  2.48000 7.76100 31.73800
H  1.13400 5.29000 30.93700
H  4.15300 5.88600 31.13700
H  3.58300 4.77900 30.04900
H  3.12800 4.49000 31.65900
H  -0.31100 6.68800 31.84000
H  -0.24700 8.41000 31.37700
H  -0.50300 7.93500 33.88700
H  0.53900 9.17000 33.40800
H  0.42900 2.09500 25.90600
H  0.85500 2.56500 27.49500
H  2.14700 2.01500 26.38900
H  0.11800 1.89000 23.48200
H  1.76900 1.78800 24.14200
H  1.57600 2.10600 22.42600
H  0.61800 8.73400 21.88500
H  1.93500 11.23400 22.48600
H  3.37500 8.02700 21.75500
H  3.60200 9.73500 21.75900
H  2.55200 9.09600 20.52500
H  -0.26000 11.20600 21.38300
H  -0.02000 12.02200 22.90700
H  -1.88400 11.28300 23.81900
H  -1.19400 9.69600 23.72000
H  -2.17500 10.29400 22.37300
H  2.37400 14.05100 26.24700
H  2.87700 14.34300 27.88000
H  1.09400 14.20000 27.65000
H  1.07700 10.62500 31.56300
H  4.77000 11.07100 33.96100
H  3.47100 11.01200 35.08600
H  3.77600 12.62300 34.20700
Mg -10.62600 16.66200 41.03100
C  -7.20800 16.80100 41.58200
C  -10.58500 19.94500 40.19500
C  -13.97400 16.41000 40.31400
C  -10.54100 13.13700 41.40900
N  -9.07800 18.09400 40.85800
C  -7.75900 17.96200 41.06000
C  -7.01600 19.27300 40.59600
C  -8.14900 20.28500 40.76500
C  -9.40000 19.38700 40.64300
C  -8.25300 21.07300 42.10500
C  -6.47600 19.16400 39.19400
C  -5.00300 18.87700 39.04700
H  -4.65000 17.85900 38.04800
N  -12.07500 18.00700 40.30400
C  -11.87000 19.31800 40.04500
C  -13.10000 19.91100 39.73400
C  -14.02400 18.85600 39.65900
C  -13.37800 17.64300 40.04500
C  -13.30000 21.42400 39.43500
C  -15.41300 19.05300 39.15400
O  -15.76800 20.22200 38.93100
C  -16.45200 17.95700 38.87600
N  -12.00300 14.91700 40.57000
C  -13.34000 15.13600 40.56200
C  -14.16800 13.86200 40.91200
C  -12.99800 12.75900 41.02800
C  -11.73900 13.62500 40.98700
C  -14.98000 14.05700 42.26000
C  -13.07000 11.59800 39.94200
C  -12.31800 11.83600 38.57700
N  -9.18800 15.20200 41.45000
C  -9.26500 13.81500 41.61200
C  -7.95400 13.29100 42.08700
C  -7.10200 14.48300 42.08500
C  -7.86300 15.53500 41.64300
C  -7.56900 11.84100 42.26700
C  -5.79900 15.00500 42.39800
O  -4.80800 14.42800 42.77000
C  -5.89700 16.55900 42.15500
C  -5.72200 17.40500 43.40400
O  -4.95700 18.35900 43.49500
O  -6.52600 16.95800 44.40800
C  -6.15900 17.39300 45.78900
H  -10.49900 21.01600 40.00100
H  -15.06500 16.36500 40.35300
H  -10.57200 12.07300 41.65300
H  -6.09400 19.40600 41.16100
H  -8.24800 21.05600 40.00200
H  -7.30600 20.81900 42.58200
H  -9.03400 20.82400 42.82300
H  -8.24900 22.14500 41.91100
H  -6.57800 20.15700 38.75700
H  -7.01200 18.38000 38.65900
H  -4.64800 18.40700 39.96400
H  -4.54300 19.83000 38.78500
H  -13.74000 21.47700 38.43900
H  -12.33800 21.93600 39.47200
H  -13.94000 21.87100 40.19600
H  -15.94500 17.22500 38.24700
H  -17.20600 18.40400 38.22800
H  -16.93900 17.50500 39.74000
H  -14.88700 13.63800 40.12500
H  -12.84600 12.31900 42.01400
H  -14.69000 14.96000 42.79800
H  -14.96700 13.11900 42.81500
H  -16.01900 14.21800 41.97300
H  -14.13900 11.50500 39.75300
H  -12.67500 10.76900 40.52900
H  -13.06000 11.98600 37.79400
H  -11.72200 10.94300 38.38900
H  -11.67000 12.71200 38.60600
H  -7.83400 11.28200 41.37000
H  -8.13200 11.40600 43.09300
H  -6.49800 11.87200 42.46900
H  -5.06200 16.73200 41.47600
H  -6.80300 18.20200 46.13300
H  -5.19100 17.89500 45.80000
H  -5.95300 16.57600 46.48100

