158

Mg 43.75300 4.50800 47.56700
C  41.57000 7.17900 47.33200
C  41.04800 2.39600 46.98400
C  45.88800 1.96600 47.27800
C  46.40700 6.79200 47.70100
N  41.68000 4.72400 47.05200
C  40.96200 5.96500 47.07000
C  39.50000 5.73600 46.79100
C  39.32600 4.21700 47.02500
C  40.78000 3.71800 47.11100
C  38.32500 3.80000 48.21100
C  39.12600 6.29400 45.32200
C  37.88900 7.13500 45.30600
H  37.15800 7.00100 43.98600
N  43.51700 2.43900 47.16500
C  42.33400 1.72200 47.06300
C  42.61300 0.33400 46.86700
C  44.02300 0.08200 46.96800
C  44.55300 1.53100 47.12200
C  41.49800 -0.63600 46.59400
C  44.71700 -1.19200 46.95900
O  44.04700 -2.16600 46.90500
C  46.16500 -1.37600 47.09600
N  45.77600 4.42900 47.44000
C  46.44900 3.23500 47.45700
C  48.02800 3.43600 47.59200
C  48.18000 4.98000 47.64600
C  46.67500 5.43100 47.56900
C  48.69100 2.84000 48.76900
C  48.96000 5.74600 46.51400
C  49.99800 6.86600 46.93000
N  43.97000 6.55400 47.53400
C  45.05800 7.30000 47.68800
C  44.69100 8.70700 47.74000
C  43.24000 8.73100 47.68200
C  42.86700 7.37100 47.50100
C  45.71100 9.87400 47.73400
C  42.14400 9.55700 47.66300
O  42.03800 10.72200 47.78700
C  40.93800 8.56000 47.48300
C  39.98800 8.69700 48.66500
O  40.15200 8.16800 49.72600
O  38.91300 9.48900 48.34300
C  37.86900 9.68700 49.35700
H  40.22400 1.71400 46.76300
H  46.68900 1.23300 47.16000
H  47.33500 7.36500 47.65700
H  39.01900 6.19900 47.65200
H  38.82600 3.87100 46.12100
H  37.85900 4.61600 48.76300
H  38.93600 3.30100 48.96300
H  37.49800 3.17800 47.86900
H  38.98800 5.48400 44.60600
H  39.97400 6.90700 45.01800
H  38.19700 8.16100 45.50600
H  37.21300 7.03400 46.15500
H  41.65200 -1.10500 45.62200
H  40.49700 -0.20800 46.64600
H  41.54500 -1.37500 47.39400
H  46.45300 -1.28100 48.14300
H  46.61200 -0.59900 46.47700
H  46.39700 -2.34100 46.64400
H  48.47500 3.16500 46.63500
H  48.57700 5.27300 48.61800
H  48.02700 2.10600 49.22700
H  48.74400 3.53900 49.60300
H  49.68100 2.43500 48.56200
H  48.17700 6.13500 45.86200
H  49.52900 5.06700 45.88000
H  50.20700 6.89800 48.00000
H  49.42400 7.76200 46.69500
H  50.85100 6.83600 46.25200
H  45.22600 10.58500 47.06500
H  46.62800 9.45800 47.31700
H  45.81100 10.22700 48.76100
H  40.42000 8.83400 46.56400
H  36.98600 9.32300 48.83100
H  37.78200 10.74300 49.61200
H  37.98500 9.04900 50.23300
Mg 36.24500 50.20100 25.04600
C  36.30000 48.11500 27.87900
C  35.31500 52.74500 27.01900
C  35.64700 52.06300 22.17600
C  36.99600 47.34800 23.13900
N  35.71100 50.33700 27.19600
C  36.05200 49.45800 28.22900
C  35.97700 50.13200 29.63300
C  35.47100 51.56100 29.28500
C  35.55400 51.60200 27.75300
C  34.17900 52.05300 29.85700
C  37.34100 50.02200 30.41400
C  37.36500 49.92600 31.93900
H  36.10600 49.50000 32.66700
N  35.62800 52.12600 24.64800
C  35.35200 53.06200 25.66600
C  35.14400 54.32000 25.06100
C  35.22200 54.16200 23.61200
C  35.47600 52.72700 23.41900
C  34.97400 55.59100 25.86800
C  35.09400 55.23500 22.52400
O  35.09100 54.93700 21.33100
C  34.98200 56.65800 22.88900
N  36.26100 49.74300 23.03100
C  36.02100 50.67400 22.01700
C  36.01700 49.99800 20.64600
C  36.81900 48.60900 20.94000
C  36.69900 48.48200 22.46300
C  34.64500 49.83600 19.91600
C  38.29900 48.55800 20.56400
C  38.96100 47.20700 20.11800
N  36.49400 48.12000 25.35300
C  36.80700 47.10000 24.50500
C  36.98500 45.84700 25.25800
C  36.79500 46.19100 26.58800
C  36.43700 47.59300 26.60700
C  37.26700 44.42700 24.65800
C  36.85100 45.67300 28.02500
O  37.22800 44.62400 28.49600
C  36.46800 46.93100 28.89000
C  35.27200 46.45300 29.56600
O  34.13900 46.81000 29.33700
O  35.60200 45.55700 30.58600
C  34.49500 45.37000 31.46500
H  35.11300 53.59400 27.67600
H  35.47400 52.68200 21.29400
H  37.25400 46.57100 22.41600
H  35.21500 49.65200 30.24800
H  36.27200 52.22500 29.61000
H  34.46900 52.77100 30.62300
H  33.54500 51.25800 30.25000
H  33.64500 52.62500 29.09800
H  37.99200 50.83200 30.08400
H  37.88100 49.11400 30.14600
H  37.62400 50.89000 32.37700
H  38.13100 49.16300 32.07900
H  35.78500 56.29400 25.67900
H  34.91200 55.40400 26.94000
H  34.08500 56.15000 25.57500
H  35.76900 56.98600 23.56800
H  34.01600 56.84700 23.35700
H  35.13300 57.15000 21.92900
H  36.69200 50.65300 20.09500
H  36.28500 47.82500 20.40100
H  34.57900 50.50900 19.06100
H  33.86800 50.12900 20.62200
H  34.47900 48.80900 19.59000
H  38.89900 48.69900 21.46300
H  38.44600 49.34500 19.82500
H  39.86600 47.33800 19.52400
H  38.23000 46.58100 19.60700
H  39.15100 46.62000 21.01700
H  37.90100 44.53200 23.77800
H  36.32500 44.01600 24.29600
H  37.59800 43.62000 25.31100
H  37.29700 47.25000 29.52200
H  34.17000 46.23600 32.04100
H  34.70100 44.67300 32.27700
H  33.59700 44.98900 30.97900

