158

Mg 9.72000 47.45200 27.23500
C  7.59100 46.73800 29.96000
C  12.32800 47.66200 29.47700
C  11.67000 48.19800 24.67500
C  6.87300 47.43900 25.21200
N  9.93000 47.03100 29.48500
C  8.93300 46.85700 30.35800
C  9.52100 46.92300 31.78700
C  11.00300 47.41000 31.63100
C  11.12700 47.32700 30.10400
C  11.26700 48.83400 32.24500
C  9.12200 45.80300 32.86000
C  10.18000 45.52200 34.02900
H  9.81300 44.89600 35.31900
N  11.73800 47.74400 27.06900
C  12.65800 47.75100 28.10200
C  14.01400 47.96300 27.57300
C  13.77800 48.20600 26.17500
C  12.39500 48.00400 25.93100
C  15.27800 48.05800 28.43600
C  14.77800 48.56500 25.14600
O  14.52500 48.75700 23.93200
C  16.30800 48.49900 25.40900
N  9.36700 47.89900 25.23800
C  10.31000 48.18900 24.33000
C  9.80200 48.25300 22.87300
C  8.29500 47.97100 23.08700
C  8.16500 47.80500 24.62300
C  10.09300 49.68400 22.30400
C  7.96000 46.62700 22.43900
C  7.28500 46.60500 21.05500
N  7.61200 47.29600 27.46500
C  6.60900 47.21300 26.56200
C  5.28900 47.06900 27.21400
C  5.58400 46.82400 28.58000
C  7.03800 47.03100 28.65700
C  3.89100 47.14200 26.62800
C  5.07400 46.64200 29.96000
O  3.93600 46.66900 30.43400
C  6.35400 46.55200 30.84800
C  6.35100 45.22700 31.44500
O  6.86100 44.20800 30.93200
O  5.59300 45.26600 32.63300
C  5.62600 43.97300 33.32100
H  13.20800 47.84100 30.09800
H  12.17500 48.42800 23.73500
H  6.01000 47.43300 24.54300
H  8.88100 47.74000 32.11900
H  11.75200 46.68200 31.94500
H  10.48200 49.06900 32.96400
H  11.16800 49.50200 31.38900
H  12.27900 48.97400 32.62800
H  8.89500 44.84100 32.40100
H  8.25900 46.11000 33.45000
H  10.64100 46.44400 34.38300
H  11.03200 44.91300 33.72700
H  15.88200 47.33600 27.88700
H  15.05400 47.78400 29.46700
H  15.79900 49.01500 28.41100
H  16.86400 48.73200 24.50100
H  16.52900 47.52900 25.85500
H  16.41600 49.34700 26.08600
H  10.33100 47.48100 22.31500
H  7.63000 48.72400 22.66600
H  9.44500 50.37900 22.83700
H  9.98400 49.74500 21.22100
H  11.13400 49.93600 22.50600
H  7.18400 46.12600 23.01800
H  8.81000 45.94600 22.42700
H  7.78000 45.87100 20.41800
H  7.18000 47.60200 20.62700
H  6.24400 46.30700 21.17500
H  3.81500 46.70900 25.63100
H  3.69200 48.20800 26.51800
H  3.05300 46.72100 27.18400
H  6.32200 47.34100 31.60000
H  4.83000 43.32800 32.95100
H  5.50300 44.16600 34.38700
H  6.55400 43.40700 33.24100
Mg -10.25800 16.92000 42.28300
C  -6.77200 16.45600 42.02500
C  -9.95700 19.99300 40.80800
C  -13.61700 17.02100 42.09900
C  -10.50500 13.45700 43.09300
N  -8.49600 18.06600 41.54900
C  -7.19100 17.76400 41.69900
C  -6.30800 18.87400 41.23000
C  -7.35600 19.94800 40.79500
C  -8.70300 19.29000 40.94200
C  -7.26200 21.31800 41.51200
C  -5.28900 18.63900 40.11000
C  -5.56900 17.63200 38.87800
H  -5.21100 18.11000 37.48400
N  -11.61600 18.35200 41.67800
C  -11.27700 19.58700 41.08200
C  -12.52500 20.29000 40.86400
C  -13.64200 19.47400 41.30200
C  -12.96400 18.20200 41.70700
C  -12.59200 21.70000 40.24600
C  -15.10600 19.87200 41.23100
O  -15.36900 20.93600 40.65400
C  -16.17200 18.98300 41.79500
N  -11.88100 15.42800 42.59300
C  -13.13800 15.78900 42.50200
C  -14.13100 14.58500 42.72800
C  -13.08200 13.48000 43.21400
C  -11.75800 14.13600 42.92500
C  -15.29800 14.89300 43.76900
C  -13.22200 12.01000 42.67700
C  -12.70400 10.92000 43.66600
N  -8.97800 15.23500 42.48900
C  -9.24100 13.93500 42.84000
C  -7.98200 13.24700 43.14100
C  -6.95000 14.26800 42.85900
C  -7.63900 15.40400 42.43400
C  -7.68000 11.77200 43.53200
C  -5.52900 14.49500 42.89600
O  -4.71200 13.68000 43.26800
C  -5.34300 15.94000 42.23200
C  -4.41000 16.71400 43.10900
O  -3.43200 17.27800 42.78400
O  -4.93700 16.69400 44.34300
C  -4.20000 17.57100 45.35900
H  -9.91400 20.94500 40.27500
H  -14.70900 17.01800 42.05900
H  -10.45900 12.44200 43.49400
H  -5.76300 19.20400 42.11500
H  -7.15300 20.27100 39.77400
H  -6.91200 22.05700 40.79100
H  -6.53900 21.10800 42.30100
H  -8.21400 21.62400 41.94400
H  -4.39400 18.33700 40.65400
H  -5.03400 19.66200 39.83300
H  -6.62900 17.37700 38.87700
H  -5.00700 16.71700 39.06600
H  -13.20600 21.70600 39.34600
H  -11.64900 22.04900 39.82600
H  -12.85200 22.50500 40.93400
H  -16.27400 18.14200 41.10900
H  -17.07100 19.59700 41.73300
H  -15.79700 18.70200 42.77900
H  -14.53900 14.22700 41.78200
H  -13.28400 13.54900 44.28300
H  -15.93400 14.02400 43.93600
H  -15.94800 15.71500 43.47000
H  -14.86100 15.08000 44.74900
H  -12.65800 11.85800 41.75700
H  -14.20100 11.63400 42.38100
H  -12.17700 11.38100 44.50100
H  -12.04400 10.17400 43.22300
H  -13.39000 10.25200 44.18700
H  -6.87000 11.83200 44.25900
H  -7.45000 11.16800 42.65500
H  -8.61300 11.39100 43.94800
H  -4.74000 15.69400 41.35800
H  -4.01600 17.03700 46.29100
H  -4.78900 18.43800 45.65800
H  -3.22600 17.98100 45.09000

