158

Mg -1.17100 17.80000 26.25600
C  -1.59400 15.28400 28.68700
C  -1.88900 20.09600 28.62700
C  -0.95200 20.08400 23.90600
C  -1.16700 15.26900 23.85600
N  -1.53400 17.68800 28.43900
C  -1.61800 16.57000 29.21700
C  -1.78100 16.91500 30.66700
C  -2.20000 18.46900 30.58000
C  -1.94100 18.74400 29.11400
C  -3.63400 18.99100 31.03800
C  -0.64100 16.50300 31.72000
C  -0.53400 17.37000 32.99400
H  -0.26600 16.78300 34.32900
N  -1.25000 19.84000 26.28000
C  -1.51100 20.59100 27.38600
C  -1.48800 21.97900 26.92600
C  -1.13000 21.96800 25.51100
C  -1.09800 20.58800 25.14200
C  -1.87000 23.23600 27.86000
C  -0.97600 23.11500 24.62300
O  -0.67000 22.93600 23.42200
C  -1.10600 24.54600 25.15200
N  -1.02700 17.69500 24.18700
C  -0.97300 18.80600 23.46100
C  -1.03800 18.48900 21.87900
C  -0.96300 16.92900 21.89700
C  -1.09300 16.59800 23.42500
C  -2.24700 19.16300 21.21200
C  0.18800 16.30000 21.14600
C  1.59500 16.24900 21.70200
N  -1.36400 15.69700 26.25200
C  -1.33700 14.81800 25.20200
C  -1.58100 13.47500 25.67500
C  -1.63300 13.62800 27.06200
C  -1.47800 15.00500 27.33000
C  -1.69800 12.33400 24.80400
C  -1.81300 12.88600 28.27000
O  -1.82900 11.65700 28.43300
C  -1.86400 13.92800 29.41200
C  -0.83800 13.51200 30.35900
O  0.33500 13.72400 30.26400
O  -1.40900 12.94200 31.46100
C  -0.58000 12.47000 32.53600
H  -2.23300 20.81400 29.37400
H  -0.99300 20.71500 23.01500
H  -1.24700 14.47500 23.11100
H  -2.72200 16.41900 30.90500
H  -1.56000 19.11500 31.18100
H  -3.52200 19.78800 31.77300
H  -4.12600 18.21100 31.61700
H  -4.27500 19.28900 30.20800
H  0.25000 16.32600 31.11600
H  -0.99600 15.50400 31.97100
H  -1.51000 17.84000 33.11600
H  0.25800 18.08900 32.78400
H  -2.67200 23.82300 27.41200
H  -1.01100 23.89700 27.96900
H  -2.01400 22.91500 28.89200
H  -1.02600 25.31600 24.38500
H  -0.32300 24.53700 25.91100
H  -2.10200 24.79400 25.51700
H  -0.17200 18.99400 21.45100
H  -1.86200 16.60900 21.36900
H  -2.92200 19.63600 21.92600
H  -2.74500 18.43200 20.57400
H  -1.81400 19.98500 20.64200
H  0.24400 16.89200 20.23300
H  -0.11900 15.31300 20.80200
H  1.56200 16.67600 22.70400
H  2.39000 16.70200 21.11000
H  1.82200 15.18800 21.80500
H  -1.70400 11.39900 25.36500
H  -0.93400 12.39000 24.02900
H  -2.71400 12.38100 24.41200
H  -2.81500 13.87300 29.94400
H  -1.23000 11.98100 33.26200
H  -0.06100 13.33800 32.94100
H  0.10900 11.68300 32.23000
Mg 6.49300 54.21200 40.67800
C  5.87700 50.76800 40.03500
C  9.71900 53.49100 39.78500
C  6.90400 57.45500 40.47900
C  3.15700 54.58800 41.41600
N  7.58400 52.36600 39.61600
C  7.08900 51.07600 39.52100
C  8.22400 50.09700 39.25700
C  9.54400 50.95300 39.72200
C  8.93900 52.34200 39.71400
C  10.06800 50.58600 41.12600
C  8.33100 49.27600 37.86300
C  8.16700 49.98900 36.51000
H  6.98400 49.76500 35.65300
N  8.03500 55.34300 40.08000
C  9.31000 54.87500 39.86300
C  10.22100 55.95900 39.77400
C  9.47400 57.13400 39.95100
C  8.09600 56.68000 40.23400
C  11.64200 55.75500 39.35800
C  9.99500 58.57000 39.95400
O  11.22900 58.71800 39.79700
C  9.17000 59.72900 40.43000
N  5.16700 55.79700 40.71500
C  5.56000 57.06900 40.67500
C  4.44800 58.11100 41.11200
C  3.21400 57.18600 41.15400
C  3.89700 55.74800 41.20200
C  4.84800 58.83300 42.48300
C  2.21800 57.38300 39.96400
C  0.81200 56.81400 39.95600
N  4.87400 52.92600 40.86400
C  3.62100 53.23100 41.26400
C  2.88400 52.03700 41.37700
C  3.68600 50.99400 41.02000
C  4.88100 51.62900 40.60600
C  1.49100 51.84600 41.74200
C  3.81400 49.52700 40.80300
O  2.98600 48.59600 40.89200
C  5.23000 49.36100 40.19200
C  4.99500 48.59100 38.89000
O  4.74200 49.03300 37.76600
O  5.06200 47.26400 39.21100
C  4.67500 46.31500 38.12500
H  10.78200 53.31000 39.61000
H  6.94000 58.54200 40.58500
H  2.15100 54.61000 41.84100
H  8.10800 49.23600 39.91600
H  10.22400 50.83000 38.87800
H  9.45500 49.84700 41.64200
H  9.97400 51.48800 41.73000
H  11.09000 50.25300 40.94200
H  7.59600 48.48300 38.00500
H  9.32100 48.82500 37.92700
H  9.06600 49.78400 35.92900
H  8.22600 51.04300 36.78000
H  11.84000 55.80500 38.28700
H  12.16700 54.85100 39.66500
H  12.17200 56.53700 39.90100
H  8.34600 60.01900 39.77700
H  9.86400 60.55500 40.58400
H  8.86700 59.44400 41.43700
H  4.36800 58.83300 40.29800
H  2.67000 57.26300 42.09500
H  5.87700 58.60600 42.75900
H  4.25100 58.49600 43.33000
H  4.75700 59.88700 42.21800
H  2.70200 56.93800 39.09400
H  2.15100 58.46100 39.82000
H  0.64300 56.30600 40.90600
H  0.67400 56.10400 39.14000
H  0.02900 57.56700 39.86600
H  0.81700 52.24800 40.98600
H  1.30400 52.49200 42.60100
H  1.24600 50.83300 42.06100
H  5.86600 48.59500 40.63500
H  4.83700 46.71200 37.12300
H  3.63500 45.98700 38.13400
H  5.38600 45.49600 38.23500

