158

Mg 43.90200 3.28200 47.03300
C  42.07200 6.21600 46.50600
C  41.06600 1.45600 46.54800
C  45.85100 0.51000 47.09100
C  46.87500 5.07300 46.94700
N  41.79100 3.89200 46.52000
C  41.27500 5.09700 46.43500
C  39.73700 5.04100 46.36700
C  39.47800 3.50600 46.63400
C  40.86500 2.87700 46.52400
C  38.91500 3.05700 48.01400
C  39.09500 5.36900 44.98900
C  39.49100 4.63700 43.77000
H  39.76800 5.49300 42.63600
N  43.49600 1.28500 46.83200
C  42.31000 0.77200 46.69400
C  42.38200 -0.63900 46.69800
C  43.76100 -1.04100 46.86200
C  44.45100 0.28700 46.94200
C  41.28000 -1.68200 46.59400
C  44.30500 -2.37700 46.88400
O  43.57000 -3.32500 46.82100
C  45.80900 -2.64700 46.79300
N  46.10700 2.78100 46.74900
C  46.56500 1.62400 47.03600
C  48.14900 1.57800 47.26200
C  48.44000 3.04700 47.05000
C  47.09300 3.66800 46.89700
C  48.68300 0.94200 48.54900
C  49.33700 3.14900 45.72200
C  50.18300 4.49900 45.47500
N  44.42300 5.23100 46.83100
C  45.68000 5.81100 46.89700
C  45.44800 7.24300 47.01600
C  44.12300 7.51500 46.86400
C  43.48400 6.17500 46.75600
C  46.53300 8.27000 47.02100
C  43.02400 8.49600 46.74500
O  43.06600 9.71600 46.88400
C  41.70700 7.66700 46.32700
C  40.68600 8.03500 47.29200
O  40.48300 7.68000 48.41000
O  39.78100 8.79700 46.59100
C  38.48300 9.02500 47.26300
H  40.14800 0.88600 46.39400
H  46.46800 -0.36400 47.30600
H  47.77400 5.61800 47.24500
H  39.25600 5.67100 47.11500
H  38.80100 3.15800 45.85300
H  39.21800 2.03400 48.23900
H  37.83300 3.18300 48.00800
H  39.31000 3.67500 48.82000
H  39.43400 6.39500 44.84500
H  38.02600 5.49200 45.16600
H  38.69600 3.97600 43.42400
H  40.40400 4.04400 43.82300
H  41.39800 -2.17800 45.63100
H  40.23900 -1.36000 46.59200
H  41.42800 -2.52100 47.27400
H  46.47200 -2.60100 47.65800
H  46.20100 -1.97100 46.03400
H  45.97600 -3.60600 46.30300
H  48.57100 1.02700 46.42200
H  49.08600 3.46000 47.82500
H  49.50300 1.58500 48.86900
H  49.10400 -0.04600 48.36400
H  47.95100 0.94700 49.35600
H  48.73600 2.97100 44.83000
H  50.08000 2.35200 45.73100
H  49.60500 5.39100 45.23200
H  50.86700 4.29200 44.65100
H  50.81500 4.73800 46.33000
H  47.46700 7.87200 47.42000
H  46.26500 9.02300 47.76300
H  46.56300 8.72800 46.03200
H  41.51300 7.83500 45.26700
H  38.38400 10.10200 47.12100
H  38.33100 8.82600 48.32400
H  37.77100 8.43300 46.68900
Mg 16.80900 52.10900 26.95200
C  18.87600 50.68600 29.35300
C  14.58800 52.99600 29.34500
C  14.83000 53.16900 24.54200
C  18.98000 50.79200 24.53800
N  16.81300 51.87100 29.15400
C  17.76300 51.22700 29.95300
C  17.44600 51.48200 31.42700
C  15.90700 51.89500 31.30900
C  15.74400 52.37400 29.87700
C  14.96400 50.79400 31.71100
C  18.39500 52.55600 32.10800
C  18.95200 52.16800 33.48000
H  18.10200 51.40400 34.39000
N  15.04100 53.10600 26.98500
C  14.28300 53.37200 28.02900
C  13.11600 54.12300 27.59800
C  13.10600 54.10800 26.21800
C  14.35800 53.44300 25.83600
C  12.10100 54.78400 28.62800
C  12.12300 54.72400 25.16500
O  12.35600 54.76400 23.95500
C  10.96200 55.41000 25.75500
N  16.96400 52.01800 24.76700
C  16.00400 52.56000 24.01300
C  16.35000 52.46700 22.54200
C  17.73200 51.67000 22.55100
C  17.92200 51.42400 24.04200
C  15.21600 51.76000 21.71100
C  18.94900 52.49700 21.93000
C  19.64600 53.47300 22.85000
N  18.60000 50.94400 26.89400
C  19.37800 50.47400 25.81200
C  20.44400 49.68600 26.32300
C  20.30300 49.76900 27.72100
C  19.16000 50.52100 28.00500
C  21.55600 48.98400 25.60700
C  20.95400 49.36800 28.93200
O  22.00500 48.80400 29.12400
C  19.97800 49.86300 30.05200
C  19.32800 48.75900 30.72800
O  18.44500 48.01000 30.35700
O  19.95400 48.57600 31.98800
C  19.39500 47.48900 32.86600
H  13.92300 53.28500 30.16100
H  14.23700 53.49400 23.68400
H  19.52400 50.33300 23.71000
H  17.54100 50.48500 31.85800
H  15.76300 52.68500 32.04600
H  14.57600 50.32400 30.80700
H  14.07000 51.21300 32.17200
H  15.35800 50.16100 32.50600
H  17.83200 53.48900 32.10800
H  19.29900 52.81900 31.55800
H  19.31700 52.98500 34.10300
H  19.92500 51.70100 33.32700
H  12.42200 54.67200 29.66400
H  11.22800 54.13400 28.67300
H  11.85100 55.83700 28.49600
H  10.28200 55.71600 24.96000
H  11.31400 56.33000 26.22100
H  10.34100 54.77000 26.38200
H  16.67400 53.46900 22.26000
H  17.60700 50.86400 21.82700
H  14.32000 51.47000 22.26000
H  15.52800 50.92000 21.09000
H  14.86300 52.48100 20.97500
H  18.48100 53.03100 21.10200
H  19.85200 52.01200 21.55900
H  20.70800 53.24300 22.93000
H  19.22000 53.53500 23.85100
H  19.41000 54.44200 22.41000
H  21.84800 49.73300 24.87200
H  21.15800 48.18600 24.98000
H  22.32000 48.61500 26.29100
H  20.55000 50.38200 30.82100
H  18.42800 47.11800 32.52600
H  19.24700 47.76200 33.91100
H  19.98300 46.57100 32.89600

