158

Mg 1.39900 -2.31700 44.67900
C  4.69800 -1.18400 44.18800
C  0.36500 0.62100 42.88400
C  -1.79400 -3.43600 44.64800
C  2.65500 -5.37200 45.40800
N  2.38500 -0.48500 43.74800
C  3.75500 -0.21700 43.76100
C  4.04900 1.07000 43.05900
C  2.60200 1.82200 43.01700
C  1.72500 0.54800 43.18300
C  2.37900 2.86300 44.10800
C  4.64200 0.83600 41.56100
C  5.97400 1.48700 41.11800
H  6.75000 0.75000 40.01500
N  -0.48600 -1.47300 43.84800
C  -0.62500 -0.27000 43.25200
C  -2.06100 -0.13900 43.04900
C  -2.78400 -1.30300 43.52400
C  -1.67200 -2.14600 44.01800
C  -2.64500 1.11700 42.44100
C  -4.27800 -1.59200 43.50500
O  -5.07400 -0.66100 43.34300
C  -4.82600 -2.98600 43.70500
N  0.56700 -4.12800 44.92300
C  -0.79100 -4.34900 45.06800
C  -1.15000 -5.70500 45.66500
C  0.33400 -6.38200 45.77200
C  1.27400 -5.19200 45.43900
C  -1.97700 -5.72400 46.96700
C  0.52500 -7.68000 44.77500
C  1.29800 -8.84300 45.45200
N  3.32400 -3.19900 44.94200
C  3.71300 -4.48000 45.26000
C  5.10600 -4.59800 45.35100
C  5.54300 -3.26400 45.01300
C  4.42300 -2.49900 44.67500
C  5.89500 -5.87800 45.73900
C  6.78200 -2.53100 44.83400
O  7.95500 -2.79800 44.86600
C  6.20900 -1.08000 44.28600
C  6.64000 -0.07100 45.25200
O  6.57100 -0.21100 46.45400
O  7.06000 1.06800 44.68300
C  7.42600 2.16200 45.49400
H  -0.03900 1.59200 42.59000
H  -2.80800 -3.76200 44.88600
H  2.98000 -6.36800 45.71300
H  4.72600 1.60100 43.72700
H  2.37100 2.40400 42.12500
H  2.48600 3.85800 43.67700
H  3.11900 2.71400 44.89500
H  1.44600 2.67500 44.64100
H  3.90500 0.92800 40.76300
H  4.90500 -0.22000 41.61000
H  6.62300 1.70800 41.96500
H  5.53300 2.40400 40.72900
H  -3.64600 0.96400 42.03900
H  -2.07600 1.41100 41.55900
H  -2.59200 1.96900 43.11900
H  -4.24200 -3.70400 43.12900
H  -5.81100 -2.86500 43.25500
H  -4.96400 -3.24200 44.75600
H  -1.76600 -6.17000 44.89700
H  0.60000 -6.68200 46.78500
H  -1.44200 -6.33100 47.69700
H  -2.95000 -6.18000 46.78300
H  -2.16500 -4.74800 47.41500
H  0.96000 -7.38600 43.82000
H  -0.46600 -8.12400 44.67800
H  1.88100 -8.61700 46.34500
H  2.03200 -9.22600 44.74400
H  0.60700 -9.67200 45.60300
H  6.05400 -6.40300 44.79700
H  5.20300 -6.45700 46.34900
H  6.83700 -5.57200 46.19400
H  6.63800 -0.81800 43.31800
H  7.79900 2.94300 44.83200
H  8.02600 1.97100 46.38400
H  6.46400 2.39500 45.95200
Mg -1.69000 33.89100 26.53900
C  -3.51500 32.39700 29.24000
C  -0.27400 35.95100 28.65500
C  -0.40000 35.37000 23.82300
C  -3.55500 31.74700 24.43100
N  -2.03800 34.27700 28.73100
C  -2.69800 33.51900 29.58700
C  -2.21800 33.80100 31.02000
C  -1.18800 35.02100 30.83100
C  -1.12400 35.06700 29.32000
C  -1.78000 36.36400 31.39400
C  -1.59100 32.55800 31.66000
C  -2.33100 31.86300 32.83500
H  -1.81500 32.09200 34.23500
N  -0.50600 35.44700 26.26400
C  0.01000 36.16600 27.29900
C  1.05100 37.11700 26.72500
C  0.91000 37.01500 25.27800
C  -0.01300 35.90100 25.07100
C  1.79200 37.98600 27.66600
C  1.63200 37.82600 24.24300
O  1.46400 37.68200 23.03100
C  2.89000 38.58500 24.70600
N  -2.00300 33.66600 24.44900
C  -1.29500 34.34100 23.49200
C  -1.60000 33.81600 22.01600
C  -2.48600 32.54500 22.28900
C  -2.71400 32.66200 23.81800
C  -2.34500 34.80500 21.07200
C  -1.75300 31.24100 21.98400
C  -2.69000 30.07900 21.60600
N  -3.28500 32.36200 26.77100
C  -3.91500 31.62700 25.77400
C  -4.85400 30.74900 26.35900
C  -4.74800 30.93700 27.78400
C  -3.77000 31.94100 27.93300
C  -5.71000 29.78000 25.64100
C  -5.20100 30.50600 29.06900
O  -5.88000 29.53400 29.33500
C  -4.34900 31.49200 30.12700
C  -5.42900 32.24100 30.87800
O  -5.97200 33.31200 30.57200
O  -5.75000 31.53500 32.02000
C  -6.58600 32.36900 32.96600
H  0.31100 36.52300 29.37800
H  0.15800 35.77600 22.97700
H  -4.04700 31.14400 23.66500
H  -3.08100 34.11900 31.60400
H  -0.25500 34.76800 31.33500
H  -2.83200 36.26700 31.66300
H  -1.87400 37.08200 30.57900
H  -1.18800 36.87400 32.15400
H  -0.54700 32.70900 31.93700
H  -1.33600 31.83900 30.88100
H  -2.36000 30.79400 32.62600
H  -3.32800 32.29100 32.72300
H  1.47000 37.85500 28.69900
H  1.37100 38.98300 27.53600
H  2.88100 38.00900 27.63100
H  2.83900 39.36600 25.46500
H  3.27900 39.06400 23.80700
H  3.58900 37.80500 25.00800
H  -0.64900 33.52000 21.57300
H  -3.47200 32.61400 21.83000
H  -2.31700 35.73700 21.63800
H  -3.37800 34.52500 20.86600
H  -1.67000 34.99200 20.23700
H  -1.32100 30.82700 22.89500
H  -0.99000 31.34300 21.21200
H  -2.90200 29.44500 22.46700
H  -2.08200 29.47700 20.93100
H  -3.63600 30.30000 21.11100
H  -5.23000 29.64300 24.67100
H  -6.71100 30.19800 25.54100
H  -5.74600 28.85600 26.21900
H  -3.86700 30.81400 30.83100
H  -5.91600 32.85000 33.67900
H  -7.27800 31.70000 33.47600
H  -7.18800 33.16500 32.52700

