158

Mg -2.59500 16.93400 26.67000
C  -2.92400 14.80600 29.34200
C  -2.53800 19.56300 28.79000
C  -2.57900 18.91400 23.98300
C  -2.65100 14.22400 24.56000
N  -2.85300 17.13500 28.80500
C  -2.94500 16.16000 29.72300
C  -2.83700 16.66500 31.18800
C  -3.01300 18.22600 30.91500
C  -2.69500 18.34100 29.38800
C  -4.43300 18.71300 31.30600
C  -1.58100 16.12000 31.83600
C  -0.77900 16.93400 32.86300
H  -0.36200 16.29100 34.17600
N  -2.58800 18.96500 26.44300
C  -2.57800 19.86400 27.44000
C  -2.66200 21.20400 26.83600
C  -2.55200 21.05800 25.44300
C  -2.55100 19.59800 25.22400
C  -2.67600 22.48300 27.64000
C  -2.39400 22.16700 24.36600
O  -2.31800 21.91100 23.15200
C  -2.30900 23.55100 24.78600
N  -2.83400 16.64100 24.58400
C  -2.72500 17.55500 23.64700
C  -2.80900 17.09800 22.19900
C  -2.58100 15.57100 22.43100
C  -2.69600 15.46800 23.94800
C  -4.15100 17.38600 21.57500
C  -1.19800 15.07800 21.96700
C  -1.13300 13.87300 21.02200
N  -2.94000 14.91300 26.88600
C  -2.86900 13.91500 25.92000
C  -2.86800 12.60300 26.50700
C  -2.95800 12.91100 27.80100
C  -2.94300 14.30800 28.06500
C  -2.86500 11.24600 25.92700
C  -3.01400 12.33100 29.10500
O  -3.06900 11.14700 29.36300
C  -2.91500 13.54700 30.16300
C  -1.74200 13.23700 30.91300
O  -0.63800 13.39000 30.49800
O  -2.18500 12.76900 32.13100
C  -1.21200 12.40300 33.11600
H  -2.48500 20.41100 29.47500
H  -2.55000 19.55800 23.10200
H  -2.45600 13.36100 23.92100
H  -3.64100 16.17900 31.74200
H  -2.24300 18.78500 31.44700
H  -5.04900 18.89800 30.42600
H  -4.29700 19.59500 31.93300
H  -4.99600 17.96900 31.87000
H  -0.94900 15.87200 30.98400
H  -1.78800 15.23800 32.44200
H  -1.36400 17.82100 33.10800
H  0.09900 17.33700 32.35700
H  -2.89300 22.26500 28.68600
H  -3.52900 23.11600 27.39500
H  -1.78200 23.09600 27.52600
H  -3.30300 23.89000 25.07800
H  -1.98000 24.08200 23.89300
H  -1.56200 23.86600 25.51400
H  -1.98900 17.47400 21.58800
H  -3.29000 14.89000 21.96000
H  -4.88600 17.79400 22.26900
H  -4.59000 16.49900 21.11700
H  -4.17600 18.13900 20.78700
H  -0.54600 14.90600 22.82300
H  -0.61000 15.80300 21.40400
H  -0.41300 13.08000 21.22900
H  -0.98000 14.25300 20.01200
H  -2.06300 13.30700 20.96700
H  -3.86900 10.82300 25.87700
H  -2.24100 10.51900 26.44700
H  -2.58400 11.25100 24.87400
H  -3.84200 13.54200 30.73600
H  -1.37600 11.34400 33.31100
H  -1.30400 12.98600 34.03200
H  -0.17400 12.54600 32.81600
Mg 48.18300 46.03100 43.48500
C  44.75400 46.07600 42.54900
C  48.25200 42.72300 42.39200
C  51.50500 46.20300 43.12000
C  47.96900 49.58900 43.49000
N  46.58700 44.57600 42.69000
C  45.29800 44.77300 42.40100
C  44.55400 43.46200 42.04800
C  45.72500 42.41000 42.26600
C  46.94900 43.26900 42.53600
C  45.45600 41.39300 43.34900
C  43.94700 43.39700 40.54800
C  44.63700 44.16900 39.40800
H  44.98300 43.32000 38.11600
N  49.66400 44.59700 43.13500
C  49.44900 43.30900 42.81200
C  50.71700 42.63400 42.68700
C  51.75200 43.58100 42.92800
C  50.98900 44.86500 43.16700
C  50.87300 41.25200 42.27100
C  53.20800 43.32600 42.89900
O  53.57500 42.24900 42.51600
C  54.24400 44.35100 43.13600
N  49.53800 47.64900 43.12800
C  50.86700 47.44900 43.16100
C  51.65800 48.83900 43.12600
C  50.49100 49.85100 43.39900
C  49.23100 48.96600 43.31500
C  52.86300 49.07900 44.02700
C  50.58200 51.10500 42.40300
C  50.20200 52.45300 43.06300
N  46.70400 47.57200 43.29800
C  46.77000 48.94500 43.38600
C  45.46300 49.52800 43.24300
C  44.63400 48.45400 42.88200
C  45.44400 47.26400 42.96600
C  45.18700 50.95800 43.33800
C  43.31800 48.13800 42.43700
O  42.35100 48.82700 42.20500
C  43.29500 46.57500 42.23100
C  42.29000 45.95000 43.21100
O  41.67500 44.92600 42.92200
O  42.21600 46.56800 44.44100
C  41.10500 46.20700 45.32200
H  48.18300 41.69300 42.03700
H  52.57800 46.27600 42.92800
H  48.07700 50.67100 43.38900
H  43.70900 43.29800 42.71600
H  46.11000 41.86500 41.40500
H  46.11500 41.44700 44.21500
H  45.57400 40.37000 42.99100
H  44.50300 41.46300 43.87500
H  42.95400 43.84500 40.55300
H  43.77100 42.35600 40.27500
H  45.50700 44.65900 39.84600
H  44.00000 45.00900 39.13100
H  50.01400 40.64600 42.55900
H  51.76000 40.84200 42.75500
H  51.04300 41.15300 41.19900
H  54.42700 44.99700 42.27800
H  55.15500 43.86400 43.48200
H  54.01900 44.86900 44.06800
H  51.96800 49.11300 42.11800
H  50.47700 50.20200 44.43100
H  52.81000 50.02700 44.56200
H  53.73800 49.01800 43.38000
H  52.99800 48.27500 44.75100
H  49.95100 50.88300 41.54300
H  51.60200 51.15900 42.02200
H  49.28100 52.79100 42.58800
H  50.91600 53.17300 42.66300
H  50.19800 52.53900 44.15000
H  44.22000 51.24300 42.92300
H  46.00300 51.59500 42.99600
H  45.21200 51.16000 44.40900
H  43.02300 46.34800 41.20000
H  41.16500 45.15600 45.60400
H  40.13500 46.31600 44.83800
H  41.22500 46.81400 46.21900

