158

Mg 35.68900 49.05100 25.73000
C  35.68000 46.90800 28.61400
C  34.82400 51.61700 27.66800
C  35.86600 50.99100 22.87900
C  36.36800 46.27700 23.80800
N  35.25500 49.13300 27.91800
C  35.35700 48.25300 28.95100
C  35.15400 48.90900 30.36800
C  34.76500 50.39500 29.98500
C  34.97500 50.39700 28.38900
C  33.35700 50.82400 30.43400
C  36.52700 48.81800 31.18100
C  36.49800 48.05400 32.43400
H  35.25400 48.24300 33.41400
N  35.21600 50.99500 25.29900
C  34.91500 51.92900 26.26800
C  34.88900 53.20700 25.62700
C  35.20400 53.01700 24.28900
C  35.49300 51.58000 24.14400
C  34.47500 54.49800 26.37500
C  35.47700 54.06000 23.22300
O  35.98900 53.82700 22.13200
C  35.14700 55.50800 23.41000
N  35.79800 48.67100 23.53400
C  35.96200 49.61700 22.61100
C  36.20600 48.94100 21.20300
C  36.62800 47.53100 21.57600
C  36.23200 47.45300 23.04800
C  35.01900 48.97700 20.22600
C  38.15500 47.19200 21.33600
C  38.52900 45.80800 20.90800
N  35.95400 47.01300 26.04700
C  36.34100 46.05400 25.20800
C  36.59600 44.76600 25.84000
C  36.29900 45.03700 27.18900
C  35.87300 46.40100 27.30000
C  36.90400 43.47200 25.18400
C  36.16700 44.41900 28.49000
O  36.37000 43.31300 28.87500
C  35.75400 45.62800 29.45300
C  34.47400 45.29800 30.09400
O  33.37000 45.59400 29.65700
O  34.71500 44.59800 31.29300
C  33.49300 44.29900 32.12200
H  34.61100 52.47800 28.30600
H  36.04500 51.65600 22.03100
H  36.70800 45.39900 23.25600
H  34.36300 48.29500 30.79800
H  35.45700 51.18700 30.27000
H  33.65300 51.79500 30.83200
H  32.78400 50.29400 31.19400
H  32.64000 51.00400 29.63300
H  36.92800 49.83200 31.21400
H  37.32700 48.34800 30.60900
H  37.31700 48.37300 33.07900
H  36.61500 46.97900 32.30300
H  33.92300 55.20200 25.75300
H  35.41400 55.01300 26.57600
H  34.03600 54.39700 27.36800
H  35.77500 55.92500 24.19700
H  34.15200 55.77800 23.76500
H  35.18000 56.13500 22.51900
H  37.01000 49.52100 20.75000
H  35.99100 46.76300 21.13800
H  34.49900 49.93300 20.28100
H  34.40100 48.08400 20.32100
H  35.40000 48.80200 19.22000
H  38.59400 47.40200 22.31200
H  38.57400 47.94700 20.67100
H  38.55600 45.70800 19.82300
H  37.73600 45.11000 21.17800
H  39.43600 45.43600 21.38500
H  37.95500 43.36000 24.91400
H  36.31200 43.22500 24.30300
H  36.75900 42.73900 25.97700
H  36.53100 45.82600 30.19100
H  32.62500 44.89700 31.84600
H  33.55500 44.34400 33.21000
H  33.11000 43.29600 31.93700
Mg -10.37300 17.43700 40.58200
C  -6.97300 17.03200 40.82900
C  -9.86700 20.87600 39.88300
C  -13.57500 17.64600 39.50300
C  -10.52900 13.88100 40.28400
N  -8.55900 18.80800 40.39700
C  -7.30600 18.41800 40.63400
C  -6.36300 19.61200 40.48100
C  -7.37500 20.87400 40.58800
C  -8.64800 20.17800 40.27000
C  -7.40000 21.61800 41.99900
C  -5.82500 19.52200 38.93000
C  -4.32300 19.39600 38.75800
H  -3.88500 18.59600 37.58300
N  -11.54500 19.07700 40.07000
C  -11.20000 20.38800 39.75400
C  -12.27400 21.02300 39.20900
C  -13.43600 20.18400 39.39800
C  -12.87900 18.85700 39.63400
C  -12.30700 22.48400 38.74800
C  -14.88000 20.71200 39.40100
O  -15.17900 21.89200 39.07100
C  -16.03700 19.82100 39.75000
N  -11.72400 16.03300 39.89300
C  -12.98700 16.33800 39.64000
C  -13.83600 15.03700 39.28700
C  -12.89600 13.85400 39.50200
C  -11.62200 14.61700 39.90400
C  -15.09300 15.00100 40.20500
C  -12.59500 13.04400 38.21600
C  -13.83400 12.53400 37.48700
N  -9.10700 15.68200 40.70800
C  -9.32300 14.34000 40.55800
C  -8.03800 13.61900 40.86500
C  -7.02900 14.69500 40.94900
C  -7.75600 15.89300 40.91600
C  -7.73100 12.13800 40.86000
C  -5.61100 14.91700 41.11400
O  -4.70200 14.13800 41.28800
C  -5.55600 16.51900 41.03500
C  -4.94400 16.99900 42.27600
O  -4.10600 17.89400 42.30500
O  -5.39600 16.31800 43.37300
C  -4.77100 16.72600 44.67700
H  -9.77000 21.95200 39.72400
H  -14.62100 17.66600 39.18900
H  -10.77400 12.81700 40.30100
H  -5.57600 19.62600 41.23500
H  -7.23700 21.60200 39.78900
H  -6.50300 21.23400 42.48400
H  -8.30200 21.22100 42.46400
H  -7.33800 22.70400 41.93100
H  -6.03100 20.44800 38.39400
H  -6.34400 18.70300 38.43200
H  -3.78200 19.20500 39.68500
H  -3.97300 20.40800 38.55800
H  -12.97100 22.63600 37.89700
H  -11.33000 22.76100 38.35200
H  -12.54600 23.20100 39.53300
H  -16.89800 20.40200 40.07900
H  -15.72700 19.05800 40.46500
H  -16.35300 19.39500 38.79800
H  -14.09100 15.15600 38.23400
H  -13.25300 13.14300 40.24600
H  -15.15700 15.95400 40.72900
H  -15.02700 14.23900 40.98200
H  -15.99300 14.87300 39.60300
H  -12.03800 12.19000 38.60000
H  -11.90000 13.56500 37.55700
H  -14.71700 12.96200 37.96200
H  -13.80300 11.44600 37.42600
H  -13.82400 12.90300 36.46200
H  -6.81300 11.98800 41.42900
H  -7.54200 11.89700 39.81400
H  -8.62500 11.58800 41.15300
H  -4.86900 16.82700 40.24700
H  -5.37200 17.52800 45.10600
H  -3.76800 17.12000 44.51000
H  -4.72600 15.88600 45.37000

