158

Mg 0.04100 7.51500 26.79000
C  0.95200 9.88500 29.09100
C  -0.09600 5.12500 29.21900
C  -0.52000 5.19600 24.30900
C  0.52600 9.94400 24.27600
N  0.36000 7.49200 28.93600
C  0.69600 8.59900 29.66800
C  0.60900 8.29100 31.12400
C  0.61900 6.73400 31.16500
C  0.26100 6.42000 29.69500
C  1.95000 6.12000 31.45700
C  -0.70200 8.94700 31.68900
C  -0.76200 8.81500 33.26900
H  -1.48900 7.52100 33.83900
N  -0.23300 5.55900 26.76200
C  -0.32900 4.71700 27.86900
C  -0.53100 3.37500 27.50400
C  -0.75000 3.38800 26.09800
C  -0.46200 4.75100 25.62000
C  -0.57200 2.20200 28.57000
C  -1.15000 2.26600 25.14900
O  -1.31100 2.29700 23.93000
C  -1.34500 0.92500 25.76200
N  0.03700 7.57200 24.53200
C  -0.26500 6.47400 23.76000
C  -0.41900 6.87300 22.31100
C  0.06200 8.39000 22.40800
C  0.19800 8.71600 23.79100
C  0.42200 6.00100 21.38300
C  -0.70100 9.40500 21.41300
C  -1.94500 10.19000 21.98600
N  0.59900 9.49800 26.63100
C  0.70900 10.36400 25.54300
C  1.06800 11.69200 26.01100
C  1.18500 11.53000 27.38900
C  0.94800 10.20100 27.69300
C  1.30700 12.94500 25.22000
C  1.48600 12.22800 28.62100
O  1.89400 13.39100 28.75900
C  1.28000 11.23000 29.80000
C  2.43400 11.23900 30.76000
O  3.54900 10.72600 30.56300
O  2.04600 11.77900 31.89800
C  3.08500 11.66100 32.99000
H  -0.13400 4.41300 30.04500
H  -0.83500 4.44700 23.57900
H  0.52400 10.67900 23.46800
H  1.40900 8.65900 31.76700
H  -0.17400 6.31700 31.78600
H  2.67600 6.92700 31.36300
H  2.01500 5.21600 30.85100
H  2.04200 5.59100 32.40500
H  -1.55000 8.43900 31.22900
H  -0.72100 10.01500 31.47000
H  -1.38200 9.60400 33.69500
H  0.17300 8.90700 33.82300
H  -1.42300 1.52900 28.47100
H  -0.68600 2.41700 29.63300
H  0.33800 1.60900 28.49000
H  -1.95300 0.33400 25.07800
H  -1.99400 1.14400 26.60900
H  -0.48300 0.34100 26.08500
H  -1.46000 6.83400 21.99300
H  1.10500 8.29900 22.10300
H  1.12800 6.54900 20.75900
H  -0.10600 5.28500 20.75200
H  1.01200 5.28000 21.94700
H  -0.99400 8.80400 20.55300
H  -0.05400 10.07100 20.84200
H  -1.57400 11.19900 21.80400
H  -2.16100 10.08400 23.04900
H  -2.88100 10.04900 21.44500
H  0.42100 13.57700 25.16400
H  1.82900 12.73800 24.28500
H  1.98800 13.63200 25.72200
H  0.41500 11.47400 30.41700
H  3.73400 12.49400 32.71500
H  3.62800 10.71900 33.06300
H  2.65700 11.90100 33.96300
Mg 40.79100 9.64400 29.43000
C  42.80000 10.76600 32.18700
C  38.61300 8.23500 31.47900
C  39.16400 8.50500 26.69200
C  43.46600 10.54500 27.37900
N  40.87300 9.37200 31.64300
C  41.66900 10.01500 32.54800
C  41.01600 9.92400 33.93900
C  39.81400 8.90200 33.68600
C  39.70000 8.85300 32.15700
C  39.90400 7.52200 34.36500
C  40.48000 11.28900 34.54800
C  40.07500 11.30100 36.05800
H  40.99200 12.09300 37.07200
N  39.14700 8.51900 29.09800
C  38.27800 8.05600 30.12700
C  37.11700 7.44800 29.57900
C  37.25500 7.67600 28.20700
C  38.53000 8.21800 27.95200
C  36.05700 6.70800 30.46000
C  36.17300 7.40200 27.12900
O  36.35100 7.47200 25.86800
C  34.85100 7.08900 27.58600
N  41.31600 9.41400 27.42500
C  40.40500 9.07900 26.45400
C  41.05200 9.03300 25.04500
C  42.25700 10.03900 25.27300
C  42.41000 9.91300 26.80600
C  41.33400 7.59400 24.60100
C  42.07100 11.56100 24.80700
C  40.68200 12.21100 25.18500
N  42.62500 10.66400 29.67500
C  43.60500 10.99200 28.69500
C  44.70000 11.79800 29.33600
C  44.40700 11.61700 30.73900
C  43.19100 10.93300 30.86900
C  45.98100 12.24200 28.70800
C  44.90300 11.92400 32.09300
O  45.97100 12.47800 32.37600
C  43.81800 11.41600 33.09400
C  44.31900 10.61900 34.20900
O  44.78000 9.50800 34.06000
O  43.97400 11.22200 35.41900
C  44.26500 10.27600 36.54100
H  37.74200 7.99200 32.09000
H  38.58600 8.41600 25.77000
H  44.10300 11.02000 26.63100
H  41.78700 9.47200 34.56200
H  38.86700 9.28800 34.06100
H  39.94200 6.82100 33.53100
H  39.00200 7.27600 34.92600
H  40.77200 7.47300 35.02100
H  39.69300 11.79900 33.99200
H  41.39400 11.88000 34.48700
H  40.02000 10.29700 36.47900
H  39.10200 11.78700 35.99000
H  36.51300 6.30400 31.36400
H  35.66100 5.84500 29.92400
H  35.28500 7.41000 30.77300
H  34.63900 7.78500 28.39800
H  34.89000 6.09400 28.02800
H  34.15800 7.17200 26.74900
H  40.48100 9.51200 24.25000
H  43.18200 9.59400 24.90600
H  40.90300 6.91200 25.33300
H  42.42100 7.51400 24.59800
H  40.93900 7.30000 23.62800
H  42.45000 11.66100 23.79000
H  42.82500 12.12500 25.35600
H  40.38400 12.67800 24.24600
H  40.90800 13.01300 25.88700
H  39.95000 11.49000 25.55000
H  45.96100 13.24700 28.28600
H  46.24900 11.48000 27.97600
H  46.66900 12.12300 29.54400
H  43.43500 12.29800 33.60700
H  43.85000 10.61400 37.49000
H  45.33400 10.17300 36.72600
H  43.78000 9.32300 36.32700

