158

Mg 46.91700 14.79600 28.73100
C  45.14400 14.65400 31.69400
C  49.11900 16.97300 30.14300
C  48.66600 14.70500 25.81000
C  44.35600 12.86400 27.20000
N  46.96400 15.91800 30.67800
C  46.26800 15.56800 31.80100
C  46.91300 16.11900 33.12700
C  47.98400 17.04400 32.52500
C  48.06500 16.63300 30.99000
C  47.74600 18.51800 32.68200
C  47.43800 14.98300 34.11300
C  47.11500 15.23300 35.61400
H  48.26100 15.08100 36.55600
N  48.61400 15.78000 28.08900
C  49.41400 16.59600 28.84500
C  50.66400 16.89300 28.15900
C  50.54200 16.25700 26.86100
C  49.25900 15.51700 26.85400
C  51.82800 17.61200 28.80600
C  51.52300 16.24300 25.69000
O  51.31600 15.59000 24.73100
C  52.74100 17.04400 25.78600
N  46.48500 14.08300 26.64500
C  47.44700 13.89300 25.74300
C  46.88400 13.20200 24.49200
C  45.61800 12.52300 25.01300
C  45.43800 13.22300 26.36000
C  46.78300 14.25400 23.28200
C  45.67900 10.93600 25.01900
C  47.02400 10.29800 25.52200
N  45.03200 14.07700 29.24700
C  44.10500 13.26000 28.57800
C  43.06700 12.80900 29.50300
C  43.42400 13.34900 30.74100
C  44.62900 14.05800 30.55600
C  41.80300 12.13900 28.99000
C  42.98600 13.39000 32.06500
O  41.99200 12.95200 32.62300
C  44.06300 14.30100 32.76800
C  43.44200 15.59400 33.24900
O  43.14800 16.63900 32.63300
O  43.27700 15.48500 34.64300
C  42.77000 16.65200 35.34600
H  49.88000 17.58700 30.62900
H  49.23700 14.63900 24.88100
H  43.71900 12.09100 26.76400
H  46.10700 16.71300 33.56000
H  48.94100 16.90400 33.02800
H  46.97600 18.67200 33.43800
H  47.44200 19.12500 31.83000
H  48.63500 19.07500 32.97600
H  48.52400 14.92000 34.04000
H  47.07600 13.99700 33.82400
H  46.32100 14.51400 35.81200
H  46.73000 16.23100 35.82400
H  52.76900 17.20900 28.43000
H  51.81500 17.50100 29.89100
H  51.74800 18.66500 28.54000
H  52.55300 18.09200 26.01900
H  53.17500 17.00400 24.78700
H  53.47500 16.69000 26.51000
H  47.61400 12.47300 24.13900
H  44.76700 12.80500 24.39300
H  46.78600 15.25100 23.72100
H  46.10800 13.92500 22.49200
H  47.80300 14.25800 22.89600
H  45.46900 10.51800 24.03500
H  44.84300 10.48700 25.55500
H  47.48400 11.06800 26.14200
H  47.63700 9.97100 24.68200
H  46.77600 9.35700 26.01200
H  41.72500 12.01100 27.91000
H  40.95200 12.71500 29.35300
H  41.70500 11.16800 29.47600
H  44.43200 13.70800 33.60500
H  41.68400 16.55800 35.36500
H  43.07500 17.63300 34.98200
H  43.06200 16.51700 36.38800
Mg 40.79500 40.98900 26.69900
C  40.38500 43.38000 29.18100
C  41.58000 38.71900 29.09400
C  41.58000 38.78200 24.32800
C  40.28600 43.43100 24.32900
N  41.09700 41.13400 28.90200
C  40.58300 42.09100 29.74800
C  40.57400 41.70000 31.27600
C  41.06800 40.23700 31.10300
C  41.25100 40.01300 29.56500
C  42.34500 39.96200 31.94100
C  39.11500 41.89600 31.93300
C  39.00000 41.26200 33.31300
H  39.19100 42.22600 34.48900
N  41.59700 39.02000 26.73200
C  41.83100 38.24700 27.80100
C  42.26700 36.95800 27.40200
C  42.35900 36.90700 26.01100
C  41.87100 38.30400 25.62700
C  42.58900 35.89900 28.48500
C  42.86200 35.87400 25.05500
O  42.75900 35.92600 23.77200
C  43.46500 34.66700 25.71200
N  40.85200 41.08500 24.64100
C  41.23200 40.00500 23.82600
C  41.07400 40.34700 22.30100
C  40.47100 41.85100 22.36000
C  40.49500 42.14700 23.83800
C  42.29500 40.17400 21.37400
C  39.12300 42.06100 21.58000
C  39.26400 42.15400 20.04700
N  40.37600 42.98900 26.67600
C  40.19600 43.86700 25.64000
C  40.00400 45.17800 26.12500
C  40.08000 45.03500 27.46400
C  40.28500 43.67800 27.79600
C  40.04300 46.38000 25.29700
C  39.92300 45.76100 28.70900
O  39.65900 46.91200 29.01400
C  40.06100 44.68100 29.87700
C  41.15900 45.19400 30.80800
O  42.32200 45.34400 30.47400
O  40.76600 45.45400 32.10400
C  41.76200 45.98300 33.06400
H  41.55200 38.00900 29.92400
H  41.63300 37.98600 23.58300
H  40.06000 44.15800 23.54600
H  41.26300 42.35900 31.80400
H  40.33100 39.51800 31.46100
H  42.45900 40.64300 32.78400
H  43.24300 40.11800 31.34300
H  42.24700 38.96700 32.37500
H  38.29500 41.54000 31.30900
H  38.99300 42.97200 32.06100
H  39.65100 40.41100 33.51500
H  38.02000 40.80600 33.17700
H  42.05000 35.05700 28.05200
H  42.10900 36.01700 29.45600
H  43.65700 35.68100 28.48600
H  42.69900 34.04400 26.17300
H  44.29900 35.02400 26.31700
H  43.92000 34.03400 24.95100
H  40.25900 39.74700 21.89800
H  41.16700 42.57500 21.93600
H  41.99600 39.48100 20.58800
H  43.02900 39.53800 21.86900
H  42.74400 40.99200 20.81100
H  38.58200 42.95100 21.90400
H  38.57400 41.14200 21.78700
H  38.63000 42.97300 19.70800
H  38.93300 41.23200 19.56900
H  40.25800 42.24900 19.60900
H  40.58000 47.08500 25.93300
H  39.10200 46.84100 24.99800
H  40.68400 46.28900 24.42000
H  39.15600 44.40900 30.42000
H  41.46100 45.44900 33.96500
H  41.71000 47.03800 33.33500
H  42.79600 45.75900 32.80500

