158

Mg 25.95400 0.31100 29.22500
C  27.84400 0.06500 32.22300
C  23.13800 0.55200 31.11000
C  24.25700 0.46300 26.37000
C  28.92800 -0.34800 27.38500
N  25.67500 0.53200 31.40300
C  26.49800 0.30000 32.42300
C  25.79400 0.61500 33.82400
C  24.25300 0.40800 33.39700
C  24.34000 0.47500 31.82600
C  23.45100 -0.81400 33.90900
C  26.24900 2.09300 34.45000
C  27.17100 2.04900 35.67500
H  26.68900 2.81100 36.97200
N  23.88100 0.44200 28.78600
C  22.88400 0.57600 29.70100
C  21.64600 0.58900 28.94900
C  22.00200 0.58000 27.58600
C  23.43700 0.52600 27.48600
C  20.38100 0.67500 29.61000
C  21.04600 0.57600 26.39200
O  21.43500 0.70800 25.19700
C  19.55900 0.29900 26.56500
N  26.53200 0.09500 27.13500
C  25.62600 0.23000 26.19300
C  26.27200 0.23900 24.74200
C  27.77600 0.09700 25.15000
C  27.78600 -0.05200 26.64700
C  25.67200 -0.72000 23.70000
C  28.66600 1.28500 24.62100
C  29.93000 0.99000 23.79300
N  27.95300 -0.11900 29.64400
C  29.04100 -0.34900 28.80100
C  30.10400 -0.77600 29.60200
C  29.72500 -0.60200 30.92000
C  28.36500 -0.15100 30.89800
C  31.38600 -1.42400 29.07400
C  30.14300 -0.61300 32.32800
O  31.16400 -1.00900 32.77600
C  28.95900 -0.26500 33.22500
C  28.61500 -1.42700 34.07000
O  28.01100 -2.40200 33.78800
O  29.21100 -1.18900 35.27900
C  29.08000 -2.36500 36.14100
H  22.25700 0.58200 31.75400
H  23.74000 0.66200 25.43000
H  29.80200 -0.56300 26.76500
H  26.13900 -0.20200 34.45700
H  23.69200 1.23500 33.83300
H  22.89400 -1.29800 33.10600
H  22.79400 -0.45200 34.69900
H  24.20000 -1.44100 34.39200
H  25.39100 2.68300 34.77200
H  26.80300 2.56600 33.63900
H  28.11100 2.42000 35.26800
H  27.24900 0.98400 35.89300
H  19.97000 1.60400 29.21500
H  20.38300 0.67500 30.70000
H  19.82200 -0.21300 29.31700
H  19.54400 -0.78200 26.70000
H  18.98700 0.40700 25.64400
H  19.11400 0.89300 27.36300
H  26.08300 1.26700 24.43400
H  28.14700 -0.85100 24.76100
H  24.82500 -1.20500 24.18600
H  26.50400 -1.40700 23.54500
H  25.29900 -0.19600 22.82000
H  28.99700 1.74900 25.55000
H  28.00200 2.02900 24.18200
H  30.08700 -0.08700 23.84100
H  30.76800 1.47200 24.29700
H  29.67600 1.28000 22.77400
H  32.12300 -0.69800 28.73200
H  31.21700 -2.11800 28.25100
H  31.76600 -2.03200 29.89500
H  29.19400 0.69200 33.69100
H  29.53900 -3.25000 35.70000
H  28.11100 -2.59800 36.58200
H  29.80800 -2.25500 36.94500
Mg -10.35400 17.17300 43.48800
C  -6.84200 16.86000 43.10700
C  -10.11900 20.43100 42.36600
C  -13.63500 17.18300 43.15700
C  -10.43900 13.62300 43.83200
N  -8.57400 18.45500 42.71300
C  -7.27800 18.17600 42.73400
C  -6.39800 19.48800 42.35600
C  -7.52400 20.59900 42.45000
C  -8.82500 19.81100 42.47000
C  -7.28400 21.61500 43.60900
C  -5.57300 19.20900 40.97800
C  -5.94100 20.05900 39.76100
H  -5.52500 19.52500 38.46000
N  -11.69300 18.55800 42.97600
C  -11.40700 19.85200 42.51800
C  -12.63500 20.57500 42.24900
C  -13.67800 19.70200 42.55500
C  -13.04000 18.36700 42.92200
C  -12.70800 22.03000 41.86500
C  -15.15300 20.05600 42.52700
O  -15.49900 21.22800 42.31700
C  -16.23600 19.07400 42.80200
N  -11.86200 15.64700 43.48700
C  -13.12300 15.95500 43.38400
C  -13.99500 14.76800 43.77600
C  -13.04800 13.55600 43.71200
C  -11.67400 14.31200 43.64000
C  -14.90900 14.90300 44.98000
C  -13.24200 12.67300 42.45100
C  -13.59900 11.20800 42.76900
N  -8.93200 15.46500 43.59300
C  -9.09400 14.15300 43.73800
C  -7.84200 13.45900 43.68500
C  -6.92600 14.50900 43.48100
C  -7.61600 15.70700 43.38700
C  -7.57000 12.01000 43.77600
C  -5.50600 14.79900 43.29500
O  -4.54200 14.07300 43.17800
C  -5.44500 16.37000 43.13100
C  -4.62600 16.97300 44.29700
O  -3.37600 16.85000 44.35700
O  -5.37700 17.51300 45.27500
C  -4.74800 17.79500 46.57600
H  -10.11400 21.51300 42.21500
H  -14.72400 17.16600 43.07500
H  -10.44500 12.53800 43.95500
H  -5.71700 19.68900 43.18300
H  -7.56000 21.27000 41.59200
H  -8.03400 21.44300 44.38200
H  -7.47900 22.58500 43.15200
H  -6.32800 21.56700 44.12900
H  -5.71700 18.16600 40.69700
H  -4.51800 19.34500 41.21700
H  -5.63000 21.07200 40.01700
H  -7.02800 20.06600 39.84000
H  -13.49400 22.14000 41.11800
H  -11.79200 22.36300 41.37800
H  -13.00700 22.71100 42.66200
H  -16.26700 18.78300 43.85200
H  -16.04100 18.27700 42.08500
H  -17.20600 19.45700 42.48500
H  -14.72900 14.63900 42.98100
H  -13.14900 13.08000 44.68700
H  -14.93500 14.12200 45.74000
H  -15.95100 15.00800 44.67700
H  -14.61800 15.83200 45.46900
H  -12.38500 12.66200 41.77700
H  -14.05700 13.03900 41.82600
H  -14.51700 10.97000 42.23100
H  -13.56400 11.02000 43.84200
H  -12.86100 10.57700 42.27400
H  -6.97200 11.66400 44.61900
H  -7.02300 11.67000 42.89600
H  -8.52300 11.48300 43.72600
H  -4.83000 16.57800 42.25500
H  -5.30900 17.78500 47.51100
H  -4.18200 18.70500 46.38000
H  -4.00700 17.01500 46.74900

