158

Mg 24.62900 1.80400 30.07700
C  26.94700 1.38500 32.72500
C  22.08200 1.94300 32.45000
C  22.52800 1.92500 27.51900
C  27.38400 1.16700 27.89400
N  24.58900 1.53200 32.34800
C  25.70300 1.53600 33.24300
C  25.24100 1.87500 34.67000
C  23.64600 1.85800 34.58500
C  23.41700 1.89000 33.02900
C  23.01300 0.58800 35.20200
C  25.88100 3.23100 35.15100
C  26.66100 3.24900 36.44800
H  26.14200 4.09600 37.60500
N  22.60400 1.81500 30.00200
C  21.73500 1.88000 31.06300
C  20.37600 1.97900 30.57100
C  20.46900 1.98100 29.13900
C  21.93600 1.95000 28.78100
C  19.08100 2.18600 31.44100
C  19.36600 1.98600 28.09500
O  19.54600 2.08100 26.84400
C  17.95200 1.75500 28.58000
N  24.89600 1.67800 28.03600
C  23.89700 1.76200 27.14700
C  24.30000 1.81400 25.76600
C  25.80800 1.68400 25.93900
C  26.03200 1.36100 27.38400
C  23.65500 0.84200 24.68700
C  26.69200 2.90800 25.41000
C  26.98500 4.02100 26.36600
N  26.71900 1.32400 30.19600
C  27.70900 1.18400 29.23400
C  28.93500 0.92700 29.83700
C  28.70300 1.06000 31.23200
C  27.31500 1.23700 31.39000
C  30.24700 0.56600 29.12200
C  29.40100 1.13800 32.48900
O  30.56400 1.14600 32.75200
C  28.21600 1.28400 33.54700
C  28.25700 0.10900 34.52600
O  27.84300 -1.04200 34.31100
O  28.58800 0.53700 35.76600
C  28.39500 -0.44500 36.87100
H  21.36400 2.14700 33.24700
H  21.88700 2.00100 26.63700
H  28.22300 1.12100 27.19700
H  25.51300 1.07500 35.35900
H  23.26600 2.71200 35.14600
H  22.10300 0.26300 34.69800
H  22.62700 0.75700 36.20700
H  23.74200 -0.21400 35.32000
H  25.17300 4.04700 35.00500
H  26.62200 3.51400 34.40300
H  27.64200 3.64600 36.18800
H  26.91900 2.24400 36.78200
H  18.41000 2.97700 31.10700
H  19.38800 2.62200 32.39100
H  18.47300 1.29400 31.59000
H  17.33500 1.41600 27.74800
H  17.51000 2.68100 28.94800
H  17.95900 0.96000 29.32600
H  24.06400 2.83200 25.45600
H  26.04000 0.73600 25.45300
H  23.17500 -0.10100 24.94900
H  24.42300 0.59600 23.95300
H  22.79900 1.38000 24.28000
H  26.15700 3.34200 24.56500
H  27.66800 2.59300 25.04100
H  26.47300 3.91600 27.32300
H  26.82500 4.94200 25.80600
H  28.02800 4.03800 26.68300
H  31.04700 1.02000 29.70800
H  30.29600 1.04000 28.14200
H  30.34900 -0.51200 28.99200
H  28.45300 2.23500 34.02400
H  27.33000 -0.67400 36.87800
H  28.65200 0.10300 37.77700
H  29.00200 -1.34100 36.73900
Mg 27.35800 49.73400 26.91700
C  25.49000 50.92800 29.62600
C  29.93800 49.16600 29.03600
C  29.57600 49.33900 24.30600
C  25.01600 51.10600 24.81600
N  27.69500 50.15700 29.10200
C  26.71300 50.30200 30.00000
C  27.19900 50.18300 31.40800
C  28.64300 49.61400 31.28000
C  28.76400 49.64100 29.70800
C  29.81600 50.31300 32.06100
C  26.17900 49.46700 32.44200
C  25.80400 50.31700 33.64500
H  26.48300 50.03400 34.93000
N  29.30800 49.05500 26.71900
C  30.19500 48.93100 27.72600
C  31.40500 48.36000 27.26200
C  31.35200 48.38700 25.87000
C  30.03400 48.95600 25.55100
C  32.53300 47.82400 28.01400
C  32.42100 48.05000 24.88400
O  32.32100 48.29800 23.69300
C  33.72400 47.42200 25.28300
N  27.40400 50.26100 24.83000
C  28.33400 49.91600 23.93600
C  27.83500 50.08600 22.50800
C  26.32500 50.27300 22.70600
C  26.19300 50.64800 24.19200
C  28.57500 51.22900 21.78600
C  25.36200 49.20000 22.22000
C  24.02200 49.69200 21.60000
N  25.58500 50.72400 27.08900
C  24.71600 51.21600 26.14600
C  23.55800 51.80800 26.76000
C  23.75300 51.71900 28.17000
C  25.03500 51.05700 28.28400
C  22.42100 52.45300 26.08500
C  23.25400 51.96400 29.54600
O  22.19300 52.42100 29.94400
C  24.36300 51.45300 30.51000
C  24.78700 52.70200 31.23000
O  25.85000 53.29200 31.04300
O  23.88800 53.09900 32.22400
C  24.42300 54.03500 33.15200
H  30.69900 48.81600 29.73700
H  30.27200 49.15200 23.48600
H  24.19100 51.46800 24.20000
H  27.35100 51.17800 31.82500
H  28.71200 48.55200 31.51700
H  30.52500 50.74100 31.35200
H  30.27400 49.52100 32.65400
H  29.47100 51.06600 32.76900
H  26.64500 48.54100 32.78100
H  25.22400 49.17300 32.00600
H  24.76800 50.02600 33.81600
H  26.00200 51.38100 33.51200
H  32.31100 47.57200 29.05100
H  33.40900 48.47000 28.07700
H  32.84600 46.88200 27.56300
H  33.55100 46.42800 25.69600
H  34.17400 48.10600 26.00300
H  34.29500 47.38400 24.35500
H  28.05100 49.16400 21.97000
H  26.07300 51.27100 22.34800
H  28.98200 50.97600 20.80700
H  29.42400 51.61300 22.35100
H  27.94700 52.11400 21.68100
H  24.94500 48.70200 23.09600
H  25.67700 48.26700 21.75100
H  24.23200 49.99900 20.57500
H  23.67000 50.58600 22.11500
H  23.22600 48.95800 21.72300
H  21.86700 51.81800 25.39400
H  22.87800 53.29000 25.55600
H  21.81900 52.77500 26.93400
H  23.92800 50.72300 31.19200
H  24.87000 53.35600 33.87800
H  23.63100 54.66100 33.56300
H  25.19900 54.74600 32.86900

