158

Mg -2.19000 16.57300 26.10100
C  -2.62900 14.30500 28.86200
C  -2.76600 19.11800 28.25800
C  -2.49900 18.62600 23.51000
C  -1.78300 13.91500 24.03500
N  -2.75900 16.62700 28.31800
C  -2.89900 15.62200 29.26800
C  -3.29900 16.15900 30.65600
C  -3.14300 17.74500 30.37100
C  -2.96400 17.84800 28.82800
C  -4.43300 18.46600 30.81400
C  -2.42300 15.71900 31.90400
C  -2.24800 16.60700 33.09000
H  -2.42500 15.96700 34.49300
N  -2.38400 18.62900 25.95400
C  -2.53200 19.53300 26.97200
C  -2.74200 20.87500 26.41100
C  -2.73900 20.74400 25.02600
C  -2.54100 19.24400 24.75900
C  -3.10200 22.12900 27.21700
C  -2.95800 21.79100 23.93700
O  -2.89900 21.59200 22.71200
C  -3.04500 23.11800 24.31900
N  -2.01300 16.33100 24.08000
C  -2.22200 17.27600 23.16700
C  -2.32600 16.75100 21.66600
C  -2.05900 15.21600 21.95300
C  -1.92000 15.16600 23.41800
C  -3.68100 17.05500 20.91100
C  -0.89300 14.55600 21.11500
C  0.60200 14.84800 21.41500
N  -2.07600 14.58000 26.36100
C  -1.93800 13.56500 25.41200
C  -2.00000 12.30200 26.00700
C  -2.14900 12.56200 27.32600
C  -2.28000 13.90200 27.52100
C  -1.68500 11.02600 25.38500
C  -2.31500 11.88900 28.60400
O  -2.36900 10.71600 28.89000
C  -2.60000 13.04900 29.64200
C  -1.42200 12.97700 30.55400
O  -0.33700 13.53300 30.44200
O  -1.69500 12.00900 31.46400
C  -0.69800 11.73000 32.55300
H  -2.97100 19.89600 28.99600
H  -2.75500 19.22300 22.63200
H  -1.77100 13.08700 23.32300
H  -4.31400 15.86600 30.92200
H  -2.32400 18.20100 30.92800
H  -5.09300 17.79400 31.36300
H  -4.87200 19.01400 29.98000
H  -4.13400 19.28900 31.46400
H  -1.48300 15.40900 31.44800
H  -2.88700 14.78300 32.21500
H  -2.93200 17.45500 33.14300
H  -1.26800 17.08300 33.12100
H  -4.09600 22.47600 26.93700
H  -2.30100 22.85800 27.09900
H  -3.19000 21.77900 28.24600
H  -3.94100 23.12800 24.93900
H  -3.05700 23.69700 23.39500
H  -2.14900 23.35300 24.89300
H  -1.51700 17.16300 21.06400
H  -2.96500 14.64600 21.74700
H  -3.45400 17.65300 20.02900
H  -4.23700 17.79400 21.48700
H  -4.23700 16.14100 20.70100
H  -1.02000 14.93100 20.10000
H  -0.92500 13.47100 21.21600
H  0.83800 15.45900 22.28600
H  1.21100 15.32900 20.65000
H  1.00100 13.87300 21.69300
H  -1.41800 10.33400 26.18400
H  -0.85700 11.16000 24.68800
H  -2.47700 10.58000 24.78500
H  -3.56000 12.91200 30.13900
H  -1.22900 12.11100 33.42500
H  0.29900 12.17200 32.57300
H  -0.58100 10.70100 32.89400
Mg -11.91100 16.79500 41.91100
C  -8.71000 15.44700 41.73300
C  -10.60500 19.84800 40.79800
C  -14.92900 18.04900 41.96700
C  -13.16000 13.59600 42.78100
N  -9.88400 17.52300 41.26300
C  -8.71100 16.77500 41.27100
C  -7.58900 17.54000 40.65900
C  -8.11400 19.07600 40.73600
C  -9.64400 18.83600 41.02300
C  -7.44300 19.99200 41.80100
C  -7.33400 17.19300 39.09100
C  -5.86300 17.39800 38.66600
H  -5.58500 18.25000 37.35200
N  -12.59600 18.66600 41.43200
C  -11.93200 19.79500 41.05200
C  -12.87100 20.87600 40.93600
C  -14.20400 20.39700 41.33400
C  -13.93000 19.00800 41.61500
C  -12.51000 22.26500 40.48100
C  -15.43300 21.20100 41.52700
O  -15.42900 22.34100 41.08400
C  -16.61700 20.78200 42.39200
N  -13.74400 16.00500 42.36300
C  -14.90300 16.68800 42.21800
C  -16.14000 15.82400 42.40400
C  -15.53200 14.53400 42.95800
C  -14.03900 14.69700 42.68500
C  -17.18400 16.54800 43.27100
C  -16.12200 13.24800 42.22300
C  -15.96700 11.85100 42.91900
N  -11.11800 14.89000 42.18000
C  -11.77700 13.70000 42.48100
C  -10.71200 12.61400 42.49800
C  -9.50900 13.29300 42.21200
C  -9.81300 14.62000 42.05800
C  -10.90100 11.15900 42.63100
C  -8.07400 13.07600 42.13000
O  -7.46900 11.98900 42.23100
C  -7.50900 14.55700 41.74300
C  -6.47100 14.98700 42.73600
O  -6.55000 15.24700 43.96800
O  -5.25200 15.02500 42.05200
C  -4.07000 15.13300 42.81900
H  -10.11800 20.82000 40.69300
H  -15.91700 18.51500 42.00100
H  -13.58600 12.60300 42.93900
H  -6.75100 17.40500 41.34200
H  -8.04400 19.58800 39.77700
H  -8.07500 20.19000 42.66700
H  -7.30200 20.98800 41.38100
H  -6.43300 19.67100 42.05600
H  -7.94100 17.88600 38.50800
H  -7.74500 16.19600 38.92900
H  -5.47700 16.40700 38.42800
H  -5.32500 17.73800 39.55100
H  -11.43600 22.44600 40.45300
H  -12.80900 22.97500 41.25200
H  -12.98700 22.43700 39.51600
H  -17.04500 21.76500 42.59100
H  -16.24700 20.27600 43.28300
H  -17.22300 20.19000 41.70700
H  -16.41600 15.63900 41.36600
H  -15.51300 14.43100 44.04300
H  -17.46300 15.97500 44.15500
H  -18.04400 16.63700 42.60700
H  -16.87100 17.54500 43.58200
H  -15.75300 13.24400 41.19700
H  -17.20000 13.39500 42.29300
H  -16.94800 11.53600 43.27200
H  -15.26800 11.91800 43.75300
H  -15.56300 11.15000 42.18700
H  -11.43800 10.85300 43.52900
H  -9.93500 10.65600 42.65300
H  -11.47000 10.76200 41.79100
H  -6.99800 14.46800 40.78500
H  -3.32500 14.84200 42.07800
H  -3.94800 14.39000 43.60700
H  -3.81700 16.10100 43.25000

