158

Mg 46.59900 24.54100 28.30700
C  47.45800 26.82600 30.78500
C  45.64800 22.38000 30.79200
C  45.74700 22.38200 25.96300
C  47.32500 26.85900 25.88800
N  46.46600 24.66700 30.54300
C  46.83400 25.70200 31.33700
C  46.61600 25.45200 32.89000
C  46.17000 23.90300 32.81800
C  46.06900 23.60400 31.26700
C  47.22300 22.97700 33.47500
C  45.47700 26.43600 33.50200
C  45.90900 27.13600 34.77300
H  44.87200 27.40200 35.85100
N  45.78300 22.60400 28.34400
C  45.43400 21.91600 29.43000
C  44.92900 20.69900 29.04400
C  45.17400 20.56100 27.68100
C  45.53900 21.89800 27.22300
C  44.51400 19.61700 30.04100
C  45.05600 19.32300 26.82000
O  45.02100 19.40100 25.57300
C  44.81100 17.98900 27.42900
N  46.70500 24.49800 26.21100
C  46.24700 23.54300 25.42200
C  46.30900 23.81500 23.95700
C  46.55700 25.35800 23.98400
C  46.93700 25.60800 25.45900
C  47.49700 23.15900 23.28100
C  45.35000 26.24500 23.51300
C  44.09300 26.01600 24.24900
N  47.46500 26.43900 28.30100
C  47.61800 27.30400 27.23900
C  48.26800 28.52100 27.74300
C  48.22300 28.40400 29.15700
C  47.65300 27.13500 29.46100
C  48.75500 29.63100 26.85100
C  48.57000 29.05600 30.45600
O  49.05800 30.17400 30.70000
C  47.92000 28.12000 31.53300
C  48.94100 27.87000 32.57600
O  49.91000 27.20500 32.41200
O  48.55900 28.47200 33.70900
C  49.51500 28.54800 34.81500
H  45.47600 21.71000 31.63700
H  45.43000 21.77400 25.11300
H  47.40400 27.63300 25.12100
H  47.52900 25.44800 33.48600
H  45.20700 23.72500 33.29600
H  47.04600 21.93900 33.19300
H  47.11800 23.06400 34.55600
H  48.20500 23.23100 33.07600
H  44.55100 25.89000 33.68000
H  45.18900 27.24900 32.83500
H  46.24500 28.14000 34.51700
H  46.69200 26.56700 35.27600
H  45.32100 18.88400 30.05400
H  43.53500 19.24300 29.74300
H  44.51400 20.04900 31.04100
H  43.93000 17.72000 28.01200
H  45.64400 17.93900 28.13100
H  44.97500 17.21700 26.67800
H  45.38500 23.60800 23.41700
H  47.44900 25.72500 23.47600
H  48.34200 23.84300 23.19500
H  47.08500 22.86200 22.31700
H  47.83500 22.28500 23.83800
H  45.20000 26.12200 22.44000
H  45.60500 27.30200 23.57800
H  43.28100 25.92000 23.52900
H  43.82000 26.82800 24.92300
H  44.16300 25.12500 24.87400
H  48.81800 30.58300 27.37900
H  48.04000 29.74300 26.03600
H  49.68100 29.32600 26.36400
H  47.09900 28.62500 32.04100
H  50.21900 27.72000 34.73200
H  48.93800 28.33500 35.71500
H  49.93800 29.55300 34.82500
Mg 35.66700 49.31200 24.87000
C  35.49400 47.53200 27.92600
C  34.29500 52.03400 26.43800
C  35.08400 50.74900 21.81700
C  36.60500 46.37500 23.31800
N  35.07900 49.75700 26.93400
C  35.09200 48.89300 28.03100
C  34.89400 49.66400 29.34100
C  34.36500 51.04700 28.93600
C  34.62900 50.97900 27.35100
C  32.94200 51.39600 29.26800
C  36.08100 49.77600 30.28900
C  35.78200 49.45100 31.81600
H  34.33200 49.63500 32.36200
N  34.74300 51.14000 24.24700
C  34.29700 52.19100 25.03500
C  33.87000 53.25500 24.23200
C  34.00400 52.83700 22.85200
C  34.61800 51.49300 22.90700
C  33.44700 54.58000 24.83100
C  33.65800 53.64900 21.60800
O  33.84300 53.16600 20.45500
C  33.03800 55.09400 21.68500
N  35.57300 48.60800 22.79300
C  35.47400 49.42300 21.79000
C  35.88400 48.76200 20.41700
C  36.55500 47.45500 20.95500
C  36.27500 47.43500 22.49900
C  34.78500 48.54300 19.38300
C  38.11700 47.47100 20.84400
C  38.77800 46.69500 19.69200
N  36.09900 47.32400 25.46000
C  36.56500 46.22500 24.72500
C  36.73600 45.11700 25.58900
C  36.30000 45.57000 26.86900
C  35.92700 46.89800 26.71900
C  37.20400 43.73500 25.20800
C  36.02500 45.18500 28.25700
O  36.17200 44.12900 28.83600
C  35.62800 46.48200 29.06500
C  34.39500 46.15100 29.84900
O  33.26600 46.40500 29.52700
O  34.73000 45.79900 31.15900
C  33.64800 45.41700 32.11000
H  34.11100 53.00600 26.90000
H  35.15000 51.17900 20.81500
H  36.93400 45.50600 22.74400
H  34.10300 49.16800 29.90400
H  34.93800 51.84900 29.40000
H  32.58200 50.75000 30.06800
H  32.25600 51.47600 28.42500
H  32.96400 52.38200 29.73300
H  36.59100 50.73900 30.25500
H  36.93000 49.14300 30.03100
H  36.41600 50.04900 32.46900
H  36.21500 48.46400 31.97600
H  32.43800 54.78100 24.47200
H  34.01700 55.47800 24.59300
H  33.42000 54.56300 25.92100
H  32.67200 55.21900 20.66500
H  33.70100 55.91900 21.94700
H  32.13800 55.02100 22.29600
H  36.64100 49.39500 19.95300
H  36.16500 46.55500 20.48000
H  35.13600 49.10600 18.51800
H  33.85200 49.04800 19.63000
H  34.61300 47.48500 19.18200
H  38.57400 46.97500 21.70000
H  38.36600 48.53000 20.77800
H  38.87900 45.62600 19.88000
H  39.78700 47.07400 19.53300
H  38.17300 46.88700 18.80600
H  37.86000 43.43300 26.02400
H  37.84500 43.82500 24.33000
H  36.42200 42.97700 25.19500
H  36.50200 46.71300 29.67400
H  33.69700 44.33100 32.18600
H  32.69200 45.82600 31.78300
H  33.88700 45.97100 33.01800

