158

Mg 29.73400 58.68000 41.63700
C  26.68400 57.55300 40.53700
C  31.29200 56.06100 40.26300
C  32.68600 60.37800 42.08200
C  28.06700 61.90400 42.26300
N  29.03100 57.04400 40.40900
C  27.76200 56.74000 40.03600
C  27.79400 55.38800 39.22500
C  29.26900 54.79000 39.39300
C  29.90200 56.02600 40.12200
C  29.34300 53.46700 40.13500
C  27.32600 55.68100 37.81000
C  26.33500 54.74200 37.19300
H  26.19700 54.51500 35.74100
N  31.66300 58.20600 41.41700
C  32.15100 56.99600 40.90500
C  33.56400 56.94800 41.03100
C  33.99100 58.18600 41.50300
C  32.71900 59.00600 41.71600
C  34.40900 55.78300 40.58700
C  35.41100 58.59400 41.72600
O  36.31400 57.84900 41.40200
C  35.85400 59.98200 42.11200
N  30.30800 60.90000 42.01100
C  31.62600 61.29000 42.19100
C  31.76000 62.67900 42.79200
C  30.23800 63.16700 42.84800
C  29.46600 61.97900 42.37200
C  32.65500 62.83600 44.05300
C  29.99500 64.46300 42.25200
C  28.83100 65.26300 42.97700
N  27.74600 59.54600 41.51500
C  27.26100 60.75700 41.85800
C  25.80900 60.75100 41.73900
C  25.56000 59.48900 41.25000
C  26.78100 58.82300 41.13100
C  24.95700 61.88800 42.11800
C  24.49400 58.54600 40.80600
O  23.26000 58.60300 40.85100
C  25.21600 57.27900 40.40400
C  24.82600 56.19000 41.30800
O  25.22900 55.95500 42.41600
O  23.69200 55.68000 40.74900
C  22.85100 54.99700 41.68400
H  31.77400 55.15800 39.88200
H  33.65200 60.87400 42.20400
H  27.54200 62.80300 42.59300
H  27.03300 54.81300 39.75300
H  29.81100 54.64100 38.46000
H  29.74700 53.59500 41.14000
H  29.95000 52.76400 39.56400
H  28.30100 53.15300 40.19500
H  28.16400 55.72300 37.11300
H  26.98500 56.70700 37.67100
H  25.35300 55.09800 37.50500
H  26.47600 53.79000 37.70400
H  34.73200 55.95600 39.56100
H  33.87600 54.83500 40.52000
H  35.18400 55.52500 41.30900
H  35.46700 60.62700 41.32300
H  36.94200 60.00000 42.16900
H  35.32900 60.23000 43.03500
H  32.21800 63.30800 42.02900
H  30.05700 63.31200 43.91300
H  32.97300 63.87900 44.05500
H  33.48300 62.13200 44.13800
H  32.04100 62.84100 44.95400
H  29.74200 64.40200 41.19300
H  30.89400 65.05600 42.41900
H  29.11200 66.26000 43.31500
H  28.35400 64.66200 43.75200
H  28.10200 65.64700 42.26400
H  25.27900 62.57800 41.33800
H  25.24600 62.29800 43.08500
H  23.91700 61.57300 42.03000
H  25.03900 57.04700 39.35400
H  22.28100 55.79600 42.15700
H  23.32800 54.30600 42.37900
H  22.10100 54.44000 41.12200
Mg -0.69100 44.01900 24.87500
C  1.75000 43.24900 27.28600
C  -3.14800 43.25100 27.26800
C  -2.94700 44.55600 22.53200
C  1.80500 44.43300 22.59000
N  -0.66600 43.22300 26.94400
C  0.44000 43.05200 27.74900
C  0.01900 42.93900 29.17600
C  -1.51700 42.65400 29.12200
C  -1.82500 42.99400 27.67000
C  -1.92400 41.23600 29.49100
C  0.30900 44.32500 29.92500
C  1.03100 44.12600 31.32400
H  0.69600 42.81500 32.07100
N  -2.78200 43.96100 24.93200
C  -3.61600 43.62400 25.99400
C  -5.00100 43.79400 25.51500
C  -4.96400 44.20800 24.18400
C  -3.51600 44.26700 23.81100
C  -6.15600 43.51600 26.44700
C  -6.10500 44.50700 23.15000
O  -5.92200 44.86100 21.96100
C  -7.49800 44.44800 23.66400
N  -0.55200 44.40700 22.79800
C  -1.58200 44.52700 22.02200
C  -1.30400 44.76000 20.53000
C  0.28000 44.87900 20.63100
C  0.56700 44.55600 22.08600
C  -1.84600 43.46700 19.71000
C  0.81000 46.26000 20.18600
C  1.14500 47.30700 21.33300
N  1.29000 43.81000 24.88400
C  2.15500 44.00600 23.85800
C  3.54200 43.87500 24.38000
C  3.44300 43.64300 25.72300
C  2.05400 43.57500 25.95200
C  4.83500 44.04800 23.57600
C  4.15600 43.42100 26.93100
O  5.37700 43.29600 27.09400
C  3.05800 43.27400 27.99000
C  3.35000 42.03400 28.75500
O  2.95600 40.93600 28.39900
O  4.30800 42.25000 29.70400
C  4.67200 41.17800 30.65000
H  -3.85900 43.04600 28.07000
H  -3.66000 44.60000 21.70600
H  2.66500 44.54400 21.92600
H  0.48700 42.10600 29.70100
H  -2.06900 43.25600 29.84300
H  -2.59800 40.93900 28.68800
H  -2.34700 41.11900 30.48800
H  -1.11200 40.51500 29.38900
H  -0.61900 44.87900 30.06700
H  0.91500 45.00500 29.32500
H  0.74100 44.91200 32.02200
H  2.10900 44.15100 31.16500
H  -6.78500 42.86000 25.84600
H  -6.64500 44.47600 26.61800
H  -5.93100 43.09400 27.42700
H  -8.23700 44.94500 23.03500
H  -7.55400 44.93000 24.64000
H  -7.76400 43.39600 23.76500
H  -1.77700 45.67300 20.16700
H  0.78700 44.14600 20.00400
H  -1.91900 42.57700 20.33500
H  -1.12700 43.20300 18.93500
H  -2.75600 43.71000 19.16000
H  0.18800 46.77800 19.45500
H  1.76600 46.09200 19.69000
H  1.26600 48.33400 20.98800
H  2.08900 46.86500 21.65300
H  0.43600 47.31700 22.16100
H  4.69600 43.36900 22.73500
H  5.75700 43.71600 24.05300
H  4.85200 45.05900 23.16800
H  3.13200 44.14400 28.64300
H  5.23700 40.39400 30.14500
H  3.77500 40.79900 31.13900
H  5.33900 41.60900 31.39700

