158

Mg 54.21100 24.76800 43.47700
C  51.62700 27.25700 43.39800
C  51.91900 22.46900 42.78000
C  56.76500 22.58300 43.20600
C  56.52300 27.41300 43.73500
N  51.98100 24.96200 42.94100
C  51.20200 26.00200 43.00900
C  49.73800 25.57500 42.65400
C  49.78400 24.01000 42.80200
C  51.32700 23.72300 42.76100
C  49.06200 23.40500 44.06200
C  49.14300 26.12600 41.21100
C  50.20000 26.70900 40.15200
H  50.28000 26.29000 38.63900
N  54.35200 22.81700 43.09900
C  53.27800 22.00400 42.84800
C  53.77300 20.50700 42.74900
C  55.19000 20.53500 42.95000
C  55.52000 22.02200 43.07100
C  52.89100 19.37300 42.46200
C  56.07000 19.31500 43.11100
O  55.58900 18.18800 43.02500
C  57.51900 19.38100 43.46000
N  56.38000 25.05000 43.19700
C  57.18800 23.95700 43.27900
C  58.69700 24.37200 43.44700
C  58.57200 25.87300 43.24800
C  57.07700 26.18200 43.44600
C  59.18400 23.90300 44.80100
C  59.05800 26.41900 41.87500
C  59.80800 27.79700 41.77100
N  54.18800 26.89300 43.55600
C  55.18900 27.80600 43.82500
C  54.55200 29.11600 44.20100
C  53.13600 28.92500 44.06400
C  52.95000 27.56300 43.64600
C  55.22900 30.49300 44.57300
C  51.82300 29.52100 44.24100
O  51.48800 30.58800 44.72900
C  50.82700 28.49100 43.72000
C  50.33600 29.13500 42.46900
O  50.95400 29.39900 41.48700
O  48.95500 29.50000 42.63200
C  48.30900 30.07500 41.48000
H  51.16800 21.68100 42.68800
H  57.53100 21.81800 43.35400
H  57.21300 28.23800 43.92600
H  49.21800 25.85400 43.57100
H  49.43200 23.53700 41.88600
H  48.89200 24.08800 44.89400
H  49.58800 22.57300 44.53000
H  48.12600 22.92800 43.77100
H  48.44600 26.91800 41.48400
H  48.56600 25.34300 40.71800
H  51.23300 26.70900 40.50100
H  49.89800 27.75000 40.03300
H  52.92100 18.73500 43.34500
H  53.22300 18.76300 41.62200
H  51.85100 19.68500 42.37000
H  57.91000 18.36800 43.55800
H  57.66800 19.87900 44.41800
H  57.94400 19.89400 42.59700
H  59.22600 23.94800 42.59300
H  59.08300 26.39200 44.05800
H  59.37300 22.83000 44.77700
H  58.45400 23.99400 45.60500
H  60.12300 24.41700 45.00600
H  58.24700 26.45900 41.14800
H  59.73800 25.69900 41.42000
H  60.85400 27.65800 41.49700
H  59.73200 28.42200 42.66100
H  59.51300 28.42400 40.92900
H  55.13100 30.82300 45.60700
H  54.68600 31.26500 44.02700
H  56.30500 30.49900 44.40000
H  49.99400 28.43500 44.42000
H  48.36800 29.43900 40.59600
H  48.80700 31.00300 41.19800
H  47.29300 30.26400 41.82600
Mg 49.01300 34.60000 27.57700
C  47.17700 33.55900 30.24200
C  49.70000 37.45800 29.38500
C  50.92900 35.81600 24.98000
C  47.81500 32.18000 25.63300
N  48.64900 35.26000 29.62700
C  47.95100 34.62700 30.62600
C  48.21900 35.20000 31.98100
C  48.55800 36.66400 31.51000
C  49.01700 36.49500 30.06600
C  47.34100 37.68400 31.69300
C  49.44000 34.45600 32.71200
C  49.44500 34.64800 34.28200
H  48.50400 35.62800 34.95600
N  50.22500 36.32700 27.27300
C  50.33100 37.41500 28.16900
C  51.20200 38.38000 27.58500
C  51.66800 37.83500 26.36300
C  50.94000 36.62500 26.12500
C  51.43700 39.72000 28.22800
C  52.76100 38.37000 25.33700
O  53.01900 37.87100 24.25000
C  53.57300 39.58100 25.68400
N  49.23900 34.13200 25.52900
C  50.10800 34.75000 24.71900
C  50.36000 33.92200 23.47400
C  49.40200 32.70100 23.61600
C  48.74500 33.01300 24.99000
C  50.27000 34.74900 22.08900
C  50.17800 31.34400 23.68700
C  49.30400 30.14400 23.15300
N  47.76800 33.00500 27.89500
C  47.29000 32.09700 26.94300
C  46.36700 31.17400 27.52900
C  46.34800 31.65600 28.89000
C  47.13200 32.80700 29.05000
C  45.81200 29.89900 26.92800
C  45.75800 31.45300 30.19300
O  44.95000 30.61100 30.58700
C  46.16300 32.68400 31.08900
C  46.68100 32.04200 32.33900
O  47.47700 31.15500 32.37300
O  46.26000 32.74000 33.44600
C  46.65900 32.08300 34.70400
H  49.94200 38.29200 30.04800
H  51.66500 36.01400 24.19800
H  47.40400 31.43100 24.95200
H  47.34500 35.15700 32.63000
H  49.36400 37.08800 32.10900
H  46.59300 37.24700 32.35400
H  46.93200 37.95200 30.71900
H  47.69100 38.65000 32.05700
H  50.38500 34.90500 32.40700
H  49.48800 33.45300 32.28800
H  50.44700 34.98700 34.54700
H  49.36800 33.65000 34.71400
H  52.45300 39.78200 28.61800
H  50.86500 39.97000 29.12100
H  51.22200 40.51800 27.51700
H  52.87300 40.36200 25.98200
H  54.21600 39.86100 24.84900
H  54.06400 39.12700 26.54500
H  51.39400 33.57600 23.48700
H  48.58300 32.78100 22.90100
H  51.24100 35.01800 21.67300
H  49.75600 35.70200 22.21000
H  49.60800 34.26200 21.37300
H  50.53200 31.24300 24.71300
H  51.00800 31.30400 22.98200
H  49.87900 29.62500 22.38700
H  48.37200 30.45700 22.68100
H  49.04200 29.44400 23.94600
H  46.48200 29.06300 27.12800
H  45.58400 29.99300 25.86600
H  44.88500 29.74400 27.48000
H  45.27900 33.24300 31.39600
H  46.34700 32.59700 35.61300
H  47.71600 31.83000 34.78300
H  46.03200 31.19800 34.81000

