158

Mg 52.62400 24.87200 44.27700
C  49.61300 26.71200 43.94300
C  50.85500 22.05600 44.06300
C  55.52400 23.32800 44.09800
C  54.36400 28.00500 44.32000
N  50.38500 24.54000 44.10000
C  49.35200 25.37500 44.02000
C  48.09000 24.63800 43.78100
C  48.43700 23.19700 44.19400
C  49.98800 23.20000 44.08900
C  47.87800 22.83800 45.63600
C  47.56500 24.90700 42.32800
C  48.58200 24.65800 41.11900
H  48.28300 25.41300 39.83000
N  53.13100 23.00200 44.22800
C  52.23600 21.94600 43.99200
C  53.05700 20.76500 43.77800
C  54.37500 21.03200 44.06600
C  54.37200 22.56200 44.14000
C  52.44000 19.41600 43.42500
C  55.45100 20.03300 44.26900
O  55.20500 18.80800 44.15600
C  56.83800 20.41000 44.71900
N  54.65600 25.61900 43.85900
C  55.65100 24.73300 44.07000
C  57.02900 25.36400 44.06300
C  56.73500 26.87600 44.15900
C  55.15000 26.86200 44.11300
C  58.04700 24.65800 45.02000
C  57.32800 27.73300 43.01100
C  58.03300 29.03000 43.51000
N  52.16100 26.99700 44.25000
C  52.97900 28.11400 44.23300
C  52.10900 29.27800 44.20200
C  50.81400 28.78500 44.03300
C  50.85400 27.37300 44.01000
C  52.43200 30.66200 44.15000
C  49.37400 29.20600 44.03500
O  48.86300 30.29800 44.16600
C  48.60800 27.91800 43.66400
C  48.31800 28.25200 42.24200
O  49.11000 28.10600 41.26200
O  47.03600 28.69900 42.08600
C  46.48000 29.14100 40.77300
H  50.29300 21.12700 43.94100
H  56.43500 22.73200 44.00900
H  54.93300 28.93400 44.39700
H  47.43700 25.05800 44.54600
H  47.98200 22.51300 43.47700
H  48.33600 23.46700 46.40000
H  48.06300 21.79600 45.89700
H  46.83000 23.13700 45.63900
H  46.95600 25.79200 42.14300
H  46.86800 24.08600 42.15600
H  48.48200 23.64000 40.74200
H  49.60900 24.73700 41.47700
H  53.12100 18.86200 42.77900
H  51.44100 19.56800 43.01500
H  52.26900 18.86800 44.35100
H  57.40800 19.58400 45.14500
H  56.84600 21.28600 45.36800
H  57.42800 20.69600 43.84800
H  57.34000 25.09000 43.05500
H  56.98600 27.21200 45.16500
H  58.61900 23.94100 44.43200
H  57.48500 24.21600 45.84300
H  58.65900 25.44800 45.45600
H  56.66500 28.08100 42.21900
H  58.11300 27.18000 42.49500
H  58.08000 29.20600 44.58500
H  57.66000 29.94600 43.05200
H  59.04900 29.10600 43.12100
H  52.17600 31.14300 43.20600
H  53.52000 30.68900 44.09800
H  52.10400 31.21800 45.02900
H  47.63500 27.88100 44.15400
H  46.79700 28.53600 39.92400
H  46.77200 30.19100 40.76900
H  45.39400 29.11900 40.87000
Mg 29.55400 58.81700 39.58100
C  27.06900 56.36300 38.48500
C  31.89300 56.70700 38.14300
C  31.71700 61.27900 39.79700
C  26.84700 61.01000 39.96300
N  29.48000 56.75500 38.37600
C  28.42700 55.91300 38.15600
C  28.85100 54.60200 37.47800
C  30.42500 54.65500 37.52800
C  30.66100 56.11200 38.07300
C  31.09900 53.48200 38.28000
C  28.22000 54.32800 36.04300
C  27.87000 55.62100 35.26000
H  27.90200 55.43400 33.77400
N  31.54400 58.88300 39.25900
C  32.34800 57.99300 38.53400
C  33.69900 58.44400 38.63200
C  33.68400 59.79100 39.29200
C  32.27200 60.04900 39.41600
C  34.84500 57.54600 38.08800
C  34.84600 60.58800 39.69600
O  36.00100 60.15000 39.49100
C  34.65100 61.84700 40.43000
N  29.30900 60.90500 39.66500
C  30.38000 61.62600 40.01900
C  30.00100 63.03900 40.54900
C  28.43300 62.99800 40.37600
C  28.16500 61.57900 39.92400
C  30.33000 63.23200 42.03400
C  27.80200 64.11700 39.58000
C  26.75900 64.92200 40.28500
N  27.37100 58.73300 39.50100
C  26.47100 59.70600 39.67600
C  25.12500 59.16400 39.58000
C  25.30000 57.83400 39.17200
C  26.68600 57.65500 39.02700
C  23.82900 59.89200 39.78100
C  24.58100 56.67300 38.77800
O  23.37600 56.49600 38.81200
C  25.70900 55.63600 38.24500
C  25.69500 54.39800 39.13600
O  26.57400 54.04900 39.89800
O  24.54100 53.72300 38.83500
C  24.57200 52.33100 39.23400
H  32.71500 56.12400 37.72200
H  32.25900 62.20900 39.98100
H  26.05400 61.74100 40.13400
H  28.55900 53.90900 38.26700
H  30.82900 54.51100 36.52600
H  32.13600 53.38900 37.95700
H  30.57100 52.56400 38.02300
H  31.14700 53.60900 39.36100
H  27.24400 53.90200 36.27300
H  28.62600 53.51500 35.44100
H  28.47800 56.50400 35.45600
H  26.81900 55.80700 35.48000
H  34.82400 57.49800 36.99900
H  34.59900 56.51300 38.33400
H  35.87000 57.76000 38.39200
H  35.55200 62.03000 41.01400
H  33.85000 61.78300 41.16700
H  34.54300 62.73200 39.80300
H  30.51500 63.84800 40.02900
H  27.99300 63.06500 41.37100
H  29.67700 64.02800 42.39100
H  31.38900 63.46100 42.15100
H  30.19500 62.40800 42.73500
H  27.38800 63.66800 38.67800
H  28.58600 64.80200 39.25700
H  26.05600 65.27500 39.53100
H  27.28100 65.74000 40.78300
H  26.31200 64.37400 41.11400
H  23.03500 59.29400 39.33300
H  23.76300 60.90200 39.37500
H  23.68700 59.97800 40.85800
H  25.49700 55.29200 37.23300
H  24.93600 51.77000 38.37300
H  23.55600 52.02300 39.48100
H  25.28200 52.00700 39.99500

