158

Mg 55.57100 24.12600 43.88600
C  53.00000 26.41600 43.06900
C  53.72900 21.59000 42.88200
C  58.33300 22.17500 43.95000
C  57.68100 26.98100 44.48600
N  53.64400 24.06000 42.91200
C  52.64200 25.06200 42.81200
C  51.27400 24.45700 42.49300
C  51.57600 22.92800 42.61900
C  53.10500 22.85900 42.81900
C  50.83900 22.17700 43.76000
C  50.83300 24.76100 41.03200
C  49.35000 24.78000 40.64500
H  49.03700 24.37500 39.20200
N  55.96900 22.10800 43.63900
C  55.03000 21.23600 43.18800
C  55.60100 19.94600 43.08600
C  56.98800 20.09000 43.37600
C  57.24800 21.54200 43.66000
C  54.89800 18.70000 42.64500
C  57.97300 18.92000 43.44300
O  57.58900 17.83600 43.33400
C  59.46800 19.19400 43.61000
N  57.68800 24.55200 44.13800
C  58.53500 23.54600 44.23800
C  59.89000 24.04500 44.67000
C  59.81100 25.58600 44.53400
C  58.26800 25.74600 44.51200
C  60.30200 23.55000 46.08600
C  60.63100 26.23200 43.37300
C  61.74400 27.18600 43.66500
N  55.36800 26.23400 43.88900
C  56.32400 27.24600 44.26700
C  55.61600 28.51500 44.29500
C  54.35700 28.26300 43.81200
C  54.30000 26.87500 43.52000
C  56.17900 29.81400 44.79500
C  53.07500 28.88700 43.57200
O  52.66000 30.02100 43.83100
C  52.10000 27.69500 43.05000
C  51.68200 28.05000 41.75800
O  52.39900 28.40600 40.79500
O  50.29100 27.98400 41.56800
C  49.67000 28.89400 40.56900
H  52.99000 20.79800 42.74800
H  59.28100 21.63900 44.03700
H  58.22500 27.92300 44.58400
H  50.53400 24.78600 43.22200
H  51.37800 22.44300 41.66300
H  51.49800 21.64700 44.44800
H  50.13700 21.42400 43.40300
H  50.38000 22.93000 44.40100
H  51.34000 24.05900 40.37100
H  51.27400 25.70300 40.70700
H  49.07700 25.82700 40.78100
H  48.83100 24.06300 41.28000
H  55.24100 18.40700 41.65300
H  53.81000 18.77200 42.67100
H  55.22300 17.85500 43.25100
H  59.95200 19.79300 42.83900
H  59.95600 18.22400 43.50900
H  59.71000 19.54700 44.61300
H  60.65200 23.72400 43.96000
H  60.17400 25.96500 45.48900
H  59.87000 22.57600 46.31800
H  60.07000 24.23100 46.90500
H  61.37700 23.36600 46.07400
H  60.01300 26.92000 42.79500
H  61.02900 25.43700 42.74200
H  62.62800 26.90600 43.09200
H  62.05800 27.04200 44.69900
H  61.41200 28.20300 43.46000
H  57.06600 30.11100 44.23600
H  56.33700 29.71400 45.86900
H  55.41300 30.57000 44.62300
H  51.26000 27.71000 43.74400
H  48.99800 29.52300 41.15300
H  49.11900 28.24300 39.89000
H  50.40000 29.35800 39.90500
Mg 49.11500 46.86100 42.59700
C  45.90900 47.81600 41.54800
C  48.73700 44.15500 40.61400
C  52.38300 46.08600 43.14800
C  49.65900 50.05900 43.65700
N  47.52100 46.09400 41.11700
C  46.26600 46.63700 40.95800
C  45.43800 45.79200 39.94700
C  46.31100 44.46800 39.78300
C  47.60000 44.91900 40.53800
C  45.67300 43.14600 40.29000
C  45.16000 46.46900 38.58300
C  43.71600 46.65300 38.20200
H  43.29600 46.18000 36.76100
N  50.31400 45.19500 42.09200
C  49.91300 44.24000 41.24400
C  50.92600 43.25900 41.30700
C  52.06300 43.76500 41.99900
C  51.59100 45.09200 42.49900
C  50.84700 41.93000 40.49600
C  53.44400 43.07500 42.20600
O  53.57900 41.84400 41.92300
C  54.65100 43.78500 42.83400
N  50.77400 47.93400 43.25800
C  51.99500 47.38700 43.49400
C  53.06900 48.42300 43.90300
C  52.18200 49.64000 44.15500
C  50.80200 49.20200 43.57000
C  54.00800 48.06200 45.00600
C  52.74400 51.00400 43.65400
C  52.70600 52.12400 44.68200
N  47.99400 48.58800 42.78600
C  48.33500 49.77000 43.32800
C  47.24000 50.66000 43.24300
C  46.19300 49.83400 42.66700
C  46.78600 48.70300 42.29400
C  47.15900 52.01900 43.79100
C  44.78100 49.86000 42.26600
O  43.89300 50.72500 42.36200
C  44.56300 48.50500 41.36000
C  43.37500 47.88700 41.95200
O  42.24600 48.17600 41.68000
O  43.73000 46.93100 42.86800
C  42.67400 46.20600 43.60300
H  48.57300 43.28000 39.98100
H  53.40800 45.77100 43.35300
H  49.87900 51.04700 44.06700
H  44.45200 45.64400 40.38700
H  46.62400 44.30700 38.75100
H  45.64300 42.40400 39.49200
H  44.67000 43.48200 40.55300
H  46.12600 42.76100 41.20400
H  45.82100 45.95900 37.88200
H  45.67100 47.43200 38.61300
H  43.34700 47.67900 38.21500
H  43.00700 46.22500 38.91100
H  51.74000 41.54000 40.00800
H  50.17400 42.11400 39.65800
H  50.44600 41.13700 41.12800
H  55.53800 43.28200 42.44900
H  54.51200 43.81200 43.91400
H  54.69400 44.74800 42.32400
H  53.68100 48.59900 43.01800
H  51.93700 49.73300 45.21300
H  53.76400 47.17600 45.59100
H  53.99000 48.98000 45.59400
H  55.06600 48.01300 44.74800
H  52.16000 51.29300 42.78100
H  53.74600 50.85400 43.25300
H  53.69400 52.41200 45.04000
H  52.13100 51.87300 45.57300
H  52.13500 52.98300 44.32900
H  48.10400 52.54400 43.64800
H  46.90500 51.99300 44.85100
H  46.29200 52.45000 43.29200
H  44.47700 48.92200 40.35700
H  42.49800 46.59700 44.60500
H  43.03100 45.17800 43.67000
H  41.74300 46.16100 43.03800

