158

Mg 2.22800 -1.09900 43.26300
C  5.63800 -0.33200 42.82800
C  1.54100 2.03800 41.77500
C  -0.88100 -2.16400 42.95400
C  3.21000 -4.37200 44.24700
N  3.44800 0.63700 42.24600
C  4.78300 0.68600 42.29500
C  5.35100 1.96500 41.67100
C  4.05300 2.81500 41.41800
C  2.97100 1.80700 41.92300
C  3.96900 4.20800 42.14300
C  6.07400 1.81400 40.33900
C  5.34700 0.98600 39.25300
H  5.21300 1.55400 37.85200
N  0.58800 -0.12900 42.68100
C  0.47200 1.13600 42.00700
C  -0.86800 1.42600 41.81200
C  -1.64600 0.29300 42.21000
C  -0.67100 -0.75800 42.58100
C  -1.41700 2.69000 41.19100
C  -3.19300 0.05600 42.22500
O  -3.93200 0.98000 41.92100
C  -3.94400 -1.20600 42.62900
N  1.32200 -3.00800 43.46200
C  0.01300 -3.11700 43.35900
C  -0.42000 -4.57100 43.54800
C  0.88900 -5.27400 44.18800
C  1.86600 -4.14400 44.09300
C  -1.76200 -4.79000 44.32100
C  1.36400 -6.46500 43.31300
C  0.37400 -7.57700 43.21900
N  4.03700 -2.23300 43.54100
C  4.34000 -3.52900 43.91600
C  5.76200 -3.73700 44.09600
C  6.29800 -2.47100 43.68100
C  5.23600 -1.62000 43.31700
C  6.43600 -4.93500 44.72400
C  7.50600 -1.68600 43.55600
O  8.70100 -1.96200 43.79300
C  7.14800 -0.41900 42.78200
C  7.70200 0.76700 43.38900
O  8.55300 1.49200 42.83800
O  7.21800 0.90400 44.64100
C  7.89900 1.88500 45.44000
H  1.26700 3.01800 41.37900
H  -1.92200 -2.46400 43.09400
H  3.42800 -5.35300 44.67200
H  6.09200 2.37000 42.36100
H  3.70700 3.00200 40.40100
H  4.60600 4.30300 43.02200
H  2.93100 4.32500 42.45700
H  4.25400 4.93300 41.38100
H  7.03900 1.33100 40.49100
H  6.25700 2.80600 39.92500
H  4.34200 0.70800 39.57100
H  5.83800 0.01400 39.19300
H  -2.15100 2.38300 40.44700
H  -0.76900 3.43400 40.72800
H  -1.95100 3.28200 41.93500
H  -3.58700 -1.50700 43.61400
H  -3.64900 -1.91000 41.85100
H  -5.01300 -1.01300 42.72800
H  -0.53200 -4.98600 42.54600
H  0.79300 -5.70400 45.18500
H  -2.15100 -3.89500 44.80800
H  -1.73000 -5.64900 44.99100
H  -2.45400 -4.94500 43.49300
H  2.30000 -6.83800 43.72800
H  1.58300 -6.06900 42.32100
H  -0.01800 -7.63100 42.20400
H  -0.38500 -7.51900 43.99900
H  1.02400 -8.45100 43.26200
H  6.50900 -5.73800 43.99000
H  5.87100 -5.30800 45.57900
H  7.41400 -4.74000 45.16300
H  7.60100 -0.44500 41.79100
H  8.90900 1.54100 45.66200
H  7.50200 1.92300 46.45500
H  7.75700 2.82900 44.91500
Mg 47.83700 15.99200 27.97100
C  45.54800 16.00800 30.76200
C  49.87800 18.17400 29.93300
C  49.92100 16.34200 25.37700
C  45.43600 14.60400 26.04900
N  47.67000 17.01300 30.12500
C  46.76600 16.65800 31.11900
C  47.19100 17.20500 32.49300
C  48.38900 18.15100 32.05000
C  48.76800 17.69300 30.66100
C  48.06900 19.74500 32.11300
C  47.59000 16.05500 33.35300
C  47.54200 16.53500 34.84300
H  48.85100 16.21600 35.70600
N  49.70800 16.97900 27.69800
C  50.36200 17.81700 28.60300
C  51.56400 18.31900 28.01800
C  51.63700 17.70700 26.72400
C  50.45700 16.92000 26.53500
C  52.47200 19.25600 28.69300
C  52.76100 17.86700 25.70200
O  52.83400 17.28200 24.65900
C  53.83700 18.97900 25.92000
N  47.69100 15.56000 25.99900
C  48.70600 15.75900 25.12400
C  48.36000 15.20400 23.69300
C  46.99200 14.59200 23.97700
C  46.63300 14.91200 25.42500
C  48.34500 16.20100 22.52300
C  46.91300 13.07600 23.70500
C  47.16600 12.65100 22.29000
N  45.89300 15.36200 28.26700
C  45.10100 14.74900 27.38100
C  43.91900 14.40500 28.06800
C  44.01900 14.88600 29.39900
C  45.26000 15.52500 29.41800
C  42.77600 13.60000 27.48300
C  43.32100 14.93500 30.72100
O  42.24600 14.58100 31.14400
C  44.38400 15.63200 31.66400
C  43.63400 16.80600 32.28700
O  43.48800 17.84600 31.76300
O  43.08700 16.44100 33.50400
C  42.08200 17.42700 34.05000
H  50.60700 18.69000 30.56100
H  50.50200 16.34000 24.45200
H  44.72400 14.12600 25.37200
H  46.45900 17.89300 32.91600
H  49.27000 17.94300 32.65700
H  48.78600 20.27800 32.73700
H  47.14400 20.00500 32.62800
H  48.10300 20.28700 31.16800
H  48.61300 15.84200 33.04200
H  46.98300 15.16000 33.21600
H  46.77200 15.95200 35.34900
H  47.19400 17.56500 34.92500
H  52.60900 20.21700 28.19700
H  53.46600 18.80800 28.70900
H  52.37000 19.37200 29.77200
H  54.56700 18.72500 26.68900
H  53.33900 19.87100 26.30200
H  54.25900 19.05000 24.91800
H  49.05100 14.39800 23.44400
H  46.19300 15.06200 23.40400
H  48.30600 17.14200 23.07100
H  47.45000 16.00500 21.93400
H  49.20800 16.07000 21.87000
H  45.89700 12.74800 23.92300
H  47.53000 12.52100 24.41200
H  47.25100 13.52800 21.64900
H  46.40700 12.00400 21.85100
H  48.08000 12.07000 22.16700
H  43.17600 13.01800 26.65300
H  41.98500 14.29800 27.21000
H  42.33300 12.85000 28.13900
H  44.62700 14.89400 32.42800
H  41.51800 17.96900 33.29100
H  42.60400 18.12100 34.70900
H  41.43500 16.80100 34.66400

