158

Mg 24.49700 -5.53000 45.92300
C  26.83800 -3.32200 44.47100
C  22.04400 -4.13200 43.84700
C  22.53700 -8.10400 46.57900
C  27.14300 -6.89300 47.72300
N  24.45400 -3.93400 44.28700
C  25.53500 -3.15800 43.92500
C  25.11400 -2.21200 42.78900
C  23.58100 -2.25200 42.78900
C  23.34500 -3.48700 43.68000
C  22.86200 -0.93800 43.22400
C  25.72700 -2.62600 41.47600
C  26.44300 -1.62400 40.57100
H  26.22000 -1.86400 39.08000
N  22.45200 -5.99100 45.38900
C  21.68500 -5.29600 44.50800
C  20.39800 -5.90800 44.50000
C  20.50500 -7.19200 45.19400
C  21.86200 -7.10500 45.80400
C  19.32200 -5.31000 43.63800
C  19.44400 -8.29100 45.24500
O  18.42300 -8.23300 44.63000
C  19.69200 -9.60500 45.88300
N  24.89600 -7.33400 46.76700
C  23.82800 -8.14900 47.06400
C  24.27000 -9.22000 48.10100
C  25.65300 -8.74800 48.58000
C  25.91400 -7.56100 47.66000
C  23.16300 -9.66500 49.20800
C  26.89200 -9.79200 48.60700
C  27.76100 -9.76600 49.89300
N  26.54900 -5.19400 46.11900
C  27.49600 -5.84100 46.88300
C  28.77400 -5.19400 46.66600
C  28.60600 -4.23100 45.79200
C  27.22100 -4.26100 45.44900
C  30.01600 -5.68600 47.27000
C  29.26900 -3.19700 45.02800
O  30.37000 -2.67600 45.09600
C  28.12300 -2.60300 44.10100
C  28.02100 -1.13700 44.35600
O  28.00500 -0.57600 45.44500
O  27.92200 -0.49000 43.10500
C  27.46700 0.88000 43.17000
H  21.31700 -3.58700 43.24200
H  21.88700 -8.87800 46.99300
H  28.02300 -7.26200 48.25300
H  25.42000 -1.21200 43.09600
H  23.21000 -2.54200 41.80500
H  23.31400 -0.07100 42.74300
H  23.03100 -0.81100 44.29300
H  21.80500 -0.96600 42.96000
H  25.03800 -3.23600 40.89200
H  26.42000 -3.43900 41.69500
H  27.51400 -1.77200 40.71000
H  26.15200 -0.61500 40.86200
H  19.53700 -5.58400 42.60500
H  19.31300 -4.22600 43.75100
H  18.30400 -5.59700 43.90100
H  19.05700 -10.41000 45.51400
H  19.69700 -9.58200 46.97300
H  20.70300 -9.94800 45.66300
H  24.36200 -10.10800 47.47500
H  25.47000 -8.29100 49.55300
H  22.36200 -8.92600 49.23900
H  23.67700 -9.82500 50.15500
H  22.69900 -10.62100 48.96300
H  27.44800 -9.41800 47.74800
H  26.64300 -10.84000 48.44100
H  27.89700 -10.78300 50.26000
H  27.48700 -9.17400 50.76600
H  28.72400 -9.44600 49.49400
H  30.16100 -6.76500 47.22300
H  30.05000 -5.32100 48.29700
H  30.83300 -5.24700 46.69800
H  28.40400 -2.79300 43.06500
H  26.53300 0.84300 43.73000
H  27.29100 1.20400 42.14500
H  28.09100 1.67700 43.57400
Mg 44.56200 4.04500 47.29700
C  42.40700 6.75400 47.00800
C  41.74500 1.88100 47.21800
C  46.61800 1.42000 47.22300
C  47.23500 6.23900 47.26800
N  42.37700 4.33200 47.01000
C  41.75700 5.49900 46.86800
C  40.32200 5.26800 46.68700
C  39.93600 3.77200 47.02600
C  41.41300 3.21100 47.11000
C  39.03900 3.56100 48.24000
C  40.01600 5.60800 45.14400
C  39.06300 6.67600 44.80100
H  39.42100 7.64300 43.66800
N  44.20900 2.00200 47.28200
C  43.05700 1.30600 47.28200
C  43.29500 -0.11800 47.08900
C  44.69800 -0.27100 47.19100
C  45.22000 1.10700 47.17600
C  42.30500 -1.15900 46.79900
C  45.44000 -1.60500 47.11100
O  44.88100 -2.67500 47.24900
C  46.88300 -1.73600 46.81200
N  46.67300 3.86400 47.25800
C  47.30000 2.65700 47.18800
C  48.86100 2.84500 47.20100
C  49.02200 4.37900 47.11500
C  47.59400 4.89700 47.25700
C  49.50800 2.34800 48.48100
C  49.62500 4.92000 45.76800
C  51.10300 5.43000 45.89600
N  44.83100 6.17400 47.12300
C  45.98600 6.90100 47.15100
C  45.56000 8.30200 47.14100
C  44.17100 8.34300 47.14200
C  43.77500 6.97700 47.12000
C  46.48000 9.55500 47.28000
C  42.97300 9.17700 47.16000
O  42.84200 10.36300 47.20900
C  41.80700 8.16000 47.05200
C  40.91100 8.25400 48.27100
O  41.07200 7.62000 49.33000
O  40.01500 9.25200 48.04900
C  39.01200 9.52500 49.05300
H  40.82900 1.28900 47.18200
H  47.32300 0.58700 47.18400
H  48.04600 6.95500 47.42000
H  39.70800 5.95800 47.26600
H  39.58400 3.14200 46.20900
H  38.57500 2.57500 48.23200
H  38.35600 4.40100 48.37300
H  39.76000 3.63300 49.05400
H  39.66500 4.73000 44.60200
H  40.95600 5.85500 44.65100
H  38.99100 7.42400 45.59000
H  38.12300 6.16500 44.59200
H  42.31100 -1.68900 45.84600
H  41.28300 -0.88200 47.05800
H  42.53400 -2.01800 47.42900
H  46.98200 -1.00100 46.01300
H  47.24700 -2.65800 46.35800
H  47.53200 -1.47500 47.64800
H  49.17600 2.19800 46.38100
H  49.47900 4.86100 47.97900
H  50.16700 1.52000 48.22200
H  48.75200 1.94700 49.15600
H  50.14900 3.10600 48.93200
H  48.92700 5.69300 45.44500
H  49.67000 4.13100 45.01700
H  51.61900 5.41700 44.93600
H  51.64800 4.75900 46.56000
H  51.09600 6.46400 46.24100
H  46.78800 9.75700 48.30600
H  46.08000 10.47400 46.85100
H  47.34200 9.27800 46.67300
H  41.30400 8.41900 46.12000
H  38.76100 10.58600 49.03700
H  39.34400 9.30700 50.06700
H  38.06000 9.01800 48.89400

