158

Mg 1.64000 -2.18900 43.04100
C  5.00300 -2.47200 42.40500
C  1.62100 0.82900 41.25500
C  -1.67000 -2.48600 42.74800
C  1.72500 -5.68200 44.13200
N  3.14400 -1.03000 41.86800
C  4.45200 -1.35100 41.76100
C  5.23900 -0.27600 41.01600
C  4.17200 0.84200 40.75600
C  2.89600 0.23300 41.32000
C  4.62000 2.18700 41.39100
C  5.89800 -0.75000 39.73400
C  7.02900 0.19900 39.21800
H  6.72100 1.01000 37.94800
N  0.14800 -0.97100 42.23900
C  0.39100 0.33300 41.68500
C  -0.91800 0.97300 41.45400
C  -1.84300 -0.03100 41.62800
C  -1.18500 -1.16800 42.26100
C  -1.00800 2.32300 40.79600
C  -3.30400 0.03300 41.31000
O  -3.82900 1.02500 40.75000
C  -4.10800 -1.12900 41.45200
N  0.26200 -3.98300 43.29800
C  -1.05700 -3.67300 43.28500
C  -1.95700 -4.85000 43.73500
C  -0.85800 -5.94200 44.09700
C  0.49500 -5.14900 43.88600
C  -2.93900 -4.53500 44.89100
C  -0.93100 -7.29400 43.38700
C  -0.69300 -8.50700 44.29000
N  3.10600 -3.70300 43.41400
C  3.03100 -5.03400 43.89100
C  4.35200 -5.56600 43.95500
C  5.21400 -4.56400 43.54800
C  4.35200 -3.47100 43.09700
C  4.60200 -7.07300 44.28600
C  6.55300 -4.22300 43.31200
O  7.54700 -4.80100 43.56000
C  6.48800 -2.83300 42.54100
C  7.37700 -1.81800 43.22100
O  7.07100 -1.02200 44.10700
O  8.61100 -1.85300 42.64800
C  9.63400 -0.89600 43.08200
H  1.58600 1.81900 40.79700
H  -2.74600 -2.53800 42.92700
H  1.79800 -6.72900 44.43600
H  5.97500 0.11100 41.72100
H  3.98900 1.08500 39.71000
H  3.97200 2.29800 42.26000
H  4.61700 3.00800 40.67500
H  5.61700 2.22900 41.82900
H  5.19600 -0.85700 38.90800
H  6.28800 -1.75500 39.89600
H  7.95600 -0.36600 39.12900
H  7.13700 0.97700 39.97500
H  -0.71600 2.31000 39.74600
H  -0.48300 3.07400 41.38700
H  -2.04400 2.65700 40.73900
H  -5.00500 -0.87900 40.88600
H  -4.44400 -1.29300 42.47600
H  -3.57500 -1.96000 40.99100
H  -2.53600 -5.15900 42.86500
H  -0.78400 -6.12600 45.16900
H  -2.64500 -5.04500 45.80800
H  -3.97200 -4.81600 44.68800
H  -2.89400 -3.45800 45.05200
H  -0.24500 -7.34700 42.54100
H  -1.97200 -7.41200 43.08600
H  -1.41300 -9.29700 44.07700
H  -0.70500 -8.22200 45.34200
H  0.33500 -8.78400 44.05600
H  5.43800 -7.37600 43.65600
H  3.72700 -7.68800 44.07000
H  4.99200 -7.17400 45.29900
H  6.94800 -3.07600 41.58300
H  9.69900 -0.60300 44.13000
H  9.37100 0.00200 42.52300
H  10.60300 -1.26000 42.74200
Mg -5.91300 25.41700 26.32900
C  -3.93000 26.91600 29.00500
C  -7.04900 23.20600 28.60200
C  -7.25000 23.93300 23.64000
C  -4.03900 27.62900 24.12900
N  -5.45500 25.07900 28.57400
C  -4.67400 25.80600 29.43300
C  -5.12900 25.49800 30.88300
C  -5.85800 24.17800 30.70400
C  -6.18600 24.06800 29.20100
C  -4.95000 22.95400 31.14400
C  -6.04800 26.61000 31.55200
C  -5.93900 26.89400 33.04100
H  -5.57700 25.83800 34.02400
N  -7.08500 23.89600 26.11900
C  -7.52900 23.09900 27.20400
C  -8.47000 22.17000 26.61600
C  -8.43700 22.30600 25.13600
C  -7.56000 23.45400 24.87700
C  -9.43800 21.36700 27.56000
C  -9.15800 21.54800 24.12200
O  -9.04500 21.79700 22.91100
C  -10.04900 20.40400 24.54500
N  -5.57200 25.73500 24.19700
C  -6.25500 24.92300 23.33500
C  -5.98400 25.28000 21.90200
C  -5.09800 26.61600 22.02600
C  -4.86000 26.68200 23.54300
C  -5.44900 24.16600 21.01300
C  -5.68300 27.94300 21.43000
C  -5.80500 28.07400 19.88500
N  -4.32900 26.92500 26.45400
C  -3.75000 27.76300 25.51700
C  -2.81700 28.67300 26.09700
C  -2.87400 28.31200 27.41500
C  -3.80300 27.28700 27.65100
C  -1.92700 29.71100 25.47400
C  -2.29000 28.73600 28.63600
O  -1.41900 29.57400 28.85100
C  -3.09300 27.85900 29.78200
C  -2.09000 27.05900 30.58600
O  -1.23200 26.30300 30.14500
O  -2.30300 27.26200 31.90700
C  -1.39200 26.57400 32.88300
H  -7.50600 22.56100 29.35600
H  -7.65700 23.54000 22.70600
H  -3.52000 28.25500 23.40100
H  -4.31500 25.20300 31.54500
H  -6.81500 24.07500 31.21600
H  -5.56200 22.05500 31.22200
H  -4.42500 23.29400 32.03700
H  -4.06200 22.77700 30.53600
H  -7.05400 26.22400 31.39000
H  -5.92100 27.56700 31.04600
H  -6.94400 27.23600 33.28800
H  -5.17900 27.66000 33.19400
H  -8.98600 20.41600 27.84100
H  -10.45900 21.28700 27.18700
H  -9.40300 21.97700 28.46300
H  -9.35200 19.75700 25.07900
H  -10.43700 19.86600 23.68000
H  -10.91200 20.79500 25.08400
H  -6.92000 25.63800 21.47300
H  -4.18200 26.48500 21.44900
H  -6.08600 24.14200 20.12900
H  -5.51000 23.21000 21.53400
H  -4.41600 24.33000 20.70800
H  -5.06400 28.70900 21.89700
H  -6.69900 27.99400 21.82100
H  -6.70900 28.64100 19.66400
H  -5.70000 27.08300 19.44400
H  -4.89800 28.60000 19.58600
H  -0.92600 29.28200 25.52900
H  -1.94800 30.62400 26.06900
H  -2.16700 29.89800 24.42800
H  -3.70100 28.41300 30.49800
H  -1.71800 26.57700 33.92300
H  -0.41500 27.05900 32.88400
H  -1.17300 25.62500 32.39400

