158

Mg 35.98000 2.51100 29.39800
C  33.59500 3.04200 31.82800
C  38.35800 2.67300 31.69700
C  38.19000 1.81200 26.92200
C  33.38800 2.63900 27.00600
N  35.86900 2.91100 31.57400
C  34.84400 3.02100 32.36800
C  35.18000 3.10200 33.87200
C  36.75800 3.31400 33.72200
C  37.07000 2.88500 32.23800
C  37.16200 4.77000 34.07000
C  34.73600 1.75200 34.51100
C  34.52600 1.76600 36.05100
H  35.06000 3.00600 36.77400
N  37.96700 2.22700 29.34800
C  38.80200 2.32500 30.41400
C  40.17200 2.06900 30.00500
C  40.12700 1.82600 28.53800
C  38.68900 1.98400 28.22100
C  41.30600 2.01300 30.96000
C  41.34300 1.45000 27.60700
O  41.19000 1.01700 26.45400
C  42.72500 1.51600 28.11800
N  35.83500 2.24200 27.28700
C  36.83700 1.85700 26.51000
C  36.37000 1.69000 25.04900
C  34.84500 1.56800 25.19300
C  34.61800 2.25300 26.53300
C  36.82800 2.82100 24.11400
C  34.13800 0.15200 25.04300
C  32.91000 -0.02700 24.10700
N  33.95700 2.95000 29.32500
C  33.03100 2.98700 28.27900
C  31.71400 3.26900 28.80000
C  31.85600 3.23200 30.19900
C  33.27200 3.05000 30.44500
C  30.54600 3.34800 28.00400
C  31.19800 3.46500 31.45600
O  30.02700 3.72400 31.79700
C  32.26200 3.16700 32.50700
C  32.16000 4.40900 33.39900
O  32.70100 5.44100 33.20300
O  31.48000 4.09900 34.58000
C  31.32900 5.13200 35.61200
H  39.12400 2.73900 32.47200
H  38.99300 1.45000 26.27600
H  32.51500 2.58400 26.35200
H  34.78100 3.99400 34.35500
H  37.17500 2.56300 34.39300
H  36.42500 5.11100 34.79700
H  37.09700 5.41100 33.19000
H  38.09100 4.77100 34.64100
H  35.37600 0.91600 34.23000
H  33.69900 1.55400 34.24000
H  34.97600 0.88700 36.51400
H  33.43700 1.76100 36.07900
H  40.85000 1.72900 31.90900
H  41.61200 3.05500 31.04500
H  42.08300 1.27100 30.77400
H  42.64100 2.43100 28.70500
H  43.32600 1.85800 27.27600
H  43.03300 0.54700 28.51100
H  36.69900 0.67900 24.81200
H  34.28900 2.17000 24.47400
H  36.28300 3.75000 24.28100
H  36.73000 2.57500 23.05700
H  37.89400 2.98600 24.27000
H  33.75400 -0.14100 26.02000
H  34.91200 -0.57900 24.80600
H  32.89900 0.88700 23.51400
H  32.03700 -0.21300 24.73200
H  33.14500 -0.81400 23.39100
H  30.66000 2.94600 26.99700
H  30.25100 4.38500 27.83900
H  29.70700 2.90800 28.54200
H  31.97600 2.27700 33.06700
H  31.32900 4.58600 36.55500
H  30.37100 5.63600 35.48200
H  32.17700 5.81100 35.69900
Mg 41.12500 8.81600 28.46700
C  42.77700 9.87700 31.35500
C  38.94900 7.01000 30.50900
C  39.52300 7.73000 25.80400
C  43.82200 9.94300 26.61400
N  40.87200 8.55400 30.74800
C  41.79800 8.92700 31.69600
C  41.32500 8.55300 33.11000
C  40.18400 7.49100 32.72800
C  40.01600 7.61300 31.25000
C  40.63500 6.07200 33.20400
C  40.94700 9.69300 34.09200
C  40.13000 9.42300 35.35800
H  40.76700 9.74600 36.73000
N  39.37100 7.64100 28.19600
C  38.58700 7.08800 29.15300
C  37.39800 6.56400 28.51200
C  37.50700 6.77900 27.12300
C  38.85800 7.40100 26.98800
C  36.19200 6.01400 29.32800
C  36.45600 6.60000 26.04400
O  36.74400 6.77200 24.85800
C  35.17400 6.12300 26.41000
N  41.60300 8.75800 26.49100
C  40.78400 8.22100 25.57900
C  41.45600 8.41900 24.26400
C  42.84500 9.10100 24.44000
C  42.75800 9.35100 25.93700
C  41.43900 7.18100 23.24900
C  43.17000 10.31900 23.60600
C  42.65200 11.63800 24.16200
N  42.86800 9.83500 28.80700
C  43.88900 10.21800 27.93800
C  44.91100 10.85800 28.62800
C  44.50300 10.88200 29.99300
C  43.27400 10.18100 29.99800
C  46.17800 11.40100 28.14400
C  44.85900 11.22100 31.34100
O  45.76600 11.93800 31.74600
C  43.75300 10.58900 32.26400
C  44.44700 9.64600 33.21200
O  44.92000 8.54700 32.92500
O  44.60600 10.25100 34.40900
C  45.28000 9.43000 35.43600
H  38.12900 6.63800 31.12700
H  39.10400 7.42000 24.84400
H  44.70500 10.28500 26.06900
H  42.19800 7.98300 33.42900
H  39.23700 7.84500 33.13600
H  40.21100 5.95200 34.20000
H  41.68900 6.10900 33.48000
H  40.52800 5.34800 32.39600
H  40.39800 10.43200 33.50900
H  41.85100 10.20300 34.42500
H  39.76700 8.39600 35.40200
H  39.27400 10.09500 35.29200
H  36.35100 5.90600 30.40100
H  36.01200 5.02600 28.90400
H  35.25600 6.56200 29.22000
H  35.21200 5.07100 26.69100
H  34.48600 6.16800 25.56600
H  34.69300 6.79800 27.11800
H  40.80400 9.13200 23.76000
H  43.60100 8.32600 24.31600
H  40.91700 6.30600 23.63700
H  42.43900 7.00600 22.85000
H  40.96300 7.54200 22.33700
H  42.66100 10.20900 22.64800
H  44.24600 10.22900 23.45700
H  42.25800 12.21200 23.32400
H  43.41700 12.32600 24.52100
H  41.79800 11.56000 24.83500
H  46.11800 12.47900 27.99900
H  46.67100 10.80400 27.37700
H  46.80500 11.41300 29.03600
H  43.28100 11.41600 32.79400
H  44.66200 9.59200 36.31900
H  46.31500 9.68800 35.65800
H  45.28200 8.36000 35.22800

