158

Mg 41.09000 9.06600 29.54800
C  42.64600 10.28100 32.45600
C  38.74300 7.57400 31.57500
C  39.44500 8.23000 26.85100
C  43.72900 10.22500 27.65800
N  40.79400 8.95300 31.81300
C  41.50600 9.53500 32.78400
C  40.87800 9.38500 34.16400
C  39.75500 8.23400 33.88700
C  39.71300 8.23400 32.36400
C  40.21400 6.85000 34.42400
C  40.23900 10.74100 34.59700
C  40.22100 11.07300 36.11600
H  41.25100 12.07600 36.67700
N  39.30600 8.20500 29.32900
C  38.51100 7.53000 30.17100
C  37.35800 6.94700 29.54600
C  37.50200 7.25700 28.18300
C  38.78300 7.97100 28.04200
C  36.17400 6.29300 30.28200
C  36.48400 6.98400 26.99600
O  36.68700 7.41100 25.83800
C  35.20200 6.16100 27.15700
N  41.51300 9.37100 27.48000
C  40.68100 8.88600 26.57400
C  41.26400 8.87000 25.13000
C  42.60500 9.64900 25.44100
C  42.61000 9.78300 26.93200
C  41.43300 7.35300 24.51500
C  42.84800 11.05100 24.74500
C  41.99800 12.41700 25.10100
N  42.88600 9.96000 29.94200
C  43.92900 10.35100 29.06400
C  45.00900 10.89800 29.91200
C  44.51000 10.96700 31.18300
C  43.23200 10.37100 31.16100
C  46.21100 11.46700 29.41900
C  44.79300 11.42800 32.47700
O  45.80800 11.99800 32.92800
C  43.64000 10.94300 33.36500
C  44.18600 10.14100 34.36200
O  44.64600 9.01400 34.12200
O  44.06400 10.74700 35.60800
C  44.98200 10.13400 36.55200
H  38.01900 6.95000 32.10200
H  38.90300 7.78800 26.01200
H  44.51400 10.62500 27.01300
H  41.54000 9.02600 34.95300
H  38.76200 8.39500 34.30600
H  39.49600 6.59700 35.20400
H  41.22300 6.79500 34.83100
H  40.19400 6.12400 33.61100
H  39.16400 10.64600 34.44000
H  40.63300 11.56100 33.99600
H  40.30600 10.11900 36.63500
H  39.27100 11.51800 36.41100
H  36.32200 6.23400 31.36000
H  36.04600 5.32000 29.80900
H  35.28500 6.91900 30.20000
H  35.55000 5.14800 27.35900
H  34.63400 6.07500 26.23100
H  34.74200 6.48300 28.09200
H  40.71600 9.55500 24.48200
H  43.48700 9.03000 25.27900
H  40.76000 6.68500 25.05200
H  42.38900 6.83200 24.56800
H  41.08200 7.44000 23.48700
H  42.74400 11.06800 23.66000
H  43.88700 11.22200 25.02700
H  41.38900 12.18300 25.97400
H  41.21500 12.61300 24.36900
H  42.59500 13.23700 25.50200
H  46.80200 10.91700 28.68700
H  46.92400 11.52700 30.24200
H  46.10100 12.48500 29.04500
H  43.05200 11.77900 33.74400
H  45.96700 9.81400 36.21300
H  44.46500 9.28800 37.00400
H  45.14300 10.82300 37.38100
Mg 54.10700 25.80100 44.54700
C  51.51400 28.10000 43.77900
C  52.28700 23.30000 43.13500
C  56.90500 23.98900 44.67100
C  55.97700 28.66500 45.58900
N  52.23500 25.76900 43.55800
C  51.34200 26.82800 43.25400
C  50.21000 26.27100 42.35400
C  50.23900 24.76300 42.77500
C  51.68100 24.56400 43.18000
C  49.35300 24.32100 44.04300
C  50.50800 26.58100 40.81800
C  49.36700 27.07000 39.94100
H  49.06400 26.19200 38.80000
N  54.51900 23.82000 44.11200
C  53.55100 22.93500 43.55100
C  54.19800 21.62100 43.47100
C  55.61600 21.79500 43.84800
C  55.76500 23.24600 44.19200
C  53.43100 20.29800 43.15000
C  56.62000 20.61200 44.08200
O  56.32700 19.46800 43.69500
C  57.95400 20.91000 44.66200
N  56.18500 26.27800 44.84100
C  57.08800 25.31600 44.98700
C  58.33900 25.79200 45.59000
C  58.14500 27.34000 45.63500
C  56.68200 27.47600 45.42100
C  58.66200 25.04100 46.90800
C  58.97300 28.18600 44.59200
C  59.42400 29.55100 45.25600
N  53.79700 27.91400 44.80500
C  54.61300 28.94800 45.29900
C  53.87900 30.18600 45.40700
C  52.68200 29.95200 44.74400
C  52.66400 28.53100 44.43000
C  54.40100 31.48700 45.89500
C  51.47400 30.52800 44.30700
O  51.05000 31.68100 44.33700
C  50.67100 29.34500 43.73100
C  50.18700 29.77300 42.37900
O  50.92100 29.92200 41.41100
O  48.86400 29.75000 42.43400
C  48.23700 30.34000 41.22800
H  51.66300 22.53300 42.67100
H  57.81100 23.40800 44.85500
H  56.58400 29.47700 45.99500
H  49.19100 26.60200 42.55500
H  49.88500 24.10800 41.97800
H  48.45400 24.91000 44.22500
H  49.89100 23.99400 44.93300
H  48.89600 23.36400 43.79300
H  50.96400 25.65900 40.45900
H  51.23300 27.39500 40.81500
H  49.61700 28.08900 39.64400
H  48.46800 27.13100 40.55300
H  53.78600 20.06300 42.14600
H  52.34400 20.33500 43.08000
H  53.84800 19.62900 43.90300
H  58.51800 19.99300 44.83100
H  57.90500 21.37900 45.64600
H  58.51100 21.53000 43.96000
H  59.08800 25.54200 44.83800
H  58.36700 27.65700 46.65400
H  57.79600 24.85100 47.54200
H  59.43600 25.53300 47.49700
H  58.94000 24.01300 46.67800
H  58.40800 28.55700 43.73700
H  59.80800 27.52400 44.36000
H  60.51200 29.52200 45.20000
H  59.05600 29.58700 46.28100
H  59.13500 30.44200 44.69800
H  54.83000 32.11300 45.11300
H  55.17000 31.37400 46.66000
H  53.56300 32.01400 46.35000
H  49.82700 29.22800 44.41100
H  47.91800 29.53800 40.56300
H  48.95800 30.89300 40.62400
H  47.40800 31.02500 41.40500

