158

Mg 40.75300 7.14300 28.90800
C  42.37900 8.43100 31.69900
C  38.43000 5.78100 31.15600
C  39.42900 5.74700 26.25000
C  43.24600 8.47400 26.99800
N  40.45900 7.12200 31.24900
C  41.21200 7.79500 32.10600
C  40.53800 7.91400 33.44700
C  39.37100 6.83100 33.30500
C  39.42300 6.47600 31.81300
C  39.57400 5.58100 34.17000
C  40.01200 9.33400 33.69200
C  39.94600 9.75400 35.16300
H  40.99500 10.69100 35.80800
N  39.17800 5.79300 28.70200
C  38.32800 5.43500 29.74800
C  37.22900 4.65400 29.13700
C  37.52300 4.59400 27.70500
C  38.70500 5.40100 27.47400
C  36.09600 4.10000 29.94300
C  36.71100 4.02100 26.54300
O  37.08000 3.95500 25.37900
C  35.49000 3.34900 26.93000
N  41.48600 6.75300 26.93200
C  40.61400 6.40700 25.98700
C  41.11200 6.57400 24.54600
C  42.11100 7.70600 24.84300
C  42.34100 7.67400 26.33700
C  41.69800 5.30500 23.89200
C  41.87500 9.09900 24.27200
C  40.64900 9.81300 24.79000
N  42.47800 8.15800 29.18300
C  43.42800 8.65000 28.34300
C  44.50300 9.34300 29.07000
C  44.11200 9.27600 30.42000
C  42.84900 8.60000 30.41400
C  45.72200 9.93000 28.48100
C  44.47200 9.68600 31.77100
O  45.35900 10.40400 32.19100
C  43.37000 9.15500 32.61700
C  43.94700 8.17000 33.57300
O  44.37500 7.07800 33.29500
O  43.78700 8.52800 34.90800
C  44.15600 7.58300 35.97100
H  37.65800 5.32800 31.78100
H  39.05500 5.34600 25.30600
H  43.92900 9.01700 26.34100
H  41.25600 7.51100 34.16200
H  38.36500 7.25000 33.29100
H  39.26700 4.71600 33.58300
H  39.05100 5.61700 35.12600
H  40.64300 5.56800 34.38500
H  38.95700 9.40600 33.42800
H  40.59000 10.10300 33.18000
H  39.90800 8.82100 35.72400
H  38.98500 10.25800 35.27500
H  35.23400 4.71300 29.68300
H  36.23200 3.96500 31.01600
H  35.86100 3.05200 29.75400
H  35.76400 2.72700 27.78200
H  35.03800 2.79300 26.10800
H  34.78000 4.12000 27.22800
H  40.19800 6.78800 23.99100
H  43.09600 7.40300 24.48800
H  42.73300 5.31100 23.55100
H  41.15100 5.14600 22.96300
H  41.55800 4.46200 24.56800
H  41.57800 8.84600 23.25400
H  42.79700 9.67200 24.37000
H  40.29600 9.37400 25.72300
H  39.85000 9.83400 24.05000
H  40.97700 10.84500 24.91900
H  46.05900 10.70400 29.17000
H  45.44900 10.48600 27.58400
H  46.54800 9.27000 28.21800
H  42.79600 9.96300 33.07200
H  44.59000 6.70400 35.49400
H  43.40800 7.19800 36.66400
H  44.98500 8.06200 36.49100
Mg 41.20100 41.06700 26.83100
C  40.52400 43.43200 29.43900
C  41.92300 38.73100 29.15400
C  41.97500 38.96100 24.36100
C  40.51200 43.51700 24.51500
N  41.15500 41.05300 29.05500
C  40.84000 42.13700 29.88500
C  40.88500 41.66400 31.35200
C  41.35300 40.13300 31.24100
C  41.45100 39.94500 29.70100
C  42.71300 39.76800 31.81200
C  39.58500 41.82700 32.15900
C  39.45000 42.97600 33.15900
H  38.98300 42.61800 34.65500
N  41.92200 39.14900 26.75800
C  42.12900 38.36000 27.83900
C  42.60100 37.11300 27.43400
C  42.57300 37.07800 26.00700
C  42.10600 38.43500 25.65500
C  43.05000 35.99700 28.47500
C  42.81100 35.95100 25.03200
O  42.58600 36.05200 23.82100
C  43.34000 34.59200 25.52900
N  41.45300 41.27600 24.74600
C  41.66400 40.23600 23.93800
C  41.40500 40.59400 22.43800
C  40.61500 41.96700 22.56900
C  40.79900 42.23300 24.07900
C  42.66700 40.49500 21.54800
C  39.20200 41.85800 21.95900
C  38.19100 41.41600 22.99900
N  40.68700 43.05900 26.91700
C  40.49300 43.96100 25.85800
C  40.08300 45.29100 26.38200
C  40.14600 45.12400 27.74500
C  40.47000 43.75100 28.02300
C  39.60800 46.55500 25.63300
C  39.87000 45.76600 28.93900
O  39.50700 46.88400 29.14400
C  40.21400 44.74300 30.15000
C  41.41400 45.24900 30.91000
O  42.50300 44.80900 30.78600
O  40.94000 46.05600 31.94100
C  41.89800 46.45300 33.03300
H  42.17900 38.13300 30.03200
H  42.18200 38.29600 23.51900
H  40.17600 44.22200 23.75100
H  41.67400 42.27100 31.79700
H  40.60400 39.39700 31.53300
H  42.82500 40.50300 32.60900
H  43.51600 39.83600 31.07900
H  42.69400 38.76400 32.23700
H  39.40600 40.90600 32.71400
H  38.67900 41.84000 31.55300
H  38.75500 43.65900 32.67200
H  40.44100 43.42900 33.16200
H  42.42500 36.16300 29.35200
H  44.09100 36.05100 28.79200
H  42.86400 34.97500 28.14600
H  42.54900 33.89800 25.81500
H  44.06500 34.67500 26.33900
H  43.94800 34.18700 24.72100
H  40.67900 39.90800 22.00100
H  41.29600 42.65700 22.07100
H  42.66100 39.56800 20.97400
H  43.52100 40.44300 22.22400
H  42.76500 41.36200 20.89500
H  39.18800 41.20600 21.08600
H  38.93900 42.82600 21.53200
H  38.65300 40.83400 23.79700
H  37.31000 40.85300 22.68800
H  37.93800 42.38400 23.43200
H  38.84200 46.16300 24.96400
H  40.40900 46.95800 25.01400
H  39.27500 47.32600 26.32900
H  39.29100 44.78400 30.72700
H  42.75200 46.91000 32.53300
H  42.24500 45.57200 33.57300
H  41.37300 47.12500 33.71100

