158

Mg 1.55900 41.22600 24.89400
C  2.23400 41.84900 28.37800
C  -1.47000 40.06500 25.73800
C  1.18400 40.07700 21.70700
C  4.76000 42.31700 24.21100
N  0.55900 40.87400 26.82000
C  1.01500 41.23400 28.06600
C  -0.07500 41.08100 29.07800
C  -1.25000 40.41100 28.22100
C  -0.73900 40.39000 26.80400
C  -1.57200 38.97000 28.63300
C  -0.58100 42.38700 29.76900
C  -0.56600 42.49700 31.31300
H  -0.89700 41.30400 32.17700
N  -0.03400 40.41100 23.78000
C  -1.14100 39.87800 24.36000
C  -2.01100 39.31400 23.34200
C  -1.25700 39.28400 22.13300
C  0.01200 39.92500 22.46300
C  -3.47500 39.07900 23.54900
C  -1.70700 38.88000 20.73700
O  -0.93800 38.83500 19.80200
C  -3.16900 38.44400 20.51700
N  2.78500 41.20700 23.26900
C  2.43600 40.63800 22.04700
C  3.60900 40.68300 21.01000
C  4.58500 41.71200 21.69500
C  4.01100 41.72800 23.17800
C  4.19000 39.23200 20.72000
C  4.68200 43.16000 20.98900
C  4.17800 44.43600 21.80300
N  3.28800 41.88100 25.99900
C  4.44900 42.40000 25.59400
C  5.28500 42.88000 26.68600
C  4.42600 42.68800 27.80400
C  3.23300 42.07400 27.38000
C  6.65400 43.43800 26.68600
C  4.30600 42.87000 29.28600
O  5.09000 43.36400 30.09200
C  2.87900 42.29200 29.69600
C  3.25200 41.14700 30.53900
O  3.85500 40.13800 30.08700
O  2.82100 41.30700 31.82200
C  3.06800 40.25300 32.72800
H  -2.46700 39.74800 26.04900
H  1.19400 39.62400 20.71300
H  5.75300 42.68400 23.94500
H  0.29100 40.35200 29.80100
H  -2.13100 41.04600 28.30900
H  -1.00800 38.67200 29.51600
H  -1.45100 38.25100 27.82200
H  -2.65500 38.93600 28.75500
H  -1.59300 42.67100 29.47800
H  0.14600 43.09300 29.36900
H  -1.10600 43.36400 31.69500
H  0.46900 42.79200 31.48700
H  -4.02500 39.89200 23.07600
H  -3.73900 39.06900 24.60600
H  -3.75700 38.10700 23.14200
H  -3.23000 37.40000 20.82600
H  -3.41800 38.57500 19.46400
H  -3.85800 38.99000 21.16100
H  3.18500 41.04300 20.07200
H  5.55400 41.21400 21.66000
H  3.90100 38.46100 21.43500
H  5.20800 39.30800 20.33800
H  3.73500 38.85000 19.80600
H  4.04300 43.12500 20.10700
H  5.66300 43.42900 20.59500
H  3.40900 44.94400 21.22000
H  5.05600 45.07000 21.92400
H  3.86400 44.20500 22.82100
H  6.72200 44.52600 26.72400
H  7.23600 43.13800 25.81400
H  7.33000 43.07500 27.46000
H  2.27400 42.98500 30.28000
H  2.29600 39.50500 32.54200
H  2.87500 40.70500 33.70100
H  4.02300 39.75100 32.57400
Mg -12.34000 17.33200 40.88300
C  -9.16100 15.70000 40.45300
C  -10.81700 20.21000 39.99100
C  -15.41300 18.70700 40.93000
C  -13.82100 14.13900 41.40200
N  -10.19700 17.75600 40.31600
C  -9.08700 17.05600 40.20700
C  -7.87600 17.83300 39.76000
C  -8.37600 19.28200 39.77800
C  -9.90000 19.10400 40.04900
C  -7.77200 20.34400 40.76600
C  -7.25900 17.28700 38.43200
C  -5.75200 17.02100 38.46400
H  -5.31100 15.71900 37.70300
N  -13.00900 19.15000 40.43100
C  -12.24200 20.25700 40.03800
C  -13.10700 21.40300 39.84600
C  -14.40000 20.99600 40.15300
C  -14.34500 19.56600 40.57100
C  -12.52400 22.76000 39.44200
C  -15.61000 21.91100 40.05000
O  -15.43500 23.12000 39.80700
C  -17.06600 21.47700 40.19400
N  -14.38300 16.56300 41.15500
C  -15.43500 17.35100 41.24500
C  -16.72700 16.57100 41.58900
C  -16.22000 15.11600 41.50500
C  -14.70000 15.24600 41.29200
C  -17.50300 16.94700 42.88200
C  -16.97900 14.03400 40.65400
C  -17.74800 12.89600 41.30600
N  -11.73900 15.37200 40.95500
C  -12.40300 14.19200 41.24600
C  -11.50500 13.08000 41.17400
C  -10.27000 13.64100 40.87100
C  -10.42300 15.02300 40.79500
C  -11.90800 11.59300 41.36200
C  -8.88400 13.27700 40.60000
O  -8.36400 12.14500 40.56500
C  -8.11400 14.56100 40.30400
C  -6.96900 14.77800 41.20500
O  -7.01600 15.49200 42.25600
O  -5.87200 14.04700 40.83700
C  -4.63600 14.47600 41.56300
H  -10.47600 21.23400 39.82100
H  -16.40000 19.17000 40.98800
H  -14.33800 13.17900 41.34500
H  -7.16500 17.69300 40.57500
H  -8.29200 19.69700 38.77300
H  -6.88100 20.08200 41.33600
H  -8.63300 20.66700 41.35200
H  -7.58200 21.23400 40.16600
H  -7.32100 18.00300 37.61300
H  -7.87300 16.46100 38.07400
H  -5.34500 16.97200 39.47400
H  -5.29100 17.91500 38.04600
H  -11.90800 22.79000 38.54300
H  -11.76700 23.00000 40.18800
H  -13.15700 23.64700 39.46000
H  -17.25300 20.55100 39.64900
H  -17.76900 22.18700 39.75900
H  -17.27900 21.38300 41.25800
H  -17.30800 16.88900 40.72300
H  -16.13900 14.81800 42.55000
H  -17.41400 16.25300 43.71900
H  -18.58500 17.00800 42.76700
H  -17.12800 17.88000 43.30400
H  -16.39300 13.63400 39.82700
H  -17.82200 14.55500 40.20000
H  -17.10000 12.03800 41.12500
H  -18.61100 12.56100 40.73100
H  -18.04600 12.87900 42.35400
H  -12.96100 11.51400 41.63500
H  -11.31300 10.98600 42.04300
H  -11.87300 11.07400 40.40400
H  -7.75400 14.45900 39.28000
H  -4.56900 15.56200 41.63700
H  -3.81700 14.11400 40.94300
H  -4.53400 14.01700 42.54600

