158

Mg 35.62000 2.89800 29.81900
C  33.24500 3.60500 32.26800
C  37.98900 2.69600 32.47000
C  38.15000 2.65000 27.51000
C  33.26300 3.25000 27.34800
N  35.58400 3.25200 32.09700
C  34.46900 3.39600 32.88400
C  34.80700 3.40100 34.36200
C  36.31100 3.30400 34.39500
C  36.64100 3.04100 32.90500
C  37.03200 4.56100 34.97100
C  34.15900 2.23200 35.21600
C  33.72000 2.67800 36.55900
H  34.67900 3.63300 37.40500
N  37.68100 2.55400 29.97700
C  38.46700 2.51100 31.14400
C  39.87600 2.19900 30.81400
C  39.99100 2.23900 29.37100
C  38.58600 2.42600 28.88200
C  40.96000 1.90500 31.92500
C  41.17700 2.05100 28.42500
O  41.17000 1.94800 27.21800
C  42.49400 2.02500 29.11700
N  35.68800 2.97000 27.73100
C  36.86000 2.87000 27.04400
C  36.55100 3.16600 25.52500
C  35.04200 3.40500 25.43600
C  34.63400 3.20400 26.93800
C  37.32100 4.28400 24.85600
C  34.34100 2.45500 24.46000
C  34.16500 1.00700 24.84900
N  33.61900 3.40500 29.73100
C  32.75100 3.38900 28.71500
C  31.43800 3.76500 29.18100
C  31.62000 3.81000 30.57200
C  32.91100 3.51300 30.87400
C  30.14400 4.09700 28.37800
C  30.86500 4.09900 31.79700
O  29.68500 4.39000 31.95700
C  31.94700 3.97300 33.05500
C  31.99400 5.36200 33.57500
O  32.26700 6.30200 32.84500
O  31.63900 5.42000 34.91900
C  32.00200 6.65400 35.58300
H  38.69400 2.64400 33.30300
H  38.92200 2.76700 26.74700
H  32.62000 3.64800 26.56000
H  34.44100 4.36900 34.70600
H  36.73700 2.49800 34.99200
H  36.49400 5.19000 35.68000
H  37.47800 5.25400 34.25800
H  37.86900 4.07400 35.47200
H  34.90900 1.44200 35.23900
H  33.36200 1.67900 34.71800
H  33.42700 1.87700 37.23700
H  32.88700 3.34700 36.34300
H  41.36500 0.89800 31.82600
H  40.51000 1.93000 32.91700
H  41.77400 2.62400 31.83200
H  42.63500 2.95700 29.66300
H  43.30700 1.86900 28.40800
H  42.50100 1.15800 29.77900
H  36.69400 2.33800 24.83100
H  34.71700 4.39700 25.12300
H  36.64500 5.07200 24.52400
H  37.70100 3.92400 23.90000
H  38.14100 4.74700 25.40500
H  34.68900 2.61900 23.44000
H  33.29700 2.75800 24.38000
H  33.15200 0.64400 24.67700
H  34.43600 0.87200 25.89600
H  34.89200 0.43200 24.27500
H  30.27500 3.98800 27.30100
H  29.69300 5.06400 28.60000
H  29.27500 3.44600 28.47300
H  31.58200 3.16300 33.68700
H  32.46700 6.32500 36.51300
H  31.12200 7.24600 35.83800
H  32.81700 7.13400 35.04200
Mg 47.02700 25.08100 28.32000
C  47.98700 27.38000 30.81000
C  46.53500 22.73300 30.64100
C  46.57200 22.87800 25.75000
C  48.35600 27.35400 25.88000
N  47.37000 25.03500 30.55400
C  47.46700 26.20000 31.26700
C  47.16500 25.80000 32.72400
C  46.80600 24.22800 32.68300
C  46.95000 23.97400 31.19700
C  47.69700 23.25800 33.50200
C  45.98700 26.74400 33.36300
C  45.20100 26.40300 34.58000
H  45.37300 27.32600 35.82900
N  46.52200 23.04900 28.27000
C  46.33700 22.26000 29.34700
C  45.97300 20.96100 28.94900
C  45.96900 21.04100 27.51600
C  46.35100 22.35100 27.06700
C  45.64600 19.86100 29.90100
C  45.68000 19.98700 26.49100
O  45.79700 20.12300 25.27600
C  45.31900 18.68400 27.06000
N  47.53600 25.13300 26.16200
C  47.09300 24.11400 25.37300
C  47.03900 24.54000 23.86500
C  47.28300 26.12500 23.88200
C  47.76700 26.23000 25.39500
C  48.16900 23.79000 23.12800
C  45.95600 26.99300 23.63200
C  46.19600 28.32200 22.78800
N  48.02600 26.93200 28.31500
C  48.51500 27.67500 27.23600
C  49.06400 28.88900 27.81300
C  48.85900 28.84200 29.16800
C  48.14800 27.63800 29.43000
C  49.61900 30.02500 27.14400
C  49.07200 29.59200 30.35900
O  49.67400 30.63000 30.58700
C  48.43500 28.65000 31.54100
C  49.40500 28.51100 32.63300
O  50.25200 27.66600 32.82400
O  49.00500 29.41600 33.55400
C  49.47100 29.29600 34.87500
H  46.32900 22.05300 31.46900
H  46.24500 22.21900 24.94200
H  48.73400 28.09900 25.17700
H  48.12300 25.91000 33.23200
H  45.76600 24.05600 32.95900
H  48.52300 22.88800 32.89400
H  47.05600 22.45500 33.86500
H  48.18100 23.90200 34.23700
H  45.23500 26.87600 32.58500
H  46.62400 27.58700 33.62800
H  45.63100 25.42800 34.81100
H  44.13700 26.26800 34.38800
H  46.52300 19.21500 29.87100
H  44.68600 19.45400 29.58200
H  45.38400 20.12100 30.92700
H  45.04600 17.89500 26.36000
H  44.42800 18.92300 27.64100
H  46.09300 18.25400 27.69600
H  46.04300 24.32200 23.48000
H  48.06500 26.49500 23.21900
H  47.77200 22.78000 23.02200
H  49.06800 23.91300 23.73100
H  48.24800 24.26300 22.14900
H  45.58300 27.32700 24.60000
H  45.17000 26.33600 23.26100
H  45.94000 28.07600 21.75700
H  47.23100 28.65200 22.69800
H  45.61700 29.13000 23.23600
H  49.52900 30.02600 26.05800
H  50.70100 29.91400 27.21800
H  49.26700 30.95300 27.59500
H  47.49100 29.06900 31.89000
H  48.80000 28.75500 35.54300
H  49.49600 30.31000 35.27400
H  50.39700 28.74400 35.03800

