158

Mg 49.02000 35.78600 27.58000
C  47.03800 34.00300 29.84600
C  49.15000 38.30300 30.03000
C  50.88500 37.47000 25.51200
C  48.61400 33.22100 25.28800
N  48.13700 36.08900 29.67400
C  47.55000 35.16700 30.44400
C  47.48900 35.56200 31.90000
C  47.89900 37.08400 31.84900
C  48.42700 37.18000 30.42500
C  46.88400 38.20700 32.34200
C  48.45900 34.70000 32.71600
C  48.13400 34.40800 34.16600
H  47.05800 35.29700 34.88400
N  49.97600 37.57800 27.71100
C  49.96000 38.43800 28.80900
C  50.79200 39.51400 28.49000
C  51.28300 39.37700 27.16100
C  50.68200 38.12000 26.68200
C  50.95900 40.65200 29.50100
C  52.19700 40.39500 26.37600
O  52.59700 40.18300 25.24800
C  52.67300 41.69200 27.01900
N  49.51100 35.46900 25.51500
C  50.44100 36.28800 24.96900
C  50.88300 35.79300 23.57900
C  50.10300 34.39000 23.55000
C  49.35100 34.34600 24.86200
C  50.54000 36.72400 22.45600
C  50.92800 33.10800 23.23600
C  50.35100 32.11000 22.15100
N  48.04700 33.96000 27.43300
C  47.90000 33.04000 26.43900
C  47.02100 31.93600 26.88000
C  46.60700 32.34400 28.14900
C  47.28400 33.48200 28.52000
C  46.54200 30.74100 26.16200
C  45.75700 32.01400 29.31700
O  45.05700 31.01000 29.57000
C  46.05200 33.05800 30.44300
C  46.39800 32.20500 31.53800
O  47.23600 31.32900 31.53100
O  45.69700 32.60700 32.62700
C  45.73400 31.73300 33.75900
H  49.22900 38.97800 30.88500
H  51.67500 37.90100 24.89400
H  48.49100 32.37800 24.60400
H  46.45100 35.48200 32.22500
H  48.75900 37.14800 32.51500
H  46.03700 37.67800 32.77900
H  46.54600 38.64400 31.40200
H  47.28700 38.81000 33.15500
H  49.46100 35.12500 32.64200
H  48.62000 33.71100 32.28900
H  49.05800 34.62000 34.70300
H  48.07000 33.32000 34.18700
H  50.55000 40.52000 30.50300
H  50.56300 41.58000 29.09000
H  52.00600 40.94900 29.56600
H  53.21000 42.37600 26.36200
H  53.42400 41.34300 27.72700
H  51.87400 42.24400 27.51300
H  51.96000 35.64300 23.65300
H  49.32600 34.43700 22.78800
H  50.12200 36.15000 21.62900
H  51.44900 37.08900 21.97800
H  49.80100 37.44700 22.80100
H  51.09000 32.64200 24.20800
H  51.88400 33.51500 22.90700
H  50.35300 31.10000 22.56100
H  51.09400 32.07900 21.35400
H  49.37300 32.43500 21.79600
H  45.46900 30.81300 25.98100
H  46.71800 29.88800 26.81800
H  47.04600 30.59100 25.20800
H  45.12400 33.61100 30.58900
H  45.04200 30.91300 33.56500
H  45.40700 32.27100 34.64900
H  46.72700 31.36100 34.00900
Mg 0.66600 41.93800 25.48600
C  2.23400 42.42800 28.69300
C  -2.19400 41.01700 27.08600
C  -0.54500 40.96400 22.54700
C  3.83300 42.37100 24.09600
N  0.11600 41.73100 27.66600
C  0.78200 42.20700 28.71900
C  -0.05200 41.94800 29.99500
C  -1.45100 41.56800 29.48600
C  -1.18700 41.44200 27.96800
C  -2.13900 40.24500 30.14300
C  0.06300 43.26200 30.93900
C  0.34700 43.08800 32.36400
H  -0.60500 43.64900 33.42700
N  -1.13500 41.16000 24.92400
C  -2.19500 40.88000 25.69200
C  -3.22100 40.34200 24.88500
C  -2.68000 40.13400 23.56400
C  -1.36800 40.69000 23.63400
C  -4.58900 40.04500 25.51100
C  -3.28100 39.42900 22.27800
O  -2.59100 39.34400 21.23000
C  -4.65000 38.74400 22.37200
N  1.56100 41.58800 23.60100
C  0.86800 41.34000 22.51100
C  1.78000 41.26900 21.27900
C  3.07900 41.98400 21.79600
C  2.84700 41.91100 23.29100
C  1.85900 39.79300 20.83600
C  3.31700 43.42800 21.29200
C  2.31100 44.50300 21.78100
N  2.64200 42.52800 26.13200
C  3.80500 42.61500 25.47500
C  4.88800 42.86300 26.40700
C  4.31400 42.68200 27.64800
C  2.89800 42.55200 27.44200
C  6.40000 43.11700 26.09300
C  4.64900 42.63600 29.09900
O  5.68700 42.61400 29.69300
C  3.25800 42.65100 29.81800
C  3.29600 41.49900 30.76200
O  3.09900 40.34100 30.46100
O  3.55600 41.84200 32.03300
C  3.45300 40.72200 32.97300
H  -3.04900 40.81000 27.73200
H  -1.02500 40.81200 21.57800
H  4.85800 42.60400 23.80000
H  0.41300 41.12600 30.53900
H  -2.17700 42.36700 29.63700
H  -1.56600 39.89100 31.00000
H  -2.02700 39.46100 29.39500
H  -3.16200 40.51500 30.40500
H  -0.90400 43.74000 30.78400
H  0.78100 43.96200 30.51100
H  1.21200 43.74400 32.46700
H  0.70600 42.07300 32.53100
H  -5.39200 40.10200 24.77500
H  -4.71800 40.77500 26.31000
H  -4.49400 39.05200 25.95100
H  -4.75200 38.14500 21.46700
H  -5.42600 39.50900 22.34300
H  -4.61000 38.02600 23.19100
H  1.23000 41.80600 20.50600
H  3.85100 41.22900 21.65000
H  1.56000 39.19200 21.69400
H  2.77200 39.59100 20.27500
H  1.17100 39.71000 19.99500
H  3.34000 43.51500 20.20600
H  4.31500 43.69300 21.64100
H  2.80000 45.03800 22.59500
H  1.40300 44.03100 22.15500
H  2.12100 45.15700 20.93000
H  6.53800 43.09900 25.01200
H  7.10200 42.33600 26.38500
H  6.70300 44.08400 26.49300
H  3.12400 43.62700 30.28400
H  2.54300 40.15500 32.77500
H  3.47200 41.03200 34.01800
H  4.20400 39.98100 32.69900

