158

Mg 24.27000 -4.91200 46.24900
C  26.39700 -2.77900 44.55800
C  21.76100 -4.15800 43.84200
C  22.55800 -7.63900 47.16500
C  26.96100 -6.06100 48.23300
N  24.10900 -3.61500 44.38500
C  25.04600 -2.74400 44.02900
C  24.54900 -1.93800 42.84700
C  23.05400 -2.16400 42.87400
C  22.92100 -3.34700 43.80100
C  22.24400 -0.90300 43.24400
C  25.23600 -2.36400 41.56000
C  25.78000 -1.19500 40.72900
H  25.07600 -0.84900 39.43100
N  22.30200 -5.65800 45.72900
C  21.47300 -5.25300 44.68500
C  20.29500 -6.14300 44.66900
C  20.48500 -7.13000 45.64000
C  21.88100 -6.87000 46.22100
C  19.15600 -5.95800 43.63300
C  19.52600 -8.24800 45.86900
O  18.47600 -8.20300 45.20500
C  19.69100 -9.33500 46.88700
N  24.72300 -6.56400 47.61300
C  23.80500 -7.51500 47.77800
C  24.33100 -8.57400 48.87300
C  25.71500 -8.05500 49.16700
C  25.82400 -6.80100 48.30000
C  23.46100 -8.87000 50.17100
C  26.91600 -9.11700 48.87900
C  27.83700 -9.21700 50.06500
N  26.24600 -4.49300 46.47800
C  27.21100 -4.92700 47.36500
C  28.42300 -4.14400 47.25200
C  28.15200 -3.32600 46.06000
C  26.79900 -3.48600 45.68800
C  29.63600 -4.30100 48.03800
C  28.75300 -2.36700 45.17700
O  29.88200 -1.92900 45.19200
C  27.59300 -1.90900 44.14400
C  27.30400 -0.47100 44.39900
O  26.38900 -0.06600 45.04700
O  28.27500 0.25200 43.74200
C  28.10300 1.70800 44.04900
H  21.02600 -3.91900 43.07100
H  21.95600 -8.47800 47.52000
H  27.76300 -6.41500 48.88300
H  24.66800 -0.88400 43.09900
H  22.63800 -2.56100 41.94900
H  22.71800 -0.13300 42.63500
H  22.50900 -0.67300 44.27600
H  21.17000 -0.98600 43.08100
H  24.49800 -2.89600 40.96000
H  26.08200 -3.03200 41.72200
H  26.78100 -1.49300 40.41600
H  25.85700 -0.34100 41.40200
H  19.29200 -6.61800 42.77600
H  19.24500 -4.92900 43.28600
H  18.19200 -6.24600 44.05100
H  19.62500 -9.02800 47.93100
H  20.66000 -9.81600 46.75300
H  18.89000 -10.07000 46.80500
H  24.42800 -9.50100 48.30700
H  25.73800 -7.67900 50.19000
H  22.46100 -8.44500 50.08600
H  23.95000 -8.59400 51.10500
H  23.37100 -9.91000 50.48500
H  27.55900 -8.70500 48.10100
H  26.51900 -10.09000 48.58900
H  28.52800 -10.02200 49.81700
H  27.31400 -9.41500 51.00000
H  28.35400 -8.25700 50.05900
H  30.38800 -4.94700 47.58500
H  29.49700 -4.65600 49.06000
H  30.10600 -3.31800 48.04200
H  27.94700 -2.08200 43.12700
H  27.33200 2.01600 43.34300
H  29.11000 2.11300 43.95000
H  27.75800 1.90500 45.06400
Mg 17.23100 52.32700 26.27800
C  18.99200 50.95700 29.11000
C  14.97800 53.60700 28.53300
C  15.60800 53.59700 23.70200
C  19.43400 50.62200 24.22300
N  17.03800 52.20000 28.57800
C  17.98500 51.77000 29.48300
C  17.51800 52.26700 30.87500
C  16.04500 52.81100 30.70900
C  15.98100 52.84900 29.18700
C  15.06800 51.82400 31.29900
C  18.38400 53.42000 31.47500
C  18.40700 53.39600 33.03100
H  17.34800 52.59100 33.78900
N  15.47500 53.46300 26.17800
C  14.70800 53.89300 27.15100
C  13.65200 54.74900 26.67400
C  13.80300 54.77700 25.21400
C  15.00800 53.99600 24.96100
C  12.61500 55.53500 27.50100
C  12.96000 55.43700 24.15500
O  13.33700 55.48700 22.95800
C  11.61400 56.08800 24.53800
N  17.48600 52.08100 24.25200
C  16.69100 52.79400 23.39000
C  17.11900 52.53100 21.96300
C  18.38800 51.70000 22.17000
C  18.49800 51.51200 23.63400
C  16.04300 51.80900 21.11800
C  19.58600 52.35500 21.56700
C  20.14200 53.60000 22.32400
N  18.84100 51.02700 26.49200
C  19.64000 50.46500 25.59600
C  20.60300 49.61300 26.18600
C  20.46300 49.86600 27.60200
C  19.35700 50.65700 27.72900
C  21.59400 48.80200 25.48100
C  21.00300 49.58400 28.91700
O  22.00800 48.91600 29.18600
C  20.13300 50.34300 29.94400
C  19.68500 49.38900 30.93900
O  18.93500 48.43100 30.61600
O  20.11100 49.68100 32.23300
C  19.81700 48.67400 33.28800
H  14.23500 53.97700 29.24300
H  15.04700 53.88800 22.81100
H  20.04600 50.08100 23.49800
H  17.60600 51.34900 31.45700
H  15.70700 53.72200 31.20300
H  14.76300 51.08200 30.56100
H  14.23500 52.40500 31.69700
H  15.44600 51.21600 32.12100
H  18.00700 54.33200 31.01100
H  19.41600 53.20600 31.19700
H  18.36200 54.44200 33.33600
H  19.36900 52.95100 33.28300
H  12.60300 56.58800 27.22200
H  13.11600 55.48100 28.46800
H  11.62300 55.09200 27.60100
H  11.17700 55.43700 25.29500
H  10.82800 56.14400 23.78400
H  11.74200 57.12300 24.85700
H  17.45600 53.48800 21.56400
H  18.17000 50.78500 21.61800
H  16.56100 51.33300 20.28600
H  15.33200 52.54000 20.73300
H  15.59800 50.98600 21.67600
H  19.41400 52.50500 20.50100
H  20.42300 51.66500 21.67400
H  20.19500 54.34600 21.53200
H  21.10300 53.52200 22.83400
H  19.31600 53.85000 22.98900
H  22.41900 49.41800 25.12300
H  21.11800 48.10700 24.79000
H  22.20300 48.30900 26.23900
H  20.84400 51.05900 30.35700
H  20.46800 47.80000 33.31400
H  18.78000 48.34200 33.23100
H  19.80800 49.03400 34.31600

