158

Mg 54.41100 23.93100 45.23400
C  52.26700 26.63800 44.13300
C  52.23100 21.68800 43.81300
C  56.88800 21.68500 45.33100
C  56.66000 26.42700 46.23800
N  52.49700 24.21200 44.05600
C  51.77400 25.36600 43.77300
C  50.45400 24.96800 43.09700
C  50.33000 23.42500 43.44100
C  51.78900 23.07900 43.80200
C  49.39100 23.15900 44.70600
C  50.28200 25.28400 41.60600
C  48.87500 25.38300 41.07900
H  48.46800 24.40300 39.98500
N  54.49800 21.86700 44.84100
C  53.44700 21.12800 44.23500
C  53.95500 19.81900 44.16400
C  55.24600 19.76700 44.76600
C  55.60600 21.12500 44.96600
C  53.10200 18.64300 43.70400
C  56.12200 18.57700 44.98700
O  55.80800 17.45400 44.58200
C  57.45500 18.53800 45.80500
N  56.59000 24.04300 45.63400
C  57.34500 22.96100 45.62900
C  58.77700 23.28600 46.00700
C  58.71200 24.85600 46.37700
C  57.23000 25.13800 46.08400
C  59.40400 22.29800 47.02800
C  59.81700 25.63100 45.51800
C  61.17900 25.47700 46.23000
N  54.40800 26.04900 45.42000
C  55.42600 26.91200 45.82900
C  55.04900 28.28800 45.78900
C  53.79000 28.20900 45.08800
C  53.46500 26.82300 44.89800
C  55.91000 29.45100 46.31100
C  52.70900 28.97200 44.53300
O  52.56500 30.20200 44.45500
C  51.68900 27.98900 43.90100
C  51.64300 28.16500 42.43100
O  52.55300 27.87700 41.61200
O  50.46100 28.80000 42.12200
C  50.08800 28.86700 40.68800
H  51.51500 21.07300 43.26400
H  57.77300 21.04500 45.34600
H  57.31700 27.25300 46.52200
H  49.73100 25.51900 43.69800
H  49.98300 22.84700 42.58400
H  49.81700 22.46500 45.43100
H  48.46500 22.62400 44.49700
H  49.09000 24.10900 45.14800
H  50.67200 24.44200 41.03500
H  50.84500 26.14900 41.25600
H  48.70300 26.37300 40.65600
H  48.17100 25.30000 41.90700
H  52.56300 18.97000 42.81500
H  52.54300 18.31600 44.58100
H  53.82200 17.87800 43.41600
H  58.25800 19.00600 45.23600
H  57.67000 17.54500 46.20000
H  57.28200 19.13600 46.70000
H  59.34300 23.08200 45.09800
H  58.95400 25.03900 47.42300
H  59.64300 22.90300 47.90300
H  60.20700 21.74500 46.54100
H  58.71500 21.47900 47.23700
H  59.58800 26.69700 45.52000
H  59.74600 25.21300 44.51400
H  61.57900 26.45700 46.49200
H  61.98000 25.00000 45.66600
H  61.06700 24.91100 47.15500
H  56.45700 29.13000 47.19700
H  55.17700 30.17300 46.67100
H  56.55900 29.81900 45.51600
H  50.70400 28.13500 44.34400
H  49.96800 29.93700 40.51700
H  49.18400 28.33600 40.38900
H  50.88400 28.49100 40.04600
Mg 16.99400 52.75800 26.23500
C  18.91400 51.28800 28.68600
C  14.69400 53.70500 28.65000
C  14.99400 53.75900 23.88000
C  19.11200 51.31500 23.86000
N  16.80600 52.41300 28.37600
C  17.76900 51.94400 29.18500
C  17.49400 52.19500 30.69100
C  15.98300 52.59000 30.64900
C  15.76200 52.93600 29.12100
C  15.05800 51.46200 31.14100
C  18.40300 53.34600 31.26200
C  18.82500 53.34000 32.75200
H  17.94300 52.57000 33.68600
N  15.12000 53.58400 26.25600
C  14.40700 53.96000 27.30000
C  13.25300 54.65200 26.89700
C  13.38800 54.79400 25.47500
C  14.58300 54.04900 25.15400
C  12.19000 55.14100 27.87100
C  12.42600 55.47300 24.50600
O  12.62900 55.50600 23.27500
C  11.23000 56.09800 25.01300
N  16.91500 52.31400 24.28300
C  16.04200 53.00200 23.41400
C  16.30100 52.68700 21.98100
C  17.64700 52.02800 22.10400
C  17.96000 51.91600 23.52200
C  15.28000 51.64700 21.42100
C  18.74800 52.70500 21.30300
C  19.22800 54.04900 21.89400
N  18.71900 51.59900 26.23200
C  19.48400 51.03900 25.21200
C  20.60000 50.27400 25.78500
C  20.41300 50.43500 27.11300
C  19.21600 51.14800 27.37400
C  21.68300 49.62900 24.97000
C  20.99700 50.18900 28.41900
O  22.09600 49.67100 28.66300
C  20.00700 50.71600 29.45900
C  19.68200 49.63100 30.39800
O  18.67500 48.97100 30.36800
O  20.72500 49.51300 31.32800
C  20.50400 48.59400 32.45700
H  14.09100 53.96700 29.52200
H  14.52100 54.20700 23.00300
H  19.77700 51.03800 23.04000
H  17.76700 51.29800 31.24800
H  15.73400 53.52900 31.14400
H  14.86300 51.52700 32.21100
H  15.63700 50.54800 31.00600
H  14.06800 51.44200 30.68600
H  17.94800 54.32000 31.08200
H  19.22800 53.46000 30.55900
H  18.99400 54.33500 33.16500
H  19.82200 52.90000 32.78800
H  12.63600 55.59900 28.75400
H  11.82900 54.18600 28.25400
H  11.36500 55.77000 27.53700
H  11.53000 56.90000 25.68700
H  10.73200 55.27700 25.52900
H  10.54500 56.49400 24.26300
H  16.27400 53.63000 21.43500
H  17.63600 50.97000 21.84400
H  15.59000 51.16800 20.49200
H  14.37000 52.13200 21.06800
H  14.98100 50.93200 22.18800
H  18.31300 52.94900 20.33400
H  19.66000 52.16700 21.04700
H  18.35000 54.62800 22.17900
H  19.71900 54.55100 21.05900
H  19.96800 53.78300 22.64900
H  22.40500 50.36700 24.62200
H  21.27000 49.24000 24.03900
H  22.10600 48.83000 25.57800
H  20.52800 51.48700 30.02700
H  19.57900 48.87000 32.96300
H  21.24200 48.79900 33.23200
H  20.40000 47.55000 32.15900

