158

Mg 45.64800 5.48100 47.31400
C  43.54600 8.27000 46.71400
C  42.87900 3.45700 46.84900
C  47.72900 2.94100 47.14300
C  48.49400 7.80400 47.25100
N  43.53400 5.86300 46.69300
C  42.85700 7.05200 46.64300
C  41.27700 6.91700 46.57100
C  41.19200 5.44400 46.60800
C  42.66500 4.89200 46.83200
C  40.27000 4.86900 47.72100
C  40.62800 7.65700 45.36000
C  39.29000 7.20500 44.90700
H  39.14600 6.51400 43.48800
N  45.39400 3.39500 47.08700
C  44.15000 2.80200 46.95400
C  44.40500 1.32400 46.90100
C  45.83100 1.14100 46.88700
C  46.38200 2.49700 47.01900
C  43.34500 0.28300 46.73100
C  46.50100 -0.27000 46.80800
O  45.79200 -1.24700 46.87900
C  47.96400 -0.33900 46.55500
N  47.79300 5.41200 47.27300
C  48.37200 4.18900 47.20600
C  49.92800 4.28000 47.17400
C  50.12500 5.79800 47.17900
C  48.70700 6.46100 47.17400
C  50.68200 3.62300 48.28900
C  51.19900 6.56200 46.27200
C  52.55700 6.86700 46.89400
N  46.00000 7.51500 47.12000
C  47.19500 8.27700 47.13300
C  46.80200 9.65400 47.02500
C  45.43400 9.67700 46.96600
C  44.99400 8.39200 46.81900
C  47.81800 10.82600 47.09900
C  44.31600 10.55800 46.86200
O  44.28400 11.79400 46.68200
C  43.01200 9.67700 46.70900
C  41.99600 9.93600 47.82600
O  41.96100 9.33300 48.94200
O  41.03100 10.81100 47.40300
C  39.79300 11.05200 48.19700
H  42.05900 2.73900 46.78800
H  48.30000 2.02200 47.28500
H  49.36300 8.46500 47.24200
H  40.90900 7.37600 47.48900
H  40.89700 4.94900 45.68300
H  40.81200 4.28000 48.46100
H  39.45800 4.26400 47.31900
H  39.77500 5.65100 48.29700
H  41.32600 7.51200 44.53600
H  40.50600 8.73500 45.46500
H  38.58000 8.01000 45.09700
H  38.93100 6.52100 45.67600
H  43.50400 -0.38400 45.88400
H  42.38500 0.79000 46.63600
H  43.34200 -0.44000 47.54700
H  48.47600 -0.20000 47.50800
H  48.11900 0.38500 45.75500
H  48.28500 -1.34000 46.27000
H  50.42200 3.90300 46.27800
H  50.45600 6.01900 48.19300
H  50.85800 2.58700 47.99800
H  50.13900 3.64200 49.23400
H  51.62800 4.10300 48.53900
H  50.87300 7.55100 45.95000
H  51.37100 5.94100 45.39300
H  53.29000 6.23700 46.39100
H  52.66800 6.68800 47.96300
H  52.79900 7.92600 46.79800
H  47.25800 11.75000 47.24000
H  48.47700 10.89700 46.23400
H  48.52800 10.73900 47.92200
H  42.46500 9.78000 45.77200
H  38.94400 11.16300 47.52100
H  39.96300 11.91200 48.84400
H  39.59600 10.20200 48.85000
Mg 49.72700 36.48400 27.52400
C  47.26300 34.84800 29.43100
C  50.05100 38.67400 29.97800
C  51.30000 38.35000 25.30500
C  48.72600 34.33900 24.72200
N  48.61400 36.77500 29.45800
C  47.99000 35.77100 30.13800
C  48.08000 36.03500 31.61200
C  48.60100 37.51100 31.73900
C  49.17700 37.72300 30.34500
C  47.52300 38.61100 32.02100
C  48.95200 35.02400 32.39700
C  48.65100 34.85700 33.87200
H  47.79400 35.94000 34.54700
N  50.55000 38.28400 27.62200
C  50.68000 39.03100 28.76400
C  51.57400 40.15200 28.50500
C  51.93000 40.04400 27.13500
C  51.25100 38.86300 26.59700
C  51.98400 41.12500 29.56400
C  52.76500 41.05600 26.32300
O  52.91400 40.96300 25.08800
C  53.62500 42.23700 27.02800
N  49.90400 36.41600 25.23500
C  50.61700 37.31700 24.63800
C  50.90700 37.01600 23.16500
C  50.35600 35.54200 23.05600
C  49.58000 35.37300 24.41500
C  50.16300 37.99000 22.15900
C  51.39700 34.34700 23.01700
C  51.02100 33.01100 22.31100
N  48.35900 34.85500 27.06000
C  48.06200 34.09100 25.92700
C  47.18000 33.02100 26.31200
C  46.70200 33.33600 27.63700
C  47.49700 34.49900 28.04100
C  46.76700 31.92100 25.40800
C  45.78200 32.96100 28.66600
O  45.02800 32.00600 28.76100
C  46.14000 34.00000 29.86100
C  46.21600 33.33400 31.18500
O  46.74500 32.25600 31.38600
O  45.41900 34.01300 32.07800
C  45.30800 33.36200 33.44600
H  50.36200 39.36600 30.76300
H  51.87900 38.85100 24.52700
H  48.50400 33.66200 23.89400
H  47.07100 35.93300 32.01100
H  49.32800 37.58300 32.54700
H  46.52700 38.24500 32.27200
H  47.51500 39.37300 31.24100
H  47.82200 39.07700 32.96000
H  50.02200 35.19200 32.27400
H  48.77900 34.02700 31.99300
H  49.62600 34.93400 34.35500
H  48.33400 33.84300 34.11400
H  51.53400 40.94200 30.54000
H  51.70900 42.13300 29.25400
H  53.06900 41.08800 29.65900
H  53.00600 42.95100 27.57100
H  54.12300 42.89300 26.31400
H  54.33900 41.77600 27.71000
H  51.98400 37.13400 23.04600
H  49.56300 35.34600 22.33400
H  50.75900 38.05600 21.24800
H  50.05400 38.93300 22.69400
H  49.17000 37.62000 21.90300
H  51.66400 34.00600 24.01700
H  52.28600 34.75300 22.53400
H  51.59200 32.81300 21.40400
H  49.97700 32.91500 22.01200
H  51.25000 32.07300 22.81600
H  46.24300 31.06500 25.83200
H  47.65100 31.46200 24.96700
H  46.24400 32.28100 24.52300
H  45.33600 34.72400 29.99100
H  44.47400 32.66300 33.51700
H  45.02300 34.20200 34.08000
H  46.22900 32.98300 33.88800

