158

Mg 50.24700 45.58100 41.30900
C  46.98400 46.47400 40.48600
C  49.53800 42.46600 40.11500
C  53.51100 44.80300 41.64500
C  51.11000 48.98600 41.72900
N  48.47300 44.63100 40.28500
C  47.24600 45.17400 40.09600
C  46.28800 44.24800 39.38400
C  47.11800 42.92500 39.37800
C  48.47100 43.31300 40.03000
C  46.35600 41.73900 40.10900
C  46.02700 44.64700 37.93700
C  44.57100 44.37900 37.37100
H  44.40500 43.56000 36.11400
N  51.35600 43.83100 41.03500
C  50.85100 42.65400 40.54800
C  51.93900 41.71200 40.44000
C  53.17100 42.40100 40.79800
C  52.73700 43.77000 41.21100
C  51.76300 40.27700 40.00800
C  54.58400 41.81600 40.80400
O  54.71700 40.62700 40.48800
C  55.85700 42.50500 41.23100
N  52.02500 46.79200 41.48600
C  53.20700 46.14600 41.78000
C  54.27700 47.20200 42.02000
C  53.56900 48.59300 42.18700
C  52.16400 48.14900 41.68400
C  55.24100 46.95500 43.15700
C  54.16400 49.70400 41.24300
C  54.12800 51.10900 41.80000
N  49.25200 47.43700 41.30600
C  49.69600 48.69700 41.54500
C  48.57400 49.59100 41.36000
C  47.54300 48.79700 40.91600
C  47.92800 47.45300 40.90600
C  48.70400 51.05600 41.48800
C  46.17300 48.85400 40.46200
O  45.40500 49.78300 40.38200
C  45.70800 47.38100 40.25300
C  44.46000 47.11900 40.99700
O  44.29700 47.16900 42.24100
O  43.45600 46.79200 40.09000
C  42.19000 46.50500 40.70100
H  49.31600 41.53800 39.58400
H  54.56500 44.59500 41.83800
H  51.34800 50.01200 42.01800
H  45.35400 44.05800 39.91400
H  47.44000 42.57400 38.39800
H  45.27500 41.60700 40.05500
H  46.61100 41.70900 41.16800
H  46.83600 40.86100 39.67600
H  46.70400 44.14700 37.24400
H  46.30200 45.69700 37.83100
H  44.23200 45.38300 37.11400
H  43.97400 44.04700 38.21900
H  52.57400 39.90100 39.38400
H  50.97300 40.18800 39.26100
H  51.76500 39.62100 40.87900
H  55.70100 42.82700 42.26100
H  55.66700 43.33900 40.55600
H  56.73300 42.01200 40.81100
H  54.96400 47.20500 41.17300
H  53.59700 48.95700 43.21400
H  56.24900 46.65500 42.87300
H  54.82400 46.13100 43.73600
H  55.37800 47.83700 43.78200
H  53.57400 49.61500 40.33000
H  55.17600 49.45200 40.92800
H  53.46600 51.65200 41.12500
H  55.14800 51.49300 41.80700
H  53.67100 51.09100 42.78900
H  48.30900 51.54100 40.59500
H  49.77300 51.26500 41.45200
H  48.24700 51.38100 42.42300
H  45.41100 47.39500 39.20500
H  41.55100 46.42100 39.82200
H  41.73200 47.24400 41.35900
H  42.23800 45.50900 41.14100
Mg 35.49800 48.83300 25.92400
C  36.10300 46.90300 28.79600
C  34.55500 51.41100 27.97000
C  34.56000 50.44800 23.41100
C  36.23000 45.83200 24.01600
N  35.25100 49.08700 28.10800
C  35.64500 48.20500 29.05100
C  35.48400 48.75500 30.48800
C  34.87200 50.17600 30.19700
C  34.92100 50.28600 28.65600
C  33.44100 50.44000 30.74800
C  36.92500 48.78400 31.19500
C  36.95900 48.40400 32.70200
H  35.65600 48.57100 33.42800
N  34.66400 50.68000 25.73100
C  34.43000 51.62000 26.64200
C  34.01700 52.86100 25.99900
C  34.07000 52.62200 24.62500
C  34.42200 51.20700 24.55900
C  33.69600 54.16000 26.75900
C  33.88500 53.61300 23.47800
O  34.02300 53.31400 22.24100
C  33.36800 55.00400 23.79800
N  35.32100 48.16400 24.05900
C  34.89200 49.12100 23.13300
C  35.31000 48.63200 21.71200
C  35.91100 47.22900 22.00700
C  35.82200 47.06700 23.43500
C  34.17000 48.66000 20.70900
C  37.36900 47.27700 21.42800
C  38.68000 47.74000 22.13400
N  36.27800 46.76300 26.25000
C  36.49700 45.76300 25.40000
C  37.05700 44.68400 26.20000
C  36.97700 45.05500 27.51600
C  36.42100 46.31400 27.51900
C  37.61500 43.39900 25.68800
C  37.14600 44.67100 28.85500
O  37.48800 43.65700 29.35600
C  36.48000 45.80700 29.73500
C  35.35900 45.14300 30.42300
O  34.33800 44.62900 29.87400
O  35.49700 45.16200 31.77600
C  34.37200 44.70000 32.50400
H  34.26300 52.36200 28.42100
H  34.25500 50.93500 22.48200
H  36.63400 45.10600 23.30800
H  34.80500 48.09500 31.02700
H  35.48600 50.99700 30.56800
H  33.43700 51.36800 31.32000
H  33.05900 49.70600 31.45800
H  32.73300 50.70400 29.96300
H  37.32500 49.78900 31.05300
H  37.68200 48.18900 30.68400
H  37.66800 48.99300 33.28400
H  37.17300 47.34100 32.81300
H  33.52000 54.02800 27.82700
H  32.74000 54.51700 26.37600
H  34.40400 54.98500 26.68200
H  32.40600 54.90800 24.30200
H  33.20900 55.56500 22.87700
H  33.94800 55.59700 24.50500
H  36.09100 49.32700 21.40200
H  35.41000 46.39800 21.50900
H  33.88700 47.66600 20.36300
H  34.63300 49.15600 19.85500
H  33.35200 49.28400 21.06900
H  37.40100 47.71600 20.43100
H  37.52000 46.21900 21.21200
H  38.44300 47.83100 23.19400
H  39.09600 48.66600 21.73700
H  39.45800 46.98800 22.00500
H  37.35400 42.55900 26.33200
H  38.69200 43.43700 25.52500
H  37.18100 43.16800 24.71500
H  37.18100 46.19000 30.47600
H  33.41900 45.06300 32.12200
H  34.40700 45.16500 33.49000
H  34.38700 43.61400 32.59300

