158

Mg -3.01000 16.49000 26.37800
C  -3.39400 14.28500 29.04100
C  -4.36200 18.91300 28.31100
C  -3.25300 18.50200 23.55800
C  -2.77100 13.71900 24.20800
N  -3.66200 16.52900 28.40800
C  -3.56700 15.56800 29.37900
C  -3.89600 16.10600 30.84700
C  -4.54800 17.47500 30.41700
C  -4.09300 17.68100 28.93700
C  -6.07200 17.42000 30.64800
C  -2.63600 16.28700 31.76100
C  -2.56400 15.38600 32.94700
H  -3.17900 16.01800 34.16600
N  -3.43500 18.43200 26.00900
C  -3.98500 19.28000 26.97200
C  -3.89000 20.64800 26.43900
C  -3.35600 20.58900 25.11700
C  -3.34200 19.10800 24.83100
C  -4.37700 21.85300 27.30100
C  -2.97000 21.69000 24.13500
O  -2.58600 21.41000 22.99900
C  -3.07700 23.09600 24.54800
N  -3.18300 16.16300 24.15200
C  -3.13000 17.15300 23.24100
C  -2.98800 16.63300 21.79800
C  -2.41600 15.17900 22.13500
C  -2.80600 15.00400 23.61100
C  -4.35400 16.58500 20.95600
C  -0.87300 15.05700 21.75000
C  0.09000 15.64100 22.79100
N  -3.00200 14.41700 26.47900
C  -2.94100 13.41300 25.51500
C  -3.04600 12.15100 26.09700
C  -3.15000 12.42200 27.44300
C  -3.20100 13.81600 27.63300
C  -3.13200 10.79500 25.43400
C  -3.24900 11.79200 28.70400
O  -3.07100 10.60500 29.06800
C  -3.53700 12.94000 29.78200
C  -2.51900 12.66200 30.82600
O  -1.37800 13.06600 30.87100
O  -3.04300 11.87800 31.83300
C  -2.11200 11.55100 32.87300
H  -4.72200 19.66000 29.02100
H  -3.11600 19.07100 22.63500
H  -2.59000 12.92200 23.48300
H  -4.64100 15.40500 31.22300
H  -4.21400 18.33500 30.99600
H  -6.34600 17.05300 31.63700
H  -6.68400 17.02600 29.83600
H  -6.35800 18.47100 30.60800
H  -2.63500 17.34500 32.02200
H  -1.74800 16.25900 31.13000
H  -1.50000 15.15800 33.01900
H  -3.10300 14.46500 32.72700
H  -5.14700 21.54700 28.00800
H  -4.88300 22.55800 26.64200
H  -3.58200 22.49400 27.68100
H  -2.51500 23.16800 25.47900
H  -4.10000 23.44300 24.69000
H  -2.69300 23.76400 23.77700
H  -2.34900 17.31200 21.23300
H  -3.09900 14.55700 21.55700
H  -5.09900 16.80600 21.72000
H  -4.77500 15.73600 20.41700
H  -4.37000 17.35900 20.18900
H  -0.73500 15.66500 20.85600
H  -0.62600 14.00400 21.60800
H  -0.45300 16.30100 23.46700
H  0.81600 16.29000 22.30200
H  0.49900 14.77100 23.30400
H  -2.97200 10.96300 24.36900
H  -4.15200 10.48500 25.66200
H  -2.37600 10.14000 25.86800
H  -4.52600 12.78900 30.21500
H  -2.64100 11.62600 33.82300
H  -1.23300 12.15800 33.08900
H  -1.73500 10.54200 32.70700
Mg -0.44900 42.43700 25.91500
C  2.09500 41.97900 28.17400
C  -2.73600 41.52500 28.48500
C  -2.92000 42.48800 23.60300
C  1.87200 42.76300 23.29300
N  -0.31500 41.90600 28.10300
C  0.82500 41.89300 28.80000
C  0.61100 41.71000 30.28600
C  -0.86600 41.29700 30.32900
C  -1.35200 41.61000 28.88200
C  -1.12500 39.80500 30.59200
C  0.79200 43.03900 31.06400
C  0.89700 42.96000 32.54800
H  0.36000 41.76100 33.21100
N  -2.53400 42.02900 26.06000
C  -3.31000 41.83200 27.24100
C  -4.70000 41.81400 26.79400
C  -4.75800 42.20300 25.42100
C  -3.34000 42.23300 24.93500
C  -5.81800 41.49000 27.78000
C  -6.03500 42.36800 24.51600
O  -5.91900 42.65500 23.27900
C  -7.45200 42.29400 25.11700
N  -0.51000 42.58000 23.73800
C  -1.65000 42.52300 23.01200
C  -1.45200 42.80300 21.47600
C  0.10900 43.06300 21.47400
C  0.53500 42.73000 22.91500
C  -1.98900 41.60400 20.71600
C  0.57700 44.53700 21.06900
C  -0.10400 45.73900 21.88700
N  1.54800 42.39200 25.75700
C  2.37000 42.52100 24.60500
C  3.72200 42.42100 25.02800
C  3.70900 42.17600 26.44500
C  2.35700 42.30100 26.78500
C  4.97700 42.59500 24.12300
C  4.48000 41.84400 27.62100
O  5.63900 41.56300 27.74100
C  3.51000 41.94000 28.82100
C  3.73600 40.75800 29.75100
O  3.23300 39.71600 29.65300
O  4.58700 41.12800 30.77700
C  4.84700 40.28800 31.94100
H  -3.33300 41.44500 29.39500
H  -3.61000 42.63500 22.77000
H  2.67900 42.82500 22.55900
H  1.19300 40.84400 30.59900
H  -1.46300 41.88000 31.03000
H  -1.74700 39.78500 31.48700
H  -0.19100 39.33200 30.89700
H  -1.75800 39.23900 29.90900
H  -0.12000 43.61500 30.90600
H  1.64400 43.45800 30.52800
H  0.49800 43.85300 33.03000
H  1.96900 42.96200 32.75000
H  -5.61800 40.92300 28.68900
H  -6.58800 40.90600 27.27600
H  -6.23200 42.44800 28.09300
H  -8.13900 42.79300 24.43400
H  -7.36000 42.92600 26.00000
H  -7.74800 41.25900 25.29000
H  -1.91500 43.67400 21.01200
H  0.63600 42.41700 20.77100
H  -2.88100 41.87700 20.15200
H  -2.14500 40.70500 21.31200
H  -1.26600 41.41300 19.92300
H  0.42400 44.66300 19.99800
H  1.63300 44.71200 21.27400
H  -0.71700 46.42400 21.30000
H  0.76300 46.27600 22.27200
H  -0.71500 45.28800 22.66900
H  4.92400 43.58800 23.67700
H  4.92600 41.90100 23.28400
H  5.92000 42.47100 24.65600
H  3.73000 42.89500 29.29900
H  4.43300 40.75800 32.83400
H  5.91900 40.09300 31.96500
H  4.43500 39.29000 31.79000

