158

Mg 16.56300 -1.91200 28.41600
C  15.38600 0.09700 31.12000
C  18.92700 -3.27100 30.67800
C  17.99600 -3.45900 25.86800
C  14.47200 -0.18600 26.30900
N  17.12200 -1.52800 30.63000
C  16.36600 -0.83400 31.47800
C  16.76200 -1.15500 32.91700
C  18.09500 -1.98100 32.84600
C  18.04500 -2.29700 31.30200
C  19.39500 -1.22600 33.25000
C  15.58800 -1.83900 33.67800
C  15.60200 -1.68300 35.19800
H  16.85200 -1.36200 35.99900
N  18.09800 -3.29300 28.33700
C  18.93600 -3.71700 29.31400
C  19.73500 -4.84000 28.76700
C  19.50100 -4.90300 27.39700
C  18.44700 -3.91200 27.11900
C  20.75200 -5.55700 29.56700
C  20.13900 -5.91200 26.31300
O  19.83000 -5.78000 25.17100
C  21.10700 -6.98000 26.69000
N  16.37800 -1.69100 26.44100
C  17.04500 -2.49300 25.51500
C  16.63000 -2.23700 24.03500
C  15.42500 -1.41100 24.31100
C  15.39000 -1.11400 25.81200
C  17.77200 -1.63700 23.17800
C  14.04300 -1.87900 23.71100
C  13.09800 -0.89800 22.94900
N  15.19900 -0.27700 28.59400
C  14.33000 0.17800 27.68800
C  13.44500 1.16000 28.26900
C  13.82800 1.17500 29.67500
C  14.96900 0.31400 29.77100
C  12.36800 1.92500 27.54400
C  13.49400 1.68500 30.99100
O  12.59200 2.43700 31.34600
C  14.54800 1.05900 31.97600
C  15.33200 2.09400 32.75100
O  16.06200 3.00500 32.24300
O  15.16500 2.05900 34.16000
C  15.91900 2.99700 35.07200
H  19.71800 -3.66800 31.31700
H  18.34300 -3.98400 24.97500
H  13.80400 0.28000 25.58100
H  16.93900 -0.19600 33.40400
H  17.92500 -2.93700 33.34100
H  20.06400 -1.53500 32.44700
H  19.55700 -1.70300 34.21600
H  19.33200 -0.14000 33.18500
H  15.73100 -2.89000 33.42600
H  14.72100 -1.56300 33.07900
H  15.21300 -2.57400 35.69100
H  14.89800 -0.87600 35.39800
H  20.89900 -5.18500 30.58100
H  21.76700 -5.58300 29.17100
H  20.32300 -6.53600 29.78000
H  21.26400 -7.61800 25.82100
H  20.60900 -7.66500 27.37600
H  22.06600 -6.55200 26.98300
H  16.39500 -3.23400 23.66100
H  15.59300 -0.39700 23.94700
H  17.71000 -0.55000 23.22800
H  17.60100 -1.84800 22.12300
H  18.78300 -1.89000 23.49900
H  13.50700 -2.21800 24.59800
H  14.26200 -2.70100 23.02900
H  12.04900 -0.91200 23.24400
H  13.09500 -1.15500 21.89000
H  13.56500 0.07800 23.08000
H  12.02600 1.40900 26.64700
H  12.73300 2.88800 27.18900
H  11.60100 2.01800 28.31300
H  14.02200 0.53400 32.77400
H  16.35300 2.42300 35.89000
H  15.16200 3.71600 35.38700
H  16.74600 3.53600 34.61100
Mg 17.09700 53.14900 25.91600
C  19.10100 51.61100 28.34900
C  14.88100 54.11500 28.47900
C  15.09500 54.32200 23.60900
C  19.31900 51.86100 23.55100
N  17.03500 52.83300 28.16300
C  18.06700 52.32100 28.93700
C  17.83200 52.64700 30.40900
C  16.33300 53.18400 30.40800
C  16.05500 53.44500 28.91200
C  15.24400 52.15400 30.98400
C  18.89900 53.50100 31.00700
C  18.82900 53.53500 32.51300
H  17.95300 52.59900 33.32800
N  15.27700 54.12700 25.93300
C  14.47600 54.32400 27.06500
C  13.32600 55.04500 26.60800
C  13.38700 55.14500 25.19400
C  14.63000 54.52800 24.87300
C  12.31900 55.57700 27.57500
C  12.48000 55.87500 24.23100
O  12.69400 55.92300 23.01000
C  11.20600 56.59600 24.75200
N  17.20000 53.11000 23.84800
C  16.19800 53.63100 23.11800
C  16.46900 53.39000 21.58100
C  18.02500 52.96200 21.63000
C  18.20400 52.59700 23.09500
C  15.58000 52.41100 20.86400
C  18.99600 54.11200 21.14700
C  20.33300 53.59600 20.45900
N  18.75000 51.84800 25.88200
C  19.59100 51.46000 24.82600
C  20.76500 50.67200 25.27200
C  20.52700 50.65300 26.64500
C  19.34900 51.40700 26.96800
C  21.82500 50.10000 24.45600
C  21.16900 50.15800 27.89100
O  22.21700 49.51900 28.09500
C  20.23700 50.88300 29.00000
C  19.87700 49.71600 29.82100
O  19.25600 48.76300 29.41700
O  20.28700 49.89400 31.13100
C  19.73200 48.82300 32.02400
H  14.12600 54.31400 29.24200
H  14.39000 54.44600 22.78500
H  20.01900 51.58500 22.76000
H  17.81300 51.70400 30.95400
H  16.31500 54.12700 30.95300
H  14.97300 52.46600 31.99300
H  15.69700 51.17100 31.11500
H  14.33300 52.12300 30.38700
H  18.82500 54.55200 30.72600
H  19.92800 53.33100 30.69000
H  18.75900 54.57200 32.84200
H  19.81500 53.25200 32.88200
H  11.33300 55.28200 27.21600
H  12.51300 56.64600 27.65800
H  12.29700 55.18300 28.59100
H  10.86100 57.39400 24.09400
H  11.40000 57.25200 25.60100
H  10.33200 55.94600 24.74500
H  16.27800 54.34400 21.09000
H  18.42600 52.03900 21.21100
H  15.05300 51.75800 21.56000
H  16.22900 51.82500 20.21300
H  14.83000 52.94100 20.27600
H  19.24100 54.72600 22.01400
H  18.38200 54.71100 20.47600
H  20.14500 53.92500 19.43800
H  20.39400 52.50900 20.52600
H  21.12800 54.15000 20.95900
H  21.57200 50.07000 23.39600
H  21.88900 49.12300 24.93500
H  22.76700 50.64400 24.52600
H  20.84800 51.60500 29.54200
H  19.99100 47.81700 31.69200
H  18.65400 48.85800 32.17900
H  20.22300 48.75900 32.99500

