158

Mg 24.08300 -4.68400 45.58600
C  26.24700 -2.40100 44.23200
C  21.51100 -3.54400 43.37300
C  22.23800 -7.46000 46.15400
C  26.67000 -5.99300 47.43500
N  24.01200 -3.27900 43.90800
C  25.06500 -2.37200 43.56000
C  24.65000 -1.33400 42.53100
C  23.09500 -1.59800 42.47200
C  22.85100 -2.89200 43.28600
C  22.20000 -0.39700 42.85200
C  25.40200 -1.54700 41.15700
C  25.24800 -0.46600 40.16600
H  24.59900 -0.79500 38.76900
N  22.16000 -5.39200 44.88700
C  21.30100 -4.79400 43.99000
C  20.11900 -5.53000 43.82300
C  20.32700 -6.73200 44.62200
C  21.63100 -6.59200 45.30800
C  18.88300 -5.05400 42.89000
C  19.24800 -7.83900 44.70200
O  18.10200 -7.79000 44.16200
C  19.42400 -9.11100 45.53400
N  24.48500 -6.55700 46.55100
C  23.49600 -7.45100 46.78200
C  23.98400 -8.64200 47.60600
C  25.42400 -8.02000 48.19300
C  25.49400 -6.72000 47.41400
C  22.95200 -8.98200 48.69600
C  26.65400 -8.96100 48.01500
C  26.49600 -10.44100 48.44800
N  26.01600 -4.26500 45.92100
C  26.93700 -4.90000 46.65900
C  28.16200 -4.13300 46.64200
C  27.89800 -3.08700 45.75400
C  26.60600 -3.33400 45.23800
C  29.41300 -4.46000 47.34900
C  28.45700 -1.86700 45.09900
O  29.49900 -1.26400 45.19600
C  27.38600 -1.47200 44.05400
C  27.23500 0.00500 44.08900
O  26.74600 0.55400 45.06400
O  27.71300 0.70600 42.97900
C  27.50200 2.13900 42.93800
H  20.69700 -3.22400 42.72000
H  21.64100 -8.34600 46.38000
H  27.62800 -6.23300 47.90000
H  24.80300 -0.29900 42.83600
H  22.86300 -1.84400 41.43600
H  21.69800 -0.50800 43.81300
H  21.44200 -0.35200 42.07000
H  22.66900 0.58700 42.83200
H  25.06600 -2.44500 40.63800
H  26.42400 -1.73900 41.48300
H  26.27200 -0.15300 39.96400
H  24.74600 0.31800 40.73400
H  18.23900 -5.78300 42.39800
H  19.23800 -4.36700 42.12100
H  18.15000 -4.56400 43.53000
H  18.59200 -9.80800 45.43200
H  19.54100 -8.97800 46.61000
H  20.30400 -9.68800 45.25300
H  24.13800 -9.54000 47.00600
H  25.44300 -7.80300 49.26100
H  23.46000 -8.68600 49.61400
H  22.69800 -10.03500 48.56900
H  21.99800 -8.47100 48.56500
H  27.49200 -8.58900 48.60500
H  26.89400 -8.77500 46.96800
H  25.49800 -10.69200 48.80700
H  27.27100 -10.68700 49.17500
H  26.58200 -11.10300 47.58600
H  29.25000 -4.68000 48.40400
H  30.16500 -3.67900 47.24600
H  29.77400 -5.37000 46.86900
H  27.84300 -1.65400 43.08100
H  26.46900 2.46600 42.81900
H  27.94500 2.55500 42.03300
H  27.95500 2.66300 43.77900
Mg -10.37300 17.43700 40.58200
C  -6.97300 17.03200 40.82900
C  -9.86700 20.87600 39.88300
C  -13.57500 17.64600 39.50300
C  -10.52900 13.88100 40.28400
N  -8.55900 18.80800 40.39700
C  -7.30600 18.41800 40.63400
C  -6.36300 19.61200 40.48100
C  -7.37500 20.87400 40.58800
C  -8.64800 20.17800 40.27000
C  -7.40000 21.61800 41.99900
C  -5.82500 19.52200 38.93000
C  -4.32300 19.39600 38.75800
H  -3.88500 18.59600 37.58300
N  -11.54500 19.07700 40.07000
C  -11.20000 20.38800 39.75400
C  -12.27400 21.02300 39.20900
C  -13.43600 20.18400 39.39800
C  -12.87900 18.85700 39.63400
C  -12.30700 22.48400 38.74800
C  -14.88000 20.71200 39.40100
O  -15.17900 21.89200 39.07100
C  -16.03700 19.82100 39.75000
N  -11.72400 16.03300 39.89300
C  -12.98700 16.33800 39.64000
C  -13.83600 15.03700 39.28700
C  -12.89600 13.85400 39.50200
C  -11.62200 14.61700 39.90400
C  -15.09300 15.00100 40.20500
C  -12.59500 13.04400 38.21600
C  -13.83400 12.53400 37.48700
N  -9.10700 15.68200 40.70800
C  -9.32300 14.34000 40.55800
C  -8.03800 13.61900 40.86500
C  -7.02900 14.69500 40.94900
C  -7.75600 15.89300 40.91600
C  -7.73100 12.13800 40.86000
C  -5.61100 14.91700 41.11400
O  -4.70200 14.13800 41.28800
C  -5.55600 16.51900 41.03500
C  -4.94400 16.99900 42.27600
O  -4.10600 17.89400 42.30500
O  -5.39600 16.31800 43.37300
C  -4.77100 16.72600 44.67700
H  -9.77000 21.95200 39.72400
H  -14.62100 17.66600 39.18900
H  -10.77400 12.81700 40.30100
H  -5.57600 19.62600 41.23500
H  -7.23700 21.60200 39.78900
H  -6.50300 21.23400 42.48400
H  -8.30200 21.22100 42.46400
H  -7.33800 22.70400 41.93100
H  -6.03100 20.44800 38.39400
H  -6.34400 18.70300 38.43200
H  -3.78200 19.20500 39.68500
H  -3.97300 20.40800 38.55800
H  -12.97100 22.63600 37.89700
H  -11.33000 22.76100 38.35200
H  -12.54600 23.20100 39.53300
H  -16.89800 20.40200 40.07900
H  -15.72700 19.05800 40.46500
H  -16.35300 19.39500 38.79800
H  -14.09100 15.15600 38.23400
H  -13.25300 13.14300 40.24600
H  -15.15700 15.95400 40.72900
H  -15.02700 14.23900 40.98200
H  -15.99300 14.87300 39.60300
H  -12.03800 12.19000 38.60000
H  -11.90000 13.56500 37.55700
H  -14.71700 12.96200 37.96200
H  -13.80300 11.44600 37.42600
H  -13.82400 12.90300 36.46200
H  -6.81300 11.98800 41.42900
H  -7.54200 11.89700 39.81400
H  -8.62500 11.58800 41.15300
H  -4.86900 16.82700 40.24700
H  -5.37200 17.52800 45.10600
H  -3.76800 17.12000 44.51000
H  -4.72600 15.88600 45.37000

