158

Mg 34.83700 49.31300 25.04600
C  34.90600 47.52200 28.07000
C  32.93200 51.81000 26.69900
C  34.72100 51.10300 22.31300
C  36.19500 46.55100 23.42400
N  34.06900 49.67700 27.10100
C  34.37500 48.87700 28.20100
C  34.09600 49.57600 29.52800
C  33.24200 50.77800 29.07600
C  33.46800 50.78600 27.53500
C  31.76800 50.70800 29.37300
C  35.35700 49.75100 30.43800
C  35.20700 49.50000 31.90900
H  33.75700 49.44000 32.46800
N  33.90600 51.21100 24.52200
C  33.16000 52.03800 25.34500
C  32.79900 53.19100 24.60600
C  33.37100 52.97800 23.30100
C  33.96800 51.70500 23.34100
C  32.11500 54.30400 25.20200
C  33.24800 53.84000 22.01900
O  33.77600 53.64500 20.90300
C  32.32200 54.99800 22.13800
N  35.42900 48.87400 23.14400
C  35.28500 49.81800 22.20300
C  35.58900 49.13700 20.85500
C  36.28300 47.77300 21.22600
C  35.93800 47.71700 22.63500
C  34.32500 49.07200 19.91600
C  37.82200 47.60100 20.88300
C  38.83500 48.12800 21.89300
N  35.40500 47.45600 25.60200
C  36.03600 46.41400 24.83100
C  36.24800 45.22900 25.67700
C  35.79300 45.65900 26.94900
C  35.39300 47.01100 26.85700
C  36.72600 43.90600 25.28500
C  35.55200 45.17800 28.21700
O  35.71600 44.09000 28.66800
C  35.09100 46.38900 29.11000
C  33.85100 45.91100 29.79700
O  32.79400 45.70800 29.24000
O  34.06600 45.74700 31.08700
C  32.92600 45.37000 31.87600
H  32.37900 52.60500 27.20300
H  34.79600 51.63500 21.36300
H  36.63700 45.77000 22.80200
H  33.41200 48.85000 29.96700
H  33.57100 51.75300 29.43600
H  31.58400 49.85600 30.02800
H  31.02700 50.58300 28.58400
H  31.53700 51.59600 29.96100
H  35.80400 50.70100 30.14300
H  36.05700 49.00900 30.05400
H  35.80700 50.29700 32.34800
H  35.53700 48.46500 32.00600
H  32.51200 55.28100 24.92600
H  31.93900 54.28500 26.27800
H  31.03800 54.30600 25.03100
H  31.41000 54.77600 22.69100
H  32.00900 55.34600 21.15400
H  32.83300 55.83500 22.61400
H  36.30400 49.79300 20.35800
H  35.73100 47.05100 20.62500
H  34.39000 49.75900 19.07300
H  33.43800 49.29100 20.51200
H  34.26800 48.06600 19.50000
H  37.82200 48.13800 19.93400
H  37.99800 46.53000 20.78800
H  39.38500 48.97200 21.47500
H  39.53200 47.34500 22.19000
H  38.31800 48.56600 22.74700
H  36.08300 43.39500 24.56800
H  36.80500 43.22900 26.13500
H  37.73300 44.01200 24.88100
H  35.83600 46.65900 29.85900
H  32.65600 44.36300 31.55600
H  32.12500 46.10600 31.80500
H  33.34300 45.49300 32.87500
Mg -5.75500 24.90000 27.33800
C  -4.09800 26.83900 29.76400
C  -6.54500 22.74500 29.82900
C  -7.23700 22.97100 24.96900
C  -4.54700 26.99400 24.77400
N  -5.34900 24.96000 29.56400
C  -4.71000 25.80400 30.34100
C  -4.75800 25.41500 31.84800
C  -5.56600 24.06200 31.79000
C  -5.88800 23.94600 30.28900
C  -4.99000 22.76300 32.35300
C  -5.27900 26.51400 32.84700
C  -6.43400 26.26800 33.69300
H  -6.19000 25.35400 34.85700
N  -6.72000 23.10000 27.34100
C  -6.90500 22.35600 28.49300
C  -7.54600 21.09900 28.13200
C  -7.74300 21.14600 26.66400
C  -7.28600 22.45100 26.20100
C  -7.90700 19.97800 29.20000
C  -8.33700 20.10100 25.72200
O  -8.52000 20.24900 24.52500
C  -8.50800 18.69900 26.27000
N  -5.80200 24.99800 25.11700
C  -6.59600 24.09100 24.44300
C  -6.87400 24.63100 23.02600
C  -5.89400 25.88900 22.90100
C  -5.34600 25.95500 24.32000
C  -6.58700 23.64100 21.92400
C  -6.64200 27.24000 22.41700
C  -6.22400 27.77300 21.04400
N  -4.47200 26.54600 27.17200
C  -4.01700 27.25000 26.13200
C  -3.13500 28.25600 26.56800
C  -3.13400 28.14800 27.98800
C  -3.91200 27.06400 28.34400
C  -2.44300 29.25900 25.65200
C  -2.68600 28.72100 29.23600
O  -2.09300 29.72400 29.43500
C  -3.22200 27.86700 30.41200
C  -2.15200 27.22700 31.14700
O  -1.46300 26.25400 30.86200
O  -2.00600 27.87000 32.39300
C  -0.80400 27.48800 33.18100
H  -6.84900 22.06500 30.62800
H  -7.75900 22.37200 24.21900
H  -4.25700 27.54800 23.87800
H  -3.73700 25.15600 32.12600
H  -6.57700 24.15000 32.19000
H  -5.78200 22.26400 32.91200
H  -4.12700 22.93100 32.99900
H  -4.57600 22.08300 31.60900
H  -5.39900 27.46100 32.32200
H  -4.48700 26.63200 33.58700
H  -7.27000 25.81500 33.15900
H  -6.83000 27.24000 33.98700
H  -8.90700 19.62600 28.94700
H  -8.04400 20.38800 30.20100
H  -7.18600 19.16200 29.16600
H  -7.53400 18.35600 26.61800
H  -8.88500 18.07800 25.45800
H  -9.37800 18.64700 26.92400
H  -7.91100 24.96600 23.03600
H  -5.11000 25.64300 22.18500
H  -6.49400 22.62300 22.30200
H  -5.89900 23.89300 21.11700
H  -7.52400 23.55000 21.37400
H  -6.32400 28.02800 23.10000
H  -7.73100 27.20900 22.40500
H  -5.79900 26.94800 20.47300
H  -5.39800 28.46200 21.21900
H  -7.09600 28.07800 20.46500
H  -2.89800 29.11100 24.67200
H  -1.40600 29.00800 25.43200
H  -2.57000 30.30700 25.92300
H  -3.78100 28.49100 31.11000
H  -0.82700 28.14400 34.05100
H  0.08200 27.68500 32.57600
H  -0.83900 26.41200 33.35200

