158

Mg 9.51600 3.57100 27.57200
C  10.53200 1.84300 30.38100
C  7.61200 5.62000 29.68600
C  8.04900 4.91000 24.80800
C  10.88700 1.03800 25.52800
N  9.12600 3.72500 29.81300
C  9.64900 2.89100 30.75200
C  9.51600 3.53400 32.13700
C  8.54100 4.72600 31.82900
C  8.40800 4.72100 30.40500
C  7.13400 4.76100 32.48200
C  10.85300 4.08000 32.82200
C  10.59700 4.88200 34.06900
H  11.37500 4.26000 35.28600
N  8.29100 5.18600 27.28000
C  7.54800 5.85500 28.30700
C  6.73800 6.88500 27.64200
C  6.90100 6.74900 26.24400
C  7.81800 5.60100 26.02300
C  5.87200 7.79100 28.42400
C  6.30500 7.52600 25.09100
O  6.69000 7.42200 23.88800
C  5.30000 8.53400 25.44900
N  9.37900 2.99600 25.42500
C  8.78400 3.70500 24.55500
C  8.82300 2.94200 23.16500
C  9.95400 1.99000 23.38000
C  10.09400 1.96200 24.82300
C  7.44800 2.32500 22.79500
C  11.30300 2.39600 22.68800
C  12.07900 1.31500 22.02200
N  10.54500 1.82200 27.83600
C  11.07000 0.91100 26.94600
C  11.61100 -0.22800 27.63800
C  11.58000 0.17600 29.00800
C  10.85500 1.36700 29.04100
C  12.15000 -1.50000 27.10600
C  11.91400 -0.20400 30.37400
O  12.63100 -1.13500 30.76900
C  11.28000 0.87800 31.28000
C  10.44600 0.24400 32.39900
O  9.49600 -0.51000 32.27100
O  10.82900 0.74700 33.60900
C  10.07400 0.15600 34.76200
H  7.09300 6.35500 30.30400
H  7.34000 5.26400 24.05700
H  11.48600 0.31800 24.96700
H  9.11100 2.83400 32.86900
H  9.09400 5.65300 31.98300
H  6.55700 4.25100 31.71100
H  6.76700 5.76100 32.71000
H  6.97700 4.18500 33.39400
H  11.45300 4.61700 32.08700
H  11.52800 3.26200 33.07200
H  9.53400 4.89400 34.30800
H  10.99400 5.89500 33.99900
H  5.67400 7.63200 29.48400
H  4.89900 7.87400 27.94000
H  6.31300 8.78600 28.36900
H  5.73300 9.22100 26.17600
H  4.45100 7.98100 25.85200
H  4.88100 8.99600 24.55500
H  9.13700 3.77400 22.53400
H  9.82600 0.93600 23.13300
H  6.69700 2.30300 23.58400
H  7.71300 1.29700 22.54700
H  7.15000 2.84200 21.88300
H  11.99600 2.76100 23.44600
H  11.15300 3.19600 21.96300
H  11.41800 0.86000 21.28400
H  12.47400 0.63000 22.77200
H  12.96500 1.74000 21.54900
H  12.97100 -1.77600 27.76700
H  12.51800 -1.47000 26.08100
H  11.37400 -2.26100 27.19700
H  12.12500 1.39100 31.74000
H  10.28000 -0.91400 34.75400
H  9.00200 0.32800 34.85500
H  10.55800 0.53600 35.66200
Mg 8.45600 47.71400 28.55300
C  6.97400 47.19000 31.55500
C  11.49000 48.28200 30.25700
C  9.92800 48.67200 25.65600
C  5.42700 47.98100 27.14900
N  9.11100 47.94200 30.69500
C  8.32000 47.61400 31.73300
C  9.07500 47.89900 33.04300
C  10.41600 48.57200 32.62400
C  10.36900 48.26300 31.13200
C  10.48200 50.09000 32.80100
C  9.17700 46.76000 34.02500
C  8.74700 46.89900 35.50100
H  8.86000 45.66400 36.44400
N  10.42500 48.12700 28.00600
C  11.59100 48.20200 28.78700
C  12.73600 48.35800 27.93900
C  12.32400 48.52300 26.60800
C  10.78300 48.46400 26.72700
C  14.15600 48.26100 28.44300
C  13.09300 48.54200 25.26900
O  12.50000 48.42100 24.18300
C  14.57000 48.58700 25.25800
N  7.73100 48.47800 26.73200
C  8.48900 48.69800 25.58700
C  7.61600 48.79600 24.28100
C  6.21800 48.76500 24.91200
C  6.43400 48.36300 26.35400
C  7.95100 50.03700 23.38300
C  5.19100 47.90800 24.18400
C  3.69000 48.43300 24.32500
N  6.63400 47.58400 29.14200
C  5.40900 47.67400 28.49800
C  4.30900 47.29900 29.28500
C  4.86500 47.10500 30.50900
C  6.25900 47.23900 30.34400
C  2.80800 47.15000 28.84700
C  4.55300 46.79200 31.90500
O  3.49200 46.48000 32.42400
C  5.95300 46.81600 32.64700
C  6.12400 45.46800 33.23400
O  6.69300 44.52500 32.71400
O  5.42800 45.51100 34.41900
C  5.46600 44.33500 35.25900
H  12.42000 48.49900 30.78800
H  10.37800 48.96200 24.70400
H  4.41900 47.91800 26.73400
H  8.40400 48.57700 33.57100
H  11.25600 48.06000 33.09300
H  10.38000 50.50000 31.79700
H  11.43600 50.50000 33.13400
H  9.64600 50.51900 33.35300
H  10.23700 46.52900 34.13100
H  8.72800 45.85000 33.62600
H  7.74600 47.31700 35.61200
H  9.42000 47.65700 35.90200
H  14.52400 47.31300 28.05100
H  14.07200 48.14500 29.52400
H  14.82200 49.10700 28.27400
H  14.85900 47.56700 25.51200
H  14.88900 49.37300 25.94300
H  15.02300 48.73100 24.27800
H  7.98200 47.93100 23.72700
H  5.78600 49.76500 24.90200
H  8.65000 50.68200 23.91400
H  7.01100 50.49500 23.07500
H  8.33000 49.56200 22.47800
H  5.21100 46.94000 24.68600
H  5.34200 47.65000 23.13600
H  3.35000 48.61200 23.30500
H  3.50500 49.28400 24.98000
H  3.02100 47.72700 24.81800
H  2.41300 48.14500 28.63900
H  2.18000 46.68200 29.60400
H  2.77800 46.68800 27.86000
H  5.86900 47.49800 33.49300
H  5.91300 43.42300 34.86600
H  4.49200 43.97500 35.59300
H  5.92300 44.57700 36.21900

