158

Mg 29.29900 58.30300 40.20600
C  27.59700 55.30900 39.44800
C  32.24800 56.69600 39.51300
C  30.76700 61.17400 40.60900
C  26.07500 59.90300 40.22200
N  29.81600 56.30400 39.41800
C  28.94000 55.20100 39.24300
C  29.72300 54.00000 38.58400
C  31.18700 54.47900 38.77900
C  31.10100 55.92400 39.29400
C  32.14300 53.53500 39.55400
C  29.19700 53.72400 37.08900
C  29.14300 54.94000 36.11100
H  27.82100 55.50800 35.64500
N  31.27100 58.90700 40.18700
C  32.31700 58.09100 39.92700
C  33.50000 58.92700 39.93600
C  33.14900 60.25600 40.19000
C  31.66700 60.17200 40.34800
C  34.90000 58.42600 39.58400
C  34.10600 61.49800 40.21200
O  35.27400 61.34700 40.06500
C  33.63400 62.91200 40.39200
N  28.55500 60.21000 40.18800
C  29.40000 61.17300 40.55900
C  28.66100 62.46300 40.91800
C  27.24700 62.18600 40.30400
C  27.27500 60.63300 40.28300
C  28.73000 62.90200 42.46300
C  26.92900 62.76800 38.86600
C  25.48700 63.25600 38.61000
N  27.14800 57.74200 39.85700
C  25.99700 58.48700 40.03500
C  24.85100 57.57900 40.00500
C  25.39100 56.28500 39.86300
C  26.80300 56.45400 39.71400
C  23.41600 57.88100 40.34500
C  25.12900 54.89600 39.74400
O  24.11100 54.24200 39.81400
C  26.54100 54.16000 39.47700
C  26.89200 53.24600 40.59600
O  27.09000 52.07900 40.48100
O  27.05900 53.96500 41.72500
C  27.66700 53.27000 42.85300
H  33.22200 56.20500 39.44400
H  31.21600 62.13100 40.88100
H  25.15700 60.49500 40.21900
H  29.56000 53.11400 39.19800
H  31.58800 54.46300 37.76500
H  31.73400 52.52500 39.58600
H  32.17400 53.99600 40.54100
H  33.19300 53.55500 39.26100
H  28.25400 53.18000 37.03600
H  29.88900 52.93500 36.79400
H  29.77300 54.73700 35.24500
H  29.59300 55.83700 36.53900
H  35.27600 59.03000 38.75800
H  34.97900 57.34600 39.46000
H  35.50400 58.78000 40.42000
H  33.37600 62.99100 41.44800
H  32.90600 63.05200 39.59300
H  34.44500 63.61800 40.21100
H  29.14000 63.23500 40.31600
H  26.45200 62.44600 41.00200
H  27.72000 63.15500 42.78400
H  29.28800 63.82700 42.60400
H  28.94500 62.04300 43.10000
H  27.31800 62.00500 38.19200
H  27.56000 63.65000 38.75800
H  25.06400 62.62800 37.82600
H  25.51200 64.25500 38.17400
H  24.85000 63.30500 39.49300
H  22.76900 57.67500 39.49200
H  23.18500 58.86700 40.74800
H  23.15300 57.23300 41.18100
H  26.38300 53.55900 38.58200
H  27.41000 52.23700 43.08900
H  27.46100 53.70500 43.83100
H  28.74600 53.25800 42.69800
Mg 6.90100 54.12300 40.91000
C  6.55400 50.53000 40.52200
C  10.24100 53.61700 40.09900
C  7.20600 57.38800 40.25800
C  3.52400 54.34300 41.18400
N  8.19700 52.27600 40.35700
C  7.83300 50.95100 40.18900
C  9.08300 50.10200 39.72500
C  10.25900 51.06500 40.08700
C  9.56300 52.47200 40.15000
C  11.08400 50.73000 41.36600
C  8.98500 49.55200 38.26000
C  8.14400 50.25500 37.14900
H  7.25100 49.38100 36.13100
N  8.58800 55.40700 40.42700
C  9.87100 54.99400 40.17600
C  10.64700 56.18400 39.98400
C  9.77800 57.30100 39.96100
C  8.48900 56.74400 40.28800
C  12.17300 56.08200 39.76500
C  10.15000 58.77600 39.63700
O  11.30700 59.03800 39.36800
C  9.29100 59.86100 39.62100
N  5.56900 55.54900 40.55200
C  5.92900 56.89300 40.47600
C  4.69100 57.74500 40.59600
C  3.64600 56.90800 41.30200
C  4.27700 55.51700 41.04300
C  4.95900 59.19700 41.26100
C  2.24000 57.08600 40.72700
C  1.15800 57.41100 41.71200
N  5.34000 52.70100 40.89200
C  3.94200 52.97600 41.04700
C  3.22900 51.73900 41.18900
C  4.26100 50.76500 41.05000
C  5.47500 51.36700 40.83200
C  1.79600 51.58000 41.50600
C  4.49400 49.28600 41.06700
O  3.77400 48.38000 41.31000
C  5.99900 49.14300 40.65600
C  5.83400 48.43200 39.34700
O  5.45600 49.03000 38.32200
O  5.98300 47.10200 39.48300
C  5.67600 46.29800 38.29400
H  11.30800 53.44000 39.94200
H  7.28800 58.42700 39.93200
H  2.45500 54.40900 41.39300
H  9.09700 49.19000 40.32200
H  10.96800 51.12100 39.26100
H  10.67000 49.86500 41.88300
H  10.96500 51.61900 41.98600
H  12.10700 50.47900 41.08400
H  8.70400 48.50100 38.32800
H  9.98000 49.49300 37.81900
H  8.82200 50.83700 36.52600
H  7.48800 51.01000 37.58200
H  12.73400 56.69600 40.46900
H  12.44200 56.30800 38.73300
H  12.47900 55.03600 39.77100
H  9.77100 60.79600 39.33300
H  8.80700 60.02500 40.58300
H  8.54500 59.79000 38.82900
H  4.44700 57.91500 39.54800
H  3.64600 57.16300 42.36200
H  4.16400 59.32100 41.99600
H  5.02200 59.93500 40.46100
H  5.84400 59.26900 41.89300
H  1.93800 56.19400 40.17700
H  2.12100 57.89300 40.00400
H  0.75200 58.42200 41.71800
H  1.48400 57.20300 42.73200
H  0.32400 56.74900 41.48100
H  1.27400 51.76200 40.56600
H  1.49800 52.29200 42.27500
H  1.46300 50.57600 41.76900
H  6.53800 48.60800 41.43700
H  6.43600 46.40800 37.52000
H  4.74900 46.51500 37.76300
H  5.61100 45.27300 38.66000

