158

Mg -1.89500 16.80300 25.54100
C  -2.35800 14.32400 28.07600
C  -2.68400 19.12500 27.87600
C  -1.91700 18.96800 23.01700
C  -1.69900 14.12500 23.17800
N  -2.34400 16.69900 27.77200
C  -2.43300 15.63100 28.62900
C  -2.82800 16.07200 30.02100
C  -2.94400 17.64700 29.91300
C  -2.65000 17.85500 28.42500
C  -4.20000 18.36100 30.37900
C  -1.89300 15.56800 31.13500
C  -1.84200 16.32600 32.45100
H  -1.44500 15.47700 33.68100
N  -2.32000 18.79600 25.40800
C  -2.53100 19.58500 26.53100
C  -2.53800 20.92000 25.97800
C  -2.48100 20.87200 24.51600
C  -2.24000 19.49600 24.24700
C  -2.86300 22.06400 26.95100
C  -2.66200 21.99800 23.51900
O  -2.50500 21.85700 22.32600
C  -2.70600 23.49700 24.12600
N  -1.87300 16.53900 23.39300
C  -1.77600 17.67700 22.59000
C  -1.62100 17.19200 21.13900
C  -1.41700 15.71300 21.26500
C  -1.73500 15.45300 22.67600
C  -2.73000 17.69900 20.16600
C  -0.02800 15.08900 20.81500
C  1.09800 15.54300 21.73300
N  -2.03600 14.64400 25.57300
C  -2.00300 13.76600 24.50000
C  -2.16400 12.41900 24.96500
C  -2.20000 12.55100 26.40100
C  -2.12300 13.92600 26.69100
C  -2.35200 11.13900 24.31200
C  -2.31200 11.88100 27.58300
O  -2.55600 10.68800 27.79700
C  -2.20400 12.93300 28.73300
C  -0.94700 12.80300 29.45800
O  0.08700 13.46100 29.25500
O  -1.06500 11.82400 30.36700
C  -0.07100 11.79900 31.44500
H  -2.83800 19.94900 28.57600
H  -1.83100 19.70100 22.21200
H  -1.74600 13.27700 22.49100
H  -3.80400 15.75200 30.38600
H  -2.12800 18.06500 30.50300
H  -4.66300 18.84300 29.51900
H  -3.90100 19.08400 31.13900
H  -5.02300 17.74500 30.74200
H  -0.93400 15.58800 30.61700
H  -2.15900 14.54400 31.39500
H  -2.72600 16.95700 32.54600
H  -0.99600 17.01200 32.41100
H  -3.20900 21.79900 27.94900
H  -3.62000 22.76200 26.59400
H  -1.98000 22.69700 27.04400
H  -1.79000 23.53500 24.71600
H  -3.62300 23.68900 24.68400
H  -2.42600 24.27300 23.41500
H  -0.69600 17.64800 20.78600
H  -2.17900 15.18000 20.69700
H  -2.25700 18.08200 19.26100
H  -3.27000 18.52000 20.63800
H  -3.49800 16.95500 19.95700
H  0.15700 15.24000 19.75200
H  -0.18400 14.02800 21.01300
H  1.23700 14.84500 22.55900
H  0.89900 16.55300 22.09400
H  2.00700 15.50200 21.13300
H  -1.39200 10.64100 24.17500
H  -2.82800 11.30200 23.34500
H  -2.88500 10.45400 24.97200
H  -3.12800 12.76400 29.28600
H  -0.50800 11.89700 32.43800
H  0.76100 12.49100 31.31300
H  0.44800 10.84200 31.49600
Mg 40.58400 8.67700 29.81400
C  42.19300 10.28400 32.48600
C  38.29100 7.34600 32.13200
C  39.15800 6.88600 27.47000
C  43.30100 9.46300 27.81000
N  40.29800 8.76600 32.08100
C  41.10000 9.54300 32.95100
C  40.50000 9.53600 34.40300
C  39.36200 8.47400 34.27900
C  39.35000 8.10500 32.74900
C  39.56900 7.24300 35.23200
C  39.97200 10.87200 34.88900
C  39.15800 10.82800 36.19500
H  39.59400 11.70000 37.31000
N  38.82800 7.40700 29.77400
C  38.03400 7.01000 30.82000
C  36.96200 6.20000 30.34200
C  37.18600 6.13800 28.93800
C  38.39900 6.82700 28.63800
C  35.89400 5.65800 31.24500
C  36.36000 5.44800 27.84800
O  36.55300 5.58200 26.66500
C  35.18100 4.62700 28.34700
N  41.11300 8.29800 27.85700
C  40.34600 7.51300 27.04300
C  41.02600 7.37700 25.62500
C  42.34200 8.27000 25.78800
C  42.27700 8.72700 27.24700
C  41.36200 5.89100 25.28100
C  42.42900 9.44700 24.77100
C  42.00900 10.93500 25.25300
N  42.32400 9.73200 29.98200
C  43.32900 9.97400 29.10900
C  44.29500 10.94100 29.67100
C  43.92500 11.03100 31.00000
C  42.73900 10.26200 31.11800
C  45.48100 11.52500 29.10700
C  44.24600 11.55800 32.33800
O  45.33200 11.97900 32.72000
C  43.09000 11.13500 33.31400
C  43.74300 10.30300 34.37200
O  44.25400 9.20100 34.23600
O  43.53400 10.94600 35.56000
C  43.74800 10.21400 36.80700
H  37.55900 6.93000 32.82700
H  38.73300 6.25600 26.68600
H  44.18500 9.62400 27.18900
H  41.19500 9.13200 35.13900
H  38.37200 8.90700 34.42100
H  40.40600 7.40500 35.91100
H  39.80600 6.43600 34.53800
H  38.68600 7.00100 35.82400
H  39.24800 11.22600 34.15600
H  40.79600 11.58200 34.95600
H  38.94200 9.83400 36.58700
H  38.15900 11.25400 36.11300
H  35.08900 6.38500 31.35200
H  36.35400 5.49600 32.22000
H  35.38800 4.72000 31.01900
H  35.62900 3.89700 29.02100
H  34.86100 4.23300 27.38200
H  34.34100 5.23300 28.68600
H  40.35300 7.74300 24.85000
H  43.14100 7.62900 25.41400
H  40.64700 5.51100 24.55100
H  41.25100 5.31100 26.19700
H  42.38400 5.68600 24.96300
H  41.83500 9.25800 23.87700
H  43.47200 9.55300 24.47300
H  41.16100 11.26100 24.65000
H  42.78200 11.69100 25.11600
H  41.62800 10.83800 26.27000
H  45.40700 11.52600 28.01900
H  46.34500 10.93000 29.40500
H  45.65000 12.52600 29.50200
H  42.57500 12.00100 33.72900
H  43.44900 9.17900 36.64100
H  43.00400 10.45700 37.56500
H  44.72200 10.29800 37.29000

