158

Mg 24.67000 -6.21100 45.80400
C  27.05500 -3.99200 44.41800
C  22.32800 -5.06500 43.46300
C  22.83100 -8.81800 46.49700
C  27.38500 -7.79800 47.51800
N  24.66400 -4.50900 44.25300
C  25.75100 -3.82100 43.83900
C  25.38500 -2.84300 42.68800
C  23.80700 -3.00800 42.53400
C  23.54800 -4.27600 43.46500
C  23.09000 -1.68000 42.96600
C  26.18500 -2.93200 41.33200
C  26.79000 -1.70700 40.68300
H  26.22500 -1.42800 39.27900
N  22.88600 -6.75300 45.14100
C  22.03600 -6.13600 44.24400
C  20.86000 -6.86900 44.21300
C  20.91200 -7.85000 45.20300
C  22.25100 -7.86100 45.68700
C  19.63200 -6.40300 43.32100
C  19.79000 -8.81400 45.54900
O  18.79500 -8.74800 44.87600
C  19.72500 -9.73900 46.73500
N  25.05800 -8.04000 46.89500
C  24.09900 -8.96600 46.99400
C  24.56200 -10.29100 47.68800
C  26.01000 -9.81700 48.10000
C  26.17600 -8.50000 47.44800
C  23.69200 -10.86300 48.87300
C  27.01000 -10.89500 47.56500
C  27.28100 -12.08400 48.55300
N  26.73800 -5.88300 46.07800
C  27.68800 -6.55700 46.86600
C  29.01500 -5.96400 46.72800
C  28.75900 -4.96400 45.77800
C  27.37400 -4.88700 45.44900
C  30.24300 -6.42300 47.51400
C  29.38800 -3.87100 45.13800
O  30.52000 -3.42200 45.18500
C  28.34100 -3.23200 44.09800
C  28.34700 -1.81100 44.37700
O  28.02700 -1.26900 45.48800
O  28.67700 -1.04800 43.26600
C  28.32600 0.36500 43.42200
H  21.74100 -4.56000 42.69400
H  22.11900 -9.60700 46.74800
H  28.24200 -8.16600 48.08600
H  25.61300 -1.81500 42.96700
H  23.63400 -3.25800 41.48800
H  23.21300 -1.50600 44.03500
H  22.03300 -1.71700 42.70400
H  23.51400 -0.80600 42.47100
H  25.57300 -3.38100 40.54900
H  26.88800 -3.73800 41.54000
H  27.86500 -1.83200 40.55600
H  26.49700 -0.81900 41.24200
H  19.09900 -7.11400 42.69100
H  20.01900 -5.72700 42.55900
H  18.97000 -5.89700 44.02400
H  18.74400 -10.17200 46.92900
H  20.10800 -9.23600 47.62300
H  20.33300 -10.55700 46.34900
H  24.58000 -11.17100 47.04500
H  26.04300 -9.61600 49.17100
H  23.50500 -11.92300 48.70100
H  22.67200 -10.47800 48.87500
H  24.04900 -10.75400 49.89700
H  28.01300 -10.52300 47.35900
H  26.59300 -11.38200 46.68400
H  28.34200 -12.28500 48.70500
H  26.75300 -12.94100 48.13400
H  26.86600 -11.80300 49.52100
H  30.43600 -7.47500 47.30600
H  29.95000 -6.30500 48.55800
H  31.03700 -5.77500 47.14200
H  28.68600 -3.36700 43.07300
H  29.06000 0.76500 44.12100
H  27.27900 0.47000 43.70500
H  28.32500 0.73200 42.39500
Mg 31.26900 58.35800 38.99300
C  28.41100 56.51300 38.13600
C  33.18000 55.61400 38.27500
C  33.87100 60.37300 39.25000
C  29.16200 61.20400 39.20600
N  30.81400 56.32300 38.09600
C  29.60900 55.80900 37.88600
C  29.71700 54.31000 37.57800
C  31.25900 54.04000 37.60300
C  31.84300 55.41000 37.96200
C  31.75400 52.85900 38.50500
C  28.97400 53.84900 36.24900
C  29.38300 54.61000 34.97900
H  28.33700 55.24200 34.08300
N  33.30200 57.97600 38.91600
C  33.87600 56.78100 38.66600
C  35.25400 56.90300 38.66200
C  35.55200 58.28400 38.80600
C  34.22700 58.98500 39.06400
C  36.11600 55.66400 38.46500
C  37.00800 58.86100 38.70400
O  37.96300 58.11000 38.53600
C  37.23500 60.36200 38.74200
N  31.46200 60.46200 39.19900
C  32.68000 60.95900 39.47300
C  32.64100 62.50600 39.59900
C  31.06200 62.75500 39.87000
C  30.50400 61.42800 39.36600
C  33.49100 63.08900 40.79300
C  30.56900 64.09900 39.11600
C  29.76900 65.02400 39.96800
N  29.21700 58.82700 38.78800
C  28.51800 59.96000 38.92500
C  27.07600 59.74700 38.79800
C  27.02300 58.39200 38.54600
C  28.29200 57.84900 38.53200
C  25.94900 60.75500 38.61500
C  26.09600 57.28400 38.17200
O  24.86100 57.35800 37.96300
C  26.93000 55.98100 37.97600
C  26.44900 54.99900 38.97300
O  26.58500 55.07900 40.20900
O  25.74800 54.01000 38.31600
C  24.78600 53.29200 39.11300
H  33.81000 54.75600 38.03100
H  34.67600 61.11100 39.27300
H  28.49800 62.07100 39.20800
H  29.29800 53.79200 38.44000
H  31.62600 53.74500 36.62000
H  30.88300 52.42400 38.99500
H  32.38600 53.16600 39.33800
H  32.21600 52.12900 37.84000
H  27.92200 54.01400 36.48200
H  29.11900 52.77000 36.21100
H  29.90300 53.86000 34.38300
H  29.96300 55.49100 35.25300
H  36.53600 55.75000 37.46200
H  35.62900 54.69600 38.57800
H  36.95000 55.64900 39.16600
H  37.02800 60.86600 39.68600
H  36.70600 60.90900 37.96200
H  38.21400 60.56500 38.30800
H  33.07700 62.80300 38.64500
H  30.90700 62.89800 40.94000
H  34.18500 63.87200 40.48600
H  34.02100 62.32500 41.36200
H  32.88800 63.53000 41.58700
H  29.87800 63.81700 38.32200
H  31.44700 64.58100 38.68600
H  30.33100 65.93200 40.18500
H  29.59500 64.55300 40.93600
H  28.79800 65.29800 39.55500
H  24.97600 60.26600 38.56900
H  26.06800 61.35500 37.71300
H  25.93900 61.53600 39.37500
H  26.67700 55.63100 36.97500
H  25.29400 52.81300 39.95000
H  24.27200 52.54100 38.51300
H  24.08800 53.89000 39.69800

