158

Mg 17.15800 51.80400 26.01600
C  19.02900 50.41200 28.69200
C  14.74200 52.91100 28.33700
C  15.32700 52.63600 23.51000
C  19.35400 50.04400 23.85800
N  16.92000 51.60000 28.26000
C  17.92100 51.16500 29.10300
C  17.57100 51.54200 30.51700
C  16.11100 52.06100 30.42000
C  15.88400 52.19100 28.91500
C  15.04000 51.11900 31.01300
C  18.61100 52.56900 31.19700
C  18.71100 52.56100 32.80600
H  17.70200 51.72500 33.59800
N  15.21500 52.68100 25.94100
C  14.45500 53.10100 26.94200
C  13.25200 53.65600 26.38000
C  13.39200 53.63000 24.95600
C  14.68400 52.93500 24.73500
C  12.07200 54.14400 27.25900
C  12.38900 54.02500 23.89400
O  12.68600 54.06400 22.70600
C  11.10800 54.55600 24.29500
N  17.35400 51.42400 23.91700
C  16.51600 52.05900 23.02700
C  16.92500 51.74500 21.56400
C  18.30500 51.07200 21.79200
C  18.32900 50.79400 23.24300
C  15.89200 50.87400 20.72700
C  19.64600 51.81900 21.39500
C  19.57200 53.36300 21.55300
N  18.90900 50.54800 26.14000
C  19.68700 49.92800 25.22700
C  20.75200 49.20000 25.88100
C  20.54700 49.35500 27.24800
C  19.41700 50.21400 27.40700
C  21.70700 48.42800 25.07500
C  21.07400 48.99200 28.57700
O  21.96200 48.24800 28.85500
C  20.14800 49.74400 29.55100
C  19.53500 48.80600 30.66700
O  18.45500 48.20900 30.55200
O  20.44100 48.71800 31.72400
C  20.07500 47.98100 32.95200
H  13.98800 53.23900 29.05600
H  14.84700 53.02700 22.61100
H  20.11000 49.63300 23.18600
H  17.55200 50.60100 31.06600
H  16.04000 53.08100 30.79600
H  14.28800 51.72300 31.52200
H  15.46000 50.44100 31.75500
H  14.44900 50.47600 30.36000
H  18.29900 53.60700 31.07900
H  19.61000 52.43100 30.78400
H  18.62500 53.59500 33.14000
H  19.74100 52.32700 33.07600
H  11.26400 53.46300 26.99500
H  11.74800 55.15800 27.02200
H  12.03800 54.03000 28.34300
H  11.29400 55.55900 24.67900
H  10.57700 53.87200 24.95600
H  10.47900 54.55100 23.40500
H  16.94300 52.71800 21.07400
H  18.27500 50.09300 21.31200
H  14.92600 50.67400 21.19000
H  16.28400 49.89200 20.46200
H  15.83200 51.46000 19.81000
H  19.78700 51.60300 20.33600
H  20.46000 51.45100 22.02000
H  20.47900 53.66000 22.08000
H  18.73700 53.50400 22.24000
H  19.46100 53.95800 20.64600
H  22.30500 49.11900 24.48200
H  21.33400 47.81400 24.25600
H  22.29900 47.91100 25.83000
H  20.58600 50.52100 30.17700
H  18.99300 48.04600 33.07200
H  20.58600 48.45300 33.79100
H  20.37200 46.93500 33.03300
Mg 1.10700 43.60400 25.17700
C  2.85000 43.34600 28.26600
C  -1.58900 42.31700 26.71000
C  -0.14500 43.38600 22.17500
C  4.42700 44.21700 23.65000
N  0.65800 43.00800 27.28600
C  1.45000 43.16900 28.34500
C  0.62400 42.94600 29.62000
C  -0.80000 42.42400 29.11400
C  -0.62000 42.59500 27.64300
C  -1.40200 41.09100 29.58700
C  0.57200 44.16800 30.53700
C  0.90800 43.98400 32.02600
H  0.51300 42.61400 32.68100
N  -0.70600 43.05100 24.56600
C  -1.67100 42.39600 25.31200
C  -2.74200 42.05300 24.48600
C  -2.41400 42.42800 23.18800
C  -1.06500 43.05100 23.24300
C  -3.96600 41.22300 25.05200
C  -3.14700 42.06700 21.88900
O  -2.69900 42.26100 20.76100
C  -4.43300 41.43800 21.95400
N  2.00700 43.83900 23.28500
C  1.19900 43.59500 22.14700
C  1.97000 43.65000 20.86600
C  3.19500 44.43800 21.36300
C  3.27300 44.11500 22.85700
C  2.20700 42.19800 20.42600
C  3.03100 45.95400 21.19200
C  4.19800 46.72200 20.58700
N  3.26600 43.85500 25.77200
C  4.44000 44.08500 25.04400
C  5.53100 44.15400 25.98600
C  4.97300 43.70400 27.20000
C  3.59500 43.70500 27.04300
C  6.96900 44.29500 25.68100
C  5.27400 43.47300 28.56800
O  6.37300 43.49500 29.06400
C  3.97700 43.29900 29.31100
C  4.03100 42.07700 30.18200
O  4.01600 40.90300 29.80200
O  4.13700 42.40700 31.46400
C  4.14400 41.36300 32.50100
H  -2.39600 41.82400 27.25700
H  -0.59200 43.41100 21.17900
H  5.42800 44.43000 23.27000
H  1.13700 42.13500 30.13700
H  -1.61100 43.13400 29.27500
H  -0.79100 40.22900 29.31700
H  -2.44100 40.97600 29.28100
H  -1.55600 41.16500 30.66400
H  -0.46500 44.43100 30.74300
H  1.13600 45.03100 30.18200
H  0.60900 44.70500 32.78800
H  1.96000 44.26700 32.05800
H  -4.86400 41.83400 24.96000
H  -3.84700 40.91600 26.09100
H  -4.03600 40.30200 24.47300
H  -5.03100 41.71500 22.82200
H  -4.35800 40.35000 21.94700
H  -5.04000 41.57200 21.05900
H  1.34200 44.13900 20.12100
H  4.10100 44.05200 20.89600
H  2.70900 41.63600 21.21300
H  2.85400 42.14300 19.55000
H  1.29300 41.63900 20.22200
H  2.86000 46.38200 22.18000
H  2.09400 46.15000 20.67000
H  4.97800 45.98600 20.39300
H  4.48000 47.45400 21.34400
H  3.92800 47.17200 19.63100
H  7.56100 43.84500 26.47800
H  7.17300 45.36500 25.70100
H  7.12600 43.82000 24.71200
H  3.91800 44.12800 30.01700
H  3.36300 40.60800 32.40700
H  4.05200 41.98400 33.39200
H  5.12200 40.88200 32.52500

