158

Mg 47.68700 16.67600 27.53500
C  45.73900 16.69800 30.40500
C  49.99300 18.71500 28.95800
C  49.16100 17.00100 24.49400
C  44.90200 15.28400 25.85600
N  47.83200 17.57100 29.44800
C  47.01400 17.29800 30.49700
C  47.72600 17.74000 31.75900
C  48.97900 18.52300 31.25700
C  48.96500 18.26100 29.80800
C  49.03100 20.05200 31.48400
C  48.05700 16.63500 32.78000
C  48.35300 17.00600 34.23700
H  47.92000 18.35100 34.71800
N  49.38400 17.69600 26.86700
C  50.26600 18.41600 27.59900
C  51.36800 18.85300 26.81100
C  50.98900 18.50300 25.47000
C  49.81200 17.67000 25.56300
C  52.50200 19.67200 27.34800
C  51.62100 19.08700 24.12000
O  51.13000 18.92300 23.02700
C  52.85300 19.97800 24.06400
N  47.04500 16.32300 25.41100
C  47.95800 16.47100 24.42200
C  47.34900 15.96400 23.08400
C  45.95200 15.38400 23.51300
C  45.90000 15.68300 25.03200
C  47.18500 17.17200 22.11600
C  45.59200 13.95300 23.09600
C  44.33600 13.81900 22.25500
N  45.79000 16.07600 28.01900
C  44.71900 15.54600 27.24500
C  43.58800 15.16200 28.11900
C  43.98500 15.60600 29.37800
C  45.23500 16.21400 29.24100
C  42.35700 14.49500 27.70400
C  43.54900 15.63600 30.75600
O  42.60300 15.10400 31.26600
C  44.72900 16.44000 31.53900
C  44.13300 17.59400 32.21400
O  43.85800 18.68600 31.73800
O  43.96000 17.31500 33.57900
C  43.34500 18.35000 34.36800
H  50.62600 19.43800 29.47700
H  49.62400 16.99100 23.50400
H  44.04900 14.76400 25.41500
H  46.96500 18.44300 32.09800
H  49.87900 18.12800 31.72900
H  48.30000 20.39700 32.21600
H  48.84500 20.75000 30.66800
H  50.06700 20.32700 31.68600
H  48.89600 16.07600 32.36500
H  47.21700 15.94800 32.88200
H  49.39700 16.71600 34.35600
H  47.97200 16.23000 34.90100
H  52.19300 20.71300 27.44300
H  53.38300 19.68300 26.70600
H  52.70900 19.24700 28.33100
H  53.67400 19.46400 24.56300
H  52.61900 20.84700 24.67900
H  53.06300 20.22200 23.02200
H  48.01900 15.16400 22.77000
H  45.24900 16.07700 23.05100
H  47.28500 18.11700 22.65000
H  46.25000 17.16400 21.55600
H  47.94600 17.04000 21.34600
H  45.68500 13.35800 24.00400
H  46.30300 13.59400 22.35100
H  44.59200 13.32700 21.31700
H  43.78600 14.73100 22.02300
H  43.59200 13.15000 22.68800
H  42.52900 13.69000 26.99000
H  41.74300 15.21400 27.16100
H  41.80800 13.98000 28.49300
H  45.14200 15.71600 32.24100
H  42.27900 18.19400 34.53400
H  43.63800 19.33900 34.01500
H  43.82700 18.18800 35.33200
Mg 36.59000 49.28800 24.95900
C  36.49000 47.45300 28.05400
C  35.09600 51.94300 26.67000
C  36.45700 50.84400 21.99500
C  37.73200 46.40600 23.28500
N  35.84400 49.61400 27.07300
C  36.01300 48.76400 28.15200
C  35.57600 49.50300 29.41300
C  34.83400 50.81300 28.91400
C  35.33300 50.86100 27.48500
C  33.29100 50.98900 29.01200
C  36.60300 49.69100 30.48100
C  35.97500 49.43300 31.85900
H  34.54000 49.84000 32.16800
N  35.97200 51.10200 24.51200
C  35.38700 52.07400 25.30400
C  35.11900 53.29700 24.44400
C  35.53400 52.90300 23.10300
C  36.02100 51.54500 23.12400
C  34.64800 54.67300 25.04200
C  35.33400 53.78600 21.78300
O  35.77800 53.39900 20.70600
C  34.81400 55.21000 21.85900
N  36.96000 48.68800 22.94000
C  36.81100 49.53000 21.88700
C  37.22000 48.90400 20.51500
C  37.79000 47.53600 21.08000
C  37.53300 47.59100 22.53800
C  36.07300 48.77500 19.45700
C  39.33700 47.22400 20.73200
C  40.43500 47.93100 21.59300
N  36.97800 47.31000 25.44100
C  37.50200 46.23400 24.67600
C  37.64800 45.07500 25.54800
C  37.32600 45.56400 26.81000
C  36.89900 46.87300 26.75000
C  38.04200 43.73000 25.07700
C  37.22300 45.17400 28.21600
O  37.47000 44.10500 28.82100
C  36.64900 46.38100 29.10200
C  35.38700 45.90600 29.78800
O  34.27100 45.84300 29.22400
O  35.61800 45.66600 31.11900
C  34.47700 45.32000 32.00900
H  34.89400 52.89200 27.17000
H  36.60900 51.28500 21.00800
H  38.25400 45.65500 22.68900
H  34.79600 48.86000 29.81800
H  35.17300 51.58600 29.60400
H  32.76700 50.15700 29.48300
H  32.95300 51.03800 27.97700
H  32.90700 51.85700 29.54800
H  36.81300 50.75800 30.55400
H  37.50200 49.07800 30.40600
H  36.60400 49.93900 32.59200
H  36.08700 48.37000 32.07500
H  35.41500 55.42900 25.21300
H  34.19400 54.48200 26.01400
H  33.84900 54.93000 24.34600
H  33.72800 55.12900 21.88900
H  35.21100 55.57000 20.91000
H  35.25700 55.87500 22.60200
H  38.04400 49.51100 20.14300
H  37.26000 46.65000 20.73100
H  35.97700 47.78900 19.00300
H  36.36200 49.38900 18.60400
H  35.11200 49.11400 19.84400
H  39.47600 47.56800 19.70700
H  39.57900 46.16900 20.85500
H  40.04700 48.79500 22.13300
H  41.40900 48.02400 21.11300
H  40.62100 47.16400 22.34400
H  38.75800 43.95700 24.28700
H  37.19300 43.12100 24.76900
H  38.61900 43.21700 25.84700
H  37.43500 46.71200 29.78100
H  34.81700 45.10000 33.02100
H  34.03700 44.37800 31.68100
H  33.90900 46.25000 31.97600

