158

Mg 7.96500 3.08500 28.33900
C  9.45100 1.89200 31.20400
C  6.05500 5.14500 30.20800
C  6.32100 3.85600 25.55700
C  9.74300 0.50700 26.53400
N  7.77700 3.36100 30.52500
C  8.55300 2.89300 31.50400
C  8.19200 3.54900 32.82400
C  7.07200 4.59600 32.44900
C  6.92100 4.31900 30.96200
C  5.80600 4.44900 33.25600
C  9.45200 4.08100 33.59800
C  9.62500 3.58800 35.06000
H  10.08200 4.59200 36.17600
N  6.52400 4.42800 27.92700
C  5.88000 5.16900 28.81800
C  5.06600 6.12600 28.16700
C  5.13900 5.82000 26.77600
C  5.98000 4.58600 26.69900
C  4.29100 7.11900 28.81600
C  4.57900 6.63400 25.66500
O  4.73100 6.20000 24.52300
C  3.72500 7.84200 25.81400
N  7.98300 2.19900 26.27800
C  7.23300 2.71200 25.29800
C  7.55300 2.06800 23.90200
C  8.74600 1.06400 24.19600
C  8.79800 1.23900 25.73500
C  6.28100 1.48900 23.25000
C  10.15000 1.59400 23.56300
C  11.02200 0.52500 22.97600
N  9.31400 1.57000 28.69400
C  10.00600 0.65700 27.85600
C  10.94700 -0.12700 28.70200
C  10.72500 0.34700 29.99200
C  9.75200 1.41200 29.90000
C  11.91600 -1.18500 28.04900
C  11.26300 0.23600 31.32500
O  12.11700 -0.45700 31.80400
C  10.40400 1.23500 32.15700
C  9.69800 0.43500 33.13400
O  8.68900 -0.30900 32.98000
O  10.33100 0.55100 34.32600
C  9.86000 -0.29100 35.36600
H  5.43500 5.78100 30.84300
H  5.73600 4.06700 24.65900
H  10.27400 -0.25300 25.95700
H  7.76100 2.70000 33.35400
H  7.52700 5.58600 32.46000
H  5.54700 5.48400 33.47800
H  5.98100 3.92800 34.19700
H  4.99900 4.00700 32.67100
H  9.31600 5.15300 33.73900
H  10.35300 3.85100 33.03100
H  10.48500 2.91900 35.06500
H  8.71300 3.06000 35.34000
H  4.74300 8.04400 28.45700
H  4.32000 7.13600 29.90600
H  3.26900 7.19700 28.44600
H  2.67300 7.62100 25.99300
H  3.81700 8.34400 24.85000
H  4.06000 8.62800 26.49100
H  7.77000 2.89300 23.22300
H  8.43100 0.02200 24.13200
H  6.27500 0.40300 23.15200
H  6.14400 1.99500 22.29400
H  5.51800 1.72600 23.99100
H  10.69300 2.18400 24.30200
H  10.01500 2.24500 22.69900
H  10.48900 -0.42500 22.95100
H  11.90000 0.48400 23.62000
H  11.27800 0.80500 21.95400
H  12.75500 -1.28400 28.73900
H  12.28900 -1.01200 27.04000
H  11.33800 -2.10900 28.08600
H  11.05100 1.94700 32.66800
H  10.57700 -0.30800 36.18700
H  9.83300 -1.28100 34.91100
H  8.86500 -0.05100 35.74300
Mg 54.15500 24.87500 44.89000
C  51.65400 27.16600 43.97400
C  52.26300 22.41700 43.36100
C  56.80700 23.04300 45.02900
C  56.13600 27.71800 45.94700
N  52.24100 24.84000 43.71200
C  51.37300 25.87200 43.55000
C  50.21700 25.38200 42.76100
C  50.18000 23.85900 43.05700
C  51.64400 23.65700 43.36500
C  49.21100 23.50300 44.21100
C  50.18400 25.68100 41.18600
C  51.60100 25.90000 40.53800
H  52.13100 24.69300 39.77600
N  54.45900 22.93600 44.30300
C  53.58300 22.10900 43.69000
C  54.23400 20.85200 43.50200
C  55.55700 20.92600 44.04700
C  55.65500 22.30600 44.56100
C  53.55100 19.66800 42.72600
C  56.60100 19.85700 43.98800
O  56.45900 18.86000 43.30000
C  58.00200 19.86500 44.70300
N  56.22400 25.27800 45.49600
C  57.16100 24.32500 45.43300
C  58.49900 24.80300 45.94500
C  58.27000 26.34300 45.98900
C  56.79400 26.46700 45.83100
C  58.74200 24.07700 47.25500
C  59.11100 27.21100 45.00600
C  59.81400 28.44000 45.67800
N  53.94700 27.02100 45.06400
C  54.77400 28.03400 45.60500
C  54.01100 29.23200 45.71200
C  52.77000 28.98000 45.05100
C  52.77900 27.63500 44.72700
C  54.47600 30.58800 46.38500
C  51.52400 29.59100 44.55500
O  51.04800 30.69600 44.70100
C  50.80300 28.48000 43.82400
C  50.52600 28.91200 42.44100
O  51.34400 29.16400 41.58600
O  49.18600 28.90600 42.24400
C  48.70100 29.37700 40.95600
H  51.65300 21.55900 43.07000
H  57.68400 22.41000 45.18000
H  56.78300 28.54200 46.25600
H  49.24900 25.81000 43.02400
H  49.88100 23.31200 42.16300
H  48.90000 24.42300 44.70600
H  49.56600 22.79100 44.95600
H  48.29100 23.02800 43.86700
H  49.53600 26.54100 41.01700
H  49.63100 24.83700 40.77200
H  52.32800 26.12600 41.31800
H  51.54300 26.80000 39.92500
H  53.48200 19.94200 41.67300
H  52.56400 19.48100 43.14900
H  54.14000 18.75400 42.80200
H  58.36200 18.84100 44.80900
H  57.91700 20.45300 45.61700
H  58.67900 20.49700 44.12800
H  59.34300 24.51900 45.31600
H  58.37400 26.69100 47.01700
H  59.24600 23.12200 47.10500
H  57.83600 23.98300 47.85400
H  59.39300 24.70500 47.86300
H  58.55000 27.61900 44.16500
H  59.90300 26.59500 44.57800
H  60.81200 28.45900 45.24000
H  59.88300 28.38200 46.76400
H  59.26300 29.30700 45.31400
H  53.81100 30.83100 47.21400
H  54.32000 31.46000 45.75000
H  55.51100 30.52800 46.72100
H  49.82500 28.41900 44.30100
H  49.24100 29.05300 40.06600
H  48.44400 30.43600 40.91700
H  47.82200 28.74800 40.82000

