158

Mg 8.36200 3.06400 27.29200
C  9.67100 1.52400 30.19100
C  6.61400 5.10600 29.18200
C  7.43100 4.52900 24.45500
C  10.17000 0.62300 25.44200
N  8.11000 3.23900 29.43400
C  8.79700 2.55600 30.45100
C  8.41300 3.13700 31.81100
C  7.27600 4.19500 31.41300
C  7.31200 4.19300 29.93700
C  5.92700 3.97600 32.03800
C  9.63900 3.87000 32.49100
C  10.27300 3.26600 33.82900
H  10.39100 4.33600 34.89500
N  7.09200 4.61200 26.84700
C  6.50500 5.38600 27.73200
C  5.73900 6.41800 27.07600
C  5.92400 6.23500 25.68300
C  6.79900 5.06700 25.59600
C  4.94500 7.54800 27.74600
C  5.44100 7.08300 24.55300
O  5.78600 6.84100 23.40900
C  4.58600 8.34300 24.72900
N  8.73300 2.61400 25.23900
C  8.26700 3.40400 24.22800
C  8.78600 2.92100 22.86000
C  9.39100 1.51500 23.15700
C  9.38500 1.53600 24.71100
C  7.79400 3.04100 21.66600
C  10.78500 1.18200 22.35700
C  10.87800 -0.03200 21.40300
N  9.58400 1.32300 27.65700
C  10.16500 0.47100 26.82100
C  10.96600 -0.46000 27.55500
C  10.86500 -0.13700 28.90600
C  9.89300 0.96100 28.91800
C  11.94000 -1.51000 26.95400
C  11.27900 -0.35800 30.26900
O  12.12600 -1.14300 30.66000
C  10.53000 0.70500 31.15400
C  9.69500 -0.02200 32.11100
O  8.52700 -0.30800 31.95500
O  10.42800 -0.21300 33.26400
C  9.52100 -0.69800 34.31800
H  6.20000 5.92200 29.77700
H  7.43500 5.18200 23.58000
H  10.71600 -0.10800 24.84200
H  8.01400 2.31800 32.41000
H  7.61400 5.20100 31.65900
H  5.69400 2.91300 32.09100
H  5.16300 4.46400 31.43200
H  6.00900 4.32100 33.06900
H  9.52500 4.95000 32.57800
H  10.46100 3.69900 31.79600
H  11.27500 2.91500 33.57900
H  9.67400 2.47400 34.27800
H  5.03200 7.47400 28.83000
H  3.92100 7.29500 27.47200
H  5.13300 8.57500 27.43100
H  4.15000 8.53600 23.74800
H  5.25400 9.14900 25.03200
H  3.76800 8.26500 25.44500
H  9.64700 3.55800 22.65800
H  8.61800 0.80600 22.86100
H  6.82400 3.31000 22.08400
H  7.70800 2.10100 21.12100
H  8.23700 3.79800 21.01800
H  11.64700 1.19600 23.02400
H  11.00600 1.97700 21.64500
H  10.76700 0.19900 20.34400
H  10.08000 -0.74700 21.60400
H  11.79300 -0.62100 21.46700
H  12.81000 -0.97500 26.57300
H  11.38800 -2.04900 26.18400
H  12.08400 -2.23600 27.75500
H  11.13600 1.33100 31.80900
H  8.98300 0.13100 34.77800
H  10.20400 -1.19100 35.00900
H  8.80300 -1.50200 34.15600
Mg -11.83900 16.73100 41.68000
C  -8.15900 16.33000 41.39700
C  -11.23500 20.02700 40.91400
C  -14.99200 16.89000 41.01300
C  -12.01800 13.14900 41.67700
N  -9.88100 17.95800 41.12900
C  -8.55900 17.64900 41.23900
C  -7.70200 18.91100 41.08800
C  -8.69600 20.07100 41.35100
C  -10.04100 19.30500 41.22000
C  -8.38100 20.74200 42.67800
C  -7.07100 19.02900 39.61800
C  -5.52100 18.82000 39.49400
H  -5.13800 17.92600 38.34200
N  -12.93100 18.35800 41.12800
C  -12.51000 19.59900 40.78900
C  -13.70500 20.37500 40.45100
C  -14.87600 19.54800 40.53100
C  -14.34700 18.20700 40.88700
C  -13.68100 21.87900 40.19100
C  -16.29400 19.94500 40.35500
O  -16.58600 21.10700 40.08500
C  -17.40000 18.95700 40.54500
N  -13.31800 15.21500 41.42900
C  -14.52200 15.59300 41.32900
C  -15.52900 14.38600 41.57800
C  -14.54700 13.16800 41.64500
C  -13.21600 13.87500 41.48000
C  -16.43800 14.60600 42.78900
C  -14.86600 12.11300 40.59400
C  -14.53800 10.66200 40.99100
N  -10.44600 15.15700 41.75200
C  -10.73100 13.77400 41.84800
C  -9.42900 13.11900 42.13600
C  -8.45800 14.06100 42.04500
C  -9.08300 15.29600 41.74800
C  -9.31000 11.69100 42.46000
C  -7.01400 14.22800 42.01400
O  -6.12500 13.43700 42.16900
C  -6.73800 15.77400 41.59700
C  -6.17100 16.41300 42.77800
O  -6.78100 16.73200 43.81800
O  -4.78900 16.51100 42.62500
C  -3.97000 17.15800 43.68300
H  -11.09100 21.08200 40.67300
H  -16.07600 17.01800 40.96800
H  -12.01300 12.06400 41.55400
H  -6.88500 18.82900 41.80400
H  -8.61800 20.86600 40.60800
H  -7.62200 21.51700 42.57600
H  -8.12600 19.94200 43.37200
H  -9.25700 21.26100 43.06800
H  -7.28100 20.07200 39.38500
H  -7.51400 18.34800 38.89100
H  -5.12400 18.36400 40.40100
H  -5.04000 19.77700 39.29300
H  -14.46900 22.21500 39.51600
H  -12.67800 22.01100 39.78500
H  -13.77100 22.45500 41.11300
H  -18.38300 19.41500 40.43900
H  -17.35200 18.56100 41.55900
H  -17.33400 18.11100 39.86100
H  -16.17500 14.55600 40.71700
H  -14.49900 12.69200 42.62500
H  -16.20700 15.58000 43.21900
H  -16.30500 13.89100 43.60100
H  -17.46300 14.61600 42.42000
H  -14.32100 12.39000 39.69200
H  -15.91000 12.23000 40.30500
H  -13.77600 10.58800 41.76600
H  -14.20100 10.09400 40.12400
H  -15.44500 10.29800 41.47400
H  -8.69800 11.25500 41.67000
H  -10.31900 11.27900 42.43800
H  -8.83300 11.48600 43.41900
H  -6.05200 15.86300 40.75500
H  -3.82000 16.35700 44.40700
H  -4.51800 17.95900 44.17800
H  -2.96100 17.43500 43.37900

