158

Mg 1.79200 -2.35400 44.95800
C  5.05200 -1.17300 43.86600
C  0.33900 -0.31300 42.58700
C  -1.14500 -4.02700 45.40700
C  3.58200 -5.19600 46.19000
N  2.66900 -1.01300 43.33300
C  3.94600 -0.52400 43.26000
C  3.97900 0.59400 42.19500
C  2.50300 0.81600 41.80300
C  1.72100 -0.21600 42.59600
C  2.01800 2.28500 41.85600
C  4.89400 0.16300 40.94100
C  6.16700 1.04400 40.73500
H  6.11200 1.91700 39.40400
N  -0.13900 -2.09800 44.22000
C  -0.51100 -1.10600 43.25000
C  -1.97200 -1.18300 43.19000
C  -2.49700 -2.17300 43.99100
C  -1.24300 -2.83900 44.60100
C  -2.69600 -0.25400 42.22700
C  -4.01300 -2.68100 44.00600
O  -4.84400 -2.01100 43.40900
C  -4.42200 -3.97800 44.59800
N  1.31600 -4.18100 45.84200
C  0.01600 -4.63900 45.88900
C  -0.11000 -5.99600 46.51900
C  1.35600 -6.41800 46.74300
C  2.17700 -5.19100 46.26900
C  -0.99900 -6.16000 47.78000
C  1.65900 -7.76300 46.05300
C  2.81300 -8.57000 46.75500
N  3.87400 -3.04000 45.14400
C  4.41800 -4.14800 45.69300
C  5.87200 -4.18400 45.57700
C  6.14500 -3.01000 44.87900
C  4.92100 -2.27400 44.72900
C  6.76000 -5.26100 45.93100
C  7.22600 -2.34100 44.23900
O  8.39100 -2.68600 44.06400
C  6.59700 -0.99200 43.76900
C  7.11800 0.10200 44.67200
O  6.58500 0.48300 45.73400
O  8.12800 0.71700 44.05300
C  8.55000 2.08400 44.58900
H  -0.20900 0.42500 41.99700
H  -1.99900 -4.70600 45.44900
H  4.09700 -6.08900 46.54800
H  4.26800 1.49100 42.74300
H  2.29800 0.64400 40.74700
H  1.47500 2.50600 40.93700
H  2.85000 2.98700 41.89700
H  1.35900 2.40700 42.71500
H  4.33100 0.14900 40.00800
H  5.16500 -0.87900 41.11300
H  7.12300 0.52900 40.83100
H  6.17300 1.71300 41.59600
H  -3.77000 -0.17800 42.39800
H  -2.72900 -0.62500 41.20300
H  -2.18800 0.71100 42.22800
H  -5.49900 -4.03600 44.43900
H  -4.13400 -3.84600 45.64000
H  -3.84700 -4.64700 43.95800
H  -0.56000 -6.55900 45.70200
H  1.51500 -6.61800 47.80300
H  -1.15300 -5.12700 48.09100
H  -0.50700 -6.73600 48.56400
H  -2.01300 -6.50200 47.57100
H  1.90800 -7.54500 45.01500
H  0.73200 -8.33300 46.10900
H  3.55000 -8.78000 45.98000
H  2.35400 -9.51500 47.04600
H  3.24700 -8.10600 47.64100
H  7.16900 -5.52400 44.95500
H  6.22000 -6.11200 46.34400
H  7.53200 -4.86200 46.58900
H  6.87800 -0.72400 42.75100
H  9.62800 2.07400 44.42500
H  8.40600 2.20200 45.66300
H  8.10500 2.90000 44.02000
Mg 30.82400 58.14700 40.92400
C  28.10800 56.45400 39.25100
C  32.88600 55.79700 39.51200
C  33.43600 60.13400 41.54200
C  28.56700 60.81700 41.42700
N  30.50700 56.38500 39.62200
C  29.36800 55.86500 39.07100
C  29.61000 54.55400 38.31600
C  31.10100 54.22600 38.74300
C  31.54900 55.57400 39.31200
C  31.40100 52.97400 39.71800
C  29.28100 54.72900 36.83800
C  28.40700 53.58700 36.20900
H  27.76600 53.93000 34.82900
N  32.85200 57.96700 40.61500
C  33.52500 56.93000 40.05500
C  34.98000 57.14400 40.11400
C  35.12200 58.38000 40.77100
C  33.76800 58.89100 41.02000
C  36.04300 56.26500 39.54700
C  36.42700 59.12400 41.15100
O  37.48800 58.76000 40.64200
C  36.48300 60.42700 42.10600
N  30.99300 60.25000 41.26300
C  32.16100 60.76800 41.71800
C  32.06400 62.26300 42.03700
C  30.50300 62.39300 42.29700
C  29.97400 61.06000 41.64000
C  32.96700 62.83100 43.17100
C  29.87300 63.68700 41.72800
C  28.86700 64.40400 42.65700
N  28.75700 58.55600 40.55400
C  27.97200 59.61700 40.96400
C  26.65300 59.44000 40.43900
C  26.61900 58.21300 39.80300
C  27.92700 57.67400 39.91600
C  25.48700 60.39200 40.63700
C  25.87000 57.29900 39.03600
O  24.71500 57.26900 38.69000
C  26.77300 55.97200 38.77900
C  26.34100 54.78600 39.65200
O  26.10000 54.88000 40.84400
O  26.29000 53.65300 38.94700
C  26.21800 52.33500 39.67300
H  33.58400 55.02800 39.17300
H  34.19400 60.88300 41.78200
H  27.87200 61.62700 41.65700
H  28.98400 53.81700 38.81900
H  31.80400 54.12300 37.91700
H  30.61900 52.21500 39.70600
H  31.51300 53.44300 40.69600
H  32.35900 52.55200 39.41500
H  30.27200 54.76100 36.38500
H  28.88300 55.73800 36.73300
H  27.62100 53.25500 36.88700
H  29.09800 52.75000 36.10500
H  36.73200 55.97700 40.34100
H  36.57800 56.79700 38.76000
H  35.68400 55.32700 39.12200
H  36.14900 61.33400 41.60200
H  37.52800 60.64300 42.32700
H  35.97800 60.29300 43.06300
H  32.38300 62.71300 41.09700
H  30.38000 62.30800 43.37700
H  33.76800 63.40400 42.70200
H  33.28800 61.97000 43.75800
H  32.38300 63.51300 43.78900
H  29.31000 63.34600 40.86000
H  30.58300 64.42400 41.35400
H  28.66100 63.74000 43.49700
H  27.93500 64.50900 42.10300
H  29.25300 65.40800 42.83600
H  25.65400 61.38700 40.22400
H  25.42800 60.48200 41.72200
H  24.58800 59.92800 40.23200
H  26.68600 55.61700 37.75200
H  25.66000 51.58000 39.11900
H  25.98400 52.42800 40.73400
H  27.14500 51.76100 39.66600

