158

Mg 25.67300 -0.24000 28.64600
C  27.51700 -0.68000 31.58100
C  22.76800 -0.38600 30.52200
C  23.92800 -0.31100 25.77700
C  28.62400 -0.48800 26.87200
N  25.25700 -0.72500 30.88600
C  26.11100 -0.57700 31.82700
C  25.50300 -0.23900 33.20000
C  24.01700 -0.16000 32.86800
C  23.95300 -0.49800 31.27900
C  23.02500 -1.00700 33.61000
C  26.15700 1.08200 33.86800
C  26.78800 0.93200 35.24400
H  26.32600 1.86300 36.33800
N  23.67900 -0.34800 28.20800
C  22.65600 -0.29500 29.14300
C  21.35300 -0.01200 28.42400
C  21.70100 -0.06700 26.98800
C  23.14800 -0.30300 26.92900
C  20.08200 0.23400 29.18000
C  20.77300 0.12100 25.80500
O  21.11200 0.07400 24.62100
C  19.26900 0.20800 25.95600
N  26.20000 -0.61000 26.60400
C  25.26400 -0.32300 25.63400
C  25.96200 -0.13500 24.27100
C  27.41900 -0.01100 24.62200
C  27.44700 -0.44200 26.14500
C  25.58000 -1.14000 23.15200
C  27.98300 1.45500 24.45200
C  29.51900 1.57900 24.32700
N  27.70300 -0.68500 29.11000
C  28.75900 -0.74900 28.25900
C  29.95100 -1.04100 29.08600
C  29.52700 -0.96300 30.40900
C  28.10900 -0.76300 30.34100
C  31.40200 -1.22400 28.60200
C  29.95000 -1.06300 31.77100
O  31.04400 -1.25800 32.23000
C  28.68300 -0.74100 32.50700
C  28.46700 -1.71900 33.57600
O  27.91800 -2.80400 33.42300
O  29.02300 -1.30500 34.78400
C  28.75500 -2.21300 35.92800
H  21.86300 -0.14000 31.08100
H  23.35100 -0.23200 24.85300
H  29.61200 -0.41400 26.41300
H  25.75200 -1.15400 33.73700
H  23.53200 0.81400 32.80900
H  22.88900 -0.45400 34.54000
H  23.59000 -1.91800 33.80600
H  22.08900 -1.32600 33.15200
H  25.43600 1.89800 33.91300
H  26.90800 1.46100 33.17400
H  27.80600 1.16200 34.92700
H  26.79900 -0.10300 35.58700
H  19.85600 1.26900 29.43700
H  19.99600 -0.45600 30.01900
H  19.20100 -0.01300 28.58800
H  19.03200 1.06300 26.58900
H  18.90300 -0.72900 26.37600
H  18.86600 0.23800 24.94400
H  25.55100 0.81000 23.91500
H  28.01000 -0.78500 24.13200
H  26.39400 -1.77000 22.79300
H  25.14100 -0.59900 22.31400
H  24.78000 -1.84100 23.39100
H  27.57100 2.03600 25.27700
H  27.44800 1.85700 23.59300
H  29.85900 2.27900 25.09000
H  29.80200 1.92100 23.33200
H  30.02100 0.62700 24.50200
H  31.28000 -2.11800 27.99100
H  31.96100 -1.44900 29.50900
H  31.77600 -0.38100 28.02000
H  28.77600 0.22300 33.00800
H  27.92300 -1.96800 36.58800
H  29.62900 -2.22600 36.57800
H  28.70200 -3.26300 35.63900
Mg 41.51600 41.61100 27.18400
C  40.65100 44.09200 29.54500
C  42.10200 39.40000 29.81500
C  42.37800 39.39300 25.00100
C  40.96600 44.02800 24.68200
N  41.58000 41.81500 29.41300
C  40.92700 42.82400 30.13000
C  40.91600 42.53300 31.62300
C  41.33500 41.00100 31.60300
C  41.74500 40.69600 30.18800
C  42.36400 40.55600 32.64100
C  39.55700 42.89500 32.28500
C  38.89600 42.15000 33.49000
H  38.00700 42.88100 34.57600
N  42.11700 39.62900 27.42800
C  42.28100 38.87300 28.53900
C  42.58200 37.52400 28.20200
C  42.60200 37.46600 26.82400
C  42.35100 38.90900 26.36700
C  42.86600 36.37500 29.17000
C  42.85400 36.31800 25.91400
O  42.89100 36.36800 24.69100
C  43.12000 34.93400 26.46100
N  41.87600 41.79400 25.10800
C  42.08000 40.61300 24.43800
C  41.93000 40.87700 22.88900
C  41.24000 42.25300 22.88200
C  41.33300 42.71800 24.33600
C  43.32800 40.78500 22.26800
C  39.63800 42.24300 22.56300
C  38.80400 41.20300 23.39100
N  40.94800 43.63000 27.15400
C  40.93400 44.53900 26.04500
C  40.57000 45.82000 26.49500
C  40.47900 45.73000 27.87700
C  40.77600 44.34300 28.21200
C  40.35700 47.01800 25.68300
C  40.09000 46.48800 29.07700
O  39.67200 47.60300 29.28800
C  40.19400 45.42500 30.18000
C  41.12200 45.94300 31.20800
O  42.33100 45.97200 31.06200
O  40.43300 46.37000 32.28400
C  41.15000 46.90400 33.44100
H  42.16300 38.65800 30.61300
H  42.77100 38.74800 24.21200
H  40.95900 44.71700 23.83500
H  41.63600 43.22300 32.06300
H  40.44200 40.41100 31.81000
H  41.87600 39.88400 33.34800
H  42.68900 41.43100 33.20300
H  43.21200 40.03500 32.19600
H  38.77800 42.95100 31.52500
H  39.73900 43.87000 32.73600
H  39.63500 41.47100 33.91600
H  38.14000 41.47400 33.09100
H  42.20200 35.51100 29.18900
H  42.97400 36.55700 30.24000
H  43.83300 36.00600 28.83000
H  42.23400 34.72000 27.05900
H  44.04000 35.06300 27.03100
H  43.22300 34.10500 25.76000
H  41.16400 40.22100 22.47600
H  41.80300 42.99500 22.31600
H  43.66900 41.69100 21.76800
H  43.20900 39.93400 21.59600
H  44.19400 40.63300 22.91200
H  39.45700 41.88700 21.54900
H  39.13200 43.20500 22.64100
H  38.12400 41.71000 24.07600
H  39.33900 40.37100 23.84800
H  38.22200 40.73800 22.59600
H  39.89700 47.75200 26.34600
H  39.69900 46.86300 24.82800
H  41.33600 47.34900 25.33800
H  39.22000 45.35800 30.66500
H  41.35000 46.16800 34.22000
H  40.53600 47.63000 33.97300
H  42.14400 47.27300 33.18900

