158

Mg 25.73600 -6.31900 48.41100
C  27.33800 -3.65900 46.82600
C  23.22300 -6.17300 46.08400
C  24.55300 -9.13200 49.59200
C  28.75300 -6.80600 50.17500
N  25.39600 -5.08700 46.61100
C  26.12200 -4.03600 46.19000
C  25.65500 -3.53500 44.82800
C  24.24200 -4.16000 44.74900
C  24.25700 -5.23400 45.89500
C  23.12500 -3.08500 44.93400
C  26.63500 -3.92000 43.68600
C  26.97000 -2.85900 42.64000
H  25.95600 -2.71500 41.47300
N  24.10500 -7.49600 47.92500
C  23.14300 -7.20700 47.01500
C  22.06500 -8.16900 47.08600
C  22.44800 -9.12200 48.05200
C  23.70800 -8.58500 48.60300
C  20.78600 -8.17000 46.32800
C  21.71300 -10.43000 48.32400
O  20.89200 -10.89700 47.50200
C  22.20200 -11.43600 49.35000
N  26.49400 -7.61500 49.83300
C  25.85400 -8.76700 50.06500
C  26.67400 -9.83600 50.92500
C  28.07700 -9.06300 51.02000
C  27.77700 -7.77900 50.28200
C  26.08100 -10.19200 52.31000
C  29.19100 -9.88500 50.30800
C  29.41700 -11.39300 50.78300
N  27.64000 -5.37600 48.58300
C  28.71800 -5.65900 49.42000
C  29.76100 -4.66700 49.15900
C  29.27100 -3.83900 48.17300
C  27.97600 -4.35200 47.83300
C  31.12200 -4.66400 49.75100
C  29.46200 -2.62600 47.38600
O  30.34400 -1.83400 47.41300
C  28.30300 -2.60600 46.37500
C  27.76800 -1.23900 46.44300
O  27.73000 -0.43900 45.48000
O  27.39300 -0.98400 47.76300
C  27.21600 0.34600 48.20900
H  22.33200 -6.12200 45.45500
H  24.16000 -10.04800 50.03800
H  29.74400 -6.92000 50.62100
H  25.60000 -2.45000 44.73200
H  24.09400 -4.66000 43.79200
H  22.90000 -2.44500 44.08100
H  23.57800 -2.52100 45.74900
H  22.18400 -3.56800 45.19700
H  26.18600 -4.74700 43.13700
H  27.59200 -4.26500 44.07700
H  27.93600 -3.04400 42.17000
H  26.94200 -1.88500 43.12800
H  20.47300 -7.26300 45.81000
H  19.91500 -8.55000 46.86200
H  20.80800 -8.89500 45.51400
H  23.08700 -11.92400 48.94200
H  21.50000 -12.26900 49.38200
H  22.36200 -11.05000 50.35700
H  26.79800 -10.78200 50.39800
H  28.26800 -8.91600 52.08400
H  25.67100 -11.20200 52.33200
H  25.32000 -9.44100 52.52400
H  26.87700 -10.17700 53.05400
H  30.15600 -9.39500 50.43100
H  29.06700 -9.82100 49.22600
H  30.48800 -11.50900 50.95000
H  29.23400 -12.14000 50.01100
H  28.87500 -11.57200 51.71200
H  31.88400 -4.14000 49.17400
H  31.42400 -5.67800 50.01400
H  31.05500 -4.03500 50.63900
H  28.81000 -2.73100 45.41800
H  27.33700 1.03700 47.37600
H  28.04100 0.55700 48.89000
H  26.23900 0.50400 48.66700
Mg 48.18500 34.55000 26.87500
C  45.92600 33.68500 29.45000
C  48.62900 37.58100 28.55100
C  49.38600 35.91700 23.97800
C  47.22400 31.75600 25.10500
N  47.48800 35.48500 28.93500
C  46.65100 34.87800 29.78500
C  46.64100 35.54000 31.17600
C  47.35300 36.93200 30.85100
C  47.83300 36.66400 29.38600
C  46.36000 38.11000 30.80300
C  47.58500 34.74600 32.14400
C  47.04600 34.62100 33.55200
H  47.74400 35.50900 34.59900
N  49.13600 36.42000 26.34300
C  49.15600 37.49300 27.24600
C  49.84300 38.52500 26.56000
C  50.08600 38.11100 25.24100
C  49.57700 36.77500 25.11600
C  50.09800 39.95700 27.15700
C  50.69100 38.93500 24.02600
O  50.72200 38.40900 22.87300
C  51.30100 40.34400 24.28900
N  48.28000 33.96000 24.87300
C  48.75200 34.66800 23.86600
C  48.60400 33.89900 22.50700
C  48.14800 32.44700 22.85400
C  47.85300 32.71200 24.37600
C  47.58300 34.57200 21.54200
C  49.15600 31.26100 22.67500
C  50.03700 30.83400 23.90300
N  46.93500 32.92900 27.21500
C  46.71800 31.83100 26.45700
C  45.73000 31.03300 27.08800
C  45.32200 31.78100 28.26000
C  46.13500 32.89400 28.29500
C  45.16300 29.82100 26.51600
C  44.38100 31.79500 29.42700
O  43.53200 31.01700 29.78500
C  44.74700 33.07300 30.23300
C  45.01900 32.64400 31.57100
O  45.94300 31.88000 31.77400
O  44.01900 33.02700 32.45300
C  44.02800 32.29300 33.77700
H  48.70500 38.52500 29.09400
H  49.74100 36.28600 23.01400
H  46.82000 30.94100 24.50000
H  45.69100 35.73200 31.67500
H  48.06100 37.23500 31.62200
H  46.66600 38.86900 31.52300
H  45.32900 37.79500 30.96000
H  46.39100 38.56800 29.81400
H  48.54000 35.26700 32.20500
H  47.81400 33.74200 31.78600
H  47.32400 33.61500 33.86600
H  45.96600 34.76400 33.51900
H  49.59300 40.18300 28.09700
H  49.79200 40.73200 26.45400
H  51.16500 40.13700 27.28900
H  50.50100 41.08200 24.35800
H  51.85200 40.52900 23.36800
H  51.89300 40.33800 25.20400
H  49.56400 33.85500 21.99200
H  47.18000 32.16500 22.44000
H  47.25500 35.54700 21.90400
H  46.68100 33.97600 21.40700
H  48.03900 34.58900 20.55200
H  49.72300 31.42800 21.75900
H  48.51500 30.38800 22.55000
H  49.57300 29.98000 24.39600
H  50.09500 31.54600 24.72600
H  51.02900 30.56000 23.54300
H  45.04100 29.88500 25.43500
H  44.21100 29.56800 26.98400
H  45.81200 28.96800 26.71500
H  43.88200 33.73200 30.16200
H  44.38600 31.26900 33.67500
H  42.99500 32.13500 34.08800
H  44.63300 32.88500 34.46300

