158

Mg 0.62700 8.84000 26.23700
C  1.65700 10.40700 29.08600
C  0.09100 5.91200 28.11400
C  0.02200 7.09000 23.39900
C  1.75200 11.45100 24.27900
N  1.06500 8.10600 28.33500
C  1.20200 9.13000 29.33900
C  1.04800 8.53500 30.70900
C  0.85000 6.98100 30.42100
C  0.55700 6.98200 28.84700
C  2.02300 6.03600 30.82200
C  -0.15600 9.08200 31.45900
C  -0.05500 9.26700 32.98700
H  1.24400 8.97100 33.73000
N  0.05400 6.77200 25.79000
C  -0.12200 5.78900 26.73900
C  -0.72000 4.66900 26.07900
C  -0.84700 4.91300 24.68500
C  -0.22000 6.32100 24.57100
C  -1.06700 3.42200 26.85200
C  -1.52300 4.07400 23.61200
O  -1.61500 4.53500 22.46500
C  -1.91100 2.69800 23.86600
N  0.98500 9.13500 24.18400
C  0.62700 8.28500 23.14700
C  1.01100 8.76200 21.72600
C  1.35700 10.26200 22.04300
C  1.39100 10.28900 23.56700
C  2.26900 8.06600 21.21200
C  0.35900 11.34100 21.37800
C  -0.78300 11.77600 22.33700
N  1.50600 10.65400 26.53300
C  1.86900 11.67600 25.69000
C  2.30700 12.81800 26.43600
C  2.31700 12.35500 27.77200
C  1.81500 11.01300 27.78400
C  2.63800 14.15400 25.92500
C  2.57900 12.71700 29.13600
O  3.02700 13.77800 29.61400
C  2.23000 11.47200 30.06100
C  3.50800 11.05900 30.68500
O  4.34600 10.36900 30.17600
O  3.49100 11.49000 32.00300
C  4.53100 10.97300 32.95400
H  -0.21800 5.11800 28.79700
H  -0.32200 6.43800 22.59400
H  2.15800 12.22200 23.62000
H  1.94300 8.63000 31.32300
H  -0.04200 6.60900 30.92500
H  1.65800 5.35900 31.59500
H  2.87900 6.58100 31.21900
H  2.39400 5.58700 29.90100
H  -1.03600 8.46300 31.28400
H  -0.39500 10.03400 30.98400
H  -0.87900 8.73400 33.46000
H  -0.26600 10.28100 33.32600
H  -0.57600 2.57800 26.36800
H  -2.14500 3.26500 26.82300
H  -0.77800 3.57500 27.89200
H  -2.72500 2.33900 23.23600
H  -2.24600 2.45200 24.87400
H  -1.00300 2.10100 23.78300
H  0.08900 8.57900 21.17400
H  2.37900 10.46800 21.72700
H  2.29400 8.24800 20.13800
H  2.05600 7.01000 21.38100
H  3.20900 8.29500 21.71500
H  -0.03200 10.93400 20.44600
H  1.04600 12.12100 21.04900
H  -0.82400 11.17700 23.24700
H  -1.72000 11.71400 21.78200
H  -0.61800 12.77900 22.73100
H  1.73500 14.69900 25.65000
H  3.28500 14.06300 25.05300
H  3.10400 14.84200 26.63000
H  1.50600 11.77000 30.81900
H  5.47700 11.24700 32.48600
H  4.47500 9.89800 33.12600
H  4.59500 11.42000 33.94600
Mg 24.62000 -5.69500 45.88700
C  26.71100 -3.56600 44.12300
C  22.05500 -5.00800 43.54400
C  22.86200 -8.52300 46.75500
C  27.39200 -7.11600 47.45400
N  24.33600 -4.38300 44.21500
C  25.37100 -3.61000 43.66500
C  24.83600 -2.74400 42.47000
C  23.30500 -3.00800 42.48400
C  23.22000 -4.21200 43.44300
C  22.46200 -1.79400 43.04500
C  25.65600 -3.14800 41.19700
C  26.43700 -2.06600 40.40500
H  26.05200 -1.91200 38.86700
N  22.62100 -6.46200 45.43700
C  21.73800 -6.03300 44.42900
C  20.57400 -6.82300 44.44400
C  20.65800 -7.83900 45.54600
C  22.09200 -7.65500 46.01600
C  19.35300 -6.60100 43.47400
C  19.62900 -8.92600 45.93600
O  18.57400 -8.85900 45.34300
C  19.80800 -9.87900 47.01400
N  25.07900 -7.63700 47.00900
C  24.20600 -8.59500 47.15700
C  24.77400 -9.91800 47.74800
C  26.32600 -9.35900 48.06100
C  26.25400 -7.96300 47.45700
C  24.08300 -10.46900 49.06600
C  27.50200 -10.25900 47.38400
C  28.48400 -11.06200 48.26000
N  26.71500 -5.31400 45.95200
C  27.68200 -5.91400 46.73300
C  28.92300 -5.26400 46.45400
C  28.66400 -4.32600 45.44400
C  27.28100 -4.40200 45.13800
C  30.22000 -5.62500 47.08800
C  29.19000 -3.27900 44.54600
O  30.31000 -2.81200 44.54200
C  28.02000 -2.84900 43.66300
C  27.99000 -1.37800 43.80700
O  27.55900 -0.82300 44.79800
O  28.62500 -0.84600 42.70400
C  28.81800 0.62400 42.83100
H  21.37900 -4.78000 42.71700
H  22.37700 -9.49400 46.87300
H  28.24700 -7.53200 47.99200
H  25.23500 -1.76000 42.71900
H  22.82800 -3.25900 41.53600
H  23.08200 -0.90600 43.16300
H  22.07000 -2.04500 44.03100
H  21.69100 -1.54900 42.31500
H  24.85500 -3.51200 40.55400
H  26.34400 -3.97200 41.38700
H  27.51700 -2.20400 40.34800
H  26.24000 -1.06400 40.78500
H  18.78500 -5.74800 43.84500
H  18.87000 -7.56300 43.29900
H  19.78200 -6.29700 42.51900
H  18.84500 -10.15500 47.44300
H  20.54000 -9.49800 47.72700
H  20.27200 -10.71400 46.48900
H  24.70600 -10.60100 46.90100
H  26.38100 -9.24300 49.14400
H  23.16000 -9.91900 49.24700
H  24.75100 -10.35600 49.92000
H  23.78400 -11.49300 48.84100
H  28.13000 -9.62100 46.76200
H  27.02600 -11.06000 46.81800
H  28.36600 -12.12700 48.06300
H  28.19900 -10.84300 49.28900
H  29.51900 -10.87600 47.97300
H  30.11700 -6.02400 48.09700
H  30.96000 -4.83000 47.18000
H  30.72200 -6.39500 46.50300
H  28.25900 -3.12400 42.63600
H  28.12500 1.00300 43.58200
H  28.59200 1.06400 41.86000
H  29.88200 0.72100 43.05100

