158

Mg 24.05000 -4.42100 45.14300
C  26.23000 -2.18100 43.58900
C  21.36800 -3.16700 43.18600
C  22.37700 -7.34100 45.51200
C  26.85500 -5.85600 46.69300
N  23.82600 -2.95300 43.62700
C  24.82000 -2.12000 43.17100
C  24.21200 -1.01000 42.25000
C  22.70700 -1.26900 42.30800
C  22.55200 -2.49800 43.22300
C  21.85000 -0.07200 42.82100
C  24.75800 -1.05600 40.83900
C  24.50000 0.19300 39.98800
H  23.99900 -0.16500 38.59500
N  22.03200 -5.04400 44.58000
C  21.13200 -4.37700 43.74900
C  19.99400 -5.25000 43.52100
C  20.25500 -6.48600 44.19300
C  21.60600 -6.33900 44.84200
C  18.85200 -4.71500 42.68500
C  19.29200 -7.57900 44.15400
O  18.23000 -7.54700 43.50800
C  19.63900 -8.90200 44.84300
N  24.55100 -6.25900 46.06500
C  23.63500 -7.26300 46.09100
C  24.27600 -8.55700 46.73900
C  25.74200 -8.00500 47.18600
C  25.73400 -6.61200 46.56800
C  23.41100 -9.27700 47.75700
C  26.96600 -8.87600 46.83300
C  27.58900 -9.60900 48.04600
N  26.09400 -3.98700 45.32700
C  27.13000 -4.58200 46.06000
C  28.29100 -3.67600 46.04300
C  27.97100 -2.78300 44.99600
C  26.66300 -3.04100 44.63000
C  29.54700 -3.68600 46.91600
C  28.49000 -1.65400 44.29200
O  29.56200 -1.07800 44.43000
C  27.46100 -1.34800 43.28800
C  27.19000 0.09200 43.32200
O  27.14400 0.81200 44.31400
O  27.13500 0.63200 42.08500
C  26.90800 2.06100 42.08400
H  20.53400 -2.75400 42.61500
H  21.85000 -8.24800 45.81400
H  27.60100 -6.34800 47.32200
H  24.38300 -0.02900 42.69300
H  22.46100 -1.61000 41.30300
H  21.38300 0.58200 42.08400
H  22.42900 0.47000 43.56800
H  21.07500 -0.33000 43.54300
H  24.37600 -1.98700 40.42000
H  25.84400 -1.06600 40.93000
H  25.36600 0.83900 39.84600
H  23.74800 0.80900 40.48200
H  18.68500 -3.64700 42.82600
H  17.96600 -5.16700 43.13000
H  18.97900 -4.93000 41.62400
H  19.48400 -8.70800 45.90500
H  20.68100 -9.17000 44.67400
H  18.92000 -9.69500 44.64200
H  24.39400 -9.30400 45.95400
H  25.61200 -7.99700 48.26800
H  22.82100 -8.59300 48.36700
H  24.10000 -9.76500 48.44600
H  22.83800 -9.98500 47.15800
H  27.67500 -8.37700 46.17200
H  26.45100 -9.68800 46.31900
H  27.28200 -9.10000 48.96000
H  28.66500 -9.58900 47.87800
H  27.32300 -10.66600 48.00800
H  29.61300 -3.08300 47.82200
H  30.28000 -3.32700 46.19500
H  29.66600 -4.73300 47.19700
H  27.75200 -1.61400 42.27100
H  27.76100 2.55200 42.55100
H  25.97000 2.38400 42.53600
H  26.98900 2.49500 41.08800
Mg -2.78400 34.77500 27.02900
C  -4.72600 33.49100 29.70000
C  -1.25000 37.05500 29.10500
C  -1.50200 36.28300 24.34900
C  -4.48500 32.44800 24.98200
N  -3.04000 35.23600 29.12300
C  -3.82800 34.54400 30.04900
C  -3.40900 34.95400 31.41800
C  -2.34300 36.17100 31.20700
C  -2.14000 36.09600 29.70300
C  -2.92600 37.58400 31.62100
C  -2.80300 33.76300 32.23600
C  -3.51600 33.35300 33.57000
H  -2.80100 33.17900 34.93800
N  -1.62200 36.49300 26.79400
C  -0.99100 37.19400 27.75300
C  -0.10600 38.23600 27.17700
C  -0.18200 38.02600 25.76100
C  -1.13800 36.92600 25.55900
C  0.51900 39.32600 27.96400
C  0.47700 38.74500 24.63400
O  0.37800 38.41900 23.49300
C  1.32800 39.92200 25.00300
N  -3.15600 34.56200 25.00000
C  -2.39200 35.21700 24.09900
C  -2.53500 34.71100 22.66400
C  -3.29900 33.38700 22.89800
C  -3.70800 33.47500 24.38300
C  -3.18500 35.70900 21.71400
C  -2.40800 32.12300 22.55300
C  -3.16300 31.07400 21.66800
N  -4.32800 33.19900 27.25600
C  -4.88500 32.36800 26.31000
C  -5.77400 31.44900 27.00700
C  -5.77100 31.84800 28.38900
C  -4.82000 32.93200 28.42700
C  -6.52000 30.25900 26.50300
C  -6.29600 31.55100 29.62900
O  -6.98200 30.59900 29.94200
C  -5.73800 32.65600 30.56300
C  -6.82300 33.39100 31.21000
O  -7.23700 34.44500 30.74000
O  -7.26600 32.84300 32.38300
C  -8.40900 33.45000 33.07000
H  -0.67300 37.68000 29.79000
H  -0.93300 36.46500 23.43500
H  -4.90700 31.72100 24.28500
H  -4.27000 35.33500 31.96700
H  -1.45700 35.99300 31.81600
H  -3.98500 37.46200 31.84700
H  -2.93600 38.23000 30.74300
H  -2.31500 38.05700 32.39000
H  -1.78300 34.08700 32.44200
H  -2.80000 32.84200 31.65300
H  -3.81600 32.32700 33.35800
H  -4.30300 34.09600 33.70400
H  -0.12600 40.20000 27.88000
H  1.57400 39.48500 27.74000
H  0.50500 39.05600 29.02000
H  0.78300 40.76800 25.42100
H  1.65800 40.37700 24.06900
H  2.17600 39.62300 25.61900
H  -1.52200 34.49600 22.32400
H  -4.24100 33.32300 22.35200
H  -2.58500 35.84200 20.81400
H  -3.30900 36.70800 22.13200
H  -4.21200 35.37100 21.57500
H  -2.18000 31.54400 23.44800
H  -1.52800 32.46700 22.00800
H  -3.20100 30.12100 22.19600
H  -2.67600 30.87500 20.71400
H  -4.16600 31.38500 21.37300
H  -6.43700 29.45200 27.23100
H  -5.91600 29.86600 25.68500
H  -7.54000 30.38700 26.13900
H  -5.29700 32.11400 31.40000
H  -8.05400 34.35800 33.55700
H  -8.79700 32.78400 33.84000
H  -9.31200 33.56600 32.47000

