158

Mg 46.48900 4.47400 48.27300
C  44.16100 6.71700 47.44100
C  44.26500 1.94000 47.29400
C  48.90700 2.06200 48.49700
C  48.99400 6.86200 48.25400
N  44.49000 4.36800 47.25400
C  43.63600 5.45800 47.17000
C  42.26200 5.08000 46.62700
C  42.23100 3.49000 46.77100
C  43.76700 3.20900 47.07900
C  41.20400 2.96800 47.80600
C  41.83200 5.66800 45.18600
C  40.77700 6.83500 45.09200
H  39.89000 6.64100 43.91600
N  46.53800 2.34700 48.10300
C  45.51300 1.51200 47.68700
C  45.90700 0.14600 47.69100
C  47.24900 0.09000 48.01700
C  47.64800 1.57900 48.19300
C  44.90000 -1.00200 47.35000
C  48.08200 -1.18900 48.24500
O  47.54200 -2.28700 48.25800
C  49.56300 -1.20800 48.45500
N  48.70600 4.51100 48.33100
C  49.43900 3.37900 48.59700
C  50.95700 3.70700 48.76300
C  50.82500 5.26200 48.92000
C  49.38900 5.56000 48.45200
C  51.70000 2.94100 49.88500
C  51.87400 5.96800 47.96600
C  53.32300 5.43400 47.77800
N  46.59000 6.40100 48.01700
C  47.65700 7.28500 48.00600
C  47.13300 8.62200 47.85600
C  45.77600 8.48800 47.69800
C  45.50600 7.06600 47.70000
C  48.07500 9.82800 47.83100
C  44.54800 9.11500 47.52000
O  44.34400 10.30400 47.45300
C  43.41800 8.00500 47.43400
C  42.50100 8.07800 48.69600
O  42.57500 7.34700 49.61200
O  41.48100 9.00700 48.46000
C  40.33800 8.53300 49.19600
H  43.49900 1.24200 46.95000
H  49.60500 1.22900 48.60500
H  49.72300 7.63300 48.51200
H  41.63000 5.50800 47.40600
H  42.05900 3.09200 45.77100
H  40.52100 2.35500 47.21900
H  40.65800 3.86500 48.09900
H  41.71900 2.55800 48.67500
H  41.52500 4.85500 44.52700
H  42.80400 6.00100 44.82300
H  41.42800 7.69400 44.93100
H  40.25600 6.89300 46.04800
H  44.82100 -1.69500 48.18700
H  45.36900 -1.57100 46.54700
H  43.93100 -0.84300 46.87700
H  49.78900 -0.70900 49.39700
H  50.04500 -0.81000 47.56200
H  49.99200 -2.19600 48.62400
H  51.33600 3.60500 47.74600
H  51.02900 5.60600 49.93400
H  52.24500 2.12400 49.41100
H  51.04700 2.62800 50.70000
H  52.49600 3.53700 50.33100
H  51.89600 7.02600 48.22700
H  51.49400 5.99200 46.94500
H  53.99700 6.28000 47.91500
H  53.41800 4.92400 46.81900
H  53.62200 4.79100 48.60700
H  48.29900 10.03800 48.87700
H  47.59700 10.73600 47.46300
H  48.86600 9.49000 47.16200
H  42.78600 8.22200 46.57200
H  39.77400 7.78700 48.63700
H  39.59400 9.32900 49.19300
H  40.44000 8.25800 50.24600
Mg 48.25800 15.67100 28.55900
C  46.06200 15.47900 31.21400
C  50.62400 16.93300 30.78100
C  50.30300 16.04500 25.90700
C  45.75000 14.49500 26.49800
N  48.29400 16.31000 30.79000
C  47.29600 16.00800 31.63900
C  47.73100 16.36000 33.05700
C  49.08700 17.13100 32.85800
C  49.37000 16.86000 31.37400
C  49.03700 18.65700 33.18100
C  47.94100 15.08600 33.94700
C  47.48300 15.12400 35.40400
H  47.33700 16.45300 36.14600
N  50.18900 16.39600 28.37900
C  50.97100 16.86900 29.35800
C  52.27200 17.22900 28.78500
C  52.35400 16.80500 27.40600
C  50.90100 16.35300 27.16400
C  53.43500 17.78200 29.72500
C  53.46100 16.87200 26.42800
O  53.32000 16.46800 25.27100
C  54.82400 17.46300 26.81700
N  48.02900 15.37400 26.50300
C  48.99000 15.66300 25.59200
C  48.46400 15.43400 24.17800
C  47.14100 14.68100 24.38500
C  46.95000 14.79800 25.89000
C  48.33800 16.71500 23.37300
C  47.16200 13.23400 23.68300
C  47.53300 11.99500 24.57100
N  46.32000 14.95600 28.75000
C  45.40500 14.49300 27.84700
C  44.21800 14.09400 28.55700
C  44.46000 14.36100 29.90200
C  45.78100 14.91300 29.93500
C  43.06300 13.48100 27.95400
C  43.90500 14.33200 31.26400
O  42.86400 13.83400 31.66700
C  45.02700 15.00100 32.13700
C  44.51600 16.08100 33.12600
O  44.47800 17.31600 32.90400
O  44.09100 15.39500 34.28100
C  43.49200 16.24500 35.30100
H  51.43500 17.38300 31.35800
H  50.99200 16.15900 25.06700
H  45.00200 14.17900 25.76700
H  47.08100 17.07900 33.55600
H  49.82200 16.69600 33.53500
H  49.23400 19.18400 32.24700
H  49.78700 18.91900 33.92800
H  48.01000 18.91400 33.44100
H  48.97200 14.73500 33.91300
H  47.55800 14.19100 33.45800
H  48.28300 14.67000 35.98900
H  46.52800 14.62800 35.57500
H  53.47900 17.40300 30.74600
H  53.37500 18.87000 29.69100
H  54.45800 17.54300 29.43600
H  54.78300 18.45400 27.26800
H  55.27600 17.74600 25.86600
H  55.50000 16.84100 27.40400
H  49.15800 14.78100 23.64900
H  46.31300 15.18800 23.89100
H  47.42300 16.83500 22.79300
H  49.17200 16.80300 22.67800
H  48.41900 17.54700 24.07200
H  47.82600 13.14900 22.82300
H  46.17300 13.05400 23.26100
H  48.12900 11.29300 23.98800
H  46.68000 11.44600 24.97100
H  48.05300 12.36500 25.45500
H  43.35700 12.55800 27.45400
H  42.68600 14.28300 27.31900
H  42.36300 13.23700 28.75300
H  45.51000 14.30400 32.82100
H  44.11000 17.12200 35.49500
H  43.28200 15.70700 36.22500
H  42.57300 16.71900 34.95500

