158

Mg 35.72400 2.91500 30.93800
C  33.12300 3.92200 32.93200
C  37.85800 2.93800 33.49400
C  38.26400 1.92900 28.79000
C  33.59200 3.38000 28.15100
N  35.42100 3.37800 32.93200
C  34.33700 3.62200 33.59600
C  34.57300 3.53600 35.09500
C  36.16200 3.47700 35.24600
C  36.53300 3.35000 33.76500
C  36.82300 4.75900 35.94100
C  33.87800 2.30100 35.72700
C  33.41100 2.54900 37.18500
H  34.09800 3.49300 38.14100
N  37.79400 2.48400 31.14900
C  38.49300 2.50000 32.30100
C  39.85900 2.03300 32.14000
C  39.91800 1.71300 30.77700
C  38.61600 2.01400 30.16800
C  40.85300 1.90300 33.27500
C  41.11400 1.04900 29.97700
O  41.12100 0.99500 28.77900
C  42.31700 0.41600 30.69700
N  35.94300 2.76000 28.73600
C  37.02500 2.19300 28.15700
C  36.86500 2.16800 26.61600
C  35.42800 2.72800 26.42600
C  34.93900 3.05000 27.83200
C  38.01300 3.00800 25.81500
C  34.54400 1.78900 25.52400
C  34.15100 0.46100 26.20000
N  33.68800 3.51300 30.55800
C  32.91300 3.66000 29.38700
C  31.63700 4.02200 29.72800
C  31.58800 4.08800 31.15100
C  32.88200 3.79100 31.58400
C  30.47900 4.25200 28.74000
C  30.73500 4.29500 32.30600
O  29.55200 4.46000 32.41800
C  31.76800 4.12800 33.55300
C  31.73700 5.42600 34.34800
O  31.73700 6.54900 33.88400
O  31.50300 5.19300 35.70900
C  31.21000 6.29300 36.58800
H  38.46800 2.76100 34.38300
H  39.02600 1.55900 28.10000
H  32.96000 3.56900 27.28000
H  34.18400 4.45300 35.53800
H  36.46400 2.51300 35.65400
H  37.67600 5.10900 35.36000
H  37.11600 4.44200 36.94200
H  36.03500 5.50900 35.99700
H  34.62600 1.51200 35.80100
H  33.05600 1.98000 35.08600
H  33.32300 1.57600 37.66900
H  32.35100 2.79200 37.25500
H  41.00700 0.85500 33.53300
H  40.47600 2.16100 34.26400
H  41.78300 2.45900 33.15800
H  43.06600 0.06600 29.98700
H  42.02100 -0.17800 31.56200
H  42.86000 1.23800 31.16200
H  36.90200 1.11000 26.35700
H  35.46900 3.73000 26.00000
H  37.66000 3.77600 25.12700
H  38.52200 2.33000 25.13000
H  38.71500 3.47900 26.50400
H  35.12000 1.52100 24.63900
H  33.69700 2.35000 25.13000
H  34.76000 0.27800 27.08500
H  34.18100 -0.40900 25.54400
H  33.13300 0.48700 26.58900
H  30.29300 3.28100 28.28200
H  30.77100 4.89000 27.90600
H  29.61000 4.72100 29.20200
H  31.47500 3.27200 34.16200
H  30.48800 5.99700 37.34800
H  30.64500 7.08100 36.08900
H  32.15600 6.68400 36.96300
Mg 9.38000 47.35100 25.05500
C  7.11400 47.83900 27.58500
C  11.85300 48.51100 27.13700
C  11.59800 47.20800 22.37900
C  6.80900 46.67700 22.80500
N  9.45900 48.06100 27.16900
C  8.41800 48.13100 28.07100
C  8.93700 48.45300 29.46300
C  10.34200 49.06100 29.20000
C  10.59100 48.43900 27.80100
C  10.51000 50.56300 29.28000
C  9.04400 47.21000 30.38700
C  8.59300 47.57600 31.80800
H  8.91200 46.59900 32.96500
N  11.46400 47.61800 24.84000
C  12.27100 48.02900 25.83800
C  13.66900 48.05400 25.34600
C  13.62600 47.69400 23.98100
C  12.14100 47.53900 23.67600
C  14.88500 48.30400 26.22500
C  14.81500 47.37800 23.01800
O  14.66300 46.82700 21.94200
C  16.23600 47.79100 23.44200
N  9.24100 46.95300 22.96700
C  10.25500 46.94000 22.10500
C  9.87500 46.64500 20.59100
C  8.37700 46.36000 20.80600
C  8.06800 46.56000 22.31100
C  10.32800 47.63000 19.49800
C  8.05100 44.90000 20.43700
C  8.56700 43.78800 21.34700
N  7.35000 47.29700 25.12900
C  6.40400 46.96400 24.12500
C  5.07200 47.02900 24.70100
C  5.30700 47.35400 26.04500
C  6.70400 47.49700 26.26100
C  3.84200 46.80700 24.00000
C  4.68400 47.58700 27.26700
O  3.48500 47.48400 27.54400
C  5.83800 47.96500 28.29600
C  5.70500 46.87700 29.31300
O  5.98200 45.69800 29.17700
O  5.14100 47.43600 30.43800
C  4.64000 46.45600 31.36000
H  12.65400 48.94600 27.73800
H  12.17900 47.08400 21.46300
H  6.10300 46.47600 21.99700
H  8.37100 49.32300 29.79500
H  11.18300 48.60900 29.72600
H  10.24900 50.92600 28.28600
H  11.56100 50.71300 29.52900
H  9.76000 50.94900 29.97100
H  10.02400 46.74900 30.50600
H  8.45600 46.35000 30.06800
H  7.51000 47.61700 31.69200
H  8.84600 48.62700 31.94200
H  14.51300 48.43400 27.24100
H  15.42200 49.21200 25.95200
H  15.60200 47.50400 26.03700
H  16.79100 47.08700 24.06100
H  16.22700 48.78800 23.88400
H  16.84700 47.88100 22.54400
H  10.39800 45.70200 20.42900
H  7.78400 47.02800 20.18200
H  10.95800 48.31300 20.06800
H  9.47300 48.16800 19.08900
H  10.77500 47.01900 18.71400
H  8.34800 44.72500 19.40300
H  6.97400 44.74000 20.38500
H  9.32700 44.06300 22.07800
H  8.91300 43.01100 20.66500
H  7.75000 43.29400 21.87300
H  4.03600 45.96600 23.33500
H  3.43100 47.72700 23.58500
H  3.02500 46.37200 24.57700
H  5.59300 48.95600 28.67700
H  4.56600 46.88900 32.35800
H  5.23900 45.54600 31.38700
H  3.61200 46.22900 31.07800

