158

Mg 40.72500 9.02400 29.71000
C  42.72900 10.10300 32.33000
C  38.77200 7.35400 31.91100
C  39.25000 7.67200 27.20000
C  43.27300 10.29200 27.49900
N  40.78900 8.76900 31.89100
C  41.60700 9.43800 32.74200
C  41.04200 9.35900 34.11900
C  40.07600 8.15000 34.05200
C  39.84600 8.07300 32.52200
C  40.68300 6.80400 34.60900
C  40.23600 10.71400 34.61600
C  40.12500 10.76100 36.18100
H  41.23900 11.46800 36.96900
N  39.02100 7.76700 29.55200
C  38.31100 7.26100 30.59900
C  37.13600 6.61900 30.06400
C  37.25000 6.73100 28.64300
C  38.53200 7.42300 28.42400
C  36.05200 6.00800 30.92000
C  36.27000 6.29900 27.57000
O  36.42300 6.50700 26.38800
C  34.96800 5.67300 27.99500
N  41.28800 8.77500 27.69800
C  40.41900 8.25100 26.81800
C  40.75900 8.52200 25.33800
C  41.98800 9.46100 25.50500
C  42.24900 9.50500 26.99300
C  40.87100 7.27200 24.50400
C  41.71500 10.83100 24.90700
C  40.87100 11.73300 25.82100
N  42.55900 10.01900 29.82900
C  43.47900 10.40100 28.89500
C  44.59800 11.04400 29.58100
C  44.29100 11.01500 30.94000
C  43.09600 10.33300 31.02400
C  45.80700 11.79800 29.02500
C  44.77100 11.41500 32.22200
O  45.73300 12.04300 32.52900
C  43.73500 10.83400 33.20900
C  44.41800 10.05000 34.21600
O  44.55500 8.81700 34.20700
O  44.91800 10.89100 35.19300
C  45.59900 10.27800 36.26500
H  38.14900 6.83900 32.64600
H  38.82400 7.11200 26.36600
H  43.91600 10.76000 26.75000
H  41.87900 9.22900 34.80500
H  39.19000 8.30100 34.67000
H  41.74900 6.70600 34.39900
H  40.31600 5.91800 34.09200
H  40.51700 6.51600 35.64700
H  39.20800 10.72200 34.25300
H  40.76200 11.55100 34.15800
H  40.18300 9.72000 36.50200
H  39.17700 11.20300 36.48800
H  35.90900 4.95700 30.66800
H  35.05300 6.43900 30.85800
H  36.29200 5.90500 31.97900
H  35.03100 4.68300 28.44600
H  34.25300 5.59800 27.17500
H  34.57700 6.38000 28.72600
H  39.91300 9.02600 24.87000
H  42.92300 9.02100 25.15700
H  40.16800 7.17500 23.67700
H  40.77700 6.40700 25.16100
H  41.85400 7.43700 24.06500
H  41.14600 10.75200 23.98100
H  42.65000 11.34700 24.68600
H  40.66100 11.31100 26.80300
H  39.83700 11.86600 25.50100
H  41.37900 12.67900 26.00800
H  45.62000 12.06600 27.98500
H  46.71000 11.19800 29.13500
H  45.91300 12.67900 29.65900
H  43.27600 11.69600 33.69300
H  46.37400 9.65200 35.82200
H  44.87500 9.90400 36.98900
H  46.14400 10.99500 36.87700
Mg 35.40200 49.47200 26.26900
C  35.80600 47.49100 29.00000
C  34.20600 52.06100 28.15000
C  34.99100 51.28000 23.33900
C  36.36700 46.76800 24.20400
N  34.83300 49.67600 28.36200
C  35.22700 48.79200 29.28600
C  35.12900 49.38000 30.71800
C  34.34500 50.68900 30.46200
C  34.39400 50.82000 28.93000
C  32.86000 50.78500 31.08800
C  36.50700 49.55200 31.43900
C  36.57800 48.82100 32.83400
H  35.56200 49.06100 33.99000
N  34.83000 51.37000 25.85500
C  34.44800 52.33100 26.76400
C  34.29900 53.59400 26.02000
C  34.42500 53.39700 24.64000
C  34.78700 51.93300 24.61300
C  34.05200 54.86700 26.77500
C  34.33700 54.28700 23.45000
O  34.28000 53.88300 22.28900
C  34.06900 55.73100 23.72200
N  35.76700 49.11000 24.08700
C  35.45600 50.00400 23.10400
C  35.56500 49.33600 21.71300
C  36.19200 47.97600 22.05800
C  36.17800 47.91700 23.54800
C  34.26700 49.26000 20.88400
C  37.69100 47.88900 21.46200
C  38.82900 48.30900 22.48500
N  35.96600 47.48700 26.53000
C  36.38800 46.56700 25.56400
C  36.66200 45.33500 26.34600
C  36.49500 45.67300 27.69000
C  36.07900 46.99200 27.71500
C  37.19900 44.06100 25.73700
C  36.55600 45.11500 28.97800
O  36.92100 44.04300 29.41000
C  36.10000 46.29700 29.92900
C  34.88300 45.77800 30.65700
O  33.81300 45.55500 30.24200
O  35.25100 45.50200 31.94200
C  34.14400 45.24400 32.84300
H  33.82300 52.85400 28.79700
H  35.05200 51.80800 22.38600
H  36.31300 45.88100 23.56900
H  34.49200 48.69500 31.27700
H  34.81800 51.52600 30.97500
H  32.19400 51.18300 30.32300
H  32.94000 51.49300 31.91300
H  32.47600 49.86500 31.52600
H  36.88700 50.57100 31.50700
H  37.22700 48.94800 30.88800
H  37.58400 49.00700 33.20900
H  36.58900 47.73200 32.79100
H  33.10200 55.29900 26.46200
H  34.94400 55.48700 26.68900
H  33.82600 54.68900 27.82700
H  33.06700 55.94400 24.09500
H  34.19800 56.22400 22.75900
H  34.83400 56.00800 24.44800
H  36.34700 49.90900 21.21600
H  35.62300 47.13100 21.67000
H  34.10600 48.18800 20.76900
H  34.53400 49.88400 20.03100
H  33.46700 49.71100 21.47200
H  37.68300 48.51900 20.57300
H  37.89300 46.83800 21.25800
H  39.68200 47.69500 22.19600
H  38.66600 48.26000 23.56200
H  39.09100 49.35600 22.33100
H  38.28800 44.03000 25.78300
H  36.90800 43.85900 24.70600
H  36.74200 43.29800 26.36700
H  36.89500 46.38200 30.67100
H  34.38600 45.71600 33.79500
H  33.96700 44.17100 32.91500
H  33.16900 45.63000 32.54400

