158

Mg 24.53000 -4.73600 45.24900
C  26.88600 -2.55400 43.82900
C  22.20400 -3.68500 43.12100
C  22.66600 -7.42100 46.16000
C  27.26400 -6.05000 47.27600
N  24.63600 -3.34900 43.58300
C  25.57200 -2.50600 43.27200
C  25.07900 -1.61000 42.07200
C  23.55700 -1.69100 42.33500
C  23.42600 -2.99400 43.01200
C  23.10000 -0.63400 43.36800
C  25.42700 -2.18700 40.63000
C  26.02600 -1.19200 39.58500
H  25.92300 -1.65500 38.07000
N  22.62300 -5.46900 44.76400
C  21.84600 -4.80900 43.90800
C  20.54400 -5.42600 43.83100
C  20.59900 -6.58700 44.68100
C  21.99600 -6.55700 45.29000
C  19.40300 -5.07500 42.88300
C  19.53300 -7.63600 45.00700
O  18.44600 -7.51200 44.43500
C  19.76100 -8.94900 45.77800
N  24.92700 -6.42600 46.51900
C  23.97700 -7.38800 46.70700
C  24.49200 -8.57100 47.49600
C  25.84500 -7.99300 48.11800
C  26.02400 -6.75700 47.23000
C  23.55900 -9.29200 48.51100
C  27.07900 -8.92700 48.20600
C  27.73300 -8.81500 49.64000
N  26.64000 -4.31400 45.61100
C  27.57800 -4.99000 46.40500
C  28.88800 -4.40700 46.10400
C  28.62400 -3.37600 45.12000
C  27.23800 -3.40300 44.86800
C  30.12600 -4.66100 46.86100
C  29.18100 -2.25500 44.34800
O  30.27400 -1.71300 44.40400
C  28.11300 -1.73500 43.38300
C  27.94900 -0.27900 43.65000
O  27.69800 0.20800 44.74900
O  28.16700 0.51900 42.52900
C  27.86400 1.92700 42.64500
H  21.36500 -3.28100 42.55100
H  22.06800 -8.30600 46.38600
H  28.03900 -6.39900 47.96200
H  25.44300 -0.59100 42.20400
H  23.08800 -1.68900 41.35100
H  23.80100 0.18100 43.54800
H  22.89200 -1.10000 44.33100
H  22.20700 -0.18800 42.93200
H  24.61100 -2.78800 40.22800
H  26.23600 -2.88300 40.85000
H  27.09300 -1.12700 39.80000
H  25.46600 -0.28500 39.81300
H  19.62800 -5.68300 42.00700
H  19.29200 -4.05000 42.52800
H  18.45600 -5.46200 43.26100
H  18.84800 -9.52300 45.62200
H  20.12500 -8.74400 46.78500
H  20.50000 -9.57900 45.28600
H  24.76800 -9.21300 46.66000
H  25.52100 -7.45800 49.01000
H  23.97200 -9.03000 49.48500
H  23.63500 -10.35700 48.28900
H  22.51500 -9.00500 48.39000
H  27.80400 -8.76300 47.41000
H  26.80200 -9.96700 48.03100
H  27.81700 -9.79700 50.10600
H  27.28100 -8.11300 50.34100
H  28.76800 -8.48500 49.54800
H  30.96500 -4.23300 46.31300
H  30.14700 -5.71100 47.15200
H  30.10300 -4.14000 47.81800
H  28.37900 -2.00800 42.36100
H  27.05100 2.13100 43.34200
H  27.87300 2.43300 41.68000
H  28.70100 2.38600 43.17200
Mg 46.63100 16.41700 28.73300
C  44.99500 16.51100 31.91000
C  49.16500 18.36000 30.17800
C  47.77700 17.18500 25.66900
C  43.71200 15.07000 27.37700
N  47.01100 17.33000 30.78500
C  46.23600 17.21000 31.92700
C  46.91100 17.79800 33.23400
C  48.19400 18.53300 32.61400
C  48.15500 18.06300 31.11100
C  48.11500 20.13800 32.68400
C  47.28200 16.65500 34.26000
C  46.65900 16.95600 35.67500
H  46.67500 18.35000 36.33800
N  48.35800 17.41800 28.05500
C  49.27300 18.12400 28.78400
C  50.33400 18.64400 27.96100
C  49.84300 18.37800 26.61200
C  48.61500 17.60800 26.69700
C  51.67500 19.25000 28.52100
C  50.45900 18.68200 25.29200
O  50.03200 18.31400 24.22100
C  51.77300 19.34600 25.28600
N  45.92100 16.11600 26.71400
C  46.56500 16.54900 25.65800
C  45.81300 16.20900 24.36300
C  44.54100 15.43700 24.94700
C  44.68800 15.53400 26.46400
C  45.55600 17.38600 23.39900
C  44.36200 13.94000 24.44500
C  45.33300 12.90700 25.07400
N  44.72000 15.82500 29.43600
C  43.68700 15.21400 28.79100
C  42.71700 14.83000 29.85500
C  43.24000 15.31100 31.04700
C  44.39200 15.89700 30.72700
C  41.45700 14.05900 29.70300
C  42.91500 15.50300 32.51300
O  41.91300 15.14900 33.11400
C  44.12100 16.21200 33.11200
C  43.55700 17.38900 33.70100
O  43.47100 18.51500 33.17400
O  43.20400 17.10500 35.00000
C  42.49700 18.14800 35.78700
H  49.87600 19.15000 30.42700
H  47.96600 17.56000 24.66100
H  42.76600 14.61600 27.07500
H  46.10800 18.39200 33.67100
H  49.13100 18.22000 33.07400
H  47.64400 20.48700 33.60300
H  47.64300 20.48500 31.76500
H  49.10000 20.60300 32.72900
H  48.33800 16.53900 34.50400
H  46.90300 15.70800 33.87600
H  47.19400 16.23700 36.29600
H  45.62800 16.61100 35.59800
H  52.52200 18.66300 28.16700
H  51.84400 19.31900 29.59500
H  51.82400 20.23600 28.07900
H  51.58500 20.27300 25.82700
H  52.06500 19.69000 24.29400
H  52.53700 18.82000 25.85800
H  46.38600 15.37900 23.94900
H  43.64400 15.98500 24.66000
H  45.83500 18.38400 23.73500
H  44.53100 17.43600 23.03200
H  46.05100 17.06400 22.48300
H  44.57100 13.97700 23.37600
H  43.32500 13.67000 24.64500
H  46.31000 13.31300 25.33700
H  45.45200 12.02100 24.45100
H  44.93600 12.51800 26.01100
H  41.61500 12.99900 29.90100
H  41.04700 14.20500 28.70300
H  40.70600 14.49700 30.36100
H  44.64600 15.56400 33.81500
H  42.64200 17.85400 36.82700
H  41.44500 18.37600 35.62000
H  42.90500 19.14900 35.64200

