158

Mg 24.93000 1.75500 29.38100
C  26.97800 1.60500 32.21200
C  22.14200 2.09400 31.57500
C  22.97500 1.80800 26.65000
C  27.78700 1.16500 27.37600
N  24.59700 1.67900 31.64200
C  25.63000 1.81400 32.57000
C  25.04500 2.04300 33.98900
C  23.52700 2.25700 33.72200
C  23.37800 2.01200 32.21500
C  22.60600 1.35000 34.58700
C  25.77700 3.11200 34.89800
C  25.92300 2.71000 36.39700
H  25.82600 3.91100 37.40100
N  22.80500 1.72900 29.17000
C  21.86000 1.89100 30.15200
C  20.54600 1.81900 29.51700
C  20.82200 1.76200 28.07400
C  22.24800 1.71800 27.91100
C  19.27100 1.77600 30.30700
C  19.87500 1.60500 26.91200
O  20.15700 1.70800 25.70700
C  18.42900 1.34900 27.23700
N  25.24500 1.43300 27.35400
C  24.31100 1.79500 26.38000
C  24.96400 1.76700 24.93700
C  26.48900 1.66900 25.31200
C  26.52900 1.41400 26.76700
C  24.51800 0.60500 24.04700
C  27.33000 2.95500 24.82600
C  27.23600 4.19200 25.62500
N  26.95600 1.39000 29.67100
C  28.00500 1.12700 28.78300
C  29.17800 0.86700 29.54300
C  28.79700 1.01400 30.91400
C  27.46000 1.27900 30.92000
C  30.51300 0.62000 29.02600
C  29.39100 0.96400 32.23500
O  30.53300 0.81900 32.62000
C  28.20100 1.42900 33.12100
C  27.96700 0.41000 34.19600
O  27.12900 -0.48300 34.08400
O  28.72600 0.66500 35.30200
C  28.50400 -0.25900 36.42500
H  21.24600 2.15300 32.19700
H  22.43200 1.95900 25.71500
H  28.59200 0.94600 26.67200
H  25.16000 1.12100 34.55900
H  23.32400 3.29900 33.96800
H  22.17900 0.53400 34.00300
H  21.81900 1.93900 35.05800
H  23.21100 0.97000 35.41000
H  25.25000 4.06500 34.87000
H  26.72500 3.30200 34.39400
H  26.95900 2.45200 36.61900
H  25.16200 1.97000 36.64100
H  18.69700 2.67900 30.09600
H  19.26500 1.83200 31.39600
H  18.82900 0.83500 29.98000
H  18.34600 0.49100 27.90500
H  17.84500 1.02500 26.37600
H  17.91300 2.21900 27.64200
H  24.80100 2.76000 24.51700
H  26.92600 0.77700 24.86200
H  25.23300 -0.19500 23.85300
H  24.27600 1.03200 23.07400
H  23.55500 0.21300 24.37600
H  26.99500 3.12100 23.80200
H  28.38900 2.72800 24.70100
H  26.98000 4.01100 26.66900
H  26.49100 4.82700 25.14700
H  28.18800 4.71900 25.54900
H  30.89400 1.41300 28.38200
H  30.48400 -0.26000 28.38400
H  31.15700 0.53300 29.90100
H  28.42200 2.42000 33.51800
H  29.04800 -1.16800 36.17200
H  27.45300 -0.54500 36.46600
H  28.78600 0.19800 37.37400
Mg 6.63600 54.38000 41.02400
C  5.76500 50.95700 40.84300
C  9.83900 53.34600 39.89500
C  7.50100 57.59600 40.60600
C  3.39900 55.23900 41.74200
N  7.61300 52.39300 40.39200
C  7.09800 51.11600 40.47600
C  8.10500 50.00700 40.20300
C  9.43700 50.76600 40.25700
C  8.96700 52.26700 40.18900
C  10.39400 50.49400 41.49400
C  7.92100 49.30000 38.83500
C  7.60300 50.25100 37.62500
H  6.59600 49.69500 36.52200
N  8.51700 55.38900 40.44500
C  9.60700 54.78200 39.92200
C  10.49100 55.76300 39.34900
C  9.88300 56.99300 39.70000
C  8.56200 56.71800 40.26400
C  11.88600 55.49600 38.87900
C  10.46100 58.32800 39.32200
O  11.61000 58.36000 38.75900
C  9.89400 59.68600 39.48700
N  5.67600 56.09000 41.29900
C  6.26100 57.33900 41.15500
C  5.29100 58.41600 41.70700
C  3.98400 57.70000 41.88100
C  4.33600 56.26800 41.66400
C  5.69900 59.07400 43.09200
C  2.72700 58.18100 40.99700
C  1.43200 58.73900 41.75700
N  4.84900 53.42400 41.24400
C  3.64400 53.85100 41.67600
C  2.69500 52.77900 41.62600
C  3.43600 51.60000 41.36800
C  4.78600 52.03500 41.13500
C  1.20300 52.90100 41.74100
C  3.43700 50.09100 41.28100
O  2.50400 49.29500 41.45100
C  4.92000 49.64100 40.88100
C  4.79100 48.90600 39.58100
O  4.33100 49.32300 38.51800
O  5.14000 47.57500 39.85200
C  4.65800 46.60800 38.89000
H  10.84900 53.04400 39.61100
H  7.66100 58.66700 40.74500
H  2.35200 55.53900 41.81500
H  7.89100 49.28300 40.99000
H  10.05500 50.55400 39.38500
H  11.32600 50.18600 41.02000
H  10.03000 49.60100 42.00200
H  10.51200 51.38700 42.10900
H  7.30700 48.40200 38.89700
H  8.89900 48.90400 38.56000
H  8.55700 50.28400 37.10000
H  7.37200 51.27900 37.90600
H  12.07200 55.47200 37.80500
H  12.22300 54.52300 39.23500
H  12.56500 56.22400 39.32400
H  10.57200 60.52400 39.32600
H  9.78200 59.72400 40.57000
H  8.93000 59.90200 39.02600
H  5.33400 59.12700 40.88200
H  3.64700 57.77000 42.91500
H  6.27600 59.96200 42.83200
H  6.28600 58.46800 43.78200
H  4.79900 59.43900 43.58800
H  2.44700 57.36700 40.32900
H  3.18200 58.94200 40.36400
H  1.46500 58.42100 42.80000
H  0.59100 58.34300 41.18900
H  1.26400 59.81600 41.75500
H  1.06600 53.50500 42.63800
H  0.81600 51.88700 41.84300
H  0.84800 53.48300 40.89000
H  5.32900 48.96300 41.63000
H  5.02500 45.62900 39.19700
H  5.09900 46.69300 37.89700
H  3.56900 46.62600 38.86200

