158

Mg 3.22600 -0.91100 44.03200
C  5.61000 1.57900 43.72700
C  0.93100 1.07000 42.53500
C  1.09000 -3.56600 43.95600
C  5.92900 -3.24100 44.78600
N  3.27800 1.13400 43.08300
C  4.27600 2.00900 43.29000
C  3.90200 3.41700 42.90900
C  2.37300 3.22300 42.67700
C  2.15600 1.66700 42.74700
C  1.38900 3.97900 43.61600
C  4.74600 3.98300 41.71700
C  4.62700 3.24900 40.33600
H  5.78400 2.37900 39.80400
N  1.25100 -1.19400 43.42200
C  0.45500 -0.22700 42.86600
C  -0.86900 -0.80300 42.54900
C  -0.84700 -2.14900 43.01900
C  0.56000 -2.33300 43.55300
C  -1.96200 -0.08000 41.95500
C  -1.95700 -3.17000 42.87100
O  -2.99300 -2.83700 42.33200
C  -1.92000 -4.62900 43.45200
N  3.45500 -3.10800 44.28800
C  2.38600 -3.93100 44.37400
C  2.77300 -5.35300 44.69300
C  4.29300 -5.19900 45.03200
C  4.62500 -3.77500 44.60700
C  1.93900 -5.98200 45.77200
C  5.16600 -6.36000 44.40600
C  6.23800 -7.05500 45.28000
N  5.30500 -0.92200 44.35400
C  6.31800 -1.83900 44.61900
C  7.61000 -1.28800 44.67000
C  7.33000 0.10600 44.36500
C  5.98800 0.23700 44.10900
C  8.92500 -2.03700 44.79900
C  7.99000 1.41900 44.26900
O  9.13500 1.80600 44.46000
C  6.87900 2.36300 43.83000
C  6.72400 3.40700 44.89400
O  7.11000 4.56900 44.76800
O  6.19900 2.89300 46.06600
C  6.55800 3.59100 47.31200
H  0.15300 1.80700 42.32600
H  0.46300 -4.45900 43.94100
H  6.68500 -3.99600 45.01000
H  3.99800 4.18400 43.67700
H  2.19900 3.55400 41.65300
H  1.91900 4.39100 44.47500
H  0.67300 3.28300 44.05400
H  0.78600 4.68800 43.05000
H  5.77400 4.26000 41.95100
H  4.35100 4.99400 41.61600
H  4.54200 4.01600 39.56700
H  3.66400 2.74400 40.39900
H  -2.13400 -0.16500 40.88200
H  -1.74300 0.98600 41.90600
H  -2.84800 -0.12500 42.58800
H  -1.34900 -5.25000 42.76200
H  -2.95300 -4.96300 43.54200
H  -1.50200 -4.51600 44.45300
H  2.68700 -6.00400 43.82400
H  4.41700 -5.32500 46.10700
H  1.20900 -6.68300 45.36800
H  1.31200 -5.24500 46.27300
H  2.54900 -6.60000 46.43200
H  5.70300 -5.89600 43.57800
H  4.54600 -7.03900 43.81900
H  6.13100 -8.13300 45.40500
H  6.10100 -6.68900 46.29700
H  7.22500 -6.76100 44.92300
H  9.69900 -1.54100 44.21400
H  8.88600 -3.02400 44.33900
H  9.21800 -2.14900 45.84300
H  7.32300 2.79300 42.93200
H  5.65500 4.03000 47.73600
H  7.21500 4.45900 47.25600
H  6.92100 2.96400 48.12600
Mg 25.65000 -0.49800 29.40000
C  27.36800 -0.97200 32.36700
C  22.86800 0.19800 31.16800
C  23.85200 -0.52800 26.39100
C  28.44000 -1.60300 27.67600
N  25.17300 -0.53400 31.58500
C  26.06500 -0.60100 32.60500
C  25.43900 -0.32700 33.98700
C  24.02400 0.15600 33.57400
C  23.99500 -0.04500 32.01300
C  22.80800 -0.59100 34.19200
C  26.13200 0.78600 34.87200
C  26.96400 0.35200 36.08500
H  26.88500 1.20900 37.31800
N  23.62500 -0.26200 28.86700
C  22.63700 -0.01200 29.77900
C  21.36000 0.18900 29.10000
C  21.64000 0.08900 27.70500
C  23.08100 -0.28400 27.57800
C  19.97000 0.28800 29.86400
C  20.76700 0.17000 26.46700
O  21.19600 0.07200 25.32300
C  19.29800 0.51400 26.59300
N  25.96600 -1.23200 27.32400
C  25.15700 -1.01900 26.25600
C  25.90100 -1.17300 24.83600
C  27.42800 -1.15200 25.34700
C  27.31700 -1.26200 26.90000
C  25.47000 -2.55900 24.21300
C  28.29900 0.13100 25.07500
C  29.63100 -0.12800 24.29100
N  27.52600 -1.19800 29.90100
C  28.59800 -1.54800 29.07400
C  29.75300 -1.76200 29.84900
C  29.33900 -1.67100 31.17500
C  27.99300 -1.21800 31.11200
C  31.19800 -2.09800 29.43100
C  29.75700 -1.83700 32.55000
O  30.78900 -1.99700 33.13100
C  28.47300 -1.49700 33.40500
C  28.10600 -2.53200 34.44500
O  27.21400 -3.33800 34.26000
O  28.85700 -2.37300 35.58200
C  28.63500 -3.35500 36.67400
H  21.97100 0.64600 31.60000
H  23.36500 -0.33500 25.43200
H  29.36400 -1.71900 27.10600
H  25.27000 -1.28900 34.47100
H  23.84900 1.21800 33.74400
H  22.60100 -1.46600 33.57600
H  21.90700 0.01800 34.26700
H  22.98400 -1.00200 35.18600
H  25.37600 1.46400 35.26900
H  26.84900 1.38400 34.30900
H  27.99200 0.25800 35.73400
H  26.73400 -0.65400 36.43500
H  19.28200 0.99500 29.40100
H  20.17200 0.37100 30.93200
H  19.35000 -0.60200 29.76400
H  18.93900 0.47100 25.56400
H  19.13000 1.36500 27.25200
H  18.86700 -0.32000 27.14700
H  25.77500 -0.29600 24.20100
H  27.92200 -2.05100 24.97800
H  24.93200 -3.12200 24.97700
H  26.32400 -3.15100 23.88600
H  24.78700 -2.21500 23.43600
H  28.58100 0.57400 26.03000
H  27.66700 0.84800 24.55000
H  29.46800 -0.79100 23.44200
H  30.39400 -0.50200 24.97300
H  29.86400 0.90600 24.03800
H  31.30100 -3.12900 29.09300
H  31.81600 -1.92100 30.31100
H  31.47700 -1.48700 28.57300
H  28.85000 -0.61400 33.92200
H  28.90500 -4.27900 36.16400
H  27.63500 -3.38500 37.10800
H  29.27600 -3.16700 37.53600

