158

Mg 7.14700 56.78900 42.44300
C  6.00200 53.38600 41.94900
C  10.00300 55.89000 40.96300
C  7.69900 60.00200 42.16200
C  3.83900 57.43400 43.68600
N  7.82200 54.87100 41.37100
C  7.27500 53.63400 41.30000
C  8.21500 52.70900 40.50400
C  9.55200 53.37700 40.79500
C  9.13300 54.82800 40.98100
C  10.45800 52.75900 41.94200
C  7.79400 52.61500 38.98300
C  7.54300 51.24100 38.44000
H  6.69500 51.16400 37.13200
N  8.57800 57.80600 41.48000
C  9.78600 57.28000 41.06700
C  10.68600 58.41400 40.67100
C  9.91100 59.64400 40.90500
C  8.71100 59.19500 41.59900
C  12.10100 58.07900 40.23100
C  10.35600 61.08200 40.54000
O  11.51500 61.20700 40.16800
C  9.35400 62.29100 40.46200
N  5.90900 58.45800 42.94100
C  6.41200 59.66800 42.74000
C  5.35400 60.79100 43.10400
C  4.09300 59.91500 43.50800
C  4.68600 58.46600 43.56600
C  5.71300 61.84200 44.15800
C  2.82100 60.02000 42.63700
C  1.51600 60.72800 43.16000
N  5.36600 55.70100 42.83600
C  4.14700 56.12900 43.43500
C  3.35200 54.96400 43.67900
C  4.04300 53.84700 43.11300
C  5.28500 54.37100 42.62500
C  1.93300 54.99500 44.31600
C  3.99700 52.39600 42.77500
O  3.10100 51.59900 43.00700
C  5.27600 52.07600 42.05600
C  4.94500 51.48800 40.67400
O  4.67500 52.09200 39.65900
O  4.98100 50.12400 40.76100
C  4.53400 49.46100 39.54400
H  11.01800 55.57400 40.71400
H  7.87600 61.07900 42.12200
H  2.94100 57.59700 44.28400
H  8.16500 51.70400 40.92200
H  10.23700 53.36400 39.94800
H  9.88600 52.07800 42.57100
H  10.92900 53.52400 42.55900
H  11.30200 52.17500 41.57500
H  8.58400 53.13800 38.44200
H  6.93200 53.24900 38.77700
H  6.89100 50.72000 39.14100
H  8.45600 50.66300 38.29500
H  12.24100 58.10100 39.15000
H  12.35600 57.04200 40.45100
H  12.77600 58.74300 40.76900
H  8.40000 61.91200 40.09600
H  9.66300 62.90400 39.61500
H  9.37700 62.85400 41.39500
H  5.15900 61.40000 42.22100
H  3.76700 60.30500 44.47200
H  6.54100 61.33600 44.65600
H  4.91400 62.04500 44.87100
H  5.98400 62.80300 43.72100
H  2.62800 59.06700 42.14400
H  3.00100 60.62800 41.75000
H  1.31900 61.68200 42.67300
H  1.60400 60.96600 44.22000
H  0.60000 60.15600 43.01400
H  1.91200 55.39000 45.33200
H  1.50900 53.99300 44.24200
H  1.29200 55.64200 43.71800
H  5.83800 51.31400 42.59700
H  3.44800 49.50300 39.46300
H  4.89400 48.43700 39.63700
H  5.02500 49.87600 38.66400
Mg 9.13100 47.65400 25.10200
C  6.82300 47.86100 27.73600
C  11.59100 47.74900 27.59100
C  11.22700 47.58500 22.68000
C  6.44400 47.88900 22.87100
N  9.12600 47.82800 27.41200
C  8.12300 47.72600 28.27100
C  8.58700 47.64800 29.74700
C  10.03900 48.10900 29.54900
C  10.28800 47.76900 28.07900
C  10.20500 49.60100 30.02600
C  8.36300 46.25200 30.42700
C  8.92900 46.08800 31.85500
H  7.95800 46.14100 33.02200
N  11.13200 47.64000 25.14900
C  11.99200 47.59600 26.23000
C  13.39000 47.50500 25.71000
C  13.29800 47.44800 24.25900
C  11.83500 47.50900 23.96100
C  14.62900 47.55500 26.65700
C  14.35200 47.18400 23.29400
O  14.15900 47.10800 22.11300
C  15.76300 47.24200 23.77400
N  8.89500 47.61600 23.07700
C  9.93500 47.68500 22.28100
C  9.54500 48.07400 20.84300
C  8.05200 47.81100 20.89400
C  7.74700 47.71000 22.39300
C  9.87000 49.56500 20.50600
C  7.66700 46.43800 20.31600
C  6.19400 46.41900 19.83900
N  7.10400 48.05900 25.25200
C  6.09200 48.04800 24.25500
C  4.80800 48.13800 24.81000
C  5.02500 48.15600 26.19400
C  6.38400 47.98000 26.41900
C  3.51300 48.18600 24.10000
C  4.35400 48.17900 27.49800
O  3.15100 48.37000 27.82900
C  5.52000 47.94400 28.56400
C  5.29500 46.71000 29.29200
O  5.58100 45.65700 28.83500
O  4.62100 46.95000 30.50200
C  4.22300 45.75900 31.32600
H  12.40100 47.73400 28.32400
H  11.98200 47.56900 21.89100
H  5.64300 48.06600 22.15100
H  8.06100 48.37900 30.36100
H  10.65400 47.54500 30.25100
H  10.11100 49.58500 31.11200
H  9.54300 50.36400 29.61700
H  11.19900 49.90000 29.69400
H  8.93200 45.57200 29.79300
H  7.37900 45.79400 30.51700
H  9.74400 46.78100 32.06200
H  9.45900 45.13600 31.88500
H  14.34200 47.68400 27.70100
H  15.21700 48.46800 26.56000
H  15.37200 46.76800 26.52900
H  16.40900 47.21800 22.89600
H  15.90300 46.39500 24.44500
H  15.84700 48.17000 24.33900
H  10.04300 47.34400 20.20500
H  7.53700 48.68400 20.49300
H  9.54200 49.90600 19.52400
H  10.93000 49.78100 20.63500
H  9.45300 50.19300 21.29300
H  7.66300 45.60600 21.02000
H  8.29800 46.17900 19.46500
H  6.31200 46.17600 18.78300
H  5.66100 47.36900 19.87400
H  5.70700 45.64200 20.42800
H  3.26600 47.41400 23.37100
H  3.28100 49.16900 23.69000
H  2.73100 48.08000 24.85100
H  5.58300 48.79600 29.24000
H  3.14300 45.80100 31.46000
H  4.67100 45.81500 32.31800
H  4.35700 44.79200 30.84000

