158

Mg 30.56200 57.86600 40.63000
C  27.92000 55.66600 39.22100
C  32.83600 55.41500 39.34600
C  32.83600 60.10700 40.83600
C  28.05000 60.29200 40.99300
N  30.37900 55.82500 39.34400
C  29.25100 55.10600 38.95400
C  29.63900 53.77400 38.23800
C  31.15700 53.67200 38.47200
C  31.53300 55.00700 39.07600
C  31.54400 52.45400 39.42900
C  29.24500 53.79900 36.68600
C  27.97600 53.07500 36.30600
H  27.04000 53.81600 35.33000
N  32.63300 57.75100 40.33000
C  33.33300 56.68300 39.80100
C  34.73000 57.10500 39.73400
C  34.80000 58.41900 40.19700
C  33.42900 58.82000 40.51400
C  35.88400 56.15600 39.32000
C  36.04800 59.24800 40.29900
O  37.20100 58.86800 40.02000
C  35.95300 60.77500 40.71100
N  30.46300 59.90500 40.88100
C  31.60200 60.58100 41.06100
C  31.34900 62.06300 41.48400
C  29.77600 62.13700 41.53200
C  29.37800 60.75300 40.98000
C  32.01800 62.50200 42.77800
C  29.22500 63.31500 40.78100
C  29.31300 63.35100 39.18000
N  28.33900 57.93900 40.48900
C  27.55400 58.95700 40.72100
C  26.15500 58.50600 40.43300
C  26.33800 57.22600 39.86700
C  27.64600 56.92600 39.85000
C  24.84500 59.18200 40.62900
C  25.55700 56.10800 39.35400
O  24.36700 56.02400 39.02100
C  26.60900 55.08800 38.97700
C  26.15300 53.80600 39.71900
O  26.02000 53.80500 40.91000
O  25.91900 52.76900 38.92300
C  25.20800 51.64000 39.45600
H  33.60600 54.70200 39.04100
H  33.60600 60.88200 40.84700
H  27.28300 61.05200 41.15900
H  29.22600 52.86200 38.66900
H  31.75200 53.62200 37.56100
H  32.44100 51.98600 39.02500
H  30.78200 51.68200 39.53600
H  31.80400 52.81900 40.42300
H  30.03100 53.22200 36.19900
H  29.44100 54.80100 36.30400
H  27.42000 52.70500 37.16800
H  28.36500 52.25000 35.71100
H  36.36200 56.40600 38.37300
H  35.56000 55.11600 39.31700
H  36.68400 56.25800 40.05300
H  35.35400 60.81800 41.62100
H  35.48100 61.35700 39.91900
H  36.89200 61.25000 40.99700
H  31.51400 62.76100 40.66400
H  29.43400 62.24700 42.56100
H  32.83300 63.18000 42.52400
H  32.46000 61.62600 43.25200
H  31.32300 62.94800 43.49000
H  29.73200 64.16900 41.23000
H  28.18800 63.49100 41.06500
H  28.30200 63.59800 38.85800
H  29.64200 62.45900 38.64700
H  30.00000 64.15100 38.90400
H  24.83300 60.27000 40.68600
H  24.21100 58.68800 41.36600
H  24.36000 58.77600 39.74100
H  26.43400 54.90100 37.91800
H  26.05100 51.16300 39.95700
H  24.84100 50.95500 38.69200
H  24.52300 51.92900 40.25300
Mg -2.48800 34.07700 27.29800
C  -4.14500 32.01900 29.53500
C  -0.91900 35.61400 29.87000
C  -1.10700 36.07500 25.00000
C  -4.28400 32.34600 24.69100
N  -2.59900 33.88200 29.46200
C  -3.36200 32.95600 30.17200
C  -3.15800 33.19100 31.70000
C  -2.27900 34.51800 31.86500
C  -1.82500 34.63500 30.34300
C  -2.87000 35.75000 32.46000
C  -2.45600 32.05200 32.43200
C  -3.31900 31.55700 33.63900
H  -2.54300 31.19500 34.91800
N  -1.08000 35.54700 27.41300
C  -0.52800 36.01500 28.53500
C  0.45500 36.99300 28.17200
C  0.35800 37.16200 26.77400
C  -0.68200 36.32000 26.29500
C  1.34500 37.78500 29.09700
C  1.13600 38.12500 25.81400
O  0.87800 38.20200 24.64400
C  2.34400 38.98300 26.41500
N  -2.65200 34.13700 25.11200
C  -2.08300 35.22900 24.46600
C  -2.43500 35.14700 22.96800
C  -3.11700 33.75000 22.81600
C  -3.46000 33.39400 24.29800
C  -3.14500 36.43800 22.55100
C  -2.34600 32.76000 22.02600
C  -1.40000 31.85000 22.70400
N  -3.83900 32.51300 27.05000
C  -4.39600 31.82600 25.98900
C  -5.24600 30.76200 26.49200
C  -5.07200 30.71400 27.89700
C  -4.31800 31.90300 28.16400
C  -6.14800 29.95000 25.68000
C  -5.54600 30.09100 29.15500
O  -6.28900 29.13300 29.35300
C  -4.93700 30.92500 30.31100
C  -6.01400 31.59000 31.13700
O  -6.68000 32.54100 30.81000
O  -6.16500 30.96900 32.33800
C  -7.27700 31.51700 33.11400
H  -0.31300 35.94100 30.71800
H  -0.79200 36.65200 24.12800
H  -4.83100 31.88800 23.86500
H  -4.19700 33.33500 31.99600
H  -1.45500 34.36400 32.56200
H  -3.87900 35.86400 32.06300
H  -2.22000 36.59000 32.21400
H  -2.98200 35.48400 33.51100
H  -1.41100 32.31200 32.60400
H  -2.40800 31.26000 31.68500
H  -3.66700 30.53800 33.47300
H  -4.16800 32.17600 33.92700
H  2.36000 37.44700 28.88900
H  1.09000 37.51000 30.12000
H  1.42900 38.87100 29.09000
H  2.06200 39.73500 27.15200
H  2.82000 39.44900 25.55200
H  3.03700 38.23000 26.79200
H  -1.44800 35.07800 22.51000
H  -4.09600 33.89700 22.36100
H  -2.79600 37.23300 23.21000
H  -4.18300 36.36800 22.22400
H  -2.71900 36.77300 21.60600
H  -1.89300 33.29500 21.19100
H  -3.12400 32.17300 21.53800
H  -1.63000 30.85100 22.33500
H  -1.65700 31.78300 23.76100
H  -0.36900 32.12700 22.48400
H  -5.89500 28.91400 25.45600
H  -6.37200 30.37800 24.70300
H  -7.08300 29.97800 26.23900
H  -4.29700 30.29700 30.93100
H  -7.79800 30.56600 33.22800
H  -7.94800 32.31000 32.78400
H  -6.76500 31.79800 34.03400

