158

Mg 26.51600 50.15300 26.17300
C  24.59800 51.34600 28.78500
C  28.75800 49.19500 28.59000
C  28.61500 49.30300 23.69400
C  24.18400 51.25000 23.86800
N  26.51400 50.12300 28.46800
C  25.63300 50.60700 29.34600
C  26.01400 50.43000 30.75500
C  27.59600 49.94800 30.65100
C  27.65400 49.79600 29.15000
C  28.83100 50.90700 31.21300
C  25.03300 49.40600 31.44000
C  24.43300 49.56600 32.81900
H  25.19600 50.25600 33.97900
N  28.40900 49.26900 26.12900
C  29.20600 48.88400 27.22600
C  30.42800 48.20600 26.71800
C  30.41000 48.42000 25.35200
C  29.10800 49.11300 24.93100
C  31.39600 47.41700 27.66200
C  31.60100 48.09900 24.42400
O  31.57200 48.47500 23.25800
C  32.86200 47.43700 24.87000
N  26.53100 50.38600 24.07100
C  27.42500 49.85900 23.20600
C  27.04600 49.96400 21.67900
C  25.57900 50.66200 21.87000
C  25.38500 50.68900 23.35900
C  28.03400 50.82000 20.90200
C  24.45500 49.87500 21.13400
C  24.13500 50.32900 19.76900
N  24.79700 51.18000 26.25800
C  23.86300 51.46100 25.28500
C  22.69000 52.20000 25.85300
C  22.91600 52.10300 27.24000
C  24.20700 51.53000 27.47200
C  21.52800 52.79300 25.14600
C  22.40300 52.50900 28.52300
O  21.39600 53.14900 28.80100
C  23.46100 51.92900 29.64600
C  23.90700 53.11000 30.47900
O  24.70900 53.92600 30.13500
O  23.33500 53.08700 31.68100
C  23.67400 54.18700 32.63900
H  29.48900 48.80600 29.30200
H  29.25400 48.87900 22.91600
H  23.48700 51.61400 23.11100
H  26.08500 51.39100 31.26600
H  27.61700 48.91800 31.00800
H  28.37800 51.60800 31.91300
H  29.41400 51.34800 30.40400
H  29.46200 50.13600 31.65500
H  25.45700 48.40800 31.32100
H  24.14600 49.30500 30.81400
H  24.29200 48.53300 33.13500
H  23.45300 50.04100 32.76800
H  31.47200 46.36400 27.39300
H  31.09100 47.42200 28.70800
H  32.35100 47.94300 27.66800
H  33.35100 48.11200 25.57300
H  33.47500 47.22000 23.99500
H  32.47000 46.50600 25.28000
H  26.92000 48.95200 21.29400
H  25.53700 51.69800 21.53100
H  28.86800 51.20200 21.49100
H  27.55400 51.65300 20.38800
H  28.37800 50.05300 20.20800
H  23.54200 50.02200 21.71000
H  24.70500 48.81400 21.11900
H  24.49700 49.62700 19.01800
H  24.76500 51.17900 19.50800
H  23.07800 50.56200 19.63700
H  20.59500 52.26200 25.33800
H  21.68000 52.66400 24.07400
H  21.45000 53.81700 25.51100
H  22.88700 51.20300 30.22200
H  24.01600 55.08000 32.11500
H  24.41700 53.74200 33.30100
H  22.83700 54.47900 33.27300
Mg -5.33400 25.23300 25.45300
C  -3.87100 26.63500 28.25700
C  -7.07100 23.17400 27.54400
C  -6.19000 23.42100 22.70700
C  -3.27500 27.20200 23.53400
N  -5.28700 24.85300 27.65400
C  -4.71500 25.59600 28.62400
C  -5.04300 25.17600 30.02600
C  -5.95100 23.93400 29.79000
C  -6.09200 23.92600 28.22700
C  -5.54400 22.54500 30.31600
C  -5.71900 26.29500 30.88500
C  -5.30600 26.44200 32.38000
H  -4.58600 25.27500 33.05900
N  -6.68900 23.62600 25.15100
C  -7.32200 22.99000 26.12900
C  -8.28600 22.09600 25.52800
C  -7.86600 22.03600 24.14400
C  -6.93000 23.09200 23.89300
C  -9.27800 21.27800 26.34100
C  -8.37400 21.09500 23.01200
O  -8.00800 21.19100 21.85200
C  -9.47900 20.11900 23.34700
N  -4.96300 25.41800 23.40700
C  -5.26700 24.48900 22.50200
C  -4.63200 24.77300 21.19700
C  -3.78400 26.08400 21.41800
C  -4.02900 26.22200 22.89500
C  -3.82200 23.52600 20.58000
C  -4.36300 27.35700 20.68000
C  -3.46400 27.92700 19.60700
N  -3.93800 26.69300 25.73600
C  -3.16800 27.39400 24.84700
C  -2.25800 28.28400 25.55400
C  -2.54200 28.07300 26.94400
C  -3.51300 27.05200 26.96900
C  -1.24900 29.13700 24.97200
C  -2.30500 28.52100 28.31800
O  -1.59900 29.43300 28.80100
C  -2.98500 27.42900 29.19700
C  -1.83600 26.69200 29.85600
O  -0.96000 26.08100 29.26800
O  -1.81200 26.82500 31.18500
C  -0.64700 26.28400 31.95300
H  -7.64900 22.58000 28.25500
H  -6.31900 22.82200 21.80400
H  -2.58400 27.70800 22.85600
H  -4.11100 24.90200 30.52100
H  -6.98500 23.98600 30.13000
H  -6.51000 22.13400 30.61100
H  -4.80300 22.51700 31.11500
H  -5.22700 21.88500 29.50900
H  -6.77800 26.04600 30.95700
H  -5.61100 27.27900 30.42900
H  -6.26100 26.51400 32.90000
H  -4.81300 27.38400 32.61900
H  -9.05300 20.21300 26.39100
H  -10.32100 21.34400 26.03200
H  -9.35500 21.65200 27.36200
H  -9.72900 19.52400 22.46900
H  -10.28000 20.83800 23.52100
H  -9.18700 19.52300 24.21100
H  -5.51900 24.97500 20.59800
H  -2.70800 25.92700 21.35000
H  -3.65800 22.81900 21.39300
H  -2.86000 23.89800 20.22600
H  -4.38300 23.08500 19.75500
H  -4.72300 28.15200 21.33400
H  -5.26300 27.02100 20.16500
H  -2.94300 28.85600 19.83700
H  -4.12100 28.10000 18.75500
H  -2.62100 27.26100 19.42200
H  -0.39000 29.42000 25.58100
H  -1.79000 29.99900 24.58300
H  -0.77000 28.65300 24.12100
H  -3.48900 28.05500 29.93300
H  0.31100 26.70200 31.64400
H  -0.63000 25.19800 31.86200
H  -0.82800 26.50500 33.00500

