158

Mg 53.34800 22.79600 43.84900
C  50.48700 24.52300 42.70900
C  51.79700 19.84200 43.42000
C  56.37700 21.32600 43.93100
C  54.85700 25.93300 44.36200
N  51.49400 22.19900 42.67600
C  50.45000 23.11500 42.51700
C  49.19200 22.24800 42.23700
C  49.51000 20.86500 42.84900
C  50.99700 20.90900 42.98800
C  48.67800 20.64000 44.20700
C  48.96900 22.12600 40.70800
C  47.80600 21.22200 40.24000
H  48.01000 20.17300 39.18900
N  53.99200 20.80800 43.67700
C  53.20700 19.75500 43.60400
C  53.99800 18.56200 43.54200
C  55.36200 18.89900 43.70500
C  55.27900 20.39800 43.76800
C  53.46200 17.12800 43.37300
C  56.55600 17.95900 43.62600
O  56.35800 16.73600 43.53700
C  58.00600 18.38700 43.66000
N  55.36000 23.53500 43.88800
C  56.42900 22.70700 44.07800
C  57.71800 23.52300 44.33400
C  57.24000 25.02400 44.46100
C  55.72500 24.84400 44.21000
C  58.68200 23.01200 45.43000
C  57.96400 25.95500 43.36900
C  57.21100 26.43200 42.12400
N  52.80100 24.78400 43.75500
C  53.46700 25.87900 44.05200
C  52.56700 26.98800 44.06500
C  51.41600 26.50300 43.50500
C  51.58400 25.14300 43.27000
C  52.70900 28.41500 44.62300
C  50.08100 26.85700 43.03800
O  49.40500 27.86100 43.16800
C  49.45400 25.52800 42.39700
C  49.40700 25.78800 40.95000
O  50.40200 26.02600 40.20000
O  48.14600 25.53100 40.46900
C  47.95100 25.78800 38.99900
H  51.20300 18.92700 43.39200
H  57.35400 20.85300 44.05100
H  55.28500 26.91100 44.58900
H  48.28600 22.68600 42.65400
H  49.27100 20.07300 42.13900
H  48.06100 19.76200 44.01600
H  48.09800 21.51300 44.50700
H  49.35800 20.37400 45.01600
H  49.87100 21.60700 40.38200
H  48.85200 23.11100 40.25800
H  47.07000 21.91000 39.82400
H  47.43900 20.68000 41.11200
H  53.89600 16.54700 42.56000
H  52.38700 17.25400 43.25000
H  53.63200 16.57300 44.29600
H  58.59500 17.53500 43.32000
H  58.13100 18.59100 44.72300
H  58.27300 19.29700 43.12300
H  58.30200 23.35600 43.42900
H  57.40800 25.39900 45.47100
H  58.12400 22.52900 46.23200
H  59.41000 23.75600 45.75400
H  59.31600 22.28300 44.92500
H  58.89400 25.50300 43.02400
H  58.43300 26.73600 43.96800
H  56.41600 25.74400 41.83500
H  57.89100 26.63200 41.29600
H  56.76700 27.38700 42.40600
H  52.21500 29.20600 44.06000
H  53.78400 28.59600 44.63700
H  52.29600 28.53600 45.62400
H  48.43300 25.35200 42.73500
H  48.54400 26.61500 38.60800
H  46.91200 25.96200 38.71900
H  48.19100 24.85400 38.49200
Mg -9.45000 18.09100 42.04200
C  -5.98800 17.42200 42.25100
C  -8.73800 21.27300 41.37600
C  -12.74500 18.56200 41.67400
C  -9.94800 14.52000 41.97300
N  -7.55700 19.13000 41.59300
C  -6.33300 18.73500 42.02200
C  -5.34200 19.86500 41.70800
C  -6.27700 21.13600 41.61300
C  -7.65400 20.49500 41.56700
C  -6.04200 22.18300 42.78500
C  -4.43300 19.44600 40.49200
C  -4.99300 18.69700 39.25200
H  -4.79900 19.17600 37.79000
N  -10.60700 19.73200 41.70800
C  -10.09000 20.96000 41.42200
C  -11.16800 21.90400 41.50600
C  -12.41300 21.16900 41.52400
C  -11.98900 19.79500 41.63200
C  -10.96700 23.35500 41.24200
C  -13.85200 21.78300 41.48700
O  -13.91000 23.00000 41.41500
C  -15.13300 20.97000 41.85400
N  -11.04000 16.70300 41.80500
C  -12.35000 17.17300 41.70400
C  -13.37400 15.99800 41.88400
C  -12.45400 14.77100 41.63600
C  -11.03600 15.33700 41.85100
C  -14.30600 15.91900 43.12300
C  -12.61600 14.04400 40.22600
C  -12.61300 12.50200 40.18200
N  -8.29700 16.25200 42.15300
C  -8.61100 14.91900 42.15500
C  -7.40400 14.11700 42.41900
C  -6.38200 15.03600 42.57600
C  -6.94400 16.38100 42.36100
C  -7.14700 12.56000 42.45300
C  -4.94500 15.18400 42.84300
O  -4.10300 14.33100 43.10300
C  -4.64500 16.72900 42.57400
C  -4.01400 17.25400 43.75900
O  -2.82200 17.02100 44.07700
O  -4.80300 18.09800 44.53200
C  -4.12700 18.79000 45.63700
H  -8.36100 22.29400 41.28500
H  -13.81900 18.56300 41.47700
H  -10.12600 13.44500 41.90200
H  -4.81500 19.79000 42.65900
H  -6.15800 21.59100 40.62900
H  -6.98900 22.25600 43.31900
H  -5.70100 23.16000 42.44200
H  -5.22400 21.75600 43.36500
H  -3.61300 18.84500 40.88400
H  -4.08200 20.45500 40.27600
H  -6.07800 18.60100 39.28900
H  -4.48300 17.73500 39.29500
H  -10.96000 23.66300 40.19600
H  -10.02600 23.72400 41.65000
H  -11.62900 23.94000 41.88100
H  -14.91500 20.31100 42.69500
H  -15.36000 20.35200 40.98500
H  -16.01300 21.59300 42.01300
H  -14.02400 15.96700 41.01000
H  -12.58400 14.04200 42.43600
H  -14.43700 14.84500 43.25700
H  -15.25000 16.44300 42.97500
H  -13.88200 16.32500 44.04100
H  -11.70400 14.37800 39.73200
H  -13.47000 14.35100 39.62200
H  -13.46200 12.06400 39.65800
H  -12.82400 12.12900 41.18500
H  -11.75900 11.99400 39.73500
H  -6.38000 12.27400 41.73400
H  -8.07100 12.05800 42.16400
H  -7.07100 12.23300 43.49000
H  -3.90800 16.82000 41.77600
H  -4.51200 19.80600 45.72300
H  -3.04800 18.94000 45.62100
H  -4.26200 18.22400 46.55800

