158

Mg 40.86500 9.24800 30.51300
C  42.53700 10.56200 33.16800
C  38.63900 7.66600 32.74800
C  39.17400 7.96100 27.93500
C  43.38300 10.12100 28.40200
N  40.56800 9.30400 32.70000
C  41.40300 9.88700 33.58300
C  40.88900 9.75200 35.03100
C  39.71800 8.73600 34.91300
C  39.66100 8.48400 33.35700
C  39.85800 7.30800 35.64100
C  40.50100 11.18800 35.65200
C  41.24200 11.63400 36.90800
H  40.37700 12.18800 38.02500
N  39.09700 8.03700 30.37500
C  38.33700 7.55800 31.39900
C  37.19100 6.88500 30.83400
C  37.31600 6.94900 29.39900
C  38.56900 7.57500 29.16900
C  36.08300 6.26100 31.71400
C  36.29800 6.50400 28.36200
O  36.47800 6.56600 27.17000
C  34.92300 6.10400 28.81100
N  41.18600 9.14700 28.47800
C  40.33100 8.56400 27.59500
C  40.88900 8.67000 26.16100
C  42.17800 9.53400 26.36200
C  42.30500 9.49300 27.86100
C  41.24100 7.28700 25.45700
C  41.97400 11.11400 25.90500
C  41.79400 11.48300 24.43600
N  42.53300 10.28500 30.64000
C  43.54700 10.44700 29.74900
C  44.58000 11.29800 30.36500
C  44.20200 11.35000 31.70300
C  43.00900 10.70200 31.86900
C  45.72100 11.83900 29.56100
C  44.67600 11.78600 32.92400
O  45.73900 12.40100 33.07300
C  43.65300 11.31100 34.06600
C  44.28500 10.43800 35.06000
O  44.37600 9.18800 35.06400
O  44.62800 11.20800 36.14200
C  44.83900 10.47600 37.35100
H  37.99900 7.19100 33.49500
H  38.74600 7.52400 27.03000
H  44.05600 10.56800 27.66700
H  41.67300 9.14300 35.48000
H  38.79700 9.20300 35.26300
H  40.00400 6.52500 34.89700
H  38.90800 6.97000 36.05500
H  40.65200 7.33200 36.38700
H  39.42500 11.23000 35.81800
H  40.82800 11.90200 34.89700
H  41.91500 12.43800 36.61000
H  41.83500 10.83000 37.34300
H  36.00600 5.17600 31.64300
H  35.16700 6.79400 31.45900
H  36.28400 6.49000 32.76100
H  34.97400 5.26000 29.49900
H  34.37600 5.70600 27.95500
H  34.39300 6.93200 29.28200
H  40.22600 9.21400 25.48800
H  43.06200 9.04900 25.94700
H  40.89400 6.46300 26.08100
H  42.27600 7.14100 25.14900
H  40.70000 7.26300 24.51100
H  42.83300 11.73700 26.15300
H  41.10000 11.52800 26.40800
H  42.71400 11.21100 23.91700
H  41.49700 12.52600 24.33000
H  41.00900 10.81200 24.08700
H  45.41400 12.16100 28.56600
H  46.34300 10.94700 29.47900
H  46.24200 12.61100 30.12700
H  43.21700 12.15100 34.60600
H  44.18200 10.76700 38.17100
H  45.81200 10.66000 37.80600
H  44.74000 9.39300 37.27400
Mg -1.51400 34.70900 27.18600
C  -3.25000 32.77100 29.61600
C  -0.24900 36.65900 29.53900
C  0.06800 36.22800 24.62600
C  -3.20300 32.64300 24.70400
N  -1.89600 34.86500 29.33000
C  -2.51000 33.89500 30.15700
C  -2.41300 34.31400 31.64000
C  -1.57500 35.57600 31.59100
C  -1.12300 35.65400 30.07100
C  -2.27000 36.86700 32.14600
C  -1.81100 33.13800 32.51800
C  -1.07200 33.41900 33.89900
H  -1.58500 32.69600 35.12900
N  -0.40900 36.32000 27.08600
C  0.01900 37.01100 28.15400
C  0.84500 38.11100 27.73200
C  0.97300 37.97900 26.33400
C  0.21700 36.77500 25.91800
C  1.55600 39.03300 28.74800
C  1.78200 38.94200 25.33200
O  1.71900 38.75700 24.14600
C  2.62900 40.04600 25.71300
N  -1.64400 34.53800 25.05800
C  -0.80800 35.20000 24.23400
C  -0.80400 34.69500 22.76600
C  -1.86600 33.61600 22.80700
C  -2.26400 33.55500 24.29300
C  -1.05100 35.78700 21.68300
C  -1.20700 32.23100 22.25200
C  -0.27700 31.58700 23.27900
N  -2.98000 33.11100 27.14700
C  -3.54300 32.41200 26.07000
C  -4.38600 31.34000 26.61200
C  -4.31400 31.43900 28.00200
C  -3.39200 32.48900 28.26900
C  -5.22000 30.35200 25.83100
C  -4.74300 30.88700 29.19700
O  -5.51200 30.02000 29.45200
C  -4.14800 31.81600 30.36100
C  -5.29100 32.35900 31.17300
O  -6.32100 32.85500 30.68400
O  -5.04300 32.17000 32.42700
C  -5.98700 32.68800 33.44700
H  0.41200 37.10000 30.28800
H  0.51500 36.80600 23.81400
H  -3.58800 31.93600 23.96600
H  -3.43800 34.49000 31.96700
H  -0.64600 35.55700 32.16100
H  -2.40000 37.54400 31.30100
H  -1.74700 37.41000 32.93300
H  -3.29000 36.64500 32.46100
H  -1.08800 32.62800 31.88100
H  -2.59100 32.41700 32.76600
H  -1.34900 34.47000 33.97800
H  0.01700 33.38400 33.85900
H  1.08100 40.00800 28.64100
H  2.62200 39.06400 28.52400
H  1.43700 38.73100 29.78900
H  2.01400 40.90100 25.99500
H  3.11300 40.30600 24.77100
H  3.40100 39.82100 26.44900
H  0.19700 34.32800 22.53800
H  -2.75600 33.85700 22.22700
H  -0.26700 35.97100 20.94900
H  -1.28100 36.76000 22.11800
H  -1.94600 35.57900 21.09800
H  -0.60700 32.30400 21.34500
H  -2.06000 31.56500 22.11900
H  -0.67900 30.57500 23.23000
H  -0.31100 31.97500 24.29700
H  0.74700 31.46700 22.92500
H  -5.03000 30.54800 24.77600
H  -6.26700 30.49300 26.09800
H  -4.83900 29.38700 26.16400
H  -3.61000 31.24500 31.11900
H  -6.81700 33.07900 32.85900
H  -5.51100 33.51700 33.97100
H  -6.19700 31.89100 34.16000

