158

Mg 0.08400 7.88200 26.02000
C  0.50900 9.99100 28.88400
C  0.14600 5.24500 28.11700
C  -0.65600 5.95200 23.34700
C  0.31800 10.68400 24.03200
N  0.30800 7.75000 28.26000
C  0.27500 8.67000 29.21100
C  0.36100 8.00100 30.66200
C  0.63600 6.50300 30.32200
C  0.38200 6.47600 28.79300
C  1.98700 5.98800 30.70900
C  -0.97400 8.35600 31.40000
C  -1.12200 7.93900 32.87900
H  0.04300 7.11600 33.47200
N  -0.32300 5.86600 25.73500
C  -0.24900 4.92500 26.72700
C  -0.41600 3.57900 26.20700
C  -0.64600 3.76200 24.85700
C  -0.54700 5.23100 24.56200
C  -0.34400 2.33300 26.94300
C  -0.94800 2.80100 23.75800
O  -1.19200 3.14500 22.63700
C  -0.75800 1.34200 24.05400
N  -0.07800 8.25200 24.03000
C  -0.51900 7.31200 23.10100
C  -0.77100 7.91000 21.71200
C  -0.67000 9.48800 21.98800
C  -0.09900 9.48900 23.41900
C  0.16700 7.29900 20.66200
C  -2.04900 10.16800 21.96400
C  -2.13400 11.57700 21.60100
N  0.47800 9.94900 26.29500
C  0.56900 10.93000 25.39000
C  0.77400 12.21500 26.01200
C  0.84300 11.83100 27.40000
C  0.54000 10.53600 27.52300
C  0.94600 13.60800 25.37200
C  1.02400 12.34900 28.75400
O  1.23500 13.48800 29.12300
C  0.67700 11.14300 29.75900
C  1.91200 11.02300 30.59800
O  3.07200 10.98800 30.23100
O  1.63800 10.86600 31.89700
C  2.70900 10.77800 32.85000
H  0.21500 4.40600 28.81300
H  -0.95700 5.35200 22.48600
H  0.21500 11.59100 23.43200
H  1.21000 8.48500 31.14600
H  -0.11400 5.99000 30.92400
H  2.28100 5.16600 30.05600
H  2.05300 5.35200 31.59300
H  2.80200 6.70100 30.58700
H  -1.80600 7.93100 30.83700
H  -1.09100 9.43900 31.39000
H  -2.04700 7.36900 32.96000
H  -1.23100 8.85600 33.45900
H  -1.27000 1.78100 26.77900
H  -0.22500 2.32500 28.02700
H  0.48300 1.69900 26.62200
H  -0.74500 0.74800 23.14000
H  -1.56400 1.01400 24.71100
H  0.25700 1.22700 24.43500
H  -1.79100 7.61300 21.47000
H  0.01400 9.98900 21.30300
H  -0.32500 6.45700 20.17400
H  1.16900 7.09900 21.04000
H  0.34800 8.04200 19.88500
H  -2.53200 10.01200 22.92900
H  -2.73600 9.68200 21.27100
H  -2.53800 11.73200 20.60100
H  -1.16300 12.07200 21.62400
H  -2.80800 12.07400 22.29800
H  2.01500 13.77600 25.23700
H  0.67200 14.27300 26.19100
H  0.38100 13.88700 24.48300
H  -0.25200 11.24800 30.31900
H  2.60800 11.58500 33.57500
H  3.69900 10.79200 32.39500
H  2.67600 9.90400 33.50100
Mg 8.47700 4.33700 28.12400
C  10.02900 2.72200 30.96200
C  6.82200 6.18300 30.36700
C  6.90800 5.77200 25.53900
C  9.82700 1.85900 26.10800
N  8.49900 4.34100 30.38500
C  9.21500 3.72000 31.35600
C  9.06300 4.28300 32.76200
C  7.82900 5.23200 32.47500
C  7.68500 5.29100 30.94400
C  6.50200 4.85600 33.23600
C  10.38800 4.87400 33.35600
C  10.48800 5.94300 34.42900
H  11.11100 5.46400 35.72500
N  7.04900 5.81600 27.96800
C  6.50000 6.45600 29.04600
C  5.53600 7.43800 28.54500
C  5.57600 7.34700 27.09900
C  6.61600 6.30200 26.84200
C  4.58100 8.28300 29.35900
C  4.74800 8.07300 26.04600
O  5.08200 8.00800 24.93800
C  3.59100 8.97400 26.36100
N  8.41300 3.89100 26.10800
C  7.72900 4.63300 25.17100
C  7.97000 4.10500 23.80100
C  9.05900 2.97400 23.97800
C  9.04400 2.88600 25.48800
C  6.62400 3.68800 23.10100
C  10.43500 3.33500 23.38600
C  11.53300 4.13000 24.14100
N  9.70400 2.64500 28.40600
C  10.16300 1.75000 27.49100
C  10.92400 0.70600 28.12100
C  10.91600 1.12400 29.47000
C  10.16200 2.27500 29.61000
C  11.58400 -0.40500 27.44500
C  11.59900 0.78400 30.71900
O  12.37700 -0.14300 30.91500
C  10.91600 1.79100 31.79000
C  10.05400 0.93300 32.75500
O  9.15500 0.20500 32.42100
O  10.58400 1.03900 33.98200
C  9.84400 0.30200 35.07700
H  6.17600 6.74900 31.04200
H  6.50700 6.33600 24.69400
H  10.23100 1.10500 25.42900
H  8.72400 3.46000 33.39000
H  8.11100 6.19600 32.89700
H  5.70000 4.69000 32.51700
H  6.27400 5.65600 33.94000
H  6.47500 3.89900 33.75600
H  11.04400 5.11200 32.51900
H  10.67400 3.95600 33.86900
H  9.54100 6.35500 34.77800
H  11.05200 6.78900 34.03500
H  4.85500 9.32700 29.20800
H  4.58500 8.01300 30.41500
H  3.52700 8.22800 29.08600
H  3.10600 9.16500 25.40400
H  3.84100 9.79200 27.03600
H  2.82500 8.36400 26.84100
H  8.26500 4.82200 23.03400
H  8.70700 2.01100 23.60800
H  6.40000 4.32800 22.24700
H  5.77600 3.82100 23.77200
H  6.54500 2.64000 22.81300
H  10.14200 4.06000 22.62700
H  11.00500 2.61800 22.79400
H  11.05100 4.38300 25.08500
H  11.79100 5.09700 23.71000
H  12.41700 3.50100 24.24500
H  12.08200 0.05100 26.58900
H  10.94800 -1.24200 27.15800
H  12.38500 -0.68800 28.12800
H  11.64300 2.30800 32.41600
H  8.96900 -0.23600 34.71500
H  9.33600 0.95400 35.78800
H  10.55400 -0.31900 35.62400

