158

Mg 24.88900 -4.77500 46.07000
C  26.77900 -2.42300 44.43600
C  22.29900 -4.38300 43.82400
C  23.45100 -7.64400 47.26400
C  27.86600 -5.66700 47.91200
N  24.57800 -3.55800 44.38400
C  25.46300 -2.62400 43.87400
C  24.85400 -1.82400 42.62300
C  23.43100 -2.50600 42.60300
C  23.39200 -3.49900 43.70800
C  22.35500 -1.46800 42.60200
C  25.60400 -2.20200 41.30800
C  25.56100 -0.99700 40.30700
H  25.52800 -1.17100 38.77300
N  23.01800 -5.72900 45.77000
C  22.06900 -5.41300 44.78600
C  20.93200 -6.36300 44.87500
C  21.25900 -7.24000 45.86300
C  22.65200 -6.89700 46.31900
C  19.65100 -6.32000 44.08100
C  20.40400 -8.37300 46.41000
O  19.25700 -8.58300 45.94000
C  20.74900 -9.20800 47.63800
N  25.56900 -6.44600 47.30300
C  24.77600 -7.43900 47.72000
C  25.44800 -8.42000 48.69600
C  26.68000 -7.58800 49.11400
C  26.78500 -6.50200 48.00600
C  24.63400 -9.08000 49.78900
C  28.02000 -8.45500 49.29100
C  29.01500 -7.94700 50.32000
N  26.90500 -4.08900 46.27700
C  27.93900 -4.51700 47.11000
C  29.06600 -3.62000 46.94900
C  28.66100 -2.70400 45.98600
C  27.37200 -3.11500 45.53400
C  30.36600 -3.77600 47.68100
C  29.05400 -1.62000 45.21500
O  30.08100 -0.96800 45.24800
C  27.87500 -1.40300 44.15400
C  27.35100 -0.04600 44.31700
O  26.42600 0.32100 45.05200
O  27.99200 0.75300 43.37800
C  27.63400 2.19500 43.29800
H  21.49200 -4.15800 43.12400
H  23.10400 -8.50600 47.83800
H  28.74400 -5.85600 48.53300
H  24.79300 -0.77000 42.89100
H  23.21200 -3.04000 41.67900
H  21.47700 -1.82000 42.06100
H  22.63200 -0.50400 42.17500
H  21.96300 -1.43200 43.61900
H  25.07400 -2.97300 40.75000
H  26.65600 -2.46400 41.42300
H  26.51300 -0.49200 40.47400
H  24.93600 -0.13400 40.53600
H  19.75400 -5.54700 43.32000
H  18.74200 -6.11200 44.64500
H  19.41400 -7.34900 43.81100
H  19.88400 -9.75300 48.01600
H  20.96500 -8.49300 48.43200
H  21.58200 -9.79200 47.24700
H  25.81000 -9.28800 48.14700
H  26.33800 -7.03000 49.98600
H  25.16500 -9.39700 50.68700
H  24.07100 -9.92200 49.38500
H  23.94800 -8.32400 50.17100
H  28.52200 -8.57700 48.33200
H  27.74200 -9.44700 49.64700
H  29.16300 -8.69900 51.09500
H  28.45300 -7.11200 50.74000
H  29.93600 -7.49800 49.94800
H  30.25700 -3.24100 48.62400
H  31.08500 -3.15100 47.15100
H  30.69000 -4.80800 47.81600
H  28.15500 -1.42700 43.10100
H  26.84000 2.42600 42.58800
H  28.50600 2.83500 43.16400
H  27.30100 2.48600 44.29500
Mg 35.06500 3.09500 30.20800
C  32.73400 3.94100 32.63800
C  37.40600 2.98200 32.61300
C  37.26100 2.48200 27.74600
C  32.53000 3.52800 27.73200
N  35.06800 3.40400 32.35500
C  33.97800 3.75400 33.14700
C  34.36000 3.75200 34.63100
C  36.00600 3.76200 34.51200
C  36.19500 3.46300 33.04800
C  36.76200 5.02100 35.04200
C  33.80700 2.55700 35.44000
C  33.45600 2.74700 36.92600
H  34.07500 3.90500 37.73000
N  37.13900 2.68200 30.23200
C  37.93000 2.59100 31.32000
C  39.20900 2.12400 30.98700
C  39.14700 1.91900 29.57200
C  37.80300 2.37200 29.10800
C  40.28800 1.72200 31.98100
C  40.23100 1.52400 28.60200
O  40.06500 1.30900 27.38500
C  41.60800 1.14700 29.14900
N  34.94600 3.17900 28.02800
C  35.97600 2.83000 27.26200
C  35.64800 2.76400 25.77700
C  34.12600 2.98900 25.77400
C  33.84700 3.22400 27.23400
C  36.44400 3.72300 24.89600
C  33.29500 1.81900 25.19000
C  32.88100 0.66000 26.18000
N  33.12500 3.76500 30.16000
C  32.20000 3.84900 29.07700
C  30.91300 4.11400 29.60800
C  31.11000 4.16200 30.97900
C  32.41700 3.91800 31.28800
C  29.66000 4.47900 28.77000
C  30.37600 4.48500 32.23200
O  29.24800 4.92000 32.44000
C  31.40500 4.15100 33.37600
C  31.33900 5.35400 34.26100
O  31.88500 6.40900 34.06900
O  30.69700 5.02600 35.50000
C  30.68700 6.22100 36.42000
H  38.19600 2.83400 33.35200
H  37.92600 2.08900 26.97400
H  31.72600 3.46000 26.99600
H  33.97200 4.70300 34.99600
H  36.52000 2.96500 35.04900
H  37.28900 4.77600 35.96400
H  35.97700 5.73800 35.28100
H  37.56600 5.41500 34.42000
H  34.65300 1.87000 35.45600
H  32.98300 2.06000 34.92800
H  33.71500 1.78600 37.37100
H  32.37600 2.81300 37.05500
H  41.21400 2.27300 31.82000
H  40.48200 0.65300 31.88600
H  39.93900 1.90800 32.99700
H  41.90700 2.02200 29.72600
H  42.31000 1.00700 28.32700
H  41.36900 0.22500 29.67900
H  35.86300 1.71100 25.59500
H  33.73800 3.90000 25.31800
H  35.91400 4.41100 24.23700
H  37.13300 3.20700 24.22700
H  37.11600 4.36600 25.46400
H  33.95000 1.52200 24.37000
H  32.34500 2.25100 24.87700
H  31.91900 0.26200 25.85400
H  32.88400 0.82500 27.25700
H  33.59100 -0.14500 25.98800
H  29.72200 5.52100 28.45400
H  28.91900 4.43000 29.56800
H  29.56600 3.69900 28.01400
H  31.11000 3.28100 33.96300
H  30.37800 7.22300 36.12100
H  31.62300 6.19600 36.97700
H  29.82100 6.07900 37.06700

