158

Mg 36.13400 1.50700 30.40000
C  33.57200 2.68500 32.57000
C  38.13400 1.09800 33.06400
C  38.51800 0.45100 28.25100
C  33.89700 1.82400 27.77900
N  35.85800 1.94400 32.57800
C  34.78000 2.48700 33.26700
C  34.96900 2.40600 34.75200
C  36.57100 2.18500 34.85700
C  36.82900 1.62300 33.39200
C  37.42600 3.47000 35.08900
C  34.06600 1.34200 35.48100
C  33.52000 1.82200 36.83900
H  34.24300 2.91900 37.60800
N  38.06100 0.83400 30.64600
C  38.63100 0.61400 31.82900
C  39.92100 -0.00800 31.58600
C  39.99100 -0.26100 30.21100
C  38.81400 0.28600 29.63700
C  40.93600 -0.33800 32.72500
C  40.97200 -1.02600 29.36600
O  40.73200 -1.45200 28.23000
C  42.25700 -1.55800 29.96700
N  36.28100 1.33900 28.25000
C  37.34100 0.95000 27.54400
C  37.00600 0.85200 26.04600
C  35.53400 1.25400 25.93300
C  35.20100 1.53000 27.41300
C  37.89800 1.63200 25.00000
C  34.57100 0.21100 25.33900
C  34.00900 0.56000 23.96500
N  34.15800 2.10600 30.13000
C  33.40800 2.23700 29.02100
C  32.13500 2.75400 29.34200
C  32.10800 2.94300 30.74700
C  33.37400 2.52800 31.20100
C  31.07800 3.09200 28.34200
C  31.31800 3.45400 31.85500
O  30.20900 3.93900 31.92500
C  32.21500 3.22900 33.12100
C  32.38500 4.53900 33.86700
O  33.14100 5.40000 33.60200
O  31.50900 4.61600 34.89500
C  31.51800 5.84400 35.67500
H  38.88300 1.01400 33.85300
H  39.23700 0.22500 27.46000
H  33.19800 1.90000 26.94300
H  34.77300 3.40400 35.14400
H  36.81800 1.50400 35.67100
H  37.11900 3.99700 35.99200
H  37.35300 4.11500 34.21400
H  38.51300 3.42700 35.14900
H  34.65000 0.45500 35.72400
H  33.21400 1.09100 34.85000
H  33.42200 0.91900 37.44100
H  32.50100 2.14100 36.62000
H  41.19600 -1.39300 32.80400
H  40.42500 -0.18600 33.67600
H  41.84700 0.22300 32.51700
H  42.22000 -2.04400 30.94200
H  42.98200 -0.75900 29.81100
H  42.73600 -2.34600 29.38700
H  37.22800 -0.20000 25.86600
H  35.32500 2.26000 25.56700
H  38.71100 2.20600 25.44500
H  37.31100 2.33800 24.41300
H  38.38600 0.87600 24.38500
H  33.72900 -0.04800 25.98000
H  35.02200 -0.75600 25.11300
H  32.92100 0.55900 24.03400
H  34.26200 -0.11600 23.14800
H  34.30400 1.57900 23.71400
H  31.39100 3.17400 27.30100
H  30.55500 4.01100 28.60600
H  30.37600 2.25900 28.33700
H  31.67500 2.48300 33.70500
H  31.71800 6.66400 34.98600
H  32.19600 5.72300 36.52000
H  30.44900 5.94000 35.86700
Mg 30.11400 58.88100 38.25700
C  27.44200 56.54200 37.65500
C  32.18300 56.15300 38.13800
C  32.65100 61.07100 38.36700
C  27.79200 61.43900 38.12500
N  29.82100 56.53600 37.72700
C  28.65700 55.86400 37.65500
C  28.90500 54.33600 37.59300
C  30.51900 54.19500 37.80500
C  30.89700 55.69700 37.91600
C  30.83100 53.36700 39.02200
C  28.49600 53.60500 36.25000
C  29.12600 54.17700 34.88500
H  28.14900 54.72600 33.91400
N  32.13600 58.65500 38.21400
C  32.81500 57.42300 38.23600
C  34.26700 57.67800 38.30300
C  34.40700 59.13900 38.29600
C  33.01300 59.69100 38.30000
C  35.25500 56.52500 38.21300
C  35.80300 59.83400 38.30400
O  36.85400 59.24300 38.48100
C  35.77900 61.27000 38.29100
N  30.24100 60.93300 38.26500
C  31.38700 61.64300 38.43200
C  31.12500 63.19900 38.55000
C  29.61000 63.23000 38.60700
C  29.18000 61.78200 38.26200
C  31.91300 63.94300 39.66900
C  29.00300 64.35900 37.67900
C  27.92300 65.26100 38.18600
N  28.06700 59.02200 37.84100
C  27.26400 60.16300 37.84400
C  25.91600 59.77000 37.57800
C  25.93000 58.38500 37.53500
C  27.24200 57.96500 37.65400
C  24.74100 60.70500 37.31000
C  25.07900 57.25900 37.37400
O  23.84000 57.18400 37.20700
C  26.04200 56.06100 37.40700
C  25.59600 55.16900 38.51500
O  25.80300 55.35000 39.71200
O  24.95500 54.06700 38.02300
C  24.25100 53.31400 39.05900
H  32.86300 55.32400 37.92700
H  33.31800 61.93500 38.39600
H  27.09700 62.28100 38.10900
H  28.26400 53.79300 38.28800
H  31.05200 53.77200 36.95300
H  30.10800 52.56800 39.18500
H  30.94700 53.95300 39.93400
H  31.75600 52.86200 38.74500
H  27.41100 53.64600 36.15000
H  28.76600 52.55700 36.38100
H  29.53400 53.36200 34.28800
H  29.89200 54.92700 35.07900
H  35.34800 56.18600 37.18100
H  34.78500 55.71400 38.76900
H  36.20500 56.74900 38.69900
H  35.29200 61.65200 39.18800
H  35.20500 61.76100 37.50500
H  36.76200 61.71500 38.13200
H  31.48100 63.56600 37.58700
H  29.39500 63.47700 39.64700
H  32.52500 63.17300 40.13800
H  31.16800 64.40000 40.32100
H  32.55300 64.73500 39.28100
H  28.58900 63.88400 36.78900
H  29.80300 65.03700 37.38200
H  27.18700 65.63900 37.47600
H  28.21400 66.20200 38.65200
H  27.43600 64.67800 38.96800
H  23.96400 60.14600 36.78900
H  25.10700 61.40300 36.55700
H  24.40700 61.09200 38.27300
H  25.93000 55.61000 36.42100
H  23.73800 53.93600 39.79200
H  24.94100 52.60500 39.51600
H  23.40200 52.87600 38.53400

