158

Mg 47.01600 24.40500 28.17300
C  47.59800 26.76100 30.61800
C  46.08200 22.28300 30.63900
C  46.74600 22.05600 25.79300
C  48.47600 26.59100 25.76200
N  46.73000 24.60300 30.39600
C  46.96200 25.63600 31.21000
C  46.61000 25.37400 32.64600
C  46.36900 23.83100 32.59600
C  46.40500 23.55200 31.14100
C  47.30500 22.97000 33.45700
C  45.51400 26.25100 33.19100
C  45.05200 26.00900 34.66200
H  45.47800 26.94800 35.74400
N  46.55400 22.36700 28.23100
C  46.08300 21.73400 29.34500
C  45.66500 20.39700 28.95100
C  45.73800 20.35100 27.51900
C  46.36400 21.62200 27.09400
C  45.04700 19.40500 29.94700
C  45.15800 19.22600 26.54400
O  45.16900 19.28400 25.31200
C  44.57100 18.01200 27.18900
N  47.57600 24.29600 26.06900
C  47.17800 23.26300 25.31200
C  47.42500 23.47800 23.85000
C  47.92900 24.99300 23.76800
C  48.03700 25.33800 25.29100
C  48.49100 22.54600 23.23000
C  46.86300 25.82400 23.10500
C  45.42100 26.05300 23.74600
N  47.76200 26.31200 28.10400
C  48.36500 27.04900 27.11200
C  48.89500 28.23200 27.69700
C  48.56500 28.25000 29.04600
C  47.91400 27.03000 29.22800
C  49.65800 29.32100 26.93100
C  48.59800 29.06700 30.31100
O  48.97200 30.21900 30.51900
C  47.92100 28.04800 31.33800
C  48.88600 27.80400 32.44200
O  49.99700 27.24600 32.46400
O  48.23800 28.26500 33.58900
C  49.04700 28.11600 34.83900
H  45.66100 21.71200 31.46900
H  46.52000 21.36800 24.97500
H  48.87300 27.29200 25.02500
H  47.47200 25.63400 33.26100
H  45.37600 23.65200 33.00800
H  48.21300 22.78000 32.88400
H  46.77700 22.07400 33.78500
H  47.49000 23.51500 34.38200
H  44.59800 25.96400 32.67600
H  45.64700 27.32000 33.02500
H  45.41300 25.00400 34.88400
H  43.96900 25.92100 34.58300
H  44.02500 19.13800 29.67800
H  45.20200 19.81900 30.94300
H  45.68000 18.51900 29.99200
H  43.58600 18.30300 27.55400
H  45.15600 17.61200 28.01800
H  44.46600 17.24400 26.42200
H  46.44900 23.38400 23.37400
H  48.92800 25.15700 23.36300
H  48.05900 21.88900 22.47600
H  48.89300 21.89500 24.00600
H  49.29500 23.14900 22.80800
H  46.69400 25.42600 22.10400
H  47.41200 26.76500 23.08700
H  45.25000 27.10800 23.96100
H  45.23500 25.48000 24.65500
H  44.64200 25.81300 23.02200
H  49.05900 30.22000 26.78900
H  49.96200 29.06000 25.91700
H  50.53800 29.56000 27.52800
H  46.99500 28.54900 31.61900
H  49.60900 27.18500 34.91300
H  48.48000 28.31200 35.74900
H  49.72400 28.97100 34.83500
Mg 47.27700 33.70000 26.47700
C  45.90300 32.56000 29.42000
C  48.25800 36.54700 28.28900
C  48.57900 35.08100 23.68800
C  46.48600 30.83400 24.78100
N  47.08800 34.43200 28.62400
C  46.50300 33.79000 29.66200
C  46.71800 34.45200 31.00500
C  47.10100 35.86100 30.51500
C  47.62000 35.58600 29.09000
C  45.94500 36.93500 30.58800
C  47.83200 33.85000 31.86600
C  47.81900 33.88300 33.41400
H  46.80900 34.79400 34.13300
N  48.46600 35.49800 26.08000
C  48.69900 36.54500 26.87700
C  49.48100 37.54300 26.13300
C  49.55700 37.14800 24.75200
C  48.87800 35.83400 24.79400
C  50.12200 38.82400 26.73200
C  50.10300 37.90500 23.50800
O  50.20500 37.45800 22.38200
C  50.38700 39.35500 23.73500
N  47.40200 33.07000 24.43900
C  47.92000 33.85300 23.45400
C  47.92000 33.08700 22.10700
C  47.52900 31.62700 22.55100
C  47.12600 31.83000 24.01000
C  46.99900 33.70600 20.95600
C  48.70100 30.48900 22.38400
C  50.10700 30.79600 22.99100
N  46.32500 32.05100 26.89500
C  46.04700 30.86700 26.12500
C  45.33900 29.86000 26.99300
C  45.19100 30.53400 28.21700
C  45.88900 31.80900 28.17900
C  44.93800 28.42200 26.63100
C  44.61300 30.39000 29.47600
O  43.92600 29.52800 30.00900
C  44.98100 31.76400 30.28600
C  45.23600 31.55500 31.73700
O  46.15400 30.93000 32.25000
O  44.10300 31.95900 32.42300
C  43.97000 31.41300 33.76500
H  48.49200 37.42800 28.89100
H  48.81900 35.57400 22.74300
H  46.42300 29.87800 24.25700
H  45.75100 34.40000 31.50500
H  47.95400 36.22900 31.08500
H  45.12100 36.44600 31.10800
H  45.65400 37.27200 29.59300
H  46.27100 37.84100 31.09900
H  48.73700 34.43900 31.71900
H  48.10500 32.82500 31.61700
H  48.84200 33.90000 33.78800
H  47.55900 32.85500 33.66400
H  49.99900 38.69300 27.80700
H  49.54100 39.68700 26.40600
H  51.09500 39.09000 26.32000
H  49.46100 39.76200 24.14100
H  50.53500 39.79100 22.74700
H  51.30000 39.49400 24.31300
H  48.93600 33.07600 21.71100
H  46.60900 31.36200 22.03000
H  47.48500 33.41200 20.02500
H  46.76900 34.77200 20.94200
H  46.09700 33.09600 20.92900
H  48.79200 30.17000 21.34500
H  48.37700 29.66300 23.01800
H  50.27000 30.13600 23.84300
H  50.31600 31.81700 23.31000
H  50.78400 30.53300 22.17900
H  45.81200 27.77200 26.60300
H  44.38000 28.32400 25.70000
H  44.24300 28.15300 27.42700
H  44.03200 32.29600 30.22100
H  43.89900 30.32600 33.79000
H  43.01000 31.55200 34.26300
H  44.67900 31.87600 34.45100

