158

Mg 8.72600 3.89400 27.55200
C  9.84100 2.31100 30.48300
C  6.66900 5.92600 29.49800
C  7.57600 5.30800 24.70800
C  10.55400 1.57200 25.68700
N  8.44900 4.13700 29.75300
C  8.98000 3.36300 30.80400
C  8.40600 3.84600 32.18800
C  7.35900 4.93600 31.74900
C  7.44500 4.96900 30.19400
C  5.89300 4.75000 32.25700
C  9.47900 4.41200 33.12200
C  9.49100 3.70500 34.55200
H  10.85300 3.90200 35.40000
N  7.35400 5.49100 27.20400
C  6.53700 6.15700 28.08300
C  5.71400 7.17100 27.46600
C  6.02100 7.01800 26.05500
C  7.06900 5.91400 25.90200
C  4.80600 8.08100 28.21200
C  5.51400 7.92100 24.87800
O  5.87000 7.75300 23.68000
C  4.53600 8.93100 25.16700
N  8.85800 3.42700 25.50000
C  8.46500 4.31000 24.53300
C  8.99100 3.82200 23.12700
C  9.81400 2.53300 23.49800
C  9.78300 2.55000 25.01700
C  7.94400 3.51400 22.01300
C  11.19600 2.33800 22.83900
C  11.32900 0.89500 22.08000
N  9.84100 2.18700 27.89300
C  10.52400 1.34400 27.08700
C  11.22300 0.32700 27.83300
C  11.04400 0.69900 29.11900
C  10.17200 1.84600 29.15300
C  12.10500 -0.76600 27.33700
C  11.46500 0.41900 30.46600
O  12.30400 -0.44300 30.90100
C  10.67900 1.43100 31.38800
C  9.77600 0.71900 32.32200
O  8.65500 0.32400 31.99000
O  10.32700 0.53400 33.60500
C  9.41800 -0.20200 34.45100
H  5.96900 6.52000 30.09000
H  7.18600 5.81000 23.82000
H  11.07500 0.75500 25.18200
H  7.84800 3.02100 32.63100
H  7.62000 5.97700 31.93900
H  5.35900 4.12100 31.54300
H  5.51000 5.76400 32.37000
H  5.96800 4.24900 33.22200
H  9.21100 5.45200 33.30700
H  10.43600 4.34700 32.60500
H  9.15300 2.67200 34.47100
H  8.73400 4.18500 35.17300
H  5.07300 9.13300 28.10900
H  4.77800 7.90400 29.28700
H  3.79600 7.90900 27.83900
H  4.14700 9.20700 24.18700
H  4.99300 9.79900 25.64200
H  3.71700 8.42800 25.68300
H  9.64900 4.53800 22.63500
H  9.30400 1.62500 23.17700
H  6.90400 3.71700 22.26900
H  7.96400 2.48100 21.66500
H  8.29300 4.17200 21.21800
H  12.05700 2.47300 23.49300
H  11.38800 3.15100 22.13800
H  11.71900 0.99700 21.06700
H  10.45700 0.24700 22.16300
H  12.17600 0.39700 22.55200
H  13.15900 -0.49000 27.32100
H  11.93600 -1.06000 26.30100
H  11.95600 -1.66100 27.94000
H  11.50200 1.87000 31.95100
H  8.37800 0.10400 34.33800
H  9.58000 -0.12500 35.52600
H  9.35000 -1.18300 33.98100
Mg 31.01700 58.67200 38.97800
C  28.20000 56.76900 38.15700
C  33.10000 56.05400 38.44900
C  33.65300 60.72300 39.35100
C  28.90700 61.46500 39.03600
N  30.64700 56.65500 38.16400
C  29.39500 56.08500 38.07500
C  29.60500 54.54200 37.72000
C  31.19400 54.36600 37.82700
C  31.70800 55.76400 38.20500
C  31.66300 53.10100 38.70700
C  29.02900 54.04000 36.35400
C  29.45300 54.71800 35.04600
H  28.33300 55.33900 34.14900
N  33.06200 58.43300 39.00700
C  33.77100 57.29700 38.76900
C  35.21400 57.56200 38.92300
C  35.35700 58.93200 39.23000
C  33.97100 59.44600 39.15000
C  36.22500 56.48700 38.66100
C  36.68900 59.53500 39.59600
O  37.72400 58.82000 39.56000
C  36.91200 61.06200 39.90800
N  31.32000 60.84400 39.01400
C  32.45600 61.40400 39.25100
C  32.37400 62.94300 39.23100
C  30.89800 63.13600 39.60800
C  30.29200 61.73000 39.29900
C  33.32900 63.72000 40.14000
C  30.21200 64.33100 38.81700
C  29.11300 65.09500 39.45000
N  28.98300 59.12900 38.67300
C  28.26500 60.27600 38.78200
C  26.81900 60.05300 38.52500
C  26.74500 58.65200 38.30200
C  28.13500 58.15000 38.34700
C  25.69600 61.08500 38.62500
C  25.82000 57.56400 38.13700
O  24.59900 57.53600 38.09800
C  26.74500 56.24000 38.00000
C  26.35600 55.19800 39.08900
O  26.90800 55.09500 40.18600
O  25.34700 54.40200 38.60300
C  24.73800 53.33100 39.39900
H  33.75900 55.19800 38.28800
H  34.48000 61.38900 39.09400
H  28.30600 62.37100 39.13200
H  29.22900 54.02500 38.60300
H  31.55400 54.09300 36.83500
H  32.35900 52.43800 38.19300
H  30.89000 52.46300 39.13600
H  32.17200 53.44700 39.60700
H  27.98800 54.35800 36.40900
H  29.03600 52.95100 36.31500
H  29.93500 53.99800 34.38500
H  30.22200 55.45000 35.29200
H  37.11600 56.87200 38.16500
H  35.81100 55.71300 38.01500
H  36.53700 55.98800 39.57900
H  36.11100 61.36700 40.58000
H  36.90700 61.59700 38.95800
H  37.90800 61.03900 40.35100
H  32.65700 63.10100 38.19000
H  30.81000 63.24200 40.68900
H  34.37400 63.56800 39.86900
H  33.08600 63.50000 41.18000
H  33.13000 64.77900 39.97700
H  29.89900 64.00300 37.82600
H  31.00000 65.04400 38.57100
H  29.13000 65.15200 40.53900
H  28.19600 64.59700 39.13400
H  29.50300 66.07000 39.15900
H  25.05700 61.11000 37.74300
H  26.19800 62.03500 38.81000
H  25.03500 60.81800 39.44900
H  26.58600 55.73200 37.04900
H  24.90000 52.30200 39.07700
H  23.68400 53.49500 39.62100
H  25.19400 53.39200 40.38800

