158

Mg 16.36200 -1.52300 28.19300
C  15.18000 0.22500 30.84300
C  18.54300 -3.16300 30.51200
C  17.88500 -3.10600 25.54700
C  14.18800 -0.02100 25.98700
N  16.82000 -1.42900 30.40900
C  16.17000 -0.67500 31.29000
C  16.61700 -0.96000 32.73900
C  17.85300 -1.87800 32.52200
C  17.76200 -2.14700 31.01000
C  19.22500 -1.41300 32.97100
C  15.37800 -1.32200 33.75900
C  15.43100 -0.73900 35.14800
H  16.67300 0.06300 35.62200
N  17.97400 -2.94600 28.05600
C  18.64500 -3.56300 29.13100
C  19.40600 -4.70100 28.56800
C  19.36600 -4.61300 27.16600
C  18.41400 -3.52200 26.84900
C  19.98700 -5.80400 29.51400
C  20.18100 -5.41200 26.12400
O  20.09400 -5.23300 24.87300
C  21.15700 -6.46900 26.62500
N  16.21200 -1.54700 26.08500
C  16.99000 -2.11400 25.18300
C  16.63600 -1.73200 23.76300
C  15.15500 -1.17600 23.98800
C  15.15500 -0.92900 25.43600
C  17.58600 -0.65500 23.04000
C  13.91900 -2.16200 23.68600
C  13.05700 -1.97500 22.47100
N  15.03300 -0.07400 28.26500
C  14.16600 0.43200 27.33600
C  13.37300 1.44600 27.88500
C  13.72300 1.39000 29.32400
C  14.76000 0.45600 29.48600
C  12.30600 2.36000 27.25400
C  13.47800 1.98400 30.62200
O  12.69200 2.89000 30.94400
C  14.42200 1.22800 31.60900
C  15.20000 2.22900 32.37300
O  16.40400 2.37500 32.34500
O  14.40600 2.99700 33.20000
C  15.12700 4.00300 34.10500
H  19.18500 -3.70800 31.20700
H  18.21600 -3.68400 24.68100
H  13.37400 0.26700 25.31800
H  17.05100 0.00200 33.01300
H  17.72600 -2.75100 33.16200
H  19.31600 -1.81500 33.98000
H  19.33900 -0.33100 32.90500
H  20.00800 -1.77200 32.30400
H  15.34500 -2.40900 33.82300
H  14.42800 -1.03700 33.30600
H  15.31700 -1.57400 35.83900
H  14.56300 -0.11100 35.35300
H  20.06400 -5.39400 30.52100
H  21.06300 -5.95400 29.42700
H  19.40100 -6.72300 29.53300
H  21.51700 -7.12800 25.83500
H  20.71200 -7.12300 27.37500
H  21.87000 -5.88600 27.20800
H  16.50600 -2.62400 23.14900
H  14.99800 -0.19700 23.53400
H  17.84800 -1.19700 22.13100
H  18.49300 -0.34600 23.55900
H  17.03100 0.26400 22.85200
H  13.32500 -2.17000 24.60000
H  14.46600 -3.09300 23.53900
H  12.56100 -1.00500 22.51000
H  12.18300 -2.61800 22.57900
H  13.64000 -2.16000 21.56900
H  11.33300 2.31500 27.74300
H  12.36500 2.09900 26.19700
H  12.62800 3.39900 27.33200
H  13.80300 0.65400 32.29700
H  14.52600 4.90600 34.21400
H  16.08000 4.34000 33.69800
H  15.32200 3.45500 35.02700
Mg 43.28400 42.24800 27.24900
C  42.02800 44.23500 29.64800
C  44.07800 39.84400 29.72300
C  45.26500 40.61400 24.93300
C  42.84700 44.82900 24.87900
N  43.00400 41.99200 29.49800
C  42.36400 42.97500 30.20000
C  42.27300 42.52200 31.74900
C  42.89000 41.04900 31.73900
C  43.42200 40.94400 30.27200
C  44.03500 40.85800 32.77300
C  40.90800 42.61200 32.44500
C  40.58300 43.66700 33.46300
H  39.91400 43.21900 34.76300
N  44.41000 40.42800 27.27500
C  44.60700 39.55100 28.40100
C  45.58200 38.48700 28.03900
C  46.00500 38.78700 26.68500
C  45.28400 39.98300 26.22100
C  46.11200 37.44400 28.98000
C  47.00100 38.07600 25.82900
O  47.37200 38.41700 24.71600
C  47.66600 36.88400 26.34300
N  43.94400 42.72200 25.13800
C  44.67900 41.79200 24.43800
C  45.02500 42.39200 23.06400
C  44.18300 43.73400 23.00300
C  43.56700 43.74800 24.42900
C  46.57600 42.59100 22.91000
C  43.11000 43.70400 21.94100
C  41.64800 43.22200 22.29300
N  42.38700 44.04100 27.20200
C  42.25300 44.95600 26.17900
C  41.53900 46.09400 26.69600
C  41.38000 45.93000 28.12600
C  41.98900 44.65500 28.31700
C  41.03700 47.32200 25.93600
C  40.91400 46.44200 29.39500
O  40.35200 47.48800 29.63200
C  41.42400 45.36600 30.38600
C  42.38300 46.06300 31.28400
O  43.54000 46.24900 31.07400
O  41.77100 46.61300 32.42700
C  42.70800 47.25700 33.31100
H  44.41000 39.09600 30.44600
H  45.65400 39.96800 24.14300
H  42.76800 45.67800 24.19800
H  42.98500 43.12900 32.30700
H  42.17900 40.25100 31.95500
H  43.72800 40.03800 33.42200
H  44.35700 41.71500 33.36600
H  44.82200 40.30300 32.26400
H  40.76900 41.67700 32.98800
H  40.26600 42.54400 31.56700
H  40.05300 44.59200 33.23400
H  41.55500 44.02900 33.80000
H  45.72500 36.49300 28.61400
H  45.84000 37.55000 30.03000
H  47.20200 37.42000 28.97000
H  46.85400 36.23300 26.66900
H  48.37000 37.00500 27.16600
H  48.17600 36.50500 25.45800
H  44.72300 41.73700 22.24700
H  44.79000 44.63300 22.89800
H  47.12900 42.47400 23.84200
H  46.68500 43.63300 22.61000
H  47.00400 41.85400 22.23100
H  43.44600 43.09800 21.09900
H  43.01800 44.68800 21.48000
H  41.13800 44.03900 22.80200
H  41.56600 42.34200 22.93100
H  41.12000 42.89800 21.39600
H  40.63100 47.07400 24.95600
H  41.76900 48.11500 25.78900
H  40.06700 47.56200 26.37300
H  40.51500 44.89700 30.76200
H  43.01200 48.19000 32.83700
H  43.63400 46.73100 33.54400
H  42.17000 47.55900 34.21000

