158

Mg 2.15700 -2.49600 44.60300
C  5.14600 -0.95900 43.74500
C  0.44600 -0.11100 42.86800
C  -0.57900 -4.43500 45.02700
C  4.05100 -5.32200 45.71600
N  2.72100 -0.94800 43.17600
C  4.01600 -0.42400 43.09400
C  4.05900 0.80000 42.23700
C  2.50200 1.07500 41.98000
C  1.83600 -0.09100 42.68000
C  2.09400 2.40100 42.44700
C  4.81700 0.81900 40.85600
C  6.01200 1.84500 40.67400
H  6.76600 1.34400 39.50500
N  0.22000 -2.24600 44.11500
C  -0.34800 -1.18300 43.38300
C  -1.78600 -1.35400 43.23000
C  -2.08900 -2.63100 43.84000
C  -0.81700 -3.16700 44.40100
C  -2.60600 -0.45100 42.27600
C  -3.48200 -3.40100 43.79700
O  -4.48700 -2.84700 43.35000
C  -3.62700 -4.75100 44.32900
N  1.73700 -4.55800 45.47100
C  0.50400 -5.09600 45.42800
C  0.50100 -6.50000 46.03800
C  1.99400 -6.81400 46.02600
C  2.65200 -5.50700 45.81000
C  -0.27200 -6.78300 47.35000
C  2.52900 -7.91500 45.00600
C  3.49800 -8.94400 45.64300
N  4.22100 -3.03200 44.89300
C  4.79300 -4.18500 45.33500
C  6.26100 -4.05200 45.19800
C  6.48300 -2.74100 44.62500
C  5.20600 -2.19400 44.46200
C  7.21900 -5.21200 45.53800
C  7.45700 -1.81400 44.20500
O  8.66900 -1.87500 44.26300
C  6.61500 -0.56600 43.71700
C  7.10200 0.37700 44.77300
O  7.02800 0.15000 45.97400
O  7.25300 1.60600 44.18700
C  7.59400 2.62300 45.23400
H  -0.06900 0.76800 42.47600
H  -1.44500 -5.07400 45.21300
H  4.59400 -6.24100 45.95000
H  4.43100 1.56600 42.91700
H  2.30600 0.91800 40.91900
H  2.89800 3.13700 42.44800
H  1.72600 2.38600 43.47300
H  1.23100 2.81000 41.92300
H  4.10300 1.13800 40.09700
H  5.16100 -0.17900 40.58400
H  6.65400 1.82800 41.55500
H  5.66100 2.85300 40.45400
H  -2.80400 -1.04900 41.38600
H  -2.13600 0.51100 42.07200
H  -3.61100 -0.28200 42.66200
H  -4.63100 -5.09200 44.07700
H  -3.57300 -4.70600 45.41600
H  -2.92200 -5.47200 43.91400
H  0.06500 -7.10900 45.24500
H  2.22100 -7.05500 47.06400
H  0.41300 -7.02700 48.16200
H  -1.02800 -7.56600 47.29200
H  -0.70600 -5.82500 47.63500
H  3.02400 -7.41100 44.17600
H  1.70700 -8.41900 44.49900
H  3.39200 -9.99600 45.37500
H  3.51200 -8.96800 46.73300
H  4.48200 -8.63900 45.28800
H  8.21600 -5.02700 45.13800
H  6.92200 -6.14100 45.05200
H  7.15600 -5.22100 46.62600
H  6.99300 -0.23600 42.74900
H  6.96200 3.50400 45.35100
H  8.53300 3.08400 44.93000
H  7.85500 2.21100 46.20900
Mg 8.36200 3.06400 27.29200
C  9.67100 1.52400 30.19100
C  6.61400 5.10600 29.18200
C  7.43100 4.52900 24.45500
C  10.17000 0.62300 25.44200
N  8.11000 3.23900 29.43400
C  8.79700 2.55600 30.45100
C  8.41300 3.13700 31.81100
C  7.27600 4.19500 31.41300
C  7.31200 4.19300 29.93700
C  5.92700 3.97600 32.03800
C  9.63900 3.87000 32.49100
C  10.27300 3.26600 33.82900
H  10.39100 4.33600 34.89500
N  7.09200 4.61200 26.84700
C  6.50500 5.38600 27.73200
C  5.73900 6.41800 27.07600
C  5.92400 6.23500 25.68300
C  6.79900 5.06700 25.59600
C  4.94500 7.54800 27.74600
C  5.44100 7.08300 24.55300
O  5.78600 6.84100 23.40900
C  4.58600 8.34300 24.72900
N  8.73300 2.61400 25.23900
C  8.26700 3.40400 24.22800
C  8.78600 2.92100 22.86000
C  9.39100 1.51500 23.15700
C  9.38500 1.53600 24.71100
C  7.79400 3.04100 21.66600
C  10.78500 1.18200 22.35700
C  10.87800 -0.03200 21.40300
N  9.58400 1.32300 27.65700
C  10.16500 0.47100 26.82100
C  10.96600 -0.46000 27.55500
C  10.86500 -0.13700 28.90600
C  9.89300 0.96100 28.91800
C  11.94000 -1.51000 26.95400
C  11.27900 -0.35800 30.26900
O  12.12600 -1.14300 30.66000
C  10.53000 0.70500 31.15400
C  9.69500 -0.02200 32.11100
O  8.52700 -0.30800 31.95500
O  10.42800 -0.21300 33.26400
C  9.52100 -0.69800 34.31800
H  6.20000 5.92200 29.77700
H  7.43500 5.18200 23.58000
H  10.71600 -0.10800 24.84200
H  8.01400 2.31800 32.41000
H  7.61400 5.20100 31.65900
H  5.69400 2.91300 32.09100
H  5.16300 4.46400 31.43200
H  6.00900 4.32100 33.06900
H  9.52500 4.95000 32.57800
H  10.46100 3.69900 31.79600
H  11.27500 2.91500 33.57900
H  9.67400 2.47400 34.27800
H  5.03200 7.47400 28.83000
H  3.92100 7.29500 27.47200
H  5.13300 8.57500 27.43100
H  4.15000 8.53600 23.74800
H  5.25400 9.14900 25.03200
H  3.76800 8.26500 25.44500
H  9.64700 3.55800 22.65800
H  8.61800 0.80600 22.86100
H  6.82400 3.31000 22.08400
H  7.70800 2.10100 21.12100
H  8.23700 3.79800 21.01800
H  11.64700 1.19600 23.02400
H  11.00600 1.97700 21.64500
H  10.76700 0.19900 20.34400
H  10.08000 -0.74700 21.60400
H  11.79300 -0.62100 21.46700
H  12.81000 -0.97500 26.57300
H  11.38800 -2.04900 26.18400
H  12.08400 -2.23600 27.75500
H  11.13600 1.33100 31.80900
H  8.98300 0.13100 34.77800
H  10.20400 -1.19100 35.00900
H  8.80300 -1.50200 34.15600

