158

Mg 54.03900 23.75900 44.82200
C  51.60200 26.16300 43.90400
C  51.97000 21.30400 43.82900
C  56.72700 21.60000 44.81600
C  56.12900 26.45800 45.62100
N  52.11200 23.79200 43.89100
C  51.29600 24.83800 43.52900
C  49.97200 24.35100 42.98000
C  49.99000 22.84300 43.42600
C  51.45400 22.60300 43.70600
C  49.08300 22.35900 44.66600
C  49.84400 24.51000 41.41400
C  48.34800 24.45500 40.96200
H  48.06400 24.11300 39.49000
N  54.32300 21.67300 44.46900
C  53.27400 20.87700 44.15800
C  53.72000 19.51700 44.30200
C  55.14200 19.50000 44.44100
C  55.48200 20.97800 44.61600
C  52.78000 18.39400 44.33900
C  56.12900 18.36900 44.30800
O  55.68600 17.24600 44.17800
C  57.69000 18.48300 44.15900
N  56.18500 24.05500 44.96500
C  56.98900 22.98300 45.10600
C  58.42700 23.47300 45.34100
C  58.21200 24.95200 45.67700
C  56.73700 25.22200 45.36200
C  59.21800 22.58000 46.41000
C  59.12100 25.94200 44.86900
C  60.24100 26.53700 45.74600
N  53.90100 25.91500 45.02200
C  54.80500 26.85300 45.35600
C  54.22200 28.20100 45.34400
C  52.92400 27.92900 44.78700
C  52.85000 26.52400 44.51200
C  54.70700 29.46400 45.83700
C  51.68900 28.61900 44.38200
O  51.23500 29.77500 44.53500
C  50.84100 27.47700 43.69400
C  50.78200 27.73800 42.29700
O  51.76000 27.85300 41.57800
O  49.48300 27.96800 41.88100
C  49.31600 28.36800 40.48200
H  51.26700 20.47400 43.72300
H  57.53500 20.87300 44.92500
H  56.81900 27.24600 45.93100
H  49.17800 24.88100 43.50600
H  49.68300 22.14700 42.64500
H  49.64100 21.82800 45.43600
H  48.36900 21.59000 44.37000
H  48.57800 23.28300 44.94800
H  50.36500 23.70100 40.90100
H  50.31300 25.46200 41.16600
H  47.91600 25.38500 41.33000
H  47.97200 23.58900 41.50600
H  53.20400 17.52300 44.83800
H  52.36500 18.22100 43.34600
H  51.88400 18.72500 44.86400
H  58.14300 19.16000 43.43600
H  57.88800 17.46400 43.82700
H  58.18600 18.44000 45.12900
H  59.02300 23.45200 44.42800
H  58.42300 25.04600 46.74300
H  59.38800 23.17500 47.30700
H  60.19600 22.30700 46.01300
H  58.66700 21.71100 46.77000
H  58.53800 26.78700 44.50300
H  59.56200 25.53200 43.96100
H  61.21100 26.48900 45.25200
H  60.20400 26.23400 46.79200
H  60.00900 27.60000 45.66900
H  54.12200 30.23900 45.34100
H  55.68200 29.69800 45.41000
H  54.53800 29.46800 46.91300
H  49.82600 27.42900 44.08900
H  48.69300 27.59000 40.03900
H  50.22300 28.44300 39.88300
H  48.81200 29.33400 40.48100
Mg 30.33400 58.12000 40.23100
C  27.69300 56.03800 38.99100
C  32.41400 55.82400 38.55400
C  32.71200 60.30200 40.34200
C  27.87000 60.41600 41.07100
N  29.99600 56.27600 38.65800
C  28.89500 55.62900 38.41800
C  29.17400 54.22900 37.81900
C  30.69600 54.12800 37.89600
C  31.05000 55.47100 38.36000
C  31.18100 52.95800 38.88100
C  28.68400 54.10000 36.32700
C  29.16800 55.28600 35.48300
H  28.00200 55.91700 34.62100
N  32.32100 58.07700 39.72100
C  33.01600 57.00200 39.12700
C  34.40600 57.29700 39.16600
C  34.52100 58.64100 39.65500
C  33.16800 59.06600 39.91500
C  35.41500 56.31000 38.61600
C  35.80100 59.39500 39.79600
O  36.85800 58.89100 39.49700
C  35.94800 60.89100 40.19400
N  30.34900 59.94700 40.96400
C  31.46400 60.71300 40.78900
C  31.21900 62.23800 40.91500
C  29.67500 62.28800 41.07300
C  29.27400 60.82900 41.06200
C  31.99400 62.95400 42.08600
C  28.96000 63.10300 39.97300
C  28.48700 64.49600 40.44600
N  28.30500 58.20600 40.26100
C  27.46000 59.15700 40.66600
C  26.11400 58.72900 40.55400
C  26.17500 57.56100 39.91800
C  27.50800 57.22000 39.72700
C  24.89300 59.47700 41.08900
C  25.33400 56.50800 39.26000
O  24.12600 56.53700 39.04900
C  26.33000 55.45100 38.72600
C  25.96800 54.13000 39.39600
O  26.41400 53.65600 40.45300
O  24.99000 53.55300 38.63400
C  24.34800 52.41000 39.30800
H  33.14900 55.05300 38.31400
H  33.46600 61.07500 40.18200
H  27.19300 61.27300 41.08600
H  28.58600 53.56200 38.45000
H  31.17200 53.91900 36.93800
H  30.35100 52.30800 39.15500
H  31.76300 53.36800 39.70600
H  31.95900 52.32300 38.45600
H  27.59900 54.02400 36.39500
H  29.09800 53.25900 35.77000
H  30.00700 54.98300 34.85600
H  29.44700 56.14000 36.10000
H  36.37400 56.81400 38.49000
H  35.12900 56.08000 37.59000
H  35.49500 55.38200 39.18300
H  35.43400 61.57900 39.52200
H  36.98700 61.14800 39.98500
H  35.73900 61.10500 41.24200
H  31.53700 62.71000 39.98500
H  29.39100 62.61500 42.07300
H  32.34600 63.92600 41.74100
H  32.82800 62.32300 42.39300
H  31.36500 63.14500 42.95500
H  28.20900 62.47300 39.49800
H  29.65200 63.14800 39.13200
H  28.80100 64.73400 41.46200
H  27.41600 64.31900 40.34600
H  28.66900 65.30400 39.73700
H  24.11900 58.71000 41.11700
H  24.57300 60.27800 40.42300
H  25.01800 59.85900 42.10200
H  26.07600 55.51300 37.66800
H  23.50900 52.04300 38.71800
H  23.90700 52.67800 40.26800
H  25.08000 51.63000 39.52200

