158

Mg 3.30700 -0.37800 43.98200
C  6.25700 1.57000 44.14400
C  1.71400 2.33300 42.57700
C  0.61800 -2.34700 43.68600
C  5.10500 -3.09400 45.14800
N  4.06000 1.62300 43.21400
C  5.22600 2.23000 43.48600
C  5.27500 3.69500 42.99500
C  3.72900 4.01400 42.94700
C  3.06700 2.59200 42.91100
C  3.32300 4.95200 44.11400
C  6.03500 3.97900 41.64300
C  6.51700 2.64400 40.89600
H  7.02900 2.94600 39.49700
N  1.42200 -0.01800 43.19900
C  0.91300 1.12700 42.62600
C  -0.57400 0.93000 42.33500
C  -0.90900 -0.35600 42.74000
C  0.36600 -1.00300 43.21300
C  -1.44100 2.00500 41.72200
C  -2.31000 -0.90000 42.73300
O  -3.23300 -0.14300 42.41300
C  -2.82200 -2.29400 43.18900
N  2.97000 -2.49200 44.10300
C  1.72200 -3.01700 44.13200
C  1.76500 -4.53500 44.41400
C  3.24000 -4.82200 44.82300
C  3.83100 -3.42000 44.65300
C  0.60400 -5.09700 45.26200
C  4.05400 -5.86700 43.94400
C  4.69900 -6.91000 44.77800
N  5.32300 -0.80700 44.47200
C  5.91400 -1.88100 44.98900
C  7.29500 -1.66900 45.42300
C  7.45200 -0.29900 45.13300
C  6.24500 0.19200 44.51800
C  8.15800 -2.67900 46.16900
C  8.36700 0.85500 45.19300
O  9.48900 0.87400 45.67000
C  7.61400 2.09500 44.54700
C  7.58000 3.26600 45.48100
O  8.45400 4.10800 45.53500
O  6.53800 3.19100 46.34300
C  6.57200 4.08300 47.49900
H  1.05200 3.13200 42.23700
H  -0.23000 -3.01500 43.52300
H  5.59700 -4.00300 45.50000
H  5.80600 4.18800 43.80900
H  3.53100 4.56600 42.02800
H  3.12800 4.46700 45.07000
H  2.56200 5.65500 43.77500
H  4.18300 5.57800 44.34900
H  6.99200 4.48500 41.76900
H  5.41000 4.60400 41.00600
H  5.79000 1.83800 40.79800
H  7.36400 2.27000 41.47100
H  -2.03300 2.47800 42.50600
H  -2.02000 1.78900 40.82400
H  -0.73400 2.75300 41.36400
H  -2.69700 -2.34700 44.27100
H  -2.33100 -3.13200 42.69300
H  -3.87000 -2.39500 42.90700
H  1.56000 -5.02600 43.46300
H  3.28400 -5.19000 45.84800
H  0.98400 -5.99200 45.75300
H  -0.24800 -5.29200 44.61000
H  0.38800 -4.38200 46.05600
H  4.81100 -5.36900 43.33800
H  3.49600 -6.37200 43.15600
H  3.95300 -7.21300 45.51200
H  5.60300 -6.50700 45.23500
H  4.95400 -7.86800 44.32500
H  7.90900 -2.76800 47.22700
H  9.11200 -2.15200 46.17000
H  8.32700 -3.66100 45.72600
H  8.26900 2.44500 43.74900
H  5.97200 4.98300 47.37200
H  7.57000 4.41800 47.78100
H  6.28400 3.45800 48.34400
Mg 15.88000 52.07700 25.37500
C  17.90400 51.16200 28.18300
C  13.23800 52.47000 27.49100
C  14.33700 53.11700 22.72400
C  18.55300 50.93400 23.34500
N  15.65800 51.93400 27.51900
C  16.57400 51.67400 28.53900
C  16.10000 52.09600 29.92900
C  14.53700 52.11400 29.64900
C  14.44600 52.10200 28.12700
C  13.82400 50.77800 30.23900
C  16.71600 53.42700 30.22000
C  16.71500 53.83000 31.72000
H  15.79200 53.02000 32.70900
N  13.93000 52.75700 25.15000
C  12.97300 52.78600 26.11200
C  11.77100 53.32900 25.45800
C  12.05200 53.55100 24.08100
C  13.44300 53.17600 23.92200
C  10.39600 53.38300 26.20000
C  11.14200 54.06100 22.97000
O  11.49100 54.23500 21.82000
C  9.67500 54.33800 23.23900
N  16.46000 52.19500 23.34900
C  15.65100 52.67100 22.44200
C  16.20900 52.62700 21.00800
C  17.67500 52.16600 21.29300
C  17.59100 51.78100 22.74100
C  15.40500 51.57200 20.10600
C  18.76100 53.23700 21.12000
C  20.11400 52.77400 20.33600
N  17.75000 50.96300 25.57800
C  18.68700 50.52900 24.73800
C  19.78800 49.90300 25.40000
C  19.51800 50.20900 26.74000
C  18.33300 50.85500 26.82600
C  20.91900 49.18700 24.73400
C  20.13600 50.16600 28.02500
O  21.19800 49.72600 28.40900
C  19.02900 50.65100 29.10300
C  18.56200 49.41200 29.89000
O  18.01800 48.35400 29.48800
O  18.68000 49.70400 31.23100
C  18.06900 48.76700 32.15600
H  12.37700 52.73100 28.11000
H  13.79400 53.34300 21.80400
H  19.39600 50.73900 22.67900
H  16.57800 51.42300 30.64100
H  14.20600 53.03900 30.12200
H  13.27700 50.20300 29.49200
H  13.12000 51.09600 31.00800
H  14.53300 50.17600 30.80700
H  16.11200 54.24800 29.83200
H  17.73500 53.46700 29.83700
H  16.73900 54.91900 31.76000
H  17.71900 53.55500 32.04400
H  9.71400 52.62700 25.80900
H  9.85500 54.32300 26.09200
H  10.54500 53.20300 27.26400
H  9.29000 53.53600 23.87000
H  9.12400 54.32500 22.29900
H  9.45100 55.29400 23.71200
H  16.31100 53.51700 20.38700
H  17.91200 51.26100 20.73300
H  14.65800 52.18000 19.59700
H  14.90900 50.78300 20.67200
H  15.97100 51.09400 19.30600
H  19.06100 53.56800 22.11500
H  18.44500 54.16800 20.64900
H  20.01600 51.70700 20.13500
H  21.04900 52.96200 20.86300
H  20.23900 53.29600 19.38800
H  20.64900 49.12200 23.68000
H  21.00100 48.16100 25.09300
H  21.91600 49.61900 24.81700
H  19.30800 51.43800 29.80400
H  18.93300 48.21800 32.53000
H  17.29100 48.16100 31.69200
H  17.70400 49.25800 33.05800

