158

Mg 36.64300 2.04300 29.58700
C  34.32600 2.96900 32.19300
C  38.98700 1.94600 32.00900
C  38.73900 1.23100 27.14800
C  34.04100 2.59900 27.26700
N  36.63200 2.29700 31.82500
C  35.54400 2.53800 32.71700
C  35.88500 2.67100 34.12400
C  37.47300 2.71100 34.00300
C  37.74000 2.32600 32.46600
C  38.28700 4.02800 34.21700
C  35.25600 1.55800 35.02300
C  34.75200 1.99000 36.40300
H  35.16700 3.32000 37.01000
N  38.67300 1.61100 29.54500
C  39.48500 1.61300 30.66000
C  40.87600 1.19100 30.25000
C  40.74700 0.97000 28.83300
C  39.34200 1.20200 28.41700
C  42.07500 1.04300 31.19300
C  41.80200 0.61700 27.76600
O  41.58400 0.54400 26.52600
C  43.18700 0.33200 28.24000
N  36.41200 2.02300 27.48200
C  37.40300 1.56800 26.62000
C  37.05500 1.63900 25.15100
C  35.46900 1.75000 25.35100
C  35.30300 2.14600 26.79100
C  37.76500 2.87900 24.41400
C  34.64200 0.47400 24.89100
C  33.27000 0.66200 24.09700
N  34.60600 2.57100 29.66000
C  33.70700 2.76100 28.61200
C  32.47600 3.25700 29.17400
C  32.67500 3.36100 30.52300
C  34.00400 2.97600 30.84000
C  31.22600 3.49200 28.37300
C  32.07600 3.68700 31.82300
O  30.97000 4.16100 32.02200
C  33.10200 3.46200 32.97300
C  33.27600 4.76000 33.74700
O  34.05300 5.62100 33.37900
O  32.29800 4.85700 34.73600
C  32.36300 6.08600 35.51500
H  39.66000 2.01500 32.86600
H  39.47700 1.05100 26.36300
H  33.29200 2.83700 26.50900
H  35.49500 3.66000 34.36500
H  38.02000 1.97000 34.58500
H  38.83700 3.88100 35.14600
H  37.60800 4.88000 34.25700
H  39.00700 4.08200 33.40000
H  35.96000 0.76800 35.28400
H  34.40200 1.03400 34.59400
H  35.09400 1.17800 37.04500
H  33.66500 1.94700 36.34000
H  42.84000 1.76000 30.89400
H  42.48300 0.03700 31.08900
H  41.80900 1.10400 32.24900
H  43.83900 -0.10600 27.48400
H  43.03700 -0.40900 29.02600
H  43.45100 1.35700 28.50100
H  37.40600 0.68000 24.77000
H  35.10500 2.63300 24.82600
H  38.28700 2.54300 23.51800
H  38.40400 3.38800 25.13500
H  36.99600 3.57600 24.08200
H  34.39400 0.05800 25.86800
H  35.26900 -0.28700 24.42700
H  33.06700 1.71800 23.91600
H  32.44000 0.15700 24.59100
H  33.41700 0.15600 23.14400
H  31.45600 4.04700 27.46300
H  30.38000 3.88100 28.93800
H  30.84900 2.49100 28.16500
H  32.59200 2.67600 33.53000
H  32.59000 5.71500 36.51400
H  31.37400 6.53000 35.40300
H  33.15200 6.78000 35.22700
Mg 47.34800 25.31800 27.72400
C  48.11700 27.50600 30.34300
C  47.07200 22.78600 29.97200
C  46.77200 23.20400 25.13900
C  48.14200 27.89800 25.50900
N  47.66100 25.23900 29.89800
C  47.82700 26.21700 30.81400
C  47.65600 25.83700 32.27500
C  47.46400 24.29700 32.05800
C  47.43000 24.04100 30.58200
C  48.60000 23.47600 32.79500
C  46.57300 26.59500 33.01800
C  46.31000 25.99200 34.49500
H  45.85500 26.94300 35.57300
N  46.95900 23.28500 27.59700
C  46.92600 22.39100 28.59600
C  46.56800 21.10300 28.15300
C  46.37900 21.17400 26.68900
C  46.76900 22.62100 26.39100
C  46.22200 19.97300 29.11200
C  45.92900 20.03100 25.66400
O  45.72100 20.36500 24.51700
C  45.62200 18.54800 26.10100
N  47.61000 25.47300 25.65700
C  47.06400 24.51900 24.80600
C  47.20400 24.87100 23.35300
C  47.53600 26.42500 23.41200
C  47.73400 26.63400 24.95900
C  48.17900 24.07700 22.46800
C  46.43900 27.31900 22.71500
C  46.93800 28.54400 21.96700
N  48.10200 27.32400 27.83700
C  48.34200 28.25300 26.83500
C  48.77800 29.46900 27.42300
C  48.62300 29.25100 28.82900
C  48.28500 27.88900 29.01500
C  49.11700 30.79300 26.74400
C  48.69600 29.88700 30.16400
O  49.05700 31.02100 30.45600
C  48.39800 28.76300 31.14200
C  49.50100 28.67700 32.16800
O  50.60400 28.19700 32.13000
O  49.00000 29.15400 33.32200
C  49.86200 29.10100 34.51300
H  46.85500 22.15200 30.83500
H  46.54900 22.47600 24.35600
H  48.36700 28.76300 24.88100
H  48.66100 25.94400 32.68300
H  46.51600 23.98400 32.49500
H  49.08500 22.64900 32.27600
H  48.12700 23.12000 33.71000
H  49.45400 24.10500 33.04600
H  45.61200 26.51700 32.51000
H  46.84400 27.64300 33.14700
H  47.13800 25.39700 34.88100
H  45.48700 25.28100 34.41600
H  45.15700 19.84800 28.91600
H  46.41800 20.33200 30.12200
H  46.90700 19.15900 28.87400
H  44.66900 18.45100 26.62300
H  46.46000 18.23700 26.72500
H  45.60700 17.87000 25.24800
H  46.24600 24.66200 22.87600
H  48.46400 26.66600 22.89300
H  49.07400 24.52800 22.04100
H  47.64900 23.64000 21.62200
H  48.59500 23.24800 23.04200
H  45.68600 27.62100 23.44300
H  45.94700 26.70300 21.96100
H  46.53700 28.59300 20.95400
H  48.01700 28.67400 22.05200
H  46.57100 29.46600 22.41700
H  48.33800 31.51200 27.00000
H  49.37200 30.72000 25.68700
H  50.04500 31.05700 27.25200
H  47.51300 29.10400 31.67800
H  49.51200 29.75000 35.31600
H  50.87100 29.45300 34.29500
H  49.93300 28.06400 34.83900

