158

Mg 47.10700 24.65300 27.81000
C  48.11700 26.85100 30.32600
C  46.12300 22.43500 30.19900
C  46.29600 22.63700 25.24800
C  48.03300 27.11500 25.44100
N  47.04900 24.76000 29.95200
C  47.45100 25.74500 30.79500
C  47.02200 25.42700 32.28700
C  46.51000 23.97800 32.23400
C  46.53000 23.67600 30.70000
C  47.31200 22.98500 33.17100
C  46.09900 26.53300 32.95600
C  46.58800 26.91600 34.36600
H  45.68500 27.44100 35.48800
N  46.55100 22.79300 27.75500
C  46.16000 21.97000 28.84400
C  45.77400 20.64400 28.25600
C  45.78400 20.74200 26.84600
C  46.18300 22.15600 26.56400
C  45.45400 19.48600 29.09700
C  45.47100 19.71900 25.76300
O  45.65600 19.91200 24.58700
C  44.69300 18.44100 26.03700
N  47.43300 24.72500 25.65100
C  46.85900 23.78900 24.84700
C  46.80500 24.24000 23.42600
C  47.14300 25.73400 23.43200
C  47.62700 25.88400 24.92700
C  47.70700 23.43800 22.46000
C  45.93600 26.61700 23.23200
C  46.18600 28.06300 22.55800
N  48.02900 26.51100 27.76800
C  48.29100 27.41900 26.82400
C  48.92000 28.52900 27.33800
C  48.91400 28.39300 28.71900
C  48.29600 27.12300 28.94100
C  49.56400 29.61000 26.45400
C  49.23500 28.98400 29.92300
O  49.77200 30.06000 30.15400
C  48.57700 28.09300 31.02700
C  49.67500 27.87000 32.08800
O  50.61300 27.16700 32.02200
O  49.38800 28.70800 33.16200
C  50.18400 28.54100 34.38500
H  45.77000 21.65200 30.87400
H  45.92400 22.05400 24.40300
H  48.30500 27.87800 24.71000
H  47.97600 25.50600 32.80800
H  45.46200 23.96900 32.53400
H  47.81700 22.20800 32.59700
H  46.67500 22.46000 33.88300
H  48.01100 23.54400 33.79400
H  45.06800 26.18500 33.01300
H  46.10500 27.44900 32.36400
H  47.19900 27.81300 34.26300
H  47.11200 26.03900 34.74700
H  46.03600 19.64400 30.00500
H  45.87200 18.58700 28.64500
H  44.38100 19.29700 29.11800
H  43.91700 18.66800 26.76800
H  45.34500 17.79400 26.62400
H  44.38600 17.91100 25.13500
H  45.75900 24.05700 23.18300
H  47.91300 26.07400 22.73900
H  48.71600 23.38800 22.86900
H  47.89200 23.99800 21.54300
H  47.16900 22.51600 22.23900
H  45.37800 26.61600 24.16800
H  45.21300 26.13600 22.57300
H  45.94900 28.18500 21.50200
H  47.20400 28.44400 22.63900
H  45.53300 28.71000 23.14400
H  49.18000 29.76700 25.44500
H  50.55700 29.16100 26.46100
H  49.57300 30.48600 27.10200
H  47.80800 28.70900 31.49300
H  49.76400 27.69000 34.92100
H  50.02600 29.46200 34.94600
H  51.21900 28.23200 34.23800
Mg -1.63100 34.88000 27.94500
C  -3.67900 32.93100 29.86700
C  -0.76800 36.65900 30.66600
C  0.08100 36.87800 25.86600
C  -2.79700 33.04500 25.04000
N  -2.39600 35.01200 29.93700
C  -3.05100 33.99300 30.56300
C  -2.99600 34.18000 32.09000
C  -2.28300 35.54400 32.30900
C  -1.81200 35.82100 30.91000
C  -3.13100 36.72200 32.89200
C  -2.20900 32.99500 32.77500
C  -2.90500 32.45400 34.05000
H  -2.19700 32.44500 35.42400
N  -0.48700 36.54400 28.21900
C  -0.23100 37.10000 29.42900
C  0.70600 38.11200 29.25600
C  0.92500 38.22300 27.88800
C  0.15500 37.20200 27.23500
C  1.19900 38.81200 30.52900
C  1.83400 39.23400 27.22900
O  2.04300 39.39700 26.04100
C  2.58400 40.12000 28.17700
N  -1.33300 34.83700 25.77900
C  -0.53500 35.84200 25.20000
C  -0.36600 35.52600 23.69300
C  -1.35900 34.35700 23.35900
C  -1.82300 34.02500 24.79900
C  -0.63900 36.77500 22.76100
C  -0.70700 33.07800 22.74800
C  -1.61000 32.29300 21.76500
N  -2.91100 33.35300 27.48300
C  -3.31100 32.72700 26.31000
C  -4.35800 31.75200 26.61500
C  -4.38200 31.75600 28.01400
C  -3.58000 32.74500 28.49700
C  -5.13900 31.08600 25.61500
C  -5.04300 31.04800 29.11000
O  -5.85000 30.14000 29.05300
C  -4.60300 31.87200 30.34100
C  -5.78000 32.51400 30.96200
O  -6.62300 33.18400 30.43900
O  -5.90400 32.00500 32.25000
C  -6.94900 32.57300 33.15200
H  -0.45700 37.15900 31.58600
H  0.79600 37.46700 25.28800
H  -3.12400 32.52600 24.13600
H  -4.01100 34.32600 32.45900
H  -1.47600 35.43300 33.03400
H  -3.66300 36.18700 33.67900
H  -3.66300 37.16500 32.05000
H  -2.49500 37.43200 33.42100
H  -1.17200 33.25100 32.99600
H  -2.00600 32.17900 32.08100
H  -3.08100 31.41200 33.78100
H  -3.85600 32.96000 34.21700
H  1.86500 38.10600 31.02500
H  0.40100 38.92500 31.26200
H  1.69900 39.78000 30.49300
H  3.13600 39.54700 28.92100
H  1.86000 40.85000 28.53900
H  3.20000 40.82800 27.62200
H  0.66600 35.24000 23.49000
H  -2.22800 34.68500 22.78800
H  -1.48200 36.60600 22.09100
H  0.23400 37.06500 22.17800
H  -0.96000 37.61800 23.37200
H  -0.47600 32.46300 23.61800
H  0.22500 33.35300 22.25500
H  -1.79700 31.35000 22.27900
H  -1.13400 31.94400 20.84900
H  -2.59200 32.71200 21.54800
H  -4.47800 30.51700 24.96100
H  -5.76000 31.83000 25.11700
H  -5.82300 30.37000 26.07100
H  -4.15400 31.31500 31.16400
H  -6.71200 33.42800 33.78600
H  -7.35000 31.75200 33.74600
H  -7.83000 32.90500 32.60100

