158

Mg 41.06500 9.19500 29.91500
C  43.03800 10.60000 32.33200
C  38.92100 7.96900 32.28800
C  39.18000 7.69100 27.48400
C  43.59400 9.91600 27.46000
N  40.96900 9.29200 32.04600
C  41.89600 9.95000 32.86500
C  41.38600 9.98700 34.27000
C  40.24200 8.94700 34.23300
C  40.01300 8.65300 32.73200
C  40.57400 7.61400 35.07000
C  41.00300 11.41200 34.73400
C  40.48400 11.60200 36.21800
H  41.33500 12.37200 37.31300
N  39.15500 8.14200 29.84200
C  38.43200 7.76800 30.99300
C  37.14800 7.22100 30.48000
C  37.22600 7.14000 29.06200
C  38.55500 7.64700 28.74100
C  36.11800 6.73000 31.51100
C  36.17800 6.69700 28.02500
O  36.33600 6.61500 26.84200
C  34.88100 6.39200 28.50100
N  41.35200 8.80300 27.77700
C  40.39900 8.20000 27.04600
C  40.70300 8.26100 25.52700
C  42.08100 8.98400 25.52400
C  42.38900 9.29100 26.99500
C  40.68500 6.92600 24.74300
C  42.10700 10.22100 24.59600
C  41.80800 11.59600 25.12700
N  42.96100 10.10000 29.84800
C  43.85400 10.27800 28.79000
C  45.04000 10.86400 29.31100
C  44.72200 11.11100 30.70300
C  43.51900 10.52600 30.95000
C  46.33500 11.21300 28.60000
C  45.17600 11.71100 31.91800
O  46.24100 12.20400 32.18100
C  44.16600 11.27900 33.11000
C  44.90100 10.42800 34.04200
O  45.25000 9.24600 33.84000
O  45.14800 11.17500 35.10600
C  45.99000 10.58700 36.10600
H  38.21900 7.63200 33.05300
H  38.55500 7.37400 26.64500
H  44.35500 10.19600 26.72900
H  42.21200 9.58800 34.85800
H  39.38600 9.37200 34.75600
H  41.62300 7.32000 35.03500
H  40.04300 6.75700 34.65500
H  40.29500 7.82200 36.10300
H  40.26800 11.91800 34.10800
H  41.95500 11.91300 34.56200
H  40.23600 10.70000 36.77800
H  39.47900 12.00200 36.35200
H  36.42300 6.67200 32.55600
H  35.83000 5.75800 31.11100
H  35.22800 7.35700 31.45200
H  34.40900 7.25100 28.97800
H  35.06200 5.56600 29.18900
H  34.22100 5.97000 27.74300
H  39.89700 8.90000 25.16500
H  42.90200 8.34600 25.19800
H  40.07800 6.94100 23.83800
H  40.17800 6.16700 25.33900
H  41.70700 6.60500 24.54100
H  41.37300 10.08400 23.80200
H  43.04600 10.37200 24.06500
H  42.79700 11.98700 25.36400
H  41.22500 11.42200 26.03100
H  41.17200 12.22700 24.50700
H  46.14700 11.02800 27.54200
H  47.16600 10.59200 28.93700
H  46.56300 12.21400 28.96600
H  43.76500 12.16700 33.59900
H  45.82900 9.56600 36.45400
H  45.76600 11.24100 36.94900
H  46.96600 10.64200 35.62300
Mg 6.00900 54.03200 40.49700
C  5.35700 50.48200 39.80100
C  9.23400 53.40500 39.51000
C  6.46100 57.30500 40.55100
C  2.52900 54.42600 40.82300
N  7.12000 52.12700 39.66200
C  6.66300 50.86700 39.50800
C  7.87300 49.87300 39.27000
C  9.08300 50.83000 39.61600
C  8.43900 52.20900 39.62700
C  9.79000 50.54900 40.92400
C  8.04800 49.13200 37.88600
C  8.01200 50.00400 36.54200
H  6.87600 49.77000 35.57900
N  7.74000 55.21800 40.10300
C  8.91100 54.80500 39.66200
C  9.72900 55.95700 39.49500
C  8.99200 57.08400 40.01600
C  7.67200 56.61500 40.26000
C  11.18600 55.78100 39.07900
C  9.53200 58.47200 40.21100
O  10.71800 58.74100 39.94600
C  8.72300 59.63700 40.67800
N  4.65400 55.61800 40.48100
C  5.12800 56.89100 40.66500
C  3.90800 57.84300 40.86500
C  2.68400 56.90800 40.94600
C  3.30500 55.55800 40.74300
C  4.03200 58.79700 42.13800
C  1.48200 57.22300 40.00900
C  0.28700 57.93000 40.59800
N  4.36100 52.77000 40.50000
C  3.01100 53.07200 40.76100
C  2.18300 51.89100 40.72400
C  3.12400 50.85700 40.45300
C  4.39100 51.39700 40.29800
C  0.70100 51.72400 40.88100
C  3.26600 49.49000 40.29800
O  2.45700 48.62000 40.45300
C  4.71700 49.14200 39.80600
C  4.50300 48.56500 38.42100
O  3.87500 49.09000 37.51300
O  4.87700 47.25100 38.49100
C  4.49900 46.45300 37.29600
H  10.20100 53.05800 39.14100
H  6.59000 58.38300 40.67200
H  1.48900 54.63300 41.08600
H  7.68400 49.17000 40.08100
H  9.73400 50.79300 38.74200
H  9.56100 51.30300 41.67700
H  10.87100 50.54100 40.78200
H  9.60000 49.53500 41.27500
H  7.33200 48.31200 37.93800
H  9.06100 48.73400 37.81300
H  8.95800 49.90700 36.00800
H  7.84600 51.01400 36.91800
H  11.49100 54.79500 39.43100
H  11.82100 56.34400 39.76300
H  11.40600 56.06900 38.05100
H  9.44000 60.45800 40.65800
H  8.40000 59.32700 41.67200
H  8.01000 59.69000 39.85500
H  3.70000 58.41400 39.96000
H  2.31000 56.88000 41.96900
H  3.04900 58.92800 42.59000
H  4.56700 59.65100 41.72100
H  4.65200 58.31600 42.89400
H  1.13600 56.28600 39.57400
H  1.74200 57.78700 39.11400
H  0.28600 58.88700 40.07600
H  0.48100 58.13100 41.65200
H  -0.70400 57.49300 40.48000
H  0.52800 50.94200 41.62000
H  0.24300 51.36600 39.95900
H  0.24600 52.65300 41.22500
H  5.15400 48.37500 40.44600
H  5.14400 45.57400 37.26500
H  4.56500 47.05500 36.38900
H  3.47800 46.09200 37.42200

