158

Mg 40.04200 9.01400 29.77800
C  41.90300 10.45900 32.42400
C  37.87600 7.91000 32.25600
C  38.42700 7.45500 27.38800
C  42.77000 9.53200 27.72100
N  39.92600 9.10000 32.21100
C  40.71600 9.89900 32.98600
C  40.19900 9.84300 34.41600
C  39.04800 8.69400 34.36500
C  38.91600 8.59000 32.84800
C  39.30600 7.30300 35.04500
C  39.69400 11.26200 34.85300
C  38.92300 11.32900 36.21100
H  39.20300 12.43100 37.25000
N  38.30600 8.01900 29.79100
C  37.54800 7.57900 30.84900
C  36.29000 6.92200 30.36300
C  36.54200 6.67900 28.96400
C  37.81600 7.42400 28.65000
C  35.19700 6.52700 31.28800
C  35.67400 5.90700 27.92400
O  35.97400 5.80600 26.72000
C  34.30500 5.28500 28.33400
N  40.59700 8.31800 27.84300
C  39.70600 7.81900 26.95700
C  40.41000 7.60400 25.56000
C  41.73400 8.34800 25.71000
C  41.73900 8.74400 27.19000
C  40.53200 6.17000 25.15900
C  41.85000 9.60300 24.77100
C  41.21300 10.89900 25.15900
N  41.84800 9.82100 29.93900
C  42.81000 10.10900 29.02200
C  43.77600 11.03900 29.49400
C  43.48900 11.09800 30.86800
C  42.35900 10.35700 31.09700
C  44.95600 11.52900 28.76800
C  43.96800 11.70800 32.03300
O  44.93400 12.40700 32.28100
C  42.97000 11.33700 33.14700
C  43.63200 10.71000 34.40800
O  44.44800 9.81200 34.46600
O  43.12200 11.34100 35.43700
C  43.73600 11.00100 36.76100
H  37.26600 7.54200 33.08300
H  37.97200 6.88900 26.57300
H  43.49200 9.70000 26.91900
H  40.86400 9.44800 35.18400
H  38.11300 9.10600 34.74500
H  39.25400 6.44300 34.37800
H  38.50900 7.19900 35.78000
H  40.26300 7.50700 35.52600
H  39.14000 11.64400 33.99500
H  40.49100 11.99300 34.98600
H  38.99000 10.39400 36.76600
H  37.86900 11.48500 35.98500
H  34.29500 6.96300 30.85900
H  35.20900 6.79500 32.34500
H  35.01300 5.45600 31.20200
H  34.05200 5.31100 29.39400
H  34.58400 4.27400 28.03500
H  33.51000 5.64800 27.68300
H  39.77300 8.18000 24.88900
H  42.62000 7.72600 25.57900
H  41.54300 5.77000 25.23800
H  40.21500 6.07500 24.12100
H  40.04600 5.51800 25.88500
H  41.39700 9.24300 23.84700
H  42.91600 9.70100 24.56400
H  41.91000 11.56300 25.67000
H  40.42900 10.68200 25.88600
H  40.86300 11.42600 24.27200
H  45.34400 10.66200 28.23500
H  45.80800 11.90100 29.33800
H  44.69200 12.20700 27.95600
H  42.63600 12.33100 33.44400
H  44.63500 11.58300 36.96500
H  43.89100 9.92400 36.83300
H  43.01400 11.19900 37.55300
Mg 48.94300 44.43100 42.81400
C  45.46000 44.37700 42.22900
C  49.16600 41.12500 42.43600
C  52.26900 44.77400 42.56900
C  48.73100 47.98900 42.78500
N  47.44500 42.94600 42.20900
C  46.08600 43.06900 42.09300
C  45.49300 41.65300 42.15400
C  46.68100 40.67900 42.38100
C  47.87500 41.66500 42.38300
C  46.60800 39.83500 43.72900
C  44.44200 41.20800 41.03100
C  44.51300 42.00000 39.67700
H  44.65200 41.13900 38.42100
N  50.50700 43.09800 42.60300
C  50.33700 41.76400 42.43200
C  51.66200 41.12300 42.29300
C  52.64400 42.16300 42.33100
C  51.80000 43.44000 42.45700
C  51.84100 39.63700 42.10700
C  54.16800 42.02300 42.12700
O  54.64100 40.88800 42.14000
C  55.15200 43.30700 41.84700
N  50.35800 46.13400 42.57200
C  51.66900 46.00500 42.60000
C  52.38600 47.43100 42.65500
C  51.27300 48.42200 42.93300
C  50.05800 47.46600 42.69100
C  53.59700 47.44100 43.60700
C  51.29400 49.64100 41.90000
C  51.03900 51.03500 42.51900
N  47.45200 45.93200 42.54600
C  47.48800 47.27800 42.67700
C  46.16500 47.86800 42.61900
C  45.31200 46.76200 42.46900
C  46.16200 45.62200 42.41300
C  45.85500 49.32500 42.43800
C  43.91100 46.34100 42.36600
O  42.81900 46.96900 42.39000
C  43.99000 44.84100 42.21000
C  43.06400 44.20100 43.21900
O  41.91100 43.76500 43.04700
O  43.58800 44.11700 44.48700
C  42.74300 43.49400 45.49900
H  49.34500 40.04700 42.42500
H  53.35500 44.78900 42.68400
H  48.72700 49.08100 42.78300
H  44.82400 41.74300 43.01000
H  46.76700 39.93500 41.58900
H  45.73300 40.14600 44.29900
H  47.46200 40.10200 44.35100
H  46.56300 38.74700 43.68100
H  43.44100 41.39900 41.41900
H  44.53100 40.12500 40.94900
H  45.36700 42.67900 39.68000
H  43.60000 42.59300 39.62800
H  51.61600 39.39200 41.06900
H  51.13100 39.17100 42.79000
H  52.82900 39.20400 42.26500
H  54.61900 43.94000 41.13700
H  56.01400 42.83500 41.37600
H  55.42100 43.82300 42.76900
H  52.82200 47.69600 41.69200
H  51.18100 48.78500 43.95600
H  53.64100 48.34300 44.21800
H  54.43600 47.62900 42.93600
H  53.76000 46.51600 44.15900
H  50.57900 49.38100 41.11900
H  52.23100 49.76500 41.35800
H  51.04100 50.99900 43.60900
H  50.13700 51.52700 42.15400
H  51.90200 51.60900 42.18200
H  46.04000 49.70500 43.44300
H  44.79700 49.39600 42.18300
H  46.56300 49.75100 41.72800
H  43.40300 44.55000 41.33800
H  42.56500 42.47900 45.14400
H  41.77700 43.95600 45.70100
H  43.21500 43.65400 46.46800

