158

Mg 0.68700 -1.79700 43.35600
C  4.09500 -1.99400 42.65000
C  0.63200 1.09000 41.37400
C  -2.70500 -1.83500 43.45600
C  0.88600 -4.93200 44.83300
N  2.13400 -0.64500 42.12200
C  3.49000 -0.86700 42.11500
C  4.26700 0.24600 41.32300
C  3.19800 1.37700 41.08600
C  1.91100 0.60500 41.62100
C  3.46600 2.76400 41.91300
C  4.97800 -0.20600 40.05600
C  6.31000 0.43600 39.90400
H  6.49500 1.59500 38.87600
N  -0.84500 -0.60800 42.47800
C  -0.69100 0.60900 41.74800
C  -1.98200 1.15700 41.33400
C  -2.97400 0.29700 41.96200
C  -2.23000 -0.81700 42.64500
C  -2.13300 2.35700 40.39600
C  -4.48800 0.56900 42.04400
O  -4.91000 1.56200 41.51900
C  -5.58500 -0.26200 42.70500
N  -0.71800 -3.29000 43.91800
C  -2.04300 -2.94400 44.13900
C  -2.78000 -3.91100 45.01700
C  -1.60300 -4.95900 45.25400
C  -0.36000 -4.38300 44.66300
C  -3.61700 -3.35100 46.19700
C  -1.94100 -6.37000 44.62700
C  -2.52300 -7.47300 45.63600
N  2.22600 -3.17200 43.86400
C  2.13000 -4.40300 44.46100
C  3.46600 -4.90800 44.62500
C  4.28800 -4.01600 43.89300
C  3.48100 -2.99500 43.46600
C  3.81300 -6.22800 45.16400
C  5.62200 -3.78000 43.40500
O  6.67500 -4.42400 43.50800
C  5.51900 -2.46100 42.48100
C  6.54100 -1.44500 42.93400
O  6.50200 -0.66800 43.89400
O  7.58800 -1.70400 42.13800
C  8.79700 -0.83800 42.34700
H  0.58300 2.01400 40.79400
H  -3.77900 -1.86700 43.65300
H  1.00700 -5.87400 45.37300
H  4.97400 0.65600 42.04500
H  3.05900 1.71000 40.05700
H  2.62700 2.82600 42.60500
H  3.39500 3.62500 41.24700
H  4.37900 2.76000 42.50800
H  4.29600 0.07300 39.25300
H  5.03400 -1.29400 40.01500
H  7.10000 -0.27500 39.66100
H  6.62700 0.89800 40.84000
H  -3.16600 2.70700 40.41300
H  -1.96400 2.03700 39.36800
H  -1.43200 3.13500 40.69800
H  -6.59900 0.02200 42.42300
H  -5.48200 -0.34800 43.78600
H  -5.36400 -1.26000 42.32500
H  -3.53800 -4.32400 44.35300
H  -1.47000 -5.06100 46.33100
H  -3.41500 -3.90700 47.11300
H  -4.69600 -3.31300 46.04700
H  -3.38900 -2.32000 46.46900
H  -1.02600 -6.85500 44.28600
H  -2.69900 -6.17600 43.86800
H  -3.56900 -7.56300 45.34300
H  -2.22200 -7.18700 46.64300
H  -2.05200 -8.45500 45.59000
H  3.48000 -6.23600 46.20200
H  4.87600 -6.42100 45.02000
H  3.15700 -6.96600 44.70200
H  5.85300 -2.78900 41.49700
H  9.24900 -1.07000 43.31100
H  8.47600 0.20300 42.35400
H  9.51400 -1.05600 41.55600
Mg 9.18600 3.66900 27.50700
C  10.24500 1.96700 30.40600
C  7.42500 5.71100 29.48100
C  7.78700 4.86900 24.69300
C  10.45400 0.87200 25.56600
N  8.92900 3.78200 29.69300
C  9.44600 3.02100 30.69100
C  9.15900 3.60400 32.03800
C  8.15100 4.77400 31.69900
C  8.19600 4.75700 30.18000
C  6.81000 4.75500 32.43200
C  10.41900 4.06000 32.79000
C  10.71700 3.47100 34.21900
H  10.67100 4.40500 35.45300
N  7.99400 5.23400 27.13500
C  7.35200 5.95700 28.10000
C  6.59600 6.95500 27.48100
C  6.68500 6.77400 26.05000
C  7.50300 5.55100 25.88300
C  5.83600 7.97200 28.26400
C  5.99300 7.58500 24.90600
O  6.16300 7.28500 23.69800
C  5.16700 8.75600 25.28900
N  9.16500 3.01100 25.46100
C  8.61100 3.68600 24.45200
C  8.70600 3.03600 23.04800
C  9.76100 1.92800 23.34000
C  9.84100 1.94200 24.89100
C  7.37200 2.55500 22.53900
C  11.21900 2.18700 22.91300
C  11.91500 1.26800 21.86700
N  10.22300 1.83600 27.85800
C  10.73300 0.88700 26.97800
C  11.42400 -0.14500 27.79400
C  11.28100 0.29400 29.13300
C  10.52300 1.46400 29.12600
C  12.07800 -1.44400 27.37600
C  11.67400 0.00600 30.51900
O  12.24100 -0.99000 30.95700
C  10.89100 1.03300 31.41100
C  9.87600 0.34900 32.30200
O  8.79700 -0.08900 31.96400
O  10.45500 0.07100 33.45500
C  9.63900 -0.61800 34.49900
H  7.03800 6.47400 30.16000
H  7.16700 5.00000 23.80400
H  10.86200 0.04400 24.98300
H  8.69900 2.80200 32.61500
H  8.56500 5.71300 32.06700
H  5.88900 4.45900 31.92800
H  6.50700 5.75800 32.73100
H  6.93800 4.19100 33.35600
H  10.42300 5.14800 32.84800
H  11.29000 3.69700 32.24400
H  11.66600 2.93500 34.18200
H  10.00000 2.69300 34.48500
H  5.62600 7.72800 29.30500
H  4.79700 8.02100 27.94000
H  6.42700 8.87400 28.42300
H  5.36800 9.47000 24.49000
H  5.42300 9.26500 26.21800
H  4.11900 8.48000 25.40500
H  9.13300 3.80700 22.40600
H  9.34300 1.01500 22.91700
H  6.51200 2.55900 23.21000
H  7.53700 1.57600 22.09000
H  7.26000 3.33000 21.78100
H  11.92900 2.16900 23.73900
H  11.21900 3.23500 22.61100
H  12.09200 1.92700 21.01600
H  11.20200 0.52500 21.51100
H  12.83200 0.97100 22.37500
H  13.06800 -1.14000 27.03300
H  11.50500 -1.99600 26.63200
H  12.33200 -2.03000 28.25900
H  11.56000 1.63600 32.02400
H  9.66100 -1.69700 34.34600
H  8.58900 -0.33900 34.58700
H  10.16300 -0.46000 35.44200

