158

Mg 44.77500 5.59100 47.56600
C  42.51600 8.34700 47.08100
C  42.02600 3.48700 47.33100
C  46.80100 3.10800 47.51900
C  47.38300 7.91600 46.99100
N  42.51800 5.93700 47.11800
C  41.84000 7.11300 46.82900
C  40.39000 6.86500 46.38100
C  40.20100 5.38300 46.83600
C  41.63700 4.88300 47.04500
C  39.42200 5.13500 48.14900
C  40.17500 7.02500 44.86100
C  39.50400 8.29900 44.39300
H  40.22400 9.12000 43.27300
N  44.43200 3.52300 47.43800
C  43.24300 2.84200 47.51700
C  43.47700 1.44100 47.64800
C  44.91600 1.30200 47.56700
C  45.48000 2.63700 47.45500
C  42.38600 0.30600 47.65500
C  45.68600 0.04100 47.64600
O  45.14800 -1.04400 47.94600
C  47.20800 -0.08100 47.37500
N  46.91300 5.52100 47.08900
C  47.43800 4.32500 47.43000
C  48.95400 4.53000 47.48700
C  49.15700 6.03100 47.23200
C  47.74900 6.55700 47.06000
C  49.52700 4.01700 48.90400
C  50.00000 6.45800 46.01300
C  51.08100 5.53200 45.51800
N  44.96500 7.71100 47.16500
C  46.11400 8.48400 47.08300
C  45.72100 9.89900 47.16500
C  44.25400 9.88200 47.22300
C  43.90500 8.51500 47.11000
C  46.61100 11.12800 47.26900
C  43.05700 10.65100 47.33300
O  42.98300 11.86400 47.60800
C  41.89100 9.71100 47.00100
C  40.80400 9.78200 48.08700
O  40.78900 9.09300 49.11400
O  39.87600 10.81000 47.71400
C  38.75000 10.95800 48.63000
H  41.27700 2.69300 47.35600
H  47.69000 2.49100 47.66800
H  48.22200 8.61300 47.05600
H  39.67100 7.46800 46.93600
H  39.63100 4.81500 46.10000
H  38.66600 4.36300 48.00800
H  38.75800 5.99200 48.25800
H  40.07100 5.10400 49.02400
H  39.54800 6.20300 44.51500
H  41.15100 6.98600 44.37800
H  39.32200 9.06200 45.15000
H  38.51100 8.05100 44.02100
H  42.47600 -0.01800 48.69200
H  42.58800 -0.46200 46.90800
H  41.34900 0.62000 47.54300
H  47.42500 -1.15000 47.38100
H  47.73900 0.50500 48.12500
H  47.41400 0.33600 46.38900
H  49.40400 3.90100 46.72000
H  49.66100 6.46600 48.09500
H  48.82100 3.34900 49.39600
H  49.83300 4.78200 49.61800
H  50.36200 3.33900 48.72700
H  50.48800 7.40800 46.23100
H  49.41600 6.57000 45.09900
H  51.46500 4.96100 46.36300
H  51.94200 6.05800 45.10600
H  50.77400 4.82200 44.75000
H  47.42200 10.91700 46.57300
H  46.86600 11.33100 48.30900
H  46.09800 12.03700 46.95300
H  41.59500 9.95000 45.98000
H  38.09700 11.79100 48.37000
H  39.19700 11.13200 49.60800
H  38.12600 10.06700 48.70100
Mg 0.95600 42.10700 26.11400
C  2.25700 42.11600 29.32800
C  -2.09400 41.01900 27.36000
C  -0.12300 41.72700 22.93600
C  4.08200 43.06100 24.92300
N  0.15500 41.52200 28.14400
C  0.85100 41.76900 29.31300
C  -0.09700 41.50800 30.52700
C  -1.46000 41.04500 29.80100
C  -1.14000 41.27600 28.36800
C  -2.05500 39.59700 30.13400
C  -0.41900 42.78900 31.38900
C  -0.29100 42.61000 32.90700
H  -0.42400 41.10700 33.40600
N  -0.82700 41.37800 25.29600
C  -2.00700 41.09300 25.95600
C  -3.04700 40.74200 24.94900
C  -2.50900 41.02500 23.70000
C  -1.06100 41.34500 23.93600
C  -4.36100 40.27900 25.54200
C  -3.20200 40.90200 22.34000
O  -2.68200 41.35600 21.34300
C  -4.69200 40.47800 22.16400
N  1.92000 42.24900 24.19900
C  1.13700 42.23600 23.04800
C  1.97800 42.67100 21.81200
C  3.29000 43.18600 22.51200
C  3.11100 42.76800 23.93500
C  2.16100 41.53600 20.74300
C  3.35800 44.73500 22.35300
C  3.21500 45.35000 20.93400
N  2.72400 42.56400 26.91400
C  3.92700 42.87700 26.27000
C  4.95200 43.12400 27.27200
C  4.32500 42.72400 28.52800
C  2.98700 42.48000 28.19900
C  6.41700 43.36600 26.98500
C  4.49400 42.59500 29.94000
O  5.51600 42.68000 30.56800
C  3.17600 42.26700 30.56500
C  3.39800 41.00400 31.31700
O  3.36400 39.87800 30.88500
O  3.55300 41.38400 32.61100
C  3.76900 40.27600 33.61600
H  -3.03400 40.75400 27.85000
H  -0.53600 41.68000 21.92600
H  5.01700 43.42200 24.48900
H  0.23700 40.66700 31.13300
H  -2.36400 41.55900 30.12700
H  -2.98400 39.64800 30.70200
H  -1.31900 38.99800 30.67000
H  -2.32300 39.09000 29.20700
H  -1.31300 43.21800 30.93600
H  0.33200 43.49900 31.04300
H  -1.15100 43.14900 33.30300
H  0.69400 42.99800 33.16800
H  -4.54300 40.72700 26.51800
H  -4.40600 39.19200 25.61800
H  -5.12400 40.63800 24.85100
H  -4.84100 39.54500 22.70800
H  -5.09000 40.38500 21.15300
H  -5.35100 41.13800 22.72800
H  1.41700 43.52500 21.43300
H  4.09200 42.80600 21.88000
H  1.42300 40.77200 20.98700
H  3.13400 41.11900 21.00300
H  1.99100 41.99700 19.76900
H  4.29000 45.12000 22.76800
H  2.50300 45.10800 22.91700
H  2.33500 45.98600 20.83600
H  3.17700 44.49600 20.25800
H  3.99200 46.07100 20.67900
H  7.15100 43.01300 27.70900
H  6.49400 44.44500 26.85100
H  6.62400 42.83800 26.05400
H  2.98400 43.07800 31.26700
H  4.32100 40.72300 34.44200
H  4.40900 39.53900 33.13200
H  2.80300 39.90500 33.95800

