158

Mg 1.74400 -0.93600 44.07400
C  5.21100 -0.19400 43.38000
C  1.00600 1.74100 42.06300
C  -1.41100 -1.91800 44.30300
C  2.85000 -3.91200 45.63500
N  3.01200 0.51100 42.70100
C  4.32700 0.69700 42.73900
C  4.74900 1.94800 41.85900
C  3.38300 2.63600 41.66000
C  2.40800 1.59400 42.24000
C  3.14500 4.03500 42.38500
C  5.57200 1.72500 40.51000
C  6.47800 2.90500 40.06900
H  6.31100 3.57500 38.70100
N  0.00000 -0.15000 43.31900
C  -0.11200 0.91400 42.52300
C  -1.57900 1.20900 42.35700
C  -2.32400 0.14100 42.98400
C  -1.22800 -0.66300 43.60300
C  -2.11100 2.41800 41.63600
C  -3.76200 0.02100 42.99300
O  -4.46200 0.78600 42.27900
C  -4.53200 -0.97800 43.86500
N  0.85300 -2.69600 44.84200
C  -0.52400 -2.85400 44.88000
C  -0.97400 -4.07900 45.62500
C  0.40000 -4.68900 46.07300
C  1.47100 -3.75300 45.52700
C  -1.94100 -3.91100 46.81000
C  0.63200 -6.21000 45.71900
C  0.72100 -7.06100 47.07000
N  3.63700 -2.00100 44.37800
C  3.93700 -3.19100 45.04700
C  5.35200 -3.39000 45.20200
C  5.90000 -2.17800 44.58900
C  4.77400 -1.34000 44.15600
C  6.04200 -4.51000 45.84100
C  7.13300 -1.48700 44.35900
O  8.32300 -1.74400 44.70500
C  6.72500 -0.23100 43.48200
C  7.19800 0.97000 44.17900
O  6.82500 1.33400 45.29900
O  8.14200 1.64300 43.56700
C  8.72600 2.82500 44.15000
H  0.73700 2.62800 41.48500
H  -2.48500 -2.00900 44.48000
H  3.15500 -4.80500 46.18500
H  5.35600 2.54400 42.54100
H  3.32000 2.82200 40.58700
H  4.05900 4.31700 42.90800
H  2.29700 4.05300 43.06900
H  2.95000 4.80900 41.64200
H  4.88500 1.55500 39.68100
H  6.24400 0.86800 40.56200
H  7.49600 2.51600 40.08400
H  6.29900 3.69000 40.80300
H  -2.66100 2.20200 40.72000
H  -1.44300 3.26500 41.48000
H  -2.84800 2.85800 42.30800
H  -5.60600 -0.79600 43.89100
H  -4.19300 -0.79400 44.88500
H  -4.33200 -1.95800 43.43400
H  -1.36000 -4.75800 44.86500
H  0.59200 -4.49300 47.12800
H  -2.31300 -2.89800 46.66100
H  -1.44500 -4.19600 47.73800
H  -2.86300 -4.45800 46.61100
H  1.54500 -6.30900 45.13200
H  -0.03000 -6.52800 44.91300
H  1.59700 -7.69200 47.22000
H  -0.18400 -7.66800 47.04600
H  0.55900 -6.43700 47.94900
H  6.55000 -4.99900 45.01000
H  5.42500 -5.24400 46.35800
H  6.76900 -4.04200 46.50600
H  7.31800 -0.21600 42.56700
H  9.76200 2.53600 44.32500
H  8.18400 3.21600 45.01000
H  8.60700 3.67400 43.47700
Mg 8.57600 4.49800 27.61600
C  9.91400 2.86000 30.40400
C  6.67000 6.45900 29.69400
C  7.27200 5.93400 24.93700
C  10.10000 2.14700 25.52500
N  8.34600 4.60800 29.81800
C  9.04500 3.91700 30.73300
C  8.74300 4.39000 32.18800
C  7.72300 5.57600 31.92500
C  7.50000 5.53700 30.33900
C  6.36300 5.48900 32.65800
C  9.95900 4.72000 33.12600
C  9.77500 5.89500 34.07600
H  10.11700 5.56300 35.50200
N  7.14900 5.98700 27.38400
C  6.49500 6.71200 28.32000
C  5.61700 7.74700 27.74900
C  5.83700 7.55900 26.33500
C  6.79000 6.39900 26.15300
C  4.77800 8.69900 28.52600
C  5.32400 8.38300 25.17300
O  5.44500 8.05700 24.01100
C  4.72100 9.69900 25.47200
N  8.65600 4.06000 25.50700
C  8.10700 4.82600 24.56400
C  8.41400 4.40600 23.11700
C  9.31800 3.21000 23.34900
C  9.45300 3.14600 24.85300
C  7.15900 4.12800 22.34100
C  10.70400 3.27200 22.67200
C  11.15100 1.92500 22.12500
N  9.73300 2.85200 27.87400
C  10.26900 1.99900 26.93400
C  11.04000 0.97200 27.62600
C  11.00500 1.34200 28.98900
C  10.13300 2.41100 29.07900
C  11.71400 -0.19200 27.02200
C  11.44800 0.97400 30.31200
O  12.24500 0.09500 30.54700
C  10.77700 1.99000 31.32200
C  9.94300 1.24900 32.43000
O  8.78600 0.83300 32.34100
O  10.76900 1.23000 33.51500
C  10.09500 0.78700 34.73200
H  6.13200 7.11300 30.38200
H  6.86500 6.42000 24.04700
H  10.64200 1.46300 24.86800
H  8.20000 3.65800 32.78600
H  8.20900 6.52500 32.15300
H  5.46100 5.49300 32.04600
H  6.37300 6.39200 33.26800
H  6.29700 4.64600 33.34500
H  10.85100 4.89100 32.52400
H  10.29600 3.80900 33.62100
H  8.80600 6.39400 34.10900
H  10.37900 6.68400 33.62700
H  5.18800 9.70800 28.51600
H  4.64900 8.30800 29.53500
H  3.78800 8.74900 28.07000
H  5.44200 10.23400 26.08900
H  3.82000 9.37400 25.99200
H  4.43200 10.20300 24.55000
H  8.96300 5.29700 22.81400
H  8.71700 2.32600 23.13700
H  6.32200 3.91500 23.00600
H  7.16000 3.25800 21.68400
H  7.01200 5.07100 21.81400
H  11.45100 3.66300 23.36300
H  10.71900 4.04600 21.90400
H  10.38700 1.15000 22.06700
H  11.96600 1.55900 22.74900
H  11.64500 2.00900 21.15600
H  11.01700 -0.49900 26.24200
H  11.79900 -1.00000 27.74800
H  12.64800 0.05100 26.51500
H  11.57300 2.58600 31.76800
H  9.60200 1.59400 35.27400
H  10.74600 0.36800 35.49900
H  9.33600 0.04500 34.48500

