158

Mg 3.05300 -1.56000 44.70300
C  6.55200 -0.84500 44.51200
C  2.59600 1.16300 42.65600
C  -0.07500 -2.59600 44.69700
C  3.99200 -4.85300 46.06800
N  4.51800 0.07900 43.80000
C  5.84400 0.06500 43.69100
C  6.34800 1.23600 42.76300
C  4.96700 1.90200 42.27600
C  3.92900 1.01800 42.96400
C  4.76600 3.44500 42.64100
C  7.15500 0.74700 41.54000
C  8.54200 1.31300 41.30400
H  8.58100 2.30000 40.04600
N  1.51900 -0.82900 43.74400
C  1.44400 0.31900 43.06100
C  0.09800 0.57700 42.75500
C  -0.68900 -0.47000 43.25300
C  0.21100 -1.37800 43.98400
C  -0.32500 1.95400 42.11300
C  -2.18000 -0.52100 43.18300
O  -2.80300 0.36200 42.60000
C  -3.04100 -1.61700 43.85400
N  2.12100 -3.54200 45.37100
C  0.81700 -3.60000 45.17300
C  0.30300 -5.00700 45.73300
C  1.61200 -5.76300 45.94500
C  2.62400 -4.68600 45.83300
C  -0.58900 -4.78600 46.98400
C  1.86300 -6.93400 44.89400
C  2.84800 -8.06200 45.15800
N  4.84400 -2.62400 45.23600
C  5.00300 -3.85300 45.88800
C  6.44200 -3.90900 46.22200
C  7.04000 -2.73700 45.73400
C  5.99900 -2.05000 45.10800
C  7.07800 -4.97300 47.04500
C  8.26900 -2.02600 45.65600
O  9.37800 -2.32900 46.06500
C  8.02600 -0.75900 44.83000
C  8.22200 0.37400 45.70700
O  7.46800 0.73400 46.60200
O  9.21200 1.23600 45.28700
C  9.08900 2.69800 45.68500
H  2.45600 1.87200 41.83800
H  -1.09400 -2.98600 44.74400
H  4.21400 -5.77600 46.60700
H  6.90000 1.92800 43.39900
H  4.87700 1.78900 41.19600
H  4.45600 3.57800 43.67800
H  4.03600 3.95800 42.01600
H  5.70900 3.99000 42.67500
H  6.60500 0.82200 40.60200
H  7.20100 -0.33800 41.63000
H  9.08000 0.48900 40.83600
H  9.01300 1.63500 42.23300
H  0.51300 2.39300 41.57100
H  -0.60000 2.64200 42.91300
H  -1.15900 1.84300 41.42000
H  -4.11200 -1.41700 43.84100
H  -2.74200 -1.41900 44.88300
H  -2.79300 -2.66600 43.68900
H  -0.21300 -5.40100 44.85700
H  1.90200 -6.04400 46.95700
H  -1.06500 -3.84900 47.27400
H  -0.06000 -5.08000 47.89000
H  -1.35500 -5.55100 46.85500
H  2.26700 -6.45800 44.00100
H  0.87300 -7.32500 44.65500
H  3.44400 -7.91600 46.05900
H  3.45000 -8.19000 44.25900
H  2.41800 -9.06000 45.24900
H  7.20000 -5.79700 46.34100
H  6.33100 -5.07300 47.83200
H  8.03700 -4.58500 47.39000
H  8.71000 -0.77800 43.98100
H  8.14100 2.92600 46.17100
H  9.15400 3.31700 44.79100
H  9.97200 2.99900 46.24900
Mg 24.33200 -4.79200 45.89500
C  26.64700 -2.72500 44.20800
C  22.01200 -4.00900 43.69900
C  22.74200 -7.61800 46.77500
C  27.19300 -6.13000 47.72100
N  24.37200 -3.36400 44.28700
C  25.34100 -2.67600 43.65700
C  24.89300 -2.02800 42.36600
C  23.35400 -2.29700 42.44700
C  23.21500 -3.25100 43.57800
C  22.45900 -1.05600 42.54100
C  25.67800 -2.62400 41.16000
C  26.16300 -1.72300 40.05800
H  25.34300 -1.76900 38.72400
N  22.50300 -5.55400 45.40300
C  21.70100 -5.08100 44.49800
C  20.50200 -5.90400 44.33300
C  20.70800 -7.01300 45.16100
C  22.04700 -6.78700 45.83300
C  19.44100 -5.68500 43.41800
C  19.78900 -8.19200 45.33000
O  18.69700 -8.21000 44.74700
C  19.98500 -9.38700 46.25200
N  24.95200 -6.67200 46.99400
C  24.04700 -7.62100 47.27600
C  24.58500 -8.81700 48.13400
C  25.96500 -8.26200 48.41600
C  26.06400 -6.95700 47.63100
C  23.71300 -9.20500 49.41000
C  27.05800 -9.30700 47.95300
C  28.04100 -9.84300 49.10200
N  26.38300 -4.39500 46.11900
C  27.37300 -4.92400 46.98000
C  28.61400 -4.19000 46.77400
C  28.37800 -3.43800 45.66000
C  27.06400 -3.57800 45.27400
C  29.90100 -4.46100 47.46400
C  29.03900 -2.62700 44.67600
O  30.23800 -2.29700 44.51500
C  27.91200 -2.15900 43.64300
C  27.88900 -0.68800 43.68400
O  27.28700 -0.01100 44.49800
O  28.45600 -0.15000 42.58100
C  28.65600 1.30200 42.65200
H  21.27100 -3.65900 42.97800
H  22.28300 -8.53900 47.14100
H  27.94700 -6.56100 48.38300
H  24.98400 -0.94400 42.42600
H  22.99700 -2.81000 41.55400
H  22.91600 -0.11500 42.23500
H  22.05100 -1.05000 43.55200
H  21.65200 -1.22100 41.82700
H  24.94000 -3.27800 40.69600
H  26.50700 -3.24300 41.50200
H  27.16400 -2.06900 39.80100
H  26.18100 -0.70400 40.44400
H  18.99500 -6.56900 42.96200
H  19.89800 -5.18500 42.56400
H  18.70800 -5.00400 43.85000
H  20.14700 -8.99300 47.25500
H  20.94800 -9.83000 45.99600
H  19.28400 -10.22100 46.22800
H  24.52200 -9.67000 47.45900
H  26.19300 -8.05500 49.46100
H  22.77100 -8.66700 49.30300
H  24.16300 -8.91200 50.35900
H  23.63600 -10.28300 49.55100
H  27.75300 -8.78500 47.29600
H  26.74200 -10.21000 47.43200
H  28.09800 -10.92700 49.01100
H  27.66800 -9.61800 50.10100
H  29.00700 -9.34300 49.02500
H  30.67000 -4.75100 46.74700
H  29.83800 -5.21000 48.25300
H  30.29100 -3.57600 47.96700
H  28.11500 -2.60700 42.67100
H  29.34300 1.60500 43.44200
H  27.64500 1.70900 42.65800
H  29.10600 1.66100 41.72700

