158

Mg 36.61900 49.42400 25.50300
C  36.92200 47.65300 28.44200
C  35.08300 52.03600 27.22800
C  35.95400 51.08100 22.57700
C  37.84300 46.73800 23.69900
N  35.85700 49.75200 27.58000
C  36.33300 48.94700 28.62900
C  35.92500 49.47100 29.99200
C  35.14500 50.74100 29.56000
C  35.33900 50.88900 28.03800
C  33.64100 50.87900 29.95500
C  37.18600 49.83000 30.86300
C  37.07500 49.29400 32.32700
H  35.66400 49.27200 33.02200
N  35.82500 51.31500 24.98700
C  35.31100 52.23500 25.85100
C  35.05400 53.47100 25.21000
C  35.15100 53.21900 23.84100
C  35.70400 51.85100 23.72200
C  34.52100 54.67000 25.93800
C  34.86400 54.07000 22.64000
O  34.97600 53.60100 21.52000
C  34.36200 55.45500 22.69600
N  36.77400 48.94000 23.46500
C  36.45500 49.78900 22.44600
C  36.81000 49.08800 21.06100
C  37.54400 47.79700 21.43400
C  37.41700 47.81300 22.98700
C  35.65900 48.93100 20.15900
C  39.01200 47.81400 20.92800
C  40.16200 48.52600 21.78600
N  37.22300 47.51200 25.92200
C  37.71400 46.55600 25.09000
C  37.96600 45.42800 25.94800
C  37.79800 45.80800 27.29800
C  37.24400 47.01600 27.20800
C  38.53600 44.19200 25.40500
C  37.86900 45.44400 28.62900
O  38.20700 44.41700 29.22100
C  37.31600 46.62700 29.51500
C  36.15400 46.14000 30.35000
O  34.95900 46.23200 30.09000
O  36.70000 45.70700 31.59400
C  35.71300 45.30400 32.60500
H  34.73800 52.78200 27.94800
H  35.71600 51.46600 21.58400
H  38.23200 45.87300 23.15800
H  35.28600 48.80700 30.57500
H  35.59300 51.61500 30.03100
H  33.43700 51.72800 30.60700
H  33.40500 49.91900 30.41400
H  33.04700 51.12200 29.07400
H  37.32400 50.89700 31.03700
H  38.06400 49.36600 30.41400
H  37.77600 49.80200 32.98900
H  37.45400 48.27400 32.40000
H  35.02800 54.87900 26.88100
H  33.52800 54.33100 26.23200
H  34.30800 55.61000 25.42900
H  35.16400 56.00800 23.18400
H  33.43000 55.55200 23.25300
H  34.19400 55.85700 21.69600
H  37.62700 49.66800 20.63000
H  36.97500 46.97200 21.00500
H  35.93600 49.16000 19.13100
H  34.82500 49.55000 20.48900
H  35.23000 47.93000 20.21600
H  38.99400 48.15500 19.89300
H  39.45900 46.84700 20.70000
H  39.69800 48.93600 22.68300
H  40.65800 49.39300 21.34900
H  40.99100 47.89300 22.10200
H  39.51600 44.29700 24.94000
H  37.80200 43.91900 24.64700
H  38.51600 43.43200 26.18600
H  37.99700 46.96500 30.29600
H  35.55500 44.22800 32.67700
H  34.68400 45.65600 32.53200
H  36.08200 45.63100 33.57700
Mg 6.66000 53.67200 41.30100
C  6.32100 50.06200 41.16500
C  9.61000 53.33600 39.63500
C  6.73600 57.02000 40.89100
C  3.39000 53.86800 42.41700
N  7.71200 51.85100 40.55800
C  7.53200 50.49900 40.61800
C  8.79500 49.67500 40.06600
C  9.85400 50.81600 39.84000
C  8.95100 52.11600 39.96900
C  11.07300 50.85700 40.77900
C  8.50200 48.77300 38.85000
C  8.54800 49.39400 37.35700
H  7.39000 48.99700 36.40800
N  8.03500 55.03200 40.37000
C  9.23500 54.66700 39.82400
C  9.89100 55.83800 39.44600
C  9.05500 56.96500 39.71900
C  7.88000 56.38300 40.39800
C  11.27000 55.85400 38.68200
C  9.45000 58.39400 39.37400
O  10.42600 58.66100 38.76500
C  8.52300 59.52000 39.85900
N  5.27400 55.22900 41.43800
C  5.54600 56.51900 41.37900
C  4.35100 57.45300 41.79400
C  3.19800 56.39900 41.99700
C  3.98300 55.12100 41.93000
C  4.66200 58.45400 42.92500
C  2.03200 56.37800 40.93500
C  0.59600 56.61800 41.40500
N  5.27000 52.30200 41.87900
C  3.94700 52.56800 42.35400
C  3.27800 51.33600 42.67900
C  4.24400 50.32300 42.25600
C  5.35000 50.93700 41.67400
C  1.97200 51.04200 43.34500
C  4.38200 48.83700 42.09100
O  3.63100 47.94900 42.46400
C  5.75300 48.63100 41.39600
C  5.38200 47.97200 40.18400
O  4.69700 48.45100 39.27500
O  5.87200 46.67700 40.08100
C  5.47600 45.92200 38.86400
H  10.63200 53.30900 39.25300
H  6.71300 58.10900 40.96800
H  2.31200 53.87600 42.59200
H  9.15200 49.06500 40.89500
H  10.37300 50.73100 38.88600
H  11.38500 49.82900 40.96900
H  10.83500 51.44700 41.66300
H  11.90900 51.32500 40.25900
H  7.48500 48.41000 38.99400
H  9.11300 47.87100 38.87000
H  9.42600 49.08800 36.78800
H  8.63200 50.46700 37.53200
H  11.07700 55.78800 37.61200
H  11.93500 55.06200 39.02600
H  11.85900 56.74800 38.88900
H  7.51400 59.49600 39.44800
H  9.01800 60.48100 39.72300
H  8.54500 59.37600 40.93900
H  4.04900 58.13100 40.99600
H  2.85700 56.39200 43.03200
H  5.69200 58.54200 43.26900
H  4.01500 58.30800 43.79000
H  4.44600 59.43200 42.49500
H  2.08700 55.38500 40.48800
H  2.33700 57.09800 40.17500
H  0.68600 56.50800 42.48600
H  -0.20700 55.95800 41.07600
H  0.39000 57.66000 41.16000
H  1.67400 50.05500 42.99200
H  1.21100 51.68400 42.90200
H  2.17200 51.08300 44.41600
H  6.45700 47.94900 41.87400
H  6.22400 45.16200 38.63700
H  5.55500 46.59700 38.01200
H  4.45500 45.54600 38.93400

