158

Mg 9.26300 2.63000 27.72100
C  10.74100 1.00500 30.56600
C  7.23500 4.32000 29.93200
C  7.38500 3.66600 25.19700
C  11.01300 0.42800 25.72800
N  9.01300 2.61400 29.91100
C  9.77700 1.96500 30.90000
C  9.42100 2.45900 32.36300
C  8.15900 3.34100 32.10900
C  8.12400 3.40800 30.57700
C  6.84500 2.78000 32.68600
C  10.63400 3.24700 33.04400
C  10.41800 4.17000 34.31000
H  11.05400 3.61400 35.57800
N  7.61100 3.95100 27.60500
C  6.91300 4.56600 28.61900
C  5.83300 5.35300 28.08300
C  5.88500 5.24700 26.59300
C  6.96300 4.21400 26.40600
C  4.81500 6.12800 28.83800
C  5.06300 5.85700 25.44200
O  5.23200 5.54400 24.22900
C  4.05200 6.97100 25.74700
N  9.29700 2.16700 25.69300
C  8.44900 2.76000 24.84400
C  8.70300 2.26000 23.39100
C  9.89900 1.33400 23.56000
C  10.13900 1.32400 25.08900
C  7.43200 1.56400 22.75500
C  11.14300 1.75000 22.76400
C  11.79200 0.58600 22.09800
N  10.55400 0.95900 27.99400
C  11.22100 0.22300 27.08300
C  12.11700 -0.70200 27.73300
C  11.96300 -0.46800 29.08900
C  11.04500 0.65100 29.21800
C  13.02800 -1.71900 27.10800
C  12.41600 -0.80400 30.41400
O  13.29000 -1.56500 30.76900
C  11.60200 0.14400 31.47100
C  10.78900 -0.67200 32.37500
O  10.24200 -1.70600 32.03800
O  10.73200 -0.20200 33.66000
C  10.22300 -1.17100 34.62900
H  6.58900 4.83300 30.64700
H  6.81300 3.87800 24.29200
H  11.54600 -0.25700 25.06500
H  9.12700 1.60100 32.96700
H  8.38300 4.34400 32.47200
H  6.27600 3.55500 33.19900
H  7.05100 1.83600 33.19100
H  6.15600 2.57500 31.86600
H  11.15300 3.89500 32.33800
H  11.32200 2.44000 33.29400
H  9.36600 4.42000 34.44800
H  10.84600 5.16100 34.16200
H  4.99000 7.20300 28.79900
H  4.82800 5.81200 29.88200
H  3.92200 5.82100 28.29300
H  3.62400 7.30300 24.80100
H  4.46400 7.79200 26.33400
H  3.25200 6.44800 26.27200
H  8.86500 3.05800 22.66700
H  9.59800 0.34600 23.21200
H  6.74600 2.37300 22.50300
H  6.93100 0.98300 23.52900
H  7.59800 0.80000 21.99500
H  11.88600 2.12800 23.46600
H  10.96200 2.67700 22.21800
H  11.56700 0.75900 21.04600
H  11.50200 -0.39400 22.47600
H  12.84800 0.57900 22.37000
H  13.65500 -1.39200 26.27800
H  12.54900 -2.63100 26.75300
H  13.77000 -2.02600 27.84500
H  12.25600 0.76500 32.08300
H  10.53000 -2.20400 34.46000
H  9.14900 -1.08800 34.79000
H  10.68100 -0.94300 35.59100
Mg 52.54100 23.72000 44.95200
C  49.60500 25.61000 44.48900
C  50.76600 20.84600 44.44400
C  55.43800 22.15500 44.38000
C  54.30200 26.68800 45.24200
N  50.39300 23.31900 44.24600
C  49.34400 24.19800 44.46700
C  48.07800 23.36400 44.56500
C  48.48800 21.84700 44.79800
C  50.02500 21.99700 44.46200
C  48.26100 21.44900 46.34300
C  47.18300 23.49400 43.28700
C  47.75000 22.82500 42.00100
H  47.57800 23.63000 40.72600
N  53.03200 21.83600 44.44800
C  52.14800 20.73300 44.33600
C  52.96800 19.51400 44.09300
C  54.33200 19.87700 44.00400
C  54.30300 21.34700 44.32900
C  52.26600 18.15500 44.02500
C  55.47700 18.81400 43.78200
O  55.25400 17.67900 43.48300
C  56.85700 19.24400 43.91700
N  54.62500 24.35600 44.65600
C  55.62600 23.50200 44.59000
C  57.05000 24.20600 44.56700
C  56.66800 25.72800 44.83700
C  55.10700 25.59400 44.98700
C  58.07400 23.66100 45.58800
C  57.11100 26.82300 43.78000
C  58.42500 26.73100 43.12600
N  52.09800 25.78500 44.91000
C  52.93400 26.84100 45.13400
C  52.06600 28.08600 45.17100
C  50.75700 27.63300 44.98900
C  50.84900 26.23900 44.67000
C  52.51500 29.49900 45.48000
C  49.33900 27.96500 44.94700
O  48.85700 29.07700 45.03800
C  48.53800 26.71600 44.57900
C  48.02000 27.08300 43.23400
O  48.63500 27.05900 42.19200
O  46.65800 27.25200 43.27500
C  45.94100 27.49300 42.01100
H  50.25000 19.92000 44.70300
H  56.27300 21.48500 44.16600
H  54.83900 27.63500 45.33600
H  47.43600 23.76300 45.35100
H  48.14300 21.07100 44.11500
H  48.25700 20.36000 46.37200
H  47.33500 21.91200 46.68600
H  49.08200 21.77000 46.98400
H  47.10100 24.54600 43.01000
H  46.12400 23.28400 43.43900
H  47.15700 21.94200 41.76400
H  48.78100 22.47300 42.04400
H  51.52300 18.20500 43.22900
H  51.75500 17.93600 44.96300
H  52.90700 17.29500 43.83100
H  57.50400 18.37500 43.80000
H  56.90600 19.71400 44.89900
H  57.09000 20.00500 43.17300
H  57.53300 24.08200 43.59800
H  57.01200 26.16400 45.77500
H  59.06400 23.90500 45.20200
H  58.01000 22.57300 45.62200
H  57.87400 24.13000 46.55100
H  57.20000 27.80000 44.25400
H  56.28100 26.86100 43.07400
H  59.15600 26.01000 43.49300
H  58.87400 27.72100 43.04300
H  58.31400 26.49900 42.06700
H  53.14900 29.71700 46.33900
H  51.72400 30.23900 45.59700
H  53.10000 29.81300 44.61500
H  47.72800 26.54200 45.28600
H  45.58400 28.52200 41.97800
H  45.10400 26.79400 42.03400
H  46.51800 27.38000 41.09300

