158

Mg 46.96900 25.96700 29.29500
C  47.78700 27.93600 32.06200
C  45.92100 23.47400 31.52100
C  45.93000 24.27200 26.63700
C  48.04100 28.45000 27.20600
N  46.80400 25.80200 31.56700
C  47.19200 26.72700 32.49700
C  46.68200 26.31900 33.88700
C  46.20200 24.87100 33.65600
C  46.28400 24.71500 32.13600
C  46.98000 23.82700 34.47800
C  45.63100 27.23100 34.47400
C  45.98700 27.95800 35.82300
H  46.39100 27.06700 37.02400
N  46.18600 24.08900 29.09700
C  45.82400 23.24100 30.13400
C  45.31800 22.00800 29.54500
C  45.14000 22.25400 28.11700
C  45.77900 23.57900 27.91300
C  44.98500 20.77400 30.39200
C  44.57600 21.35200 27.05300
O  44.61000 21.61600 25.84800
C  43.99900 20.11800 27.43200
N  47.22700 26.13400 27.11400
C  46.55800 25.39400 26.26400
C  46.53200 25.89800 24.83600
C  47.18300 27.32100 25.05400
C  47.47300 27.34100 26.57900
C  47.29700 25.01600 23.78500
C  46.29600 28.52200 24.63600
C  47.06900 29.63300 23.96000
N  47.96300 27.68500 29.50800
C  48.28300 28.58300 28.57700
C  48.91300 29.70100 29.22200
C  48.76800 29.48700 30.57700
C  48.14400 28.29500 30.74100
C  49.46400 30.89000 28.50300
C  49.00400 30.04900 31.92700
O  49.61500 31.06800 32.31900
C  48.32000 29.02100 32.97900
C  49.46300 28.39500 33.76900
O  50.28700 27.69900 33.25400
O  49.27700 28.76600 35.10700
C  50.29900 28.25100 35.99300
H  45.51000 22.75500 32.23300
H  45.50000 23.77000 25.76700
H  48.37900 29.16600 26.45400
H  47.45800 26.36900 34.65100
H  45.14700 24.71200 33.87900
H  47.48700 23.09900 33.84500
H  46.17600 23.39600 35.07400
H  47.73900 24.21700 35.15700
H  44.73500 26.63500 34.64700
H  45.44600 28.09100 33.83000
H  45.01500 28.37800 36.08100
H  46.72500 28.75800 35.75800
H  44.90200 19.83700 29.84100
H  43.99500 20.99400 30.79200
H  45.50900 20.61600 31.33400
H  44.72800 19.40500 27.81700
H  43.51000 19.62400 26.59300
H  43.26900 20.28900 28.22300
H  45.46600 25.96200 24.61800
H  48.11000 27.30300 24.48100
H  47.13400 25.11500 22.71200
H  47.22300 23.97000 24.08300
H  48.34700 25.30900 23.76400
H  45.85600 28.89300 25.56200
H  45.46600 28.18500 24.01400
H  46.54800 29.88600 23.03700
H  48.10200 29.33600 23.78100
H  47.05000 30.50100 24.62000
H  49.10600 31.74700 29.07300
H  49.21000 30.97000 27.44700
H  50.53800 30.92400 28.68900
H  47.60600 29.48800 33.65700
H  50.98400 29.00700 36.37800
H  50.89600 27.42200 35.61400
H  49.77300 27.92500 36.89000
Mg -2.24400 33.72400 26.58900
C  -3.85300 31.94500 29.07700
C  -0.78800 35.78300 28.94500
C  -0.97300 35.59100 24.06100
C  -4.17000 31.94900 24.18900
N  -2.53500 33.91300 28.82000
C  -3.09600 32.97800 29.68400
C  -2.78300 33.31600 31.09800
C  -1.83000 34.54900 30.99200
C  -1.71700 34.82000 29.50900
C  -2.34200 35.80700 31.80500
C  -2.13100 32.09800 31.89100
C  -2.81600 31.75600 33.19100
H  -1.94600 31.46900 34.39100
N  -1.00100 35.41000 26.47000
C  -0.48600 36.11800 27.53300
C  0.51400 37.10700 27.03600
C  0.37400 37.05400 25.56300
C  -0.57200 35.95100 25.31700
C  1.33100 37.97400 27.98500
C  1.07400 37.89200 24.47300
O  0.73800 37.98000 23.27600
C  2.17700 38.69900 24.87400
N  -2.70800 33.89700 24.35900
C  -1.98500 34.70600 23.55700
C  -2.30200 34.47300 21.96200
C  -3.06200 33.13100 22.17400
C  -3.40200 32.96600 23.64900
C  -3.16400 35.69700 21.54400
C  -2.40100 31.90500 21.44900
C  -1.42700 31.12200 22.29000
N  -3.66500 32.20600 26.59000
C  -4.38500 31.58500 25.57300
C  -5.23800 30.57400 26.14400
C  -5.05500 30.71600 27.51300
C  -4.08000 31.67400 27.72100
C  -6.19100 29.74000 25.37100
C  -5.50400 30.22000 28.75000
O  -6.29800 29.36300 29.00800
C  -4.72500 31.00500 29.91500
C  -5.70900 31.65700 30.76400
O  -6.30500 32.68400 30.47300
O  -5.99500 30.85000 31.86000
C  -7.01900 31.36300 32.79700
H  -0.34200 36.45800 29.67900
H  -0.47300 36.16000 23.27500
H  -4.77400 31.40600 23.45900
H  -3.67100 33.59100 31.66700
H  -0.83500 34.31000 31.36900
H  -1.82200 35.84200 32.76200
H  -3.40900 35.69400 31.99500
H  -2.29800 36.68600 31.16300
H  -1.12000 32.37000 32.19500
H  -1.94500 31.28600 31.18800
H  -3.45800 30.91900 32.91500
H  -3.43500 32.56700 33.57400
H  2.31200 37.68200 27.61100
H  1.24900 37.67800 29.03100
H  1.22900 39.04100 27.78500
H  1.85100 39.50300 25.53400
H  2.62200 39.19600 24.01200
H  3.04000 38.13000 25.22100
H  -1.36600 34.40300 21.40700
H  -4.07100 33.32200 21.81100
H  -3.47600 36.43800 22.28000
H  -4.05200 35.26400 21.08400
H  -2.63600 36.17100 20.71700
H  -1.86500 32.11100 20.52300
H  -3.28000 31.29900 21.23000
H  -1.00300 31.83200 23.00000
H  -0.75900 30.62900 21.58400
H  -1.97200 30.35000 22.83200
H  -6.38100 30.28100 24.44400
H  -7.04900 29.67300 26.04000
H  -5.81800 28.73300 25.18300
H  -4.13700 30.31600 30.52100
H  -7.89300 31.70700 32.24500
H  -6.62400 32.20300 33.36900
H  -7.35400 30.63800 33.53900

