158

Mg 40.87100 9.75300 30.43900
C  42.98200 11.51800 32.90800
C  39.04800 8.61000 32.94300
C  39.12300 8.17100 28.17500
C  42.91600 11.08200 28.07800
N  41.05700 9.99900 32.61200
C  41.84900 10.85400 33.41100
C  41.46300 10.74100 34.88500
C  40.41700 9.64100 34.86200
C  40.14100 9.40900 33.38900
C  40.66200 8.34200 35.70800
C  40.88400 12.12300 35.39700
C  40.12300 12.16900 36.72800
H  40.68600 13.05400 37.92300
N  39.39900 8.54800 30.53700
C  38.71600 8.21900 31.68400
C  37.59700 7.32400 31.25700
C  37.79200 7.02600 29.92700
C  38.82400 7.88300 29.50900
C  36.51800 6.78100 32.22300
C  37.02600 6.02900 29.01000
O  37.41400 5.67600 27.87300
C  35.69500 5.38600 29.57100
N  41.02200 9.62300 28.36400
C  40.10000 9.01600 27.62200
C  40.15300 9.38800 26.15100
C  41.48200 10.20200 26.12600
C  41.86300 10.32800 27.57600
C  40.05500 8.26500 25.08200
C  41.29500 11.65000 25.52700
C  42.37200 12.08300 24.53700
N  42.60600 11.01200 30.39900
C  43.29000 11.39900 29.34600
C  44.47900 12.17000 29.73100
C  44.39500 12.28000 31.20000
C  43.20100 11.54200 31.49900
C  45.60200 12.58600 28.86700
C  45.05900 12.81300 32.40100
O  46.08800 13.41200 32.53600
C  44.06600 12.43400 33.59300
C  44.69100 11.70500 34.70100
O  45.34300 10.62800 34.67600
O  44.34300 12.33400 35.89000
C  44.70000 11.56300 37.08500
H  38.38100 8.29400 33.74900
H  38.51500 7.63700 27.44100
H  43.36600 11.52800 27.18900
H  42.28000 10.49300 35.56200
H  39.45800 10.07600 35.14200
H  41.65700 8.30100 36.15100
H  40.53300 7.42100 35.13900
H  39.89500 8.21900 36.47300
H  40.24900 12.46200 34.57900
H  41.75300 12.76100 35.55700
H  39.93700 11.19100 37.17200
H  39.21700 12.73400 36.50800
H  36.43300 5.69600 32.18000
H  35.48200 6.97100 31.94100
H  36.74300 7.01100 33.26500
H  34.83600 5.99200 29.86000
H  35.94400 4.63200 30.31700
H  35.33400 4.82300 28.71000
H  39.41300 10.18000 26.03300
H  42.25400 9.68000 25.56200
H  39.08600 8.34500 24.58900
H  40.16800 7.26700 25.50600
H  40.77600 8.41100 24.27800
H  41.35100 12.31400 26.39000
H  40.26400 11.79300 25.20200
H  42.67600 13.07800 24.86100
H  41.98600 12.27600 23.53600
H  43.23800 11.42500 24.47000
H  46.44500 11.92000 29.05300
H  45.88400 13.59500 29.16600
H  45.36600 12.41400 27.81700
H  43.52100 13.32700 33.89900
H  43.86300 11.89200 37.70100
H  45.62800 11.97800 37.47800
H  44.58800 10.49000 37.24400
Mg 30.22200 58.18400 40.10300
C  27.62400 55.67300 39.50600
C  32.39800 55.68500 39.36900
C  32.50300 60.58900 40.07900
C  27.65600 60.43200 40.74500
N  30.00000 55.83200 39.62300
C  28.88400 55.17500 39.21800
C  29.27000 53.75300 38.69200
C  30.83600 53.63600 39.10900
C  31.11000 55.09600 39.40700
C  31.10200 52.60600 40.27800
C  29.17400 53.59600 37.13500
C  27.75100 53.17500 36.66800
H  27.00500 54.13400 35.65600
N  32.19000 58.15200 39.72300
C  32.93600 57.03200 39.50300
C  34.29400 57.40900 39.35600
C  34.37300 58.83000 39.41000
C  33.01700 59.28400 39.69400
C  35.49100 56.43500 39.34700
C  35.66100 59.66600 39.29800
O  36.75400 59.15400 39.09100
C  35.67500 61.12100 39.52000
N  30.05300 60.31000 40.17800
C  31.18400 61.06300 40.27200
C  30.79300 62.48100 40.77800
C  29.24400 62.42600 41.07200
C  28.96600 60.94800 40.68400
C  31.73600 63.06800 41.89800
C  28.33400 63.42800 40.19600
C  27.21700 64.11200 40.97800
N  28.10700 58.14300 40.13800
C  27.25100 59.16300 40.44900
C  25.87900 58.62400 40.34600
C  26.00300 57.22600 40.06700
C  27.34600 57.00100 39.91800
C  24.66200 59.44700 40.62600
C  25.32200 55.93300 39.90000
O  24.11500 55.76000 39.96800
C  26.28400 54.84500 39.42400
C  26.18700 53.71400 40.48200
O  26.66200 53.70800 41.54900
O  25.47800 52.61900 40.00600
C  25.44300 51.48800 40.94700
H  33.13400 54.91700 39.12500
H  33.19600 61.38200 40.36600
H  26.90900 61.16800 41.04700
H  28.58600 53.07600 39.20400
H  31.47700 53.33500 38.28100
H  31.92900 51.95700 39.99000
H  30.21800 52.00400 40.48800
H  31.53200 53.01300 41.19300
H  29.81500 52.76100 36.85200
H  29.47000 54.55900 36.72000
H  27.10800 52.94600 37.51800
H  27.77200 52.20700 36.16800
H  36.04400 56.53700 38.41400
H  35.31600 55.39300 39.61500
H  36.12400 56.81100 40.15100
H  34.92500 61.58700 38.88200
H  36.68600 61.49700 39.36200
H  35.47900 61.45600 40.53800
H  30.83800 63.08800 39.87400
H  28.99200 62.59700 42.11800
H  32.33200 62.23700 42.27600
H  31.28700 63.50600 42.78900
H  32.31000 63.84500 41.39400
H  27.92300 62.91200 39.32800
H  29.06200 64.16000 39.84600
H  27.42500 65.17700 41.07700
H  27.22900 63.61300 41.94700
H  26.38500 63.88600 40.31100
H  23.80700 58.87300 40.98200
H  24.45100 59.75900 39.60300
H  24.88400 60.24500 41.33400
H  25.95400 54.40700 38.48200
H  25.57900 50.50800 40.49000
H  24.43400 51.31800 41.32300
H  26.05000 51.53000 41.85200

