158

Mg 25.95900 0.12400 28.69900
C  27.71200 -0.36000 31.72300
C  23.04400 0.52700 30.59300
C  24.22500 0.43700 25.77800
C  28.81800 -0.69700 27.02500
N  25.47800 -0.01400 30.86800
C  26.42000 0.02700 31.91600
C  25.77300 0.34700 33.25700
C  24.18400 0.29900 32.87800
C  24.21700 0.25100 31.34200
C  23.30500 -0.85500 33.56000
C  26.34600 1.62100 34.00600
C  26.99200 1.38100 35.37700
H  26.67700 2.30600 36.55200
N  23.98100 0.45300 28.25400
C  22.89900 0.57000 29.19000
C  21.69400 0.86200 28.42200
C  21.98700 0.80000 27.01900
C  23.43800 0.59100 26.95900
C  20.38900 1.17600 29.11900
C  21.09500 1.04300 25.77200
O  21.43900 0.86900 24.58200
C  19.58500 1.40900 25.99300
N  26.45500 -0.15300 26.74000
C  25.53700 -0.07300 25.68400
C  26.22200 -0.55200 24.42900
C  27.78300 -0.60400 24.80200
C  27.69800 -0.41300 26.26600
C  25.76100 -1.87900 23.86000
C  28.69300 0.51000 24.13300
C  29.99300 -0.03200 23.52800
N  27.98000 -0.47600 29.22900
C  29.01900 -0.74200 28.43900
C  30.24100 -0.96800 29.25300
C  29.77300 -0.82400 30.54300
C  28.36800 -0.57200 30.47300
C  31.63400 -1.16900 28.77400
C  30.08700 -0.87200 31.97700
O  31.15200 -1.14100 32.57300
C  28.74700 -0.45800 32.71800
C  28.45800 -1.50200 33.82500
O  27.90400 -2.54400 33.69800
O  29.22200 -1.23300 34.95800
C  29.11300 -2.14500 36.09400
H  22.15900 0.78200 31.18000
H  23.72500 0.56100 24.81500
H  29.70200 -0.91400 26.42200
H  26.01700 -0.58900 33.75800
H  23.74800 1.22100 33.26400
H  22.77700 -1.47700 32.83800
H  22.52400 -0.21300 33.96900
H  23.86800 -1.42800 34.29700
H  25.49700 2.26100 34.24800
H  27.02100 2.13600 33.32200
H  28.06100 1.48500 35.19100
H  26.73200 0.36800 35.68400
H  20.29300 2.26100 29.14600
H  20.46600 0.86400 30.16100
H  19.58400 0.73400 28.53300
H  19.07000 0.64100 26.57100
H  19.15000 1.57900 25.00800
H  19.62100 2.36100 26.52200
H  26.16200 0.21300 23.65400
H  28.28400 -1.56900 24.71800
H  24.80000 -2.22800 24.23900
H  26.53900 -2.63000 23.99400
H  25.63800 -1.85200 22.77700
H  29.05300 1.28400 24.81000
H  28.17500 0.99400 23.30500
H  29.94600 -0.52000 22.55400
H  30.53700 -0.77700 24.10800
H  30.69100 0.80500 23.55500
H  31.87600 -2.15100 29.18000
H  32.42900 -0.48400 29.06900
H  31.73100 -1.25300 27.69200
H  28.92800 0.49600 33.21500
H  30.05000 -2.18400 36.65000
H  28.76900 -3.14300 35.82300
H  28.35300 -1.69600 36.73300
Mg 0.17100 42.34900 25.76300
C  2.58100 42.40000 28.32300
C  -2.02800 41.25300 28.13300
C  -2.10200 42.29800 23.48400
C  2.71500 43.15800 23.44800
N  0.31700 41.77600 27.97900
C  1.35200 41.99500 28.88100
C  0.87300 42.06300 30.31200
C  -0.51400 41.42200 30.24300
C  -0.77400 41.49000 28.70100
C  -0.71000 39.96200 30.68500
C  0.92900 43.50800 30.96100
C  1.88400 43.57700 32.19600
H  1.82600 42.48500 33.27600
N  -1.78000 41.83500 25.80100
C  -2.48700 41.35400 26.81400
C  -3.82300 41.00300 26.42100
C  -3.91500 41.52400 25.10300
C  -2.58000 41.99300 24.74600
C  -4.76900 40.43500 27.39800
C  -5.18400 41.58400 24.23200
O  -5.07400 42.04500 23.06500
C  -6.57400 41.13200 24.67400
N  0.26400 42.82700 23.73700
C  -0.84100 42.68400 22.97300
C  -0.50300 43.04700 21.50500
C  1.03500 43.44700 21.58600
C  1.42400 43.13400 22.97700
C  -0.91300 41.98200 20.52800
C  1.37000 44.92300 21.18600
C  1.01900 46.12900 22.14000
N  2.15600 42.59400 25.75900
C  3.06600 42.89900 24.78500
C  4.37700 43.04900 25.38800
C  4.22700 42.78200 26.74000
C  2.87200 42.57500 26.94400
C  5.59700 43.40000 24.56700
C  4.96300 42.66600 27.96300
O  6.19100 42.81800 28.20200
C  3.93900 42.51800 29.08000
C  4.33500 41.30000 29.87300
O  4.28400 40.13100 29.46600
O  4.83600 41.69300 31.10800
C  5.33200 40.61300 31.96600
H  -2.77800 40.89800 28.84200
H  -2.83300 42.10600 22.69500
H  3.46400 43.42200 22.69900
H  1.55100 41.36800 30.80800
H  -1.34000 41.98100 30.68400
H  0.12300 39.75100 31.35500
H  -0.94200 39.20700 29.93200
H  -1.57500 39.91400 31.34700
H  -0.06700 43.94100 31.05800
H  1.34200 44.17600 30.20600
H  1.72500 44.55700 32.64800
H  2.85400 43.59200 31.70000
H  -4.41700 39.61100 28.01800
H  -5.70500 40.08300 26.96500
H  -4.92900 41.26000 28.09200
H  -6.65200 40.07100 24.91100
H  -7.33100 41.49200 23.97700
H  -6.72400 41.59900 25.64700
H  -1.17000 43.90100 21.39300
H  1.63100 42.89100 20.86100
H  -1.35700 41.07800 20.94500
H  0.01200 41.64300 20.06300
H  -1.66400 42.36800 19.83900
H  0.94200 45.04600 20.19100
H  2.45200 45.02500 21.09400
H  1.71100 46.39900 22.93800
H  0.02400 46.02000 22.57200
H  0.84000 46.99000 21.49700
H  6.55300 43.34100 25.08700
H  5.45700 44.43900 24.26900
H  5.56600 42.85400 23.62400
H  3.88800 43.42200 29.68600
H  6.20100 40.15600 31.49400
H  4.63800 39.79300 32.15500
H  5.51700 41.13400 32.90600

