158

Mg -1.30400 17.76000 26.76600
C  -1.74000 15.43900 29.37400
C  -1.88000 20.26200 29.11300
C  -0.88800 19.90300 24.37300
C  -1.07100 15.05700 24.54800
N  -1.81300 17.80100 28.95400
C  -1.84600 16.75100 29.87900
C  -2.16300 17.26000 31.34600
C  -2.41700 18.77400 31.12400
C  -2.06700 18.95300 29.60500
C  -3.94100 19.07500 31.39500
C  -0.94500 16.96000 32.36100
C  -1.32100 16.14600 33.61700
H  -0.46600 16.34800 34.93700
N  -1.38000 19.77900 26.76400
C  -1.58100 20.67300 27.80700
C  -1.53400 22.05500 27.23600
C  -1.07300 21.94000 25.87600
C  -1.04500 20.44800 25.62500
C  -1.74200 23.22900 28.08500
C  -0.74700 23.08300 24.77000
O  -0.30500 22.87100 23.62600
C  -0.94700 24.50800 25.24000
N  -1.23900 17.52600 24.67000
C  -1.13700 18.60200 23.84400
C  -0.91800 18.25300 22.38700
C  -0.83800 16.67700 22.47100
C  -1.16600 16.35600 23.92100
C  -2.14100 18.78300 21.50000
C  0.48100 16.04800 21.99300
C  1.58000 15.99600 23.04400
N  -1.52100 15.70100 26.84100
C  -1.35900 14.69900 25.88200
C  -1.50000 13.35400 26.43500
C  -1.70900 13.70000 27.79600
C  -1.64800 15.05800 28.00400
C  -1.54600 11.95900 25.77200
C  -2.03700 13.06600 29.07600
O  -2.25400 11.88700 29.40400
C  -1.99100 14.16000 30.19100
C  -0.83300 13.68600 31.04600
O  0.34300 14.04400 31.01100
O  -1.41100 12.83700 32.02500
C  -0.41400 12.33000 33.04600
H  -2.08300 21.05700 29.83400
H  -0.81500 20.63400 23.56500
H  -0.85600 14.26100 23.83300
H  -3.06100 16.72200 31.64900
H  -1.72000 19.33200 31.74800
H  -4.10000 19.59200 32.34100
H  -4.54400 18.18700 31.20900
H  -4.27400 19.67300 30.54700
H  -0.58500 17.90600 32.76600
H  -0.13100 16.61500 31.72400
H  -1.14600 15.10900 33.33200
H  -2.37800 16.29900 33.83300
H  -0.84900 23.81400 28.30300
H  -2.08400 22.98600 29.09100
H  -2.46900 23.89300 27.61700
H  -2.02200 24.57000 25.41100
H  -0.60100 25.16100 24.43800
H  -0.37300 24.64200 26.15700
H  -0.00000 18.79100 22.14700
H  -1.56600 16.21500 21.80400
H  -2.61900 19.46500 22.20300
H  -2.83500 17.97300 21.27300
H  -1.91000 19.23600 20.53600
H  0.88400 16.55300 21.11500
H  0.26600 15.03300 21.65900
H  1.51200 16.71400 23.86100
H  2.53200 16.25200 22.57800
H  1.62900 14.97800 23.43200
H  -2.57300 11.61400 25.65600
H  -1.01700 11.22000 26.37300
H  -1.09800 11.91900 24.77900
H  -2.89100 14.34600 30.77600
H  -0.72000 11.35400 33.42200
H  -0.39200 12.98400 33.91700
H  0.56100 12.15400 32.59200
Mg 31.26900 58.35800 38.99300
C  28.41100 56.51300 38.13600
C  33.18000 55.61400 38.27500
C  33.87100 60.37300 39.25000
C  29.16200 61.20400 39.20600
N  30.81400 56.32300 38.09600
C  29.60900 55.80900 37.88600
C  29.71700 54.31000 37.57800
C  31.25900 54.04000 37.60300
C  31.84300 55.41000 37.96200
C  31.75400 52.85900 38.50500
C  28.97400 53.84900 36.24900
C  29.38300 54.61000 34.97900
H  28.33700 55.24200 34.08300
N  33.30200 57.97600 38.91600
C  33.87600 56.78100 38.66600
C  35.25400 56.90300 38.66200
C  35.55200 58.28400 38.80600
C  34.22700 58.98500 39.06400
C  36.11600 55.66400 38.46500
C  37.00800 58.86100 38.70400
O  37.96300 58.11000 38.53600
C  37.23500 60.36200 38.74200
N  31.46200 60.46200 39.19900
C  32.68000 60.95900 39.47300
C  32.64100 62.50600 39.59900
C  31.06200 62.75500 39.87000
C  30.50400 61.42800 39.36600
C  33.49100 63.08900 40.79300
C  30.56900 64.09900 39.11600
C  29.76900 65.02400 39.96800
N  29.21700 58.82700 38.78800
C  28.51800 59.96000 38.92500
C  27.07600 59.74700 38.79800
C  27.02300 58.39200 38.54600
C  28.29200 57.84900 38.53200
C  25.94900 60.75500 38.61500
C  26.09600 57.28400 38.17200
O  24.86100 57.35800 37.96300
C  26.93000 55.98100 37.97600
C  26.44900 54.99900 38.97300
O  26.58500 55.07900 40.20900
O  25.74800 54.01000 38.31600
C  24.78600 53.29200 39.11300
H  33.81000 54.75600 38.03100
H  34.67600 61.11100 39.27300
H  28.49800 62.07100 39.20800
H  29.29800 53.79200 38.44000
H  31.62600 53.74500 36.62000
H  30.88300 52.42400 38.99500
H  32.38600 53.16600 39.33800
H  32.21600 52.12900 37.84000
H  27.92200 54.01400 36.48200
H  29.11900 52.77000 36.21100
H  29.90300 53.86000 34.38300
H  29.96300 55.49100 35.25300
H  36.53600 55.75000 37.46200
H  35.62900 54.69600 38.57800
H  36.95000 55.64900 39.16600
H  37.02800 60.86600 39.68600
H  36.70600 60.90900 37.96200
H  38.21400 60.56500 38.30800
H  33.07700 62.80300 38.64500
H  30.90700 62.89800 40.94000
H  34.18500 63.87200 40.48600
H  34.02100 62.32500 41.36200
H  32.88800 63.53000 41.58700
H  29.87800 63.81700 38.32200
H  31.44700 64.58100 38.68600
H  30.33100 65.93200 40.18500
H  29.59500 64.55300 40.93600
H  28.79800 65.29800 39.55500
H  24.97600 60.26600 38.56900
H  26.06800 61.35500 37.71300
H  25.93900 61.53600 39.37500
H  26.67700 55.63100 36.97500
H  25.29400 52.81300 39.95000
H  24.27200 52.54100 38.51300
H  24.08800 53.89000 39.69800

