158

Mg 8.36600 4.38600 28.24400
C  9.82100 2.87700 31.13600
C  6.39400 6.17100 30.36300
C  7.00000 5.69600 25.44000
C  10.03300 1.99900 26.17000
N  8.18000 4.51000 30.50100
C  8.86800 3.86100 31.50400
C  8.53100 4.32800 32.91900
C  7.36600 5.28000 32.58900
C  7.28700 5.35600 31.07000
C  5.93000 5.01500 33.22600
C  9.78300 4.83500 33.74200
C  9.45400 5.71100 34.91200
H  10.08300 5.35700 36.31300
N  6.91100 5.68000 27.94400
C  6.18400 6.31600 28.96200
C  5.32700 7.26700 28.28900
C  5.64600 7.21700 26.92000
C  6.54700 6.18500 26.69700
C  4.26700 8.12600 29.00100
C  5.14300 8.18000 25.74600
O  5.56500 8.06500 24.61500
C  4.31800 9.38500 25.99400
N  8.34800 3.75200 26.10900
C  7.82000 4.59100 25.14900
C  8.08900 4.13300 23.70900
C  9.21200 3.07600 24.00100
C  9.16700 2.84800 25.50100
C  6.88900 3.42600 23.03800
C  10.58400 3.31200 23.36200
C  11.56300 4.25900 24.00200
N  9.70900 2.85900 28.55700
C  10.24900 1.98100 27.60400
C  11.14200 1.05200 28.29200
C  11.04600 1.39900 29.71800
C  10.08500 2.43600 29.80400
C  11.92300 0.00400 27.63700
C  11.43500 1.01100 31.00100
O  12.16200 0.05500 31.37800
C  10.82700 2.08300 31.94500
C  10.29600 1.39800 33.17900
O  9.17600 0.91800 33.24700
O  11.28600 1.45100 34.13600
C  11.13300 0.57000 35.35600
H  5.89900 7.02100 30.83700
H  6.57400 6.01900 24.48800
H  10.47100 1.19600 25.57400
H  8.07000 3.49000 33.44200
H  7.58200 6.27400 32.98000
H  5.91700 3.97700 33.55600
H  5.13900 5.05100 32.47700
H  5.58600 5.68600 34.01400
H  10.50100 5.41900 33.16600
H  10.36700 4.04200 34.20700
H  8.37200 5.72200 35.04400
H  9.84200 6.70100 34.67400
H  4.59900 9.15800 28.88000
H  4.05100 7.92100 30.04900
H  3.30600 8.03200 28.49600
H  3.25900 9.20900 26.18300
H  4.45700 10.12300 25.20400
H  4.81400 9.86700 26.83600
H  8.50300 4.97100 23.14700
H  8.84400 2.15500 23.55000
H  7.02800 3.02400 22.03400
H  6.10000 4.16200 22.88800
H  6.60100 2.64000 23.73600
H  10.42100 3.69800 22.35600
H  11.14200 2.37900 23.29900
H  11.03400 4.79800 24.78700
H  12.04300 4.96800 23.32700
H  12.29300 3.63000 24.51200
H  11.32800 -0.62600 26.97600
H  12.33300 -0.63400 28.42000
H  12.81000 0.29300 27.07200
H  11.52400 2.81100 32.36200
H  10.78900 1.30100 36.08800
H  12.05200 0.07000 35.66300
H  10.33400 -0.15800 35.21100
Mg 42.01400 41.39300 26.72300
C  41.58400 43.76300 29.19200
C  43.71500 39.41100 28.99000
C  42.81800 39.26800 24.15200
C  41.67000 43.96100 24.15200
N  42.47600 41.47100 28.92700
C  42.08600 42.55500 29.68300
C  42.33500 42.20100 31.19400
C  43.31300 40.89400 31.14200
C  43.22700 40.58500 29.60100
C  44.71800 41.16400 31.76000
C  40.95000 42.15800 31.99200
C  40.74700 42.90200 33.25800
H  40.23800 42.06300 34.40500
N  42.96600 39.52500 26.55800
C  43.58000 38.91800 27.63600
C  43.93300 37.53600 27.19200
C  43.73100 37.47900 25.77500
C  43.13100 38.80400 25.39900
C  44.42600 36.46200 28.19200
C  44.01000 36.35000 24.83500
O  43.82000 36.40200 23.58100
C  44.79600 35.15200 25.33200
N  42.35300 41.63900 24.44100
C  42.50400 40.51100 23.72400
C  42.25200 40.76100 22.27000
C  42.14700 42.34900 22.21000
C  42.05100 42.69000 23.64400
C  43.25200 40.06600 21.30100
C  40.89900 42.82600 21.30400
C  41.20500 43.97400 20.46200
N  41.48700 43.37500 26.60700
C  41.41400 44.29100 25.56100
C  40.94100 45.60000 26.11900
C  40.97300 45.37200 27.53900
C  41.33400 44.05600 27.82300
C  40.49500 46.86300 25.45500
C  40.73600 46.04900 28.85700
O  40.30900 47.12400 29.24400
C  41.05100 44.97000 29.98100
C  42.17300 45.59700 30.79500
O  43.31400 45.71500 30.50100
O  41.65100 45.86100 32.10600
C  42.58300 46.42200 33.09500
H  44.21700 38.82200 29.76100
H  42.85600 38.48000 23.39700
H  41.63100 44.75600 23.40400
H  42.98000 43.01300 31.53100
H  42.93000 39.99600 31.62800
H  45.35600 40.57200 31.10300
H  44.73800 40.89400 32.81600
H  45.05800 42.19300 31.64600
H  40.79600 41.08100 32.06900
H  40.13400 42.27300 31.28000
H  40.11400 43.76000 33.03300
H  41.66400 43.41000 33.55500
H  45.42800 36.33700 27.78000
H  43.90800 35.50400 28.17200
H  44.47000 36.84800 29.21100
H  44.27400 34.63200 26.13500
H  45.75600 35.53300 25.67800
H  44.97500 34.52800 24.45700
H  41.24900 40.47200 21.95700
H  43.08200 42.76500 21.83500
H  43.03600 38.99700 21.31600
H  44.26600 40.29300 21.63000
H  43.21400 40.57000 20.33600
H  40.02900 43.03300 21.92700
H  40.67400 41.98400 20.64900
H  40.50700 44.68600 20.90200
H  41.03500 43.82400 19.39600
H  42.25100 44.27100 20.52900
H  39.88300 46.57000 24.60200
H  41.30500 47.54500 25.19800
H  39.76500 47.30600 26.13300
H  40.26900 44.67300 30.67900
H  42.08400 47.34900 33.37700
H  43.56600 46.73800 32.74500
H  42.47700 45.79700 33.98200

