158

Mg -0.58300 7.59400 26.34600
C  0.11400 9.55200 29.09300
C  -0.77300 4.88800 28.57200
C  -1.04400 5.47000 23.70000
C  -0.37800 10.32900 24.21900
N  -0.27000 7.25200 28.54300
C  -0.15500 8.30300 29.42700
C  -0.33700 7.76500 30.91000
C  -0.57300 6.26900 30.73800
C  -0.56900 6.12300 29.21000
C  0.45800 5.35800 31.52200
C  -1.46400 8.45800 31.71800
C  -1.29100 8.76500 33.19100
H  -0.05700 8.19500 33.90200
N  -0.66300 5.45300 26.11400
C  -0.81200 4.57900 27.19300
C  -1.12300 3.22000 26.69800
C  -1.23000 3.34800 25.23500
C  -0.92900 4.82500 24.94700
C  -1.22600 1.99400 27.56700
C  -1.53300 2.29600 24.13600
O  -1.62200 2.61100 22.96600
C  -1.67600 0.85400 24.51000
N  -0.80400 7.85100 24.27800
C  -0.98800 6.81700 23.34100
C  -1.13700 7.42900 21.93200
C  -0.99700 8.96800 22.12500
C  -0.71200 9.08400 23.61000
C  -0.09400 6.85000 20.91200
C  -2.24900 9.83000 21.79800
C  -3.35400 10.01100 22.81100
N  -0.07700 9.53500 26.53400
C  -0.09600 10.55600 25.63000
C  0.26200 11.79100 26.30300
C  0.38700 11.43400 27.66100
C  0.15600 10.04900 27.76500
C  0.56500 13.11300 25.61300
C  0.72600 11.97400 29.02600
O  1.14900 13.07400 29.33600
C  0.45400 10.73200 29.95200
C  1.61000 10.62000 30.86900
O  2.72900 10.28900 30.55400
O  1.23800 11.37400 31.91700
C  2.32000 11.83100 32.79400
H  -0.93100 4.06100 29.26800
H  -1.23700 4.78900 22.86800
H  -0.39100 11.22900 23.60000
H  0.63100 7.94000 31.37900
H  -1.56500 6.11400 31.16100
H  -0.12700 4.59500 32.03500
H  1.10700 5.97800 32.14000
H  0.99400 4.87200 30.70700
H  -2.42100 7.93900 31.65100
H  -1.72900 9.37800 31.19600
H  -2.21400 8.38800 33.63200
H  -1.20800 9.83000 33.41100
H  -0.41100 1.29900 27.36600
H  -2.11700 1.43100 27.28800
H  -1.29400 2.20400 28.63400
H  -1.92200 0.28600 23.61300
H  -2.50300 0.76200 25.21500
H  -0.71200 0.56400 24.92700
H  -2.12000 7.20300 21.51900
H  -0.19300 9.50200 21.62000
H  -0.50700 6.17200 20.16500
H  0.60400 6.18500 21.42100
H  0.55400 7.58200 20.43000
H  -2.65100 9.38500 20.88800
H  -1.84700 10.76300 21.40300
H  -3.02200 10.16400 23.83800
H  -4.07500 9.20100 22.70000
H  -3.85800 10.94700 22.56700
H  0.97300 13.76500 26.38500
H  -0.43900 13.46300 25.37300
H  1.09400 12.92800 24.67800
H  -0.41900 10.97900 30.55600
H  3.14900 12.29900 32.26400
H  2.72100 10.97300 33.33400
H  1.89500 12.48500 33.55600
Mg 24.35800 -4.77600 45.83600
C  26.69600 -2.61400 44.34800
C  21.94900 -3.63400 43.73200
C  22.41600 -7.38900 47.01300
C  26.92700 -5.98000 47.87600
N  24.39000 -3.36300 44.20500
C  25.41100 -2.56300 43.74300
C  24.99700 -1.75200 42.52500
C  23.48200 -1.75400 42.67000
C  23.20000 -2.99000 43.60400
C  22.83000 -0.49200 43.28700
C  25.66700 -2.24600 41.23600
C  26.23500 -1.13000 40.31900
H  25.74400 -1.20400 38.78800
N  22.46500 -5.48800 45.41900
C  21.60600 -4.81000 44.51000
C  20.36000 -5.48600 44.46600
C  20.42700 -6.56000 45.37900
C  21.79300 -6.52900 46.01000
C  19.29900 -4.86400 43.57600
C  19.24000 -7.50700 45.76500
O  18.15700 -7.39200 45.20900
C  19.31500 -8.55900 46.88500
N  24.68300 -6.53600 47.11500
C  23.65300 -7.35400 47.58400
C  24.17300 -8.43800 48.54300
C  25.55000 -7.87900 48.93300
C  25.70400 -6.69700 47.98100
C  23.23300 -8.82600 49.75800
C  26.68600 -8.93800 48.76600
C  27.47000 -9.33000 50.07200
N  26.37400 -4.35500 46.16200
C  27.33200 -4.96900 47.03200
C  28.58000 -4.29900 46.75200
C  28.36900 -3.37500 45.75000
C  27.02800 -3.42700 45.40500
C  29.89900 -4.79300 47.43900
C  29.04600 -2.42100 44.87300
O  30.22600 -2.07000 44.75200
C  27.95300 -1.91900 43.88100
C  27.90500 -0.41700 43.79000
O  27.46400 0.34000 44.63400
O  28.48800 0.00700 42.59600
C  28.24700 1.43500 42.31100
H  21.15900 -3.20100 43.11500
H  21.77100 -8.21400 47.32300
H  27.85200 -6.32500 48.34300
H  25.24600 -0.69200 42.55400
H  23.11600 -1.89800 41.65400
H  21.85200 -0.80900 43.65100
H  22.44100 0.14700 42.49300
H  23.42700 0.04600 44.02300
H  24.85400 -2.76600 40.72900
H  26.38700 -2.98900 41.58000
H  27.32200 -1.19500 40.29100
H  26.13600 -0.09300 40.64000
H  18.45800 -5.54400 43.44300
H  19.79000 -4.63600 42.63000
H  19.04000 -3.91600 44.04900
H  18.35200 -9.02200 47.09600
H  19.57900 -8.07000 47.82300
H  19.99200 -9.38600 46.66900
H  24.34800 -9.34700 47.96700
H  25.48800 -7.50200 49.95400
H  23.21300 -9.91100 49.86500
H  22.20600 -8.56100 49.50600
H  23.44700 -8.37600 50.72800
H  27.51500 -8.44000 48.26400
H  26.40200 -9.79500 48.15500
H  27.05200 -10.29200 50.37100
H  27.21000 -8.64900 50.88200
H  28.54800 -9.32300 49.91200
H  30.20200 -5.73500 46.98200
H  29.87600 -4.99500 48.51000
H  30.72200 -4.15400 47.11900
H  28.27700 -2.37300 42.94500
H  27.29300 1.83800 42.65100
H  28.29400 1.68100 41.25000
H  29.05400 2.04900 42.71100

