158

Mg 8.99600 2.59600 27.31400
C  10.29800 1.01800 30.28300
C  7.16100 4.67600 29.31300
C  7.23400 3.43500 24.70200
C  10.40500 -0.16800 25.58700
N  8.70800 2.72500 29.49200
C  9.44400 2.12500 30.50800
C  9.13800 2.88300 31.83300
C  7.99100 3.89100 31.52500
C  7.88700 3.68600 30.01000
C  6.63500 3.78200 32.26600
C  10.50900 3.62200 32.32500
C  10.50500 4.54900 33.52700
H  10.93300 4.03000 34.96500
N  7.51600 4.02200 27.00600
C  6.91600 4.80300 27.93400
C  6.01500 5.71600 27.26200
C  5.95400 5.30300 25.92400
C  6.98100 4.22700 25.84200
C  5.19700 6.72300 28.02900
C  5.01700 5.79900 24.83800
O  5.17100 5.37400 23.73000
C  4.03900 6.94200 25.08600
N  9.00800 1.87600 25.36600
C  8.05100 2.39300 24.48700
C  8.33200 1.76300 23.16400
C  9.26200 0.56200 23.43100
C  9.56900 0.68000 24.88500
C  7.08800 1.23100 22.32800
C  10.54800 0.56700 22.53400
C  10.55100 -0.66300 21.58700
N  10.15900 0.74400 27.76000
C  10.67000 -0.27400 26.96200
C  11.42400 -1.12900 27.74400
C  11.40300 -0.65200 29.02900
C  10.52000 0.46300 28.97400
C  12.09500 -2.34900 27.16900
C  11.86100 -0.83200 30.39900
O  12.65900 -1.63300 30.86800
C  11.26100 0.31200 31.29800
C  10.60900 -0.47000 32.36300
O  9.56900 -1.14000 32.21200
O  11.27000 -0.20400 33.53900
C  10.77700 -0.88300 34.73100
H  6.69200 5.46500 29.90400
H  6.62200 3.62600 23.81700
H  10.73000 -0.99300 24.95000
H  8.76800 2.07400 32.46200
H  8.37700 4.89300 31.71300
H  6.90600 3.20500 33.15000
H  5.81500 3.31300 31.72300
H  6.29700 4.71800 32.71200
H  10.85600 4.20000 31.46900
H  11.20200 2.79800 32.49500
H  9.44500 4.78800 33.61500
H  11.17400 5.38200 33.31100
H  5.58400 7.01800 29.00400
H  4.27100 6.21800 28.30700
H  4.93300 7.62100 27.47000
H  3.45400 7.15500 24.19100
H  4.52300 7.87500 25.37400
H  3.38500 6.67300 25.91600
H  8.80700 2.55100 22.57900
H  8.87200 -0.42200 23.16900
H  6.33500 1.64100 23.00200
H  7.03100 0.14400 22.27800
H  6.94100 1.71200 21.36200
H  11.42800 0.49300 23.17300
H  10.61300 1.48200 21.94500
H  9.57600 -1.06900 21.32000
H  11.07700 -1.46000 22.11300
H  11.26300 -0.38300 20.81100
H  12.68200 -2.19000 26.26400
H  11.29300 -3.05200 26.94400
H  12.85300 -2.73500 27.85100
H  12.03000 0.95800 31.72200
H  10.27300 -1.84700 34.65600
H  10.25900 -0.11300 35.30200
H  11.64600 -1.08100 35.35900
Mg -9.99200 39.72500 41.59100
C  -9.20100 36.52000 40.39400
C  -7.00300 40.77200 39.92300
C  -10.93400 42.81700 42.09700
C  -13.39000 38.57000 42.15500
N  -8.35500 38.73400 40.26300
C  -8.22300 37.38600 39.98300
C  -6.94200 37.02900 39.13900
C  -6.20200 38.44700 39.10000
C  -7.24300 39.41200 39.77400
C  -4.67900 38.49000 39.61600
C  -7.33300 36.47500 37.70400
C  -6.65500 35.15500 37.31700
H  -5.79800 35.11500 36.01700
N  -9.02700 41.44500 41.27600
C  -7.82000 41.71800 40.51600
C  -7.59600 43.08000 40.52000
C  -8.65700 43.73400 41.24300
C  -9.58800 42.65400 41.62800
C  -6.25800 43.72500 39.96700
C  -8.66100 45.22800 41.56500
O  -7.72200 45.93400 41.21700
C  -9.76300 45.80700 42.46700
N  -11.94900 40.49900 42.02300
C  -12.02500 41.90600 42.26900
C  -13.42400 42.38600 42.72400
C  -14.20600 40.99700 42.71100
C  -13.12700 39.94100 42.30800
C  -13.43300 43.10700 44.11600
C  -15.55200 40.88400 41.81500
C  -16.73100 40.22700 42.59400
N  -11.06300 37.90000 41.55000
C  -12.38200 37.60200 41.75700
C  -12.49600 36.15200 41.75400
C  -11.30500 35.67300 41.19700
C  -10.46300 36.80700 40.98800
C  -13.63300 35.29900 42.21500
C  -10.50400 34.49900 40.82300
O  -10.81400 33.32600 40.85100
C  -9.14000 34.97100 40.29000
C  -8.12100 34.41900 41.25000
O  -7.89400 34.84500 42.39200
O  -7.67800 33.20000 40.81200
C  -6.67100 32.68600 41.67300
H  -6.05900 40.94600 39.40400
H  -11.16200 43.84300 42.39500
H  -14.39800 38.17200 42.29100
H  -6.39300 36.24700 39.66400
H  -6.22700 38.98800 38.15400
H  -4.55100 38.94300 40.60000
H  -4.13400 39.09300 38.89000
H  -4.23900 37.51500 39.40900
H  -7.10800 37.23400 36.95500
H  -8.42000 36.47600 37.62200
H  -7.39200 34.37600 37.12100
H  -5.99200 34.78200 38.09800
H  -6.48300 44.49400 39.22800
H  -5.64600 43.06600 39.35200
H  -5.71100 44.14900 40.80900
H  -9.67900 45.31800 43.43700
H  -10.77300 45.64200 42.09000
H  -9.72500 46.89400 42.54100
H  -13.80800 43.16200 42.06200
H  -14.52400 40.83900 43.74100
H  -12.46000 43.44600 44.47200
H  -13.97800 42.48800 44.82900
H  -14.00300 44.00500 43.88000
H  -15.22300 40.13000 41.10000
H  -15.91000 41.79000 41.32700
H  -16.49800 39.19000 42.83600
H  -17.71600 40.38300 42.15400
H  -16.68100 40.74400 43.55200
H  -14.03400 34.68700 41.40700
H  -14.30000 36.04700 42.64300
H  -13.26000 34.59000 42.95400
H  -9.10000 34.52500 39.29700
H  -6.07700 31.95000 41.13300
H  -7.08100 32.24500 42.58100
H  -5.89700 33.38200 41.99500

