158

Mg 40.64700 9.62200 30.17900
C  42.66400 11.10100 32.74800
C  38.68600 8.40300 32.61800
C  39.09100 7.98100 27.77500
C  43.07400 10.47300 27.76000
N  40.68200 9.79200 32.40300
C  41.56300 10.48500 33.24400
C  41.14700 10.37400 34.75900
C  39.93700 9.33800 34.64700
C  39.66400 9.22300 33.15600
C  40.20100 7.93900 35.29300
C  40.92100 11.74600 35.38200
C  40.02500 11.68000 36.63100
H  40.46400 12.45200 37.89400
N  39.11200 8.35300 30.18700
C  38.36000 7.99500 31.27200
C  37.25800 7.07500 30.86800
C  37.33200 7.07200 29.46400
C  38.58100 7.82100 29.06500
C  36.30700 6.46400 31.87000
C  36.25500 6.44400 28.53500
O  36.28000 6.57900 27.34700
C  35.10900 5.68600 29.00300
N  41.02100 9.23500 27.96600
C  40.19100 8.63300 27.17500
C  40.40000 8.75400 25.69200
C  41.71600 9.63900 25.71800
C  41.96000 9.79200 27.21800
C  40.59300 7.41000 24.98600
C  41.46900 11.09500 25.07000
C  42.62600 11.79400 24.22000
N  42.55300 10.45100 30.15900
C  43.37600 10.72700 29.11500
C  44.52200 11.46500 29.67000
C  44.33500 11.60500 31.01900
C  43.13900 10.95400 31.31600
C  45.54300 12.09600 28.85000
C  44.86000 12.26600 32.23700
O  45.75500 13.06300 32.32900
C  43.80000 11.90800 33.44400
C  44.68100 11.30200 34.46000
O  45.12800 10.17900 34.42800
O  44.99500 12.18200 35.45700
C  45.79700 11.69400 36.59400
H  38.12200 7.96800 33.44500
H  38.36800 7.54200 27.08500
H  43.79500 10.87300 27.04300
H  41.97000 9.99500 35.36600
H  39.04300 9.83100 35.02900
H  41.12000 7.98700 35.87700
H  40.42900 7.19100 34.53300
H  39.35400 7.69900 35.93600
H  40.39600 12.35200 34.64400
H  41.82900 12.24700 35.71900
H  39.98500 10.62200 36.88900
H  38.98200 11.90800 36.41100
H  36.55100 6.68400 32.91000
H  36.01900 5.43400 31.65900
H  35.30500 6.85600 31.69800
H  34.35500 5.53500 28.23000
H  34.59800 6.28700 29.75600
H  35.53500 4.74600 29.35300
H  39.52400 9.23400 25.25600
H  42.61100 9.20200 25.27400
H  39.68000 7.16500 24.44400
H  40.81400 6.63700 25.72300
H  41.41800 7.38500 24.27400
H  41.23500 11.71200 25.93700
H  40.53100 11.07000 24.51600
H  42.32700 12.01500 23.19500
H  43.53700 11.20400 24.31700
H  42.86000 12.74700 24.69300
H  45.25500 13.10500 28.55400
H  45.75400 11.53800 27.93700
H  46.47800 12.12300 29.40800
H  43.43100 12.90100 33.70000
H  45.12800 11.27900 37.34800
H  46.27800 12.53700 37.09100
H  46.55400 10.99200 36.24500
Mg 49.29500 45.11800 43.14300
C  45.87100 45.02200 42.49800
C  49.57700 41.85000 42.33300
C  52.66800 45.46500 43.28600
C  49.04600 48.70200 43.26800
N  47.84900 43.70900 42.60100
C  46.51600 43.85300 42.32300
C  45.95700 42.63800 41.65000
C  47.05100 41.58100 41.89700
C  48.28300 42.39500 42.25900
C  46.71400 40.46000 42.97000
C  45.68600 43.00400 40.11000
C  44.32800 42.38600 39.57500
H  44.55500 41.76100 38.13900
N  50.91700 43.81600 42.95400
C  50.81200 42.50100 42.63900
C  52.06100 41.87600 42.60500
C  52.96400 42.84000 43.07800
C  52.19800 44.13600 43.10900
C  52.36400 40.39300 42.30000
C  54.40100 42.66700 43.37000
O  54.99900 41.59100 43.25300
C  55.30200 43.88500 43.74400
N  50.59900 46.85600 43.16300
C  51.95600 46.67400 43.21800
C  52.73500 48.04800 43.32900
C  51.56100 49.08900 43.11900
C  50.33700 48.20600 43.16700
C  53.60800 48.14100 44.60800
C  51.64400 49.94100 41.81300
C  51.72200 51.47400 41.95700
N  47.79400 46.58000 43.09000
C  47.86200 47.99000 43.12700
C  46.53700 48.51500 42.95200
C  45.70300 47.36800 42.79300
C  46.55900 46.21000 42.83000
C  46.04200 49.94600 42.84800
C  44.27800 46.89800 42.65800
O  43.16900 47.44900 42.68200
C  44.38600 45.32700 42.43600
C  43.50400 44.59900 43.49200
O  42.63300 43.71200 43.25200
O  43.86400 45.06000 44.81400
C  43.24600 44.32100 45.94000
H  49.79600 40.78000 42.35000
H  53.72700 45.72400 43.22800
H  49.02700 49.79300 43.23100
H  44.99300 42.37100 42.08100
H  47.32100 41.04000 40.99000
H  46.02600 40.98400 43.63400
H  47.57900 40.26700 43.60400
H  46.34800 39.55800 42.48000
H  46.51000 42.71900 39.45600
H  45.65700 44.09300 40.08400
H  43.54500 43.14200 39.51500
H  44.00900 41.62200 40.28400
H  52.46800 39.81800 43.22100
H  53.32200 40.20900 41.81400
H  51.61700 39.91600 41.66500
H  54.92900 44.39000 44.63500
H  55.44700 44.50500 42.85900
H  56.24400 43.42400 44.03900
H  53.34800 48.22900 42.44600
H  51.60500 49.83100 43.91600
H  53.33400 48.94800 45.28800
H  54.57100 48.25400 44.11000
H  53.64800 47.14500 45.04800
H  50.75600 49.61200 41.27300
H  52.54700 49.61100 41.30100
H  51.24700 52.01500 41.13900
H  52.74200 51.85300 41.89100
H  51.31800 51.95900 42.84600
H  45.65700 50.06700 41.83500
H  46.76600 50.71000 43.13200
H  45.14900 49.93800 43.47200
H  44.06800 45.13500 41.41100
H  43.46500 43.25500 45.89200
H  42.16500 44.38500 45.81500
H  43.55500 44.72300 46.90500

