158

Mg 46.35800 17.09400 27.94100
C  44.96800 16.24000 30.97000
C  48.99500 18.59500 29.77500
C  47.99500 17.84900 25.00500
C  43.91100 15.49900 26.29300
N  46.91600 17.30900 30.16800
C  46.11000 16.97300 31.22000
C  46.68200 17.37300 32.56800
C  47.88100 18.32600 32.15600
C  47.99100 18.10400 30.61100
C  47.58100 19.79300 32.46500
C  47.11600 16.17400 33.41100
C  46.67300 16.22400 34.88800
H  46.60600 17.63800 35.43200
N  48.12500 18.13100 27.47300
C  49.09600 18.63500 28.35800
C  50.22400 19.12400 27.57700
C  49.84700 19.14800 26.20300
C  48.61400 18.37000 26.17700
C  51.42100 19.84300 28.28000
C  50.53000 19.68200 24.84900
O  50.11800 19.45900 23.69300
C  51.84300 20.45500 24.88000
N  45.99100 16.68400 25.83900
C  46.80000 17.02700 24.85100
C  46.15100 16.66100 23.47300
C  45.05400 15.66600 24.01800
C  45.00600 15.89100 25.47800
C  45.67300 17.91400 22.61400
C  45.27400 14.17700 23.59700
C  45.94800 13.09100 24.53500
N  44.67700 16.22300 28.43400
C  43.77300 15.55500 27.66300
C  42.68200 14.98900 28.48100
C  43.18800 15.20200 29.78200
C  44.37100 15.98300 29.73200
C  41.52800 14.23600 28.06600
C  42.82700 15.09100 31.16700
O  41.70900 14.66000 31.52000
C  43.92500 15.69800 32.00200
C  43.31200 16.81000 32.75500
O  43.08500 17.92700 32.26000
O  42.91200 16.38800 34.07800
C  42.32100 17.36600 35.01400
H  49.82400 19.06500 30.30800
H  48.28900 18.07400 23.97700
H  43.17800 14.89600 25.75300
H  45.95600 17.95200 33.13800
H  48.79900 17.97500 32.62800
H  48.42900 20.16700 33.04000
H  46.68500 20.01600 33.04500
H  47.47900 20.20600 31.46200
H  48.20200 16.11400 33.48300
H  46.73200 15.25400 32.97000
H  47.48200 15.77800 35.46600
H  45.72300 15.70500 35.01700
H  51.03100 20.77700 28.68300
H  52.24600 19.96100 27.57900
H  51.90500 19.25600 29.06100
H  51.61200 21.43100 25.30800
H  52.25700 20.62700 23.88700
H  52.59600 19.97600 25.50600
H  46.87500 16.18600 22.81100
H  44.11600 15.94100 23.53500
H  44.58900 17.83400 22.53900
H  46.15200 17.83100 21.63900
H  46.04600 18.81900 23.09400
H  45.88600 14.17200 22.69500
H  44.33500 13.66500 23.38700
H  47.02700 13.24400 24.58000
H  45.62800 12.08400 24.27000
H  45.57300 13.20700 25.55200
H  40.60200 14.79900 27.94500
H  41.41400 13.45600 28.81800
H  41.66200 13.66200 27.14900
H  44.23000 14.95400 32.73800
H  41.25000 17.40100 34.81300
H  42.73000 18.36800 34.88400
H  42.65000 16.94600 35.96400
Mg 47.14400 34.59900 27.19300
C  45.54000 32.84100 29.87000
C  47.75300 37.09000 29.27600
C  47.87100 36.45500 24.52300
C  46.23500 31.84200 25.03300
N  46.71200 34.85300 29.35400
C  46.19800 34.01100 30.31900
C  46.51600 34.53100 31.72000
C  46.88100 36.04600 31.46500
C  47.12200 36.01400 29.92900
C  45.80700 37.05700 31.91700
C  47.67000 33.73000 32.40300
C  47.81700 33.90600 34.00300
H  46.82700 34.91000 34.63100
N  47.75200 36.56400 26.93700
C  48.04600 37.39700 27.94500
C  48.57600 38.60100 27.45800
C  48.67100 38.47200 26.04100
C  48.10800 37.13900 25.74700
C  48.83300 39.87600 28.31100
C  49.25300 39.43600 25.01700
O  49.33300 39.12800 23.83800
C  49.97800 40.76600 25.36200
N  47.10800 34.10400 25.13300
C  47.40200 35.12700 24.22800
C  47.18400 34.67700 22.85300
C  47.05100 33.18600 22.98000
C  46.70800 33.01600 24.47900
C  45.91000 35.30700 22.28500
C  48.36800 32.35900 22.72200
C  48.32700 30.97400 22.02900
N  46.16300 32.64000 27.36400
C  45.84700 31.69000 26.42300
C  45.21600 30.55000 27.03800
C  45.00800 31.00900 28.41100
C  45.61600 32.27800 28.53800
C  44.79100 29.29600 26.40200
C  44.49200 30.62100 29.67600
O  43.86800 29.62300 29.96000
C  44.68800 31.89700 30.60900
C  45.00100 31.55600 31.98300
O  45.89700 30.75500 32.34900
O  44.00500 32.16000 32.76900
C  44.16400 31.86600 34.22200
H  48.08400 37.84200 29.99600
H  48.10300 37.10000 23.67300
H  45.85400 31.00900 24.43800
H  45.56700 34.40100 32.24100
H  47.79500 36.40500 31.93800
H  44.82900 36.62700 32.13400
H  45.58300 37.69500 31.06100
H  46.18500 37.71000 32.70300
H  48.61100 33.96400 31.90600
H  47.60900 32.67900 32.12200
H  48.82800 34.13500 34.34100
H  47.42400 32.95000 34.34900
H  49.89100 39.97400 28.55000
H  48.36100 39.82900 29.29200
H  48.56400 40.82900 27.85400
H  49.38300 41.56600 25.80200
H  50.44200 41.08100 24.42700
H  50.83300 40.51500 25.99000
H  48.06800 34.89600 22.25300
H  46.19300 32.72600 22.49000
H  45.03600 34.65900 22.35900
H  46.12400 35.55500 21.24600
H  45.75200 36.21600 22.86600
H  48.92700 32.16000 23.63700
H  49.02900 32.88800 22.03600
H  48.88900 30.23600 22.60200
H  48.73200 31.07100 21.02200
H  47.27800 30.69400 21.92600
H  44.82900 29.34500 25.31300
H  43.73700 29.16900 26.64700
H  45.49700 28.59400 26.84700
H  43.66700 32.27800 30.58000
H  44.19300 30.80200 34.45900
H  43.26000 32.16400 34.75400
H  45.08400 32.15200 34.73100

