158

Mg 46.51100 25.44900 28.14200
C  47.38100 27.88100 30.76700
C  45.11300 23.53600 30.66700
C  46.25100 23.08200 25.84800
C  48.21400 27.56700 25.84600
N  46.35100 25.74000 30.40700
C  46.70600 26.75500 31.26600
C  46.13800 26.56700 32.70800
C  45.65400 25.10900 32.69700
C  45.65600 24.74300 31.15700
C  46.49000 24.07700 33.56900
C  45.00900 27.56900 33.10200
C  45.29400 28.54400 34.23400
H  44.14000 28.83000 35.16100
N  45.65100 23.60000 28.23100
C  45.14300 22.95400 29.34300
C  44.60400 21.68600 28.95400
C  44.99400 21.51400 27.57900
C  45.70400 22.75900 27.13800
C  43.90300 20.74300 29.91600
C  44.73100 20.38200 26.67700
O  45.09100 20.47300 25.51000
C  44.11200 19.12100 27.11700
N  47.01800 25.40900 26.11200
C  46.81500 24.29600 25.32600
C  47.32200 24.47600 23.92200
C  47.81500 25.95200 23.91400
C  47.71700 26.29600 25.34900
C  48.40100 23.52100 23.36400
C  47.13800 26.91000 22.92400
C  45.82300 27.65200 23.42900
N  47.52200 27.40900 28.20500
C  48.15500 28.08300 27.15100
C  48.77400 29.24900 27.76200
C  48.39100 29.25000 29.13100
C  47.75800 28.05200 29.38700
C  49.60200 30.18800 26.98900
C  48.53300 30.00100 30.32500
O  48.95600 31.11200 30.57800
C  47.89500 29.06900 31.47400
C  48.86800 28.75200 32.54300
O  49.62500 27.74500 32.61200
O  48.82900 29.76500 33.46800
C  49.16500 29.30000 34.80600
H  44.65600 22.92400 31.44700
H  46.17800 22.44600 24.96400
H  48.88500 28.11600 25.18200
H  46.99300 26.60700 33.38200
H  44.59900 25.02500 32.95500
H  46.83700 23.29100 32.89800
H  45.79800 23.60200 34.26500
H  47.26700 24.36500 34.27800
H  44.16500 26.97300 33.44900
H  44.62700 28.05600 32.20400
H  45.45600 29.49500 33.72800
H  46.21400 28.35000 34.78500
H  43.15300 20.21200 29.33000
H  43.47600 21.22100 30.79700
H  44.78500 20.19000 30.24100
H  44.66400 18.78900 27.99700
H  44.25700 18.37900 26.33200
H  43.07600 19.24600 27.43000
H  46.42600 24.38600 23.30800
H  48.87100 25.95600 23.64400
H  48.77500 22.94600 24.21200
H  49.21600 23.94900 22.78000
H  47.94200 22.88800 22.60400
H  46.83300 26.56100 21.93700
H  47.85300 27.70100 22.69600
H  45.92400 28.72900 23.55900
H  45.60700 27.22400 24.40800
H  45.00700 27.46400 22.73100
H  49.59500 31.13900 27.52100
H  48.97800 30.36300 26.11300
H  50.63400 29.86300 26.85000
H  47.09500 29.68100 31.89000
H  50.17100 28.88200 34.78900
H  48.46400 28.52800 35.12600
H  49.11100 30.21300 35.39900
Mg -11.78500 17.13900 42.23400
C  -8.62100 15.51200 41.90600
C  -10.18300 19.96200 40.73300
C  -14.79100 18.58500 41.95600
C  -13.20000 14.12200 43.09900
N  -9.64100 17.65000 41.36000
C  -8.53800 16.79600 41.34800
C  -7.29300 17.58700 40.86700
C  -7.82200 18.96400 40.60400
C  -9.26400 18.87100 40.99900
C  -7.04700 20.12400 41.29800
C  -6.72200 16.85500 39.59800
C  -5.28500 16.27400 39.75700
H  -4.78800 15.05000 38.88000
N  -12.37000 19.11400 41.53400
C  -11.58000 20.00800 40.93600
C  -12.45800 21.08700 40.56000
C  -13.76900 20.78400 41.06900
C  -13.68500 19.42700 41.56600
C  -11.91600 22.30300 39.87700
C  -14.90400 21.83800 41.09500
O  -14.77900 22.94100 40.57900
C  -16.19300 21.61700 41.89500
N  -13.69000 16.40100 42.19000
C  -14.83200 17.15900 42.13000
C  -16.13400 16.43400 42.48900
C  -15.51200 15.02900 42.90800
C  -14.05700 15.12800 42.59700
C  -16.84100 17.11900 43.78600
C  -16.13800 13.85500 42.24700
C  -16.45700 12.62000 43.12600
N  -11.18300 15.15200 42.46000
C  -11.79800 14.11100 43.02400
C  -10.84700 13.00100 43.27200
C  -9.59800 13.56600 42.80100
C  -9.85800 14.87000 42.36700
C  -11.25100 11.64900 43.76400
C  -8.25300 13.28100 42.60900
O  -7.60200 12.23600 42.75700
C  -7.52000 14.46200 41.97600
C  -6.40400 14.94300 42.82400
O  -6.43100 15.81900 43.65100
O  -5.29800 14.19100 42.58300
C  -4.02400 14.64800 43.19400
H  -9.73200 20.85100 40.28800
H  -15.76400 19.07200 41.85900
H  -13.63100 13.27200 43.63100
H  -6.53000 17.62000 41.64500
H  -7.70400 19.23800 39.55500
H  -6.40000 20.62200 40.57600
H  -6.46300 19.66600 42.09600
H  -7.69300 20.83000 41.82000
H  -6.60600 17.54100 38.75900
H  -7.36300 16.02000 39.31700
H  -5.05100 16.06000 40.80000
H  -4.64200 17.06000 39.36200
H  -12.65700 22.84700 39.29100
H  -11.19300 22.00000 39.12000
H  -11.53500 22.96400 40.65500
H  -16.63200 22.61500 41.92600
H  -16.05100 21.11400 42.85200
H  -16.77900 20.98400 41.23000
H  -16.70600 16.34400 41.56600
H  -15.61600 14.99700 43.99200
H  -16.81800 16.48100 44.66900
H  -17.85100 17.47200 43.58100
H  -16.22100 17.96100 44.09400
H  -15.49600 13.49000 41.44600
H  -17.14800 14.13100 41.94600
H  -15.54400 12.12700 43.46300
H  -17.12600 11.93800 42.60200
H  -17.00400 12.87800 44.03300
H  -10.86000 10.90000 43.07500
H  -12.32500 11.49800 43.87000
H  -10.73200 11.49000 44.70900
H  -7.14800 14.32100 40.96100
H  -3.96600 15.62900 43.66600
H  -3.32200 14.64100 42.36100
H  -3.70900 13.88200 43.90400

