158

Mg 50.26500 35.05400 26.65600
C  47.98000 33.77100 29.09500
C  50.07900 38.04300 28.19600
C  51.66200 36.47600 23.89100
C  49.94500 31.98300 24.75200
N  49.43800 35.72300 28.54700
C  48.46800 35.08800 29.35400
C  48.19100 35.90200 30.65500
C  48.71200 37.33200 30.22400
C  49.46100 37.03500 28.90600
C  47.48300 38.34300 30.10800
C  49.00700 35.24000 31.79300
C  48.28000 34.96100 33.17000
H  47.99400 36.18700 34.06400
N  51.10200 36.98700 26.24600
C  50.90100 38.06000 27.03200
C  51.58700 39.16800 26.37900
C  52.09400 38.66200 25.08800
C  51.60300 37.28100 25.04900
C  51.91200 40.45900 27.13600
C  53.09400 39.27700 24.06500
O  53.58100 38.56000 23.15000
C  53.60500 40.67700 24.11000
N  50.69100 34.29700 24.63400
C  51.32100 35.14200 23.73800
C  51.77500 34.40300 22.39300
C  51.50800 32.92700 22.77300
C  50.65000 32.98900 24.12800
C  50.92800 34.93800 21.19100
C  52.67400 31.90000 22.86500
C  54.11800 32.38500 23.29400
N  49.26500 33.22800 26.86300
C  49.19100 32.07200 26.00800
C  48.29600 31.19700 26.59300
C  47.73800 31.83800 27.72400
C  48.43500 33.02400 27.92500
C  47.81700 29.88200 26.02000
C  46.83700 31.69000 28.76800
O  46.18000 30.70300 29.08800
C  46.98100 32.95500 29.77200
C  47.28700 32.41200 31.12300
O  48.39100 31.86300 31.41400
O  46.25400 32.47600 32.00600
C  46.48100 31.84600 33.27200
H  49.89100 39.00600 28.67500
H  52.07600 36.81900 22.94100
H  49.87700 31.07800 24.14500
H  47.13500 35.90100 30.92600
H  49.42100 37.76000 30.93300
H  47.66600 38.54100 29.05100
H  47.58900 39.24500 30.71100
H  46.49400 37.93500 30.31300
H  49.75000 35.98500 32.07600
H  49.48100 34.34500 31.38900
H  48.96800 34.26400 33.64700
H  47.34500 34.48700 32.86900
H  51.31500 40.52600 28.04500
H  51.69200 41.34700 26.54200
H  52.97200 40.23000 27.24500
H  54.15300 40.85500 25.03500
H  52.82900 41.44200 24.12000
H  54.33000 40.76100 23.30100
H  52.78100 34.70700 22.10400
H  50.87300 32.52400 21.98300
H  50.25200 34.14300 20.87600
H  51.49200 35.33700 20.34800
H  50.17800 35.58300 21.64900
H  52.71000 31.36500 21.91600
H  52.46900 31.15700 23.63500
H  54.20600 33.47100 23.27600
H  54.84100 31.84100 22.68700
H  54.29100 32.06300 24.32100
H  48.14900 29.11100 26.71500
H  48.26900 29.66600 25.05200
H  46.73600 29.84000 25.88200
H  46.05300 33.52000 29.86600
H  45.50200 31.63400 33.70100
H  47.07300 32.59400 33.79900
H  47.09100 30.95200 33.14100
Mg -2.04500 34.68900 27.50700
C  -3.72900 33.20800 30.22900
C  -0.72500 36.96600 29.71100
C  -0.80100 36.29700 24.98200
C  -3.80100 32.54400 25.38600
N  -2.38300 35.15300 29.67400
C  -2.89800 34.25600 30.58500
C  -2.71800 34.73300 32.06300
C  -1.89100 36.08400 31.94300
C  -1.63600 36.10700 30.35300
C  -2.65300 37.43500 32.48000
C  -1.99000 33.70500 33.00000
C  -1.42900 34.28200 34.37000
H  -1.59700 33.46400 35.56300
N  -0.94100 36.37000 27.40100
C  -0.41800 37.16900 28.39300
C  0.42500 38.25200 27.81600
C  0.34000 38.03600 26.38200
C  -0.55100 36.83600 26.19300
C  1.01400 39.40100 28.69900
C  1.00300 38.91000 25.24400
O  0.97200 38.70600 24.05600
C  1.77400 40.15800 25.55600
N  -2.30100 34.47300 25.43500
C  -1.57500 35.18300 24.59500
C  -1.76000 34.71400 23.14800
C  -2.67000 33.44600 23.30100
C  -2.83700 33.40800 24.81200
C  -2.21600 35.80400 22.18400
C  -1.87400 32.07800 22.89600
C  -2.67200 30.97600 22.28400
N  -3.54000 33.20300 27.74500
C  -4.15600 32.42700 26.77100
C  -5.03600 31.46100 27.36400
C  -4.90300 31.71200 28.77900
C  -4.03500 32.81000 28.87300
C  -5.81000 30.48400 26.72700
C  -5.29800 31.28000 30.06300
O  -5.98500 30.34900 30.47200
C  -4.45400 32.18600 31.07200
C  -5.34900 32.71800 32.08500
O  -6.18300 33.57000 31.83700
O  -5.22000 32.01400 33.22100
C  -6.30100 32.00800 34.13000
H  -0.10000 37.58100 30.36300
H  -0.40200 36.88100 24.15100
H  -4.34200 31.86500 24.72400
H  -3.70200 34.79500 32.52700
H  -0.94400 36.05300 32.48200
H  -2.15200 37.71600 33.40600
H  -3.69600 37.22600 32.71700
H  -2.57000 38.26900 31.78300
H  -1.11700 33.30600 32.48300
H  -2.55300 32.79100 33.19100
H  -1.81700 35.24800 34.69400
H  -0.36300 34.47600 34.24900
H  2.06000 39.13300 28.84900
H  0.46800 39.36800 29.64200
H  0.89200 40.35700 28.19100
H  1.09500 40.86600 26.03100
H  2.13600 40.66800 24.66400
H  2.61600 39.85000 26.17600
H  -0.76100 34.39500 22.85300
H  -3.63700 33.55300 22.80800
H  -2.20900 36.79000 22.64900
H  -3.14900 35.56900 21.67000
H  -1.42000 35.81700 21.44000
H  -1.25400 31.69700 23.70700
H  -1.12000 32.25000 22.12800
H  -3.71600 31.28200 22.21300
H  -2.45700 30.10100 22.89800
H  -2.32000 30.70400 21.28900
H  -5.82300 29.60600 27.37300
H  -5.36300 30.24400 25.76300
H  -6.80900 30.81900 26.44700
H  -3.72900 31.54000 31.56700
H  -5.99400 32.63900 34.96400
H  -6.56100 31.01200 34.48900
H  -7.15600 32.51000 33.67700

