158

Mg 25.89600 1.06900 29.71100
C  27.70600 0.76000 32.59400
C  23.15500 1.93200 31.56800
C  24.09300 1.46900 26.84500
C  28.56000 0.12500 27.85200
N  25.46900 1.38600 31.78400
C  26.37400 1.15600 32.79900
C  25.83500 1.47700 34.14500
C  24.27700 1.49500 33.87800
C  24.27900 1.65500 32.32300
C  23.40400 0.32000 34.40300
C  26.39900 2.82700 34.76200
C  27.28600 2.58600 36.08300
H  26.83200 3.27200 37.35800
N  23.89100 1.56100 29.27500
C  22.96400 1.91000 30.18700
C  21.69500 2.13300 29.50300
C  21.89500 1.91200 28.05100
C  23.31100 1.56300 27.99800
C  20.38900 2.54700 30.10700
C  20.99700 2.16800 26.81700
O  21.27900 1.99100 25.62900
C  19.56600 2.77200 27.05500
N  26.21800 0.60500 27.62600
C  25.44100 1.03800 26.64400
C  26.18800 1.23300 25.24900
C  27.59400 0.67500 25.59600
C  27.45800 0.44100 27.12000
C  25.49700 0.62000 24.04600
C  28.78900 1.55100 25.27300
C  28.80900 2.95500 26.05300
N  27.82400 0.34800 30.10100
C  28.79500 0.03800 29.18500
C  29.98400 -0.22600 30.02900
C  29.63700 0.08200 31.38200
C  28.27600 0.43600 31.34000
C  31.33900 -0.60600 29.65300
C  30.08100 0.12200 32.76600
O  31.16100 -0.09400 33.26400
C  28.79200 0.68500 33.60000
C  28.69800 -0.34700 34.62900
O  28.07200 -1.33800 34.44900
O  29.29300 0.08900 35.77400
C  29.04200 -0.77400 36.98400
H  22.33400 2.25000 32.21300
H  23.58400 1.81400 25.94300
H  29.50800 -0.05400 27.33900
H  26.08900 0.68100 34.84500
H  23.69100 2.38400 34.10700
H  23.16500 -0.35300 33.57900
H  22.44300 0.60900 34.82700
H  23.83300 -0.27100 35.21200
H  25.51500 3.43400 34.95700
H  26.98500 3.44800 34.08500
H  28.29700 2.77300 35.72200
H  27.35100 1.54800 36.41000
H  20.59900 2.57000 31.17700
H  19.57700 1.86600 29.85300
H  20.17300 3.56700 29.79100
H  19.05900 3.04700 26.13000
H  19.67800 3.79100 27.42600
H  18.93400 2.23900 27.76600
H  26.29500 2.26000 24.89900
H  27.75700 -0.28600 25.10800
H  26.19100 -0.08300 23.58400
H  25.11900 1.36700 23.34900
H  24.78100 -0.17100 24.27100
H  28.87700 1.83600 24.22500
H  29.77400 1.09600 25.38600
H  28.28700 2.81700 26.99900
H  28.32500 3.70000 25.42200
H  29.80800 3.32500 26.28100
H  31.19200 -1.40700 28.92800
H  31.91800 -1.06000 30.45700
H  31.85500 0.23300 29.18700
H  29.15700 1.63800 33.98400
H  29.05100 -1.82200 36.68700
H  28.17100 -0.46400 37.56100
H  29.88600 -0.59100 37.64900
Mg 30.89000 58.12000 40.23200
C  28.16400 55.99400 39.28200
C  33.02600 55.60700 39.55700
C  33.29400 60.38400 40.13100
C  28.40100 60.71800 40.50700
N  30.64600 56.16800 39.35400
C  29.45800 55.44400 39.12500
C  29.77800 54.01100 38.78400
C  31.17100 53.86100 39.38300
C  31.69200 55.26300 39.45500
C  31.25200 53.19300 40.78900
C  29.76700 53.77200 37.24700
C  28.93600 52.59400 36.75500
H  27.93000 52.94400 35.56200
N  32.95900 58.02200 39.96000
C  33.60000 56.90100 39.71900
C  35.03000 57.19100 39.54900
C  35.07100 58.61200 39.61100
C  33.72100 59.06400 39.94400
C  36.08400 56.13700 39.39200
C  36.35200 59.42300 39.23000
O  37.32100 58.82000 38.92900
C  36.28600 60.92500 39.03600
N  30.80800 60.20100 40.45800
C  31.98900 60.87000 40.46700
C  31.78100 62.42400 40.67100
C  30.18900 62.49200 40.91300
C  29.74800 61.06400 40.63700
C  32.67800 63.19600 41.60800
C  29.55000 63.61600 40.02500
C  28.30000 64.34300 40.59100
N  28.71300 58.36600 39.91300
C  27.85600 59.48600 40.07400
C  26.50900 59.10400 39.68800
C  26.55000 57.73800 39.39200
C  27.89800 57.34000 39.50000
C  25.33700 59.96000 39.76500
C  25.78100 56.54600 39.05700
O  24.56100 56.39900 38.84600
C  26.84300 55.39400 39.09900
C  26.43600 54.45000 40.23700
O  27.01900 54.30400 41.31900
O  25.31800 53.73900 39.83000
C  24.68500 52.79500 40.78100
H  33.60900 54.69200 39.43300
H  33.94400 61.26200 40.16100
H  27.73900 61.56700 40.69000
H  29.10100 53.34300 39.31600
H  31.81400 53.33300 38.67800
H  31.63300 53.94200 41.48200
H  31.78100 52.24200 40.72400
H  30.23700 53.09100 41.17400
H  30.72000 53.51500 36.78300
H  29.32500 54.63400 36.74800
H  28.31000 52.31200 37.60200
H  29.51100 51.73700 36.40300
H  36.22000 55.90600 38.33500
H  35.93200 55.20200 39.93100
H  36.99900 56.52400 39.84100
H  35.66600 61.25800 38.20400
H  37.32400 61.19900 38.84900
H  36.13800 61.50800 39.94500
H  32.03800 62.91700 39.73300
H  29.85800 62.61500 41.94400
H  32.10800 63.53000 42.47600
H  32.98700 64.11700 41.11400
H  33.53800 62.60500 41.92500
H  29.15900 63.13400 39.12900
H  30.29500 64.40100 39.89800
H  28.48200 65.41000 40.46200
H  28.01400 63.97100 41.57500
H  27.41200 64.14200 39.99200
H  24.54300 59.46500 39.20500
H  25.68700 60.94100 39.44100
H  25.00200 60.11000 40.79100
H  26.59300 54.91700 38.15200
H  24.43800 51.87300 40.25500
H  23.80800 53.14500 41.32400
H  25.43800 52.50300 41.51300

