158

Mg 49.04800 46.48900 42.43100
C  45.83000 47.03900 41.21900
C  49.22300 43.59600 40.51900
C  52.43600 46.18200 43.15400
C  49.14400 49.71300 43.57000
N  47.63900 45.44800 41.05000
C  46.37000 45.85800 40.66900
C  45.81000 45.09600 39.53100
C  46.86300 43.84700 39.50000
C  48.05100 44.33200 40.37100
C  46.22000 42.47300 39.88000
C  45.77900 45.91400 38.17100
C  44.45100 45.70500 37.27100
H  44.71300 44.70700 36.18100
N  50.59700 44.94800 42.06500
C  50.44300 43.85700 41.26400
C  51.62000 43.04500 41.36300
C  52.59000 43.75300 42.14800
C  51.91600 45.07300 42.47100
C  51.71900 41.63900 40.72900
C  54.00200 43.22600 42.64600
O  54.42900 42.16400 42.27100
C  54.86600 43.98600 43.68300
N  50.58200 47.81700 43.21800
C  51.87000 47.42900 43.50600
C  52.66100 48.62100 44.04600
C  51.58800 49.80800 44.07900
C  50.35600 49.06000 43.57400
C  53.40400 48.52700 45.32500
C  51.98700 51.10000 43.20100
C  52.36200 52.37400 43.93700
N  47.66500 48.03700 42.62000
C  47.88300 49.32400 43.03900
C  46.67000 50.08000 43.01000
C  45.79500 49.23300 42.23600
C  46.47700 48.04000 42.07200
C  46.42000 51.42900 43.54100
C  44.54000 49.14100 41.61000
O  43.60400 49.88100 41.70500
C  44.53200 47.75000 40.81000
C  43.28600 47.00700 41.04900
O  42.35100 46.98000 40.28500
O  43.19000 46.43900 42.23000
C  41.93100 45.73000 42.54800
H  49.30200 42.67000 39.94600
H  53.51000 46.17800 43.35200
H  49.21700 50.74200 43.92800
H  44.79200 44.77700 39.75500
H  47.27500 43.63800 38.51200
H  45.14400 42.46100 39.70400
H  46.32100 42.28000 40.94800
H  46.67200 41.58800 39.43200
H  46.69200 45.64900 37.63800
H  45.99300 46.95400 38.41700
H  44.10800 46.63800 36.82400
H  43.67900 45.24800 37.88900
H  51.07400 40.91100 41.22100
H  52.73400 41.26000 40.60300
H  51.34500 41.61700 39.70500
H  55.47600 43.24800 44.20300
H  54.16600 44.29600 44.45900
H  55.48400 44.76900 43.24200
H  53.41200 48.70400 43.26000
H  51.20900 49.98000 45.08700
H  54.10600 47.69400 45.28900
H  52.66500 48.38800 46.11500
H  53.91600 49.46600 45.53100
H  51.17500 51.35900 42.52200
H  52.82900 50.92600 42.53200
H  52.88000 53.07700 43.28600
H  52.98200 52.27400 44.82800
H  51.41600 52.89900 44.07300
H  46.77800 52.16200 42.81700
H  46.97300 51.57000 44.46900
H  45.35200 51.47100 43.75200
H  44.53500 47.90200 39.73100
H  41.15300 46.49100 42.60800
H  41.84300 45.28000 43.53700
H  41.76000 44.96600 41.79000
Mg 10.20100 48.68300 26.44800
C  8.34900 48.44000 29.43200
C  12.77300 50.12500 28.21800
C  11.84900 48.66600 23.51000
C  7.20200 47.66400 24.65900
N  10.48200 49.28500 28.56800
C  9.67200 48.91900 29.61700
C  10.28000 49.42700 30.95300
C  11.53200 50.28200 30.54100
C  11.60800 49.93600 29.03500
C  11.37800 51.84700 30.90100
C  10.62900 48.21200 31.91600
C  9.78500 48.12500 33.22900
H  10.21600 49.01200 34.47600
N  12.15400 49.34100 25.99100
C  13.03400 49.84900 26.84100
C  14.20100 50.09900 26.04600
C  14.04600 49.53700 24.70900
C  12.64600 49.12600 24.69900
C  15.43200 50.80400 26.59400
C  14.93800 49.47700 23.43200
O  14.58400 49.05200 22.33800
C  16.33300 49.94600 23.51500
N  9.49800 48.36400 24.30400
C  10.47200 48.38100 23.35700
C  9.87500 47.93600 21.99000
C  8.51400 47.37900 22.45700
C  8.35900 47.83300 23.83900
C  9.82800 49.01200 20.86700
C  8.42900 45.90100 22.25100
C  9.53000 45.09700 23.03400
N  8.21700 48.27400 26.89200
C  7.12000 47.89100 26.08700
C  5.99700 47.60400 26.89500
C  6.42000 47.81100 28.18000
C  7.76300 48.16700 28.15400
C  4.62600 47.21400 26.45600
C  5.96600 47.78500 29.53100
O  4.81300 47.46700 29.93700
C  7.22800 48.19700 30.46200
C  7.51100 47.01200 31.33700
O  8.17500 46.05300 31.04000
O  6.78400 47.11000 32.51500
C  6.95100 46.05300 33.54400
H  13.67800 50.50600 28.69700
H  12.26000 48.55300 22.50500
H  6.35700 47.14700 24.20000
H  9.54100 50.07900 31.41900
H  12.42300 49.82400 30.97000
H  11.42500 52.46200 30.00200
H  12.30300 52.09600 31.42100
H  10.63400 52.15000 31.63800
H  11.68300 48.27900 32.18900
H  10.47000 47.28200 31.37100
H  9.75900 47.07100 33.50400
H  8.75600 48.40500 33.00500
H  16.26500 50.10100 26.57900
H  15.33500 51.10200 27.63800
H  15.67700 51.71900 26.05500
H  16.70200 50.05100 24.53500
H  16.28800 50.88200 22.95800
H  16.88700 49.13200 23.04800
H  10.52400 47.15800 21.58800
H  7.67700 47.79200 21.89400
H  8.88500 49.54500 20.74400
H  10.14700 48.60700 19.90700
H  10.66900 49.68600 21.03300
H  8.50800 45.70500 21.18200
H  7.47000 45.50100 22.57800
H  10.19100 45.64300 23.70700
H  10.04300 44.47000 22.30400
H  8.97900 44.52200 23.77800
H  3.89400 47.38800 27.24400
H  4.63900 46.16300 26.16700
H  4.32400 47.80900 25.59400
H  7.13100 49.10100 31.06300
H  7.70700 45.28400 33.38800
H  6.06800 45.46200 33.29800
H  6.92700 46.43800 34.56300

