158

Mg -2.20800 17.48400 26.57900
C  -2.65300 14.78100 28.83800
C  -3.16200 19.62200 28.97000
C  -2.62500 19.85100 24.04900
C  -2.06400 15.08900 23.91200
N  -2.93300 17.16200 28.74100
C  -2.91900 16.02300 29.47900
C  -3.19000 16.33100 30.97800
C  -3.48200 17.90000 30.87100
C  -3.14400 18.29200 29.42900
C  -4.85200 18.24400 31.44400
C  -2.04200 15.93000 31.89700
C  -1.86400 16.72900 33.20400
H  -1.48000 15.89600 34.48700
N  -2.64000 19.48000 26.56700
C  -2.97100 20.20000 27.70000
C  -3.35700 21.47800 27.31300
C  -3.24900 21.65200 25.87300
C  -2.81500 20.28400 25.40600
C  -3.90200 22.56300 28.23700
C  -3.42700 22.77500 24.84100
O  -3.35200 22.75500 23.62300
C  -3.92300 24.01500 25.46800
N  -2.28700 17.46900 24.31000
C  -2.39600 18.57600 23.57800
C  -2.16800 18.30400 22.08700
C  -1.70100 16.79700 22.07500
C  -2.03400 16.40800 23.47900
C  -3.48000 18.54100 21.20500
C  -0.22100 16.62000 21.70100
C  0.05000 16.00400 20.37000
N  -2.34600 15.43800 26.39300
C  -2.18300 14.62200 25.26600
C  -2.23700 13.19300 25.65800
C  -2.35000 13.20100 27.09300
C  -2.45500 14.60200 27.44600
C  -2.33000 12.02100 24.72400
C  -2.55900 12.29000 28.23500
O  -2.63300 11.06800 28.34200
C  -2.80900 13.35500 29.40100
C  -2.05000 12.80700 30.50400
O  -0.77700 12.80900 30.65100
O  -2.84200 12.10400 31.38200
C  -2.22800 11.54400 32.62600
H  -3.22200 20.35000 29.78200
H  -2.89700 20.50400 23.21600
H  -2.00300 14.29600 23.16300
H  -4.07600 15.79300 31.31500
H  -2.75100 18.43600 31.47700
H  -5.54600 17.40700 31.36900
H  -5.31100 19.07800 30.91200
H  -4.90400 18.57600 32.48100
H  -1.13100 16.09500 31.32100
H  -2.08900 14.87400 32.16300
H  -2.78900 17.24200 33.46500
H  -0.96000 17.33900 33.19800
H  -3.37600 23.50700 28.09800
H  -3.79700 22.24200 29.27300
H  -4.96500 22.76800 28.11200
H  -4.74200 23.66400 26.09600
H  -4.40100 24.66700 24.73700
H  -3.22000 24.60000 26.06200
H  -1.39300 18.98900 21.74200
H  -2.38300 16.27000 21.40700
H  -3.24400 19.20200 20.37100
H  -4.14100 19.26300 21.68500
H  -3.90600 17.62000 20.80700
H  0.21100 15.95800 22.45200
H  0.35000 17.54800 21.73700
H  0.90600 16.45700 19.86800
H  -0.81800 15.93100 19.71500
H  0.41700 14.98000 20.43200
H  -3.26800 11.96900 24.17100
H  -2.35500 11.09900 25.30300
H  -1.54300 11.96400 23.97200
H  -3.86400 13.32700 29.67600
H  -1.64200 12.29400 33.15800
H  -1.49200 10.78300 32.36900
H  -2.95800 11.07600 33.28700
Mg 41.17000 9.06500 29.66000
C  43.09300 10.24600 32.31700
C  39.02600 7.69000 31.92900
C  39.55200 7.56300 27.15700
C  43.68700 10.02700 27.45800
N  41.10700 8.94200 31.92300
C  41.85600 9.72300 32.75100
C  41.34600 9.73500 34.24800
C  40.13100 8.83200 34.02200
C  40.01800 8.49400 32.57000
C  39.98900 7.68400 34.98800
C  41.20100 11.18100 34.80900
C  42.09200 11.43300 36.10400
H  41.35500 12.01700 37.34400
N  39.56500 7.77600 29.55300
C  38.85500 7.33700 30.60700
C  37.72700 6.54600 30.11900
C  37.77600 6.60600 28.70400
C  39.04500 7.26300 28.40000
C  36.68100 5.85000 31.00700
C  36.78600 6.21900 27.68000
O  36.98600 6.31000 26.49000
C  35.45000 5.66100 28.09400
N  41.60700 8.79000 27.62200
C  40.68700 8.31700 26.77600
C  41.14600 8.46900 25.27600
C  42.35100 9.47300 25.40100
C  42.56200 9.42200 26.92200
C  41.56600 7.07800 24.76600
C  42.20200 10.99200 24.94100
C  40.86500 11.74600 25.07700
N  43.04800 9.85500 29.80800
C  43.97100 10.16800 28.82300
C  45.07900 10.75200 29.44300
C  44.79500 10.92000 30.82400
C  43.51400 10.28700 30.95300
C  46.30900 11.40800 28.81800
C  45.26700 11.44300 32.08600
O  46.28300 12.10900 32.36100
C  44.17800 10.92900 33.10000
C  44.78700 10.00400 34.08700
O  44.98600 8.79900 34.00500
O  45.06000 10.72300 35.26300
C  45.57200 9.93900 36.37000
H  38.23100 7.49800 32.65300
H  39.16700 6.87800 26.39900
H  44.42800 10.43300 26.76700
H  42.07900 9.15000 34.80300
H  39.26900 9.47700 34.19400
H  40.23400 6.76100 34.46300
H  38.96300 7.47600 35.29200
H  40.59600 7.80800 35.88400
H  40.15200 11.23400 35.10000
H  41.39300 11.98900 34.10200
H  42.83400 12.14300 35.73800
H  42.59000 10.50900 36.39800
H  36.86600 4.82200 30.69800
H  35.65500 6.19000 30.86400
H  36.82800 5.99900 32.07700
H  35.71200 4.67500 28.48000
H  34.76800 5.54200 27.25200
H  34.95400 6.35800 28.77000
H  40.28200 8.77500 24.68700
H  43.21300 8.97700 24.95500
H  41.00200 6.82700 23.86800
H  41.27500 6.32400 25.49800
H  42.61500 6.91600 24.51700
H  42.43300 11.12700 23.88400
H  43.02500 11.64700 25.22800
H  40.27600 11.08600 25.71400
H  40.47300 11.84700 24.06500
H  41.08400 12.72500 25.50400
H  46.47100 11.08700 27.79000
H  47.19600 11.18000 29.40900
H  46.19800 12.48900 28.91000
H  43.78500 11.80500 33.61600
H  46.62400 9.77900 36.13400
H  44.98900 9.10300 36.75600
H  45.44100 10.50400 37.29200

