158

Mg 35.18600 2.36500 29.91900
C  32.64200 2.94700 32.10500
C  37.44100 2.24900 32.54800
C  37.52400 1.50000 27.67400
C  32.69500 2.07600 27.29500
N  35.08300 2.65800 32.10500
C  33.88900 2.86400 32.73400
C  34.17500 3.18400 34.24800
C  35.75700 2.90600 34.41700
C  36.11000 2.56700 32.97400
C  36.70200 4.11500 34.90900
C  33.25900 2.29000 35.14900
C  33.70800 2.03900 36.62200
H  33.94800 3.25100 37.55500
N  37.16700 2.07800 30.00600
C  37.92200 1.99200 31.18100
C  39.23900 1.61100 30.91200
C  39.30300 1.24700 29.48800
C  37.95300 1.55700 28.97900
C  40.33300 1.56800 31.93000
C  40.45100 0.76100 28.67700
O  40.30500 0.35700 27.51100
C  41.82900 0.74300 29.27200
N  35.05000 1.71700 27.80600
C  36.21400 1.59600 27.10300
C  36.04800 1.50800 25.60300
C  34.48300 1.35100 25.53000
C  33.98700 1.62200 26.98300
C  36.69900 2.64800 24.67400
C  33.84300 -0.00800 25.01800
C  32.46900 0.15400 24.36200
N  33.15400 2.50400 29.71100
C  32.26700 2.39800 28.62600
C  30.87900 2.71700 29.03800
C  30.99500 2.91900 30.41100
C  32.39000 2.76600 30.73300
C  29.68500 2.75200 28.05800
C  30.27000 3.34200 31.58900
O  29.07800 3.63000 31.74800
C  31.31600 3.19800 32.77900
C  31.29500 4.55800 33.48000
O  31.79500 5.58200 33.03900
O  30.57200 4.45100 34.63500
C  30.57200 5.63800 35.46600
H  38.22200 2.20700 33.31100
H  38.23300 1.29800 26.86900
H  31.97500 1.96600 26.48200
H  33.93600 4.23500 34.41200
H  35.93500 1.89000 34.77000
H  37.30600 4.60900 34.14700
H  37.38400 3.74100 35.67300
H  36.07000 4.93400 35.25100
H  33.19900 1.36600 34.57400
H  32.26900 2.73200 35.25900
H  34.47300 1.26700 36.70000
H  32.84000 1.60900 37.12200
H  40.67100 0.54100 32.06400
H  40.14900 1.93400 32.94000
H  41.29200 1.95800 31.59000
H  42.53800 0.27500 28.58900
H  41.90900 0.15200 30.18400
H  42.10100 1.78900 29.41000
H  36.54000 0.56300 25.37200
H  34.10200 2.11200 24.85000
H  35.91500 3.35100 24.39200
H  37.18100 2.15000 23.83300
H  37.46900 3.21700 25.19400
H  33.70100 -0.73300 25.81900
H  34.48700 -0.56400 24.33700
H  31.66700 -0.28100 24.95900
H  32.47600 -0.27800 23.36200
H  32.23700 1.21500 24.26600
H  29.11100 3.67600 28.11600
H  28.92000 1.98800 28.19400
H  30.07700 2.66300 27.04400
H  30.94000 2.50600 33.53300
H  31.51400 5.66600 36.01400
H  29.78600 5.53400 36.21500
H  30.35400 6.56500 34.93700
Mg 48.21900 44.34500 43.03000
C  44.76200 44.04600 42.92800
C  48.45300 40.85700 42.75200
C  51.68800 44.58200 42.59000
C  47.97200 47.77000 42.60900
N  46.75200 42.63300 42.70800
C  45.34100 42.71500 42.86400
C  44.73400 41.33600 42.89100
C  45.98600 40.46000 42.59500
C  47.12300 41.34000 42.72000
C  46.19400 39.26600 43.62400
C  43.56900 41.12500 41.84900
C  43.69400 41.81100 40.50600
H  43.73300 40.94300 39.24700
N  49.83300 42.91900 42.78800
C  49.64200 41.56600 42.61200
C  50.89800 40.94700 42.42700
C  51.91100 41.88600 42.38400
C  51.14500 43.20800 42.64100
C  51.01000 39.47600 42.51000
C  53.40900 41.77700 42.20800
O  53.89400 40.63800 42.16600
C  54.35300 42.92200 41.92100
N  49.63900 45.87400 42.71600
C  50.97200 45.73500 42.61200
C  51.69500 47.11600 42.59800
C  50.49700 48.11300 42.74000
C  49.29400 47.22900 42.64200
C  52.76900 47.24700 43.66400
C  50.57000 49.39200 41.83200
C  50.41300 50.77900 42.60300
N  46.65200 45.68600 42.81900
C  46.73100 47.02000 42.72700
C  45.35300 47.47700 42.68600
C  44.54000 46.40400 42.86300
C  45.36300 45.29200 42.83800
C  44.98400 48.90300 42.43800
C  43.18000 45.94200 42.97300
O  42.10300 46.50600 42.94200
C  43.32000 44.34900 43.01200
C  42.72600 43.92400 44.37300
O  41.74700 43.22500 44.54800
O  43.36700 44.60000 45.38700
C  42.83700 44.45000 46.78300
H  48.61000 39.78000 42.66200
H  52.78000 44.57700 42.61500
H  47.78100 48.81500 42.35700
H  44.40700 41.28100 43.92900
H  45.90600 40.07000 41.58000
H  45.25200 38.81700 43.93900
H  46.85900 39.64400 44.40100
H  46.71500 38.54300 42.99600
H  42.66300 41.48800 42.33400
H  43.40800 40.06400 41.65700
H  44.59100 42.43000 40.49900
H  42.76200 42.37000 40.42700
H  50.76200 39.28000 43.55300
H  51.99400 39.04500 42.32400
H  50.41700 38.81700 41.87500
H  54.11600 43.50100 41.02900
H  55.27400 42.38400 41.69500
H  54.59100 43.55400 42.77700
H  52.26400 47.34700 41.69700
H  50.30900 48.54000 43.72500
H  52.36500 47.72800 44.55500
H  53.48100 47.94200 43.21800
H  53.37800 46.38700 43.94100
H  49.76800 49.35300 41.09500
H  51.51600 49.53700 41.31000
H  49.86300 50.68000 43.53900
H  49.95100 51.56200 42.00200
H  51.41800 51.13500 42.82900
H  45.60900 49.32900 41.65300
H  45.12300 49.43900 43.37700
H  43.90400 48.91900 42.29400
H  42.65400 43.84100 42.31600
H  42.23200 43.55500 46.92700
H  42.20000 45.26100 47.13600
H  43.55600 44.43200 47.60200

