158

Mg 41.44900 40.51400 26.13600
C  40.79700 43.15200 28.50000
C  42.59600 38.65400 28.73500
C  42.39200 38.24200 23.90200
C  41.05600 42.88400 23.59000
N  41.69000 41.00000 28.41900
C  41.12900 41.95600 29.09500
C  41.15500 41.65800 30.56600
C  42.01800 40.34600 30.67300
C  42.13300 39.93000 29.20500
C  43.39700 40.44800 31.39800
C  39.72400 41.81500 31.33400
C  39.55800 40.99900 32.66200
H  38.74600 41.68000 33.80200
N  42.25600 38.68900 26.35500
C  42.74600 38.09100 27.48300
C  43.20700 36.71600 27.17800
C  43.17200 36.56900 25.75000
C  42.52400 37.88500 25.28000
C  43.54800 35.75000 28.23800
C  43.75800 35.45100 24.96300
O  43.94400 35.59000 23.81700
C  44.26500 34.25400 25.60700
N  41.91400 40.66600 23.98600
C  42.16800 39.49200 23.34100
C  42.20800 39.75000 21.80000
C  41.56500 41.20500 21.68800
C  41.43300 41.58800 23.12900
C  43.63100 39.45200 21.15000
C  40.29800 41.36100 20.81300
C  38.96100 41.16600 21.53500
N  40.96100 42.56600 26.04600
C  40.91200 43.41200 24.90900
C  40.52900 44.71900 25.31100
C  40.51000 44.68700 26.73500
C  40.76600 43.34600 27.06600
C  40.13900 45.80800 24.34400
C  40.30600 45.47400 27.92900
O  39.95300 46.64700 28.00800
C  40.39800 44.53900 29.14000
C  41.25800 45.14500 30.17100
O  42.45200 45.26600 30.24000
O  40.45800 45.52600 31.22800
C  41.06700 46.33800 32.36100
H  42.89400 38.03000 29.58000
H  42.52600 37.38500 23.23900
H  41.05500 43.51500 22.69900
H  41.79700 42.36200 31.09600
H  41.38400 39.64300 31.21300
H  43.29500 40.27400 32.46900
H  43.69500 41.48300 31.23300
H  44.15800 39.90800 30.83400
H  39.01400 41.50600 30.56700
H  39.45900 42.85600 31.51500
H  40.50600 40.67600 33.09300
H  39.12100 40.04200 32.37600
H  43.14400 34.80300 27.88100
H  43.07400 35.98100 29.19200
H  44.63500 35.70400 28.29100
H  45.07800 34.60700 26.24100
H  44.49400 33.51500 24.84000
H  43.49300 33.73800 26.17800
H  41.41900 39.09500 21.43000
H  42.29500 41.93400 21.33700
H  44.13000 40.38200 20.87700
H  43.52300 38.79300 20.28900
H  44.21500 39.05400 21.98000
H  40.34600 40.66000 19.98000
H  40.44100 42.34700 20.37300
H  39.00300 40.79800 22.56000
H  38.36600 40.41500 21.01400
H  38.48300 42.14500 21.51500
H  40.85800 45.66500 23.53800
H  40.28800 46.87400 24.51800
H  39.15400 45.54400 23.95900
H  39.34100 44.52200 29.40600
H  41.34700 45.85000 33.29400
H  40.38100 47.11100 32.70800
H  41.92000 46.93400 32.03400
Mg -3.28200 35.01400 26.95300
C  -4.33600 32.86500 29.26500
C  -1.74000 36.85800 29.57600
C  -2.33700 37.45400 24.73800
C  -4.88400 33.38000 24.40600
N  -3.09600 34.85200 29.13600
C  -3.53800 33.82800 29.91200
C  -3.08300 33.93600 31.34100
C  -2.37500 35.29400 31.46500
C  -2.32200 35.66100 29.90400
C  -3.11900 36.33600 32.37700
C  -2.27500 32.64900 31.81400
C  -2.81700 31.88400 33.05800
H  -2.15900 31.92800 34.44100
N  -2.22700 36.87100 27.15000
C  -1.62800 37.43500 28.30200
C  -0.93900 38.69800 27.97700
C  -1.08800 38.88500 26.59200
C  -1.92900 37.72500 26.10000
C  -0.28900 39.61600 29.05000
C  -0.63400 40.03400 25.73000
O  -0.89000 40.07400 24.51700
C  0.15600 41.19700 26.34200
N  -3.78600 35.46900 24.92100
C  -3.16100 36.48500 24.20000
C  -3.70900 36.50800 22.75700
C  -4.29700 35.07300 22.58300
C  -4.33600 34.56600 24.05200
C  -4.66300 37.66900 22.57300
C  -3.59000 34.22000 21.54300
C  -2.24900 33.60200 21.83100
N  -4.51700 33.43100 26.85400
C  -5.05400 32.85600 25.73700
C  -5.68900 31.64700 26.19700
C  -5.56500 31.61200 27.56900
C  -4.81600 32.75100 27.97900
C  -6.26300 30.58700 25.28800
C  -5.80500 30.84100 28.82000
O  -6.30100 29.75200 29.11700
C  -5.04700 31.67100 29.89800
C  -5.99500 32.00900 30.95700
O  -6.70000 33.01800 30.86500
O  -5.94300 31.11700 32.03800
C  -7.00300 31.33000 33.00800
H  -1.05800 37.28000 30.31800
H  -1.98400 38.12400 23.95100
H  -5.39700 32.76700 23.66200
H  -3.97400 34.09800 31.94600
H  -1.32600 35.21800 31.75200
H  -3.84200 36.84200 31.73800
H  -2.40000 37.11800 32.62500
H  -3.63600 35.96800 33.26300
H  -1.28500 32.83000 32.23400
H  -2.17400 31.95000 30.98300
H  -3.08500 30.86000 32.80000
H  -3.82200 32.23000 33.30100
H  0.74800 39.79600 28.76300
H  -0.21000 39.15600 30.03500
H  -0.92300 40.50100 29.10600
H  0.41400 41.92000 25.56800
H  0.96700 40.62300 26.79200
H  -0.46900 41.66600 27.10100
H  -2.90300 36.65000 22.03700
H  -5.34900 35.13100 22.30500
H  -4.13900 38.36200 21.91600
H  -4.88300 38.29800 23.43500
H  -5.62200 37.43300 22.11300
H  -3.37900 34.73200 20.60400
H  -4.31300 33.45500 21.26100
H  -2.36000 32.54300 21.60200
H  -1.77700 33.79000 22.79600
H  -1.56500 33.87900 21.02900
H  -5.95500 30.65500 24.24400
H  -7.32800 30.81200 25.22800
H  -6.07900 29.54200 25.53700
H  -4.34900 30.98500 30.37800
H  -7.95300 31.17500 32.49600
H  -7.14600 32.36300 33.32600
H  -6.85600 30.72500 33.90200

