158

Mg 46.75200 24.96200 28.19200
C  47.47500 27.34400 30.72300
C  46.00900 22.76000 30.80400
C  46.34700 22.69900 25.91300
C  48.00800 27.24400 25.81900
N  46.82900 25.06300 30.55100
C  46.99800 26.13000 31.31500
C  46.74600 25.90000 32.80200
C  46.21600 24.40200 32.76400
C  46.42300 24.01100 31.26000
C  46.81200 23.43200 33.77700
C  45.74500 26.96600 33.36100
C  44.97000 26.46700 34.62100
H  44.86000 27.45400 35.77800
N  46.20300 23.01400 28.34400
C  45.91400 22.28200 29.46400
C  45.59300 20.92100 29.13000
C  45.73100 20.89000 27.71800
C  46.09000 22.22300 27.25100
C  45.15300 19.81900 30.17200
C  45.64200 19.62100 26.82000
O  45.99400 19.56800 25.65900
C  45.29200 18.32700 27.47300
N  47.40500 24.84900 26.18700
C  46.95200 23.87100 25.38700
C  47.22600 24.11100 23.92200
C  47.56500 25.70600 23.87600
C  47.66900 25.96400 25.38700
C  48.47000 23.28600 23.48400
C  46.49500 26.61300 23.10300
C  45.21200 26.76800 23.89300
N  47.55900 26.81700 28.22900
C  48.02100 27.61200 27.16500
C  48.36500 28.93600 27.61100
C  48.25600 28.80800 29.04900
C  47.68200 27.59000 29.32500
C  48.79600 30.06600 26.69000
C  48.34100 29.53200 30.25000
O  48.48500 30.72600 30.60400
C  47.87400 28.63300 31.35700
C  49.04000 28.49100 32.27500
O  50.11200 28.10800 31.88700
O  48.77400 29.05600 33.50700
C  49.76000 28.74500 34.56200
H  45.58100 22.11500 31.57400
H  46.07300 21.91600 25.20400
H  48.39900 27.92400 25.05900
H  47.64100 26.03000 33.41000
H  45.14800 24.52300 32.94700
H  47.57700 23.89900 34.39800
H  47.48200 22.75100 33.25100
H  46.06600 22.83100 34.29700
H  45.06300 27.31800 32.58800
H  46.21300 27.88800 33.70500
H  45.52400 25.59500 34.96800
H  43.97600 26.24900 34.23200
H  44.33300 19.23300 29.75800
H  44.79000 20.32200 31.06800
H  46.00200 19.14600 30.28900
H  44.35800 18.44600 28.02200
H  46.06700 18.09700 28.20500
H  45.24800 17.50500 26.75900
H  46.31700 23.94900 23.34200
H  48.57000 25.92200 23.51300
H  48.34100 22.76200 22.53700
H  48.72400 22.53000 24.22700
H  49.31800 23.94200 23.28700
H  46.26100 26.16200 22.13900
H  46.97200 27.59200 23.05700
H  44.93400 25.86000 24.42800
H  44.36300 26.82900 23.21200
H  45.29700 27.57100 24.62600
H  48.53000 31.00800 27.17100
H  48.32100 30.12300 25.71000
H  49.87700 30.05900 26.55400
H  47.07700 29.19800 31.84000
H  49.32200 28.06600 35.29400
H  50.15600 29.61900 35.07900
H  50.64000 28.18600 34.24500
Mg 41.78900 41.38000 25.80000
C  40.68000 43.69000 28.14600
C  42.69000 39.28100 28.39000
C  42.97500 39.39600 23.41100
C  41.06300 43.80900 23.20300
N  41.40800 41.38300 28.08600
C  41.02600 42.51700 28.74900
C  40.92100 42.14100 30.32600
C  41.82600 40.88900 30.30500
C  41.94100 40.44000 28.85700
C  43.23800 41.18100 30.85900
C  39.52000 41.94700 30.93500
C  39.56600 41.52000 32.46800
H  38.79700 42.39000 33.40900
N  42.55800 39.53700 25.88400
C  42.85900 38.79800 27.01900
C  43.27000 37.52000 26.55100
C  43.42500 37.55400 25.16900
C  43.00200 38.88700 24.76400
C  43.54700 36.32300 27.48400
C  43.92500 36.53300 24.13500
O  43.89800 36.68500 22.92500
C  44.21700 35.24200 24.56100
N  41.90100 41.51400 23.57500
C  42.56900 40.65600 22.84100
C  42.72300 41.07900 21.36600
C  41.68200 42.22200 21.30400
C  41.52000 42.56000 22.78500
C  44.09700 41.45500 20.88900
C  40.30700 41.87500 20.62700
C  39.31100 40.94800 21.48800
N  41.08700 43.31900 25.67000
C  40.88800 44.16000 24.56900
C  40.37000 45.48100 25.01600
C  40.26300 45.28600 26.40200
C  40.75300 44.00500 26.76100
C  39.85600 46.57200 24.11800
C  39.81100 45.94800 27.64600
O  39.22700 47.00900 27.74500
C  40.07600 44.96100 28.79900
C  40.96700 45.56000 29.74400
O  42.09500 46.02900 29.51300
O  40.46200 45.32100 31.00300
C  41.41000 45.40400 32.15400
H  42.93100 38.61400 29.22100
H  43.49800 38.95900 22.55700
H  40.78000 44.48500 22.39400
H  41.36900 42.99500 30.83400
H  41.35400 40.03700 30.79400
H  44.03200 40.97900 30.14100
H  43.56000 40.41500 31.56400
H  43.35000 42.14700 31.35200
H  38.88600 41.43600 30.21000
H  39.05600 42.92600 31.05300
H  40.55100 41.54200 32.93400
H  39.07800 40.54500 32.46700
H  43.47600 36.69600 28.50600
H  44.60000 36.04500 27.46300
H  43.07500 35.35800 27.29200
H  44.96900 35.37800 25.33800
H  44.57600 34.64000 23.72700
H  43.32300 34.80300 25.00400
H  42.36800 40.28700 20.70500
H  42.06100 43.01400 20.65900
H  44.91800 41.30300 21.58900
H  44.25600 42.47300 20.53500
H  44.33300 40.86700 20.00200
H  40.61000 41.25300 19.78400
H  39.72200 42.67400 20.17200
H  39.85900 40.27800 22.15000
H  38.60600 40.47000 20.80800
H  38.66000 41.66700 21.98500
H  39.61900 46.11900 23.15600
H  40.69400 47.20500 23.82500
H  39.07700 47.27800 24.40400
H  39.08400 44.86200 29.23900
H  42.43400 45.74900 32.01000
H  41.34300 44.49200 32.74700
H  40.88400 46.17400 32.71800

