158

Mg -1.71300 17.90200 27.42400
C  -1.94900 15.50900 29.92800
C  -2.20300 20.32100 29.78600
C  -1.41700 20.11900 25.01600
C  -1.11100 15.20900 25.02900
N  -1.93000 17.86700 29.67100
C  -1.98400 16.78600 30.47300
C  -1.87400 17.24300 31.98700
C  -2.30400 18.79400 31.87900
C  -2.12200 19.05000 30.33600
C  -3.76100 19.14300 32.37600
C  -0.46400 16.93000 32.56100
C  0.02700 17.75100 33.81200
H  0.06400 17.13600 35.16400
N  -1.86500 19.96300 27.36300
C  -2.03500 20.81100 28.40100
C  -2.15100 22.19400 27.96400
C  -2.04800 22.06100 26.55900
C  -1.72700 20.68500 26.23600
C  -2.20800 23.40800 28.90300
C  -2.17600 23.20500 25.59400
O  -1.84000 23.10000 24.43300
C  -2.72500 24.56000 26.03500
N  -1.50700 17.61700 25.31500
C  -1.27600 18.77900 24.58900
C  -1.00400 18.47300 23.11200
C  -0.68900 16.98100 23.14000
C  -1.14000 16.54600 24.59400
C  -2.28400 18.85700 22.26800
C  0.71900 16.61000 22.73200
C  1.83500 17.40600 23.37800
N  -1.60400 15.79100 27.41100
C  -1.40000 14.86300 26.40400
C  -1.53800 13.55800 26.94800
C  -1.78600 13.77200 28.36300
C  -1.79100 15.14200 28.53400
C  -1.31700 12.19600 26.17400
C  -2.05400 13.07900 29.56900
O  -2.11300 11.89900 29.88800
C  -2.21000 14.17200 30.62500
C  -1.22400 13.75900 31.62200
O  -0.00400 13.97700 31.61700
O  -1.95600 13.16800 32.64900
C  -1.24500 12.79200 33.83300
H  -2.42200 21.14900 30.46400
H  -1.34400 20.85200 24.21000
H  -0.95300 14.39700 24.31600
H  -2.67300 16.69900 32.49000
H  -1.70400 19.54500 32.39300
H  -4.33000 19.81900 31.73900
H  -3.73800 19.64700 33.34200
H  -4.36200 18.23900 32.47300
H  0.38800 16.97600 31.88300
H  -0.50900 15.93000 32.99300
H  -0.68000 18.56500 33.97300
H  1.03500 18.08800 33.56800
H  -1.82600 23.13200 29.88600
H  -3.21500 23.82200 28.96000
H  -1.49200 24.16300 28.58000
H  -2.78600 25.23000 25.17800
H  -2.11400 25.06200 26.78500
H  -3.68900 24.40700 26.52100
H  -0.22900 19.17700 22.80700
H  -1.25600 16.44600 22.37800
H  -2.71200 18.04400 21.68200
H  -2.01100 19.70700 21.64200
H  -3.07000 19.18500 22.94800
H  0.65200 16.73800 21.65100
H  0.82700 15.53200 22.84900
H  2.50600 16.70000 23.86600
H  1.54700 18.20800 24.05700
H  2.40700 17.83400 22.55400
H  -0.98600 11.36000 26.79100
H  -0.85200 12.27700 25.19100
H  -2.34000 11.93900 25.90100
H  -3.23600 14.06400 30.97800
H  -0.59000 11.98200 33.51200
H  -1.91700 12.30800 34.54200
H  -0.56600 13.55800 34.20800
Mg 0.51000 -1.62700 43.16200
C  3.75600 -0.97000 42.22500
C  -0.42900 1.27400 41.45700
C  -2.74700 -2.54900 43.31900
C  1.51400 -4.74800 44.36700
N  1.54600 -0.00500 41.94600
C  2.92600 0.00800 41.75600
C  3.30900 1.20900 40.93600
C  2.01900 2.01200 40.87100
C  0.95500 1.09600 41.52600
C  2.14100 3.44100 41.44100
C  3.91600 0.75500 39.56100
C  5.17700 1.42400 39.11800
H  5.70400 1.21300 37.69700
N  -1.32800 -0.73900 42.55000
C  -1.50600 0.44100 41.86600
C  -2.91500 0.74100 41.74900
C  -3.62600 -0.30600 42.35600
C  -2.57400 -1.32900 42.69300
C  -3.38800 2.10000 41.23400
C  -5.17200 -0.33300 42.55800
O  -5.87900 0.58800 42.21300
C  -5.87400 -1.43800 43.23800
N  -0.40300 -3.39000 43.51600
C  -1.72700 -3.52900 43.65900
C  -2.19900 -4.88200 44.05200
C  -0.87600 -5.59200 44.40600
C  0.17900 -4.50300 44.10100
C  -3.29700 -5.05900 45.22900
C  -0.66900 -6.94900 43.72800
C  0.04000 -8.06300 44.60100
N  2.31600 -2.58500 43.43700
C  2.59000 -3.88600 43.97600
C  4.06200 -4.11300 43.90000
C  4.57600 -2.96300 43.22500
C  3.41200 -2.10800 42.94700
C  4.86600 -5.30400 44.28800
C  5.71700 -2.34600 42.76300
O  6.91300 -2.67000 42.81500
C  5.26400 -1.05400 42.08700
C  6.15100 -0.02400 42.67400
O  7.24300 0.29200 42.25900
O  5.52200 0.60600 43.71600
C  6.25300 1.57000 44.48400
H  -0.67800 2.19400 40.92600
H  -3.75600 -2.89400 43.55000
H  1.78700 -5.75600 44.68500
H  4.10400 1.73400 41.46600
H  1.81500 2.24000 39.82500
H  1.45200 3.36300 42.28100
H  1.67800 4.15700 40.76100
H  3.16400 3.68500 41.72600
H  3.20700 1.08300 38.80000
H  3.83700 -0.32500 39.43800
H  5.91900 1.21300 39.88800
H  4.95800 2.48300 39.25400
H  -4.46500 2.20500 41.10800
H  -2.94300 2.39200 40.28200
H  -3.15800 2.82000 42.02000
H  -6.92600 -1.24500 43.44400
H  -5.38000 -1.60000 44.19700
H  -5.91400 -2.40500 42.73700
H  -2.63700 -5.46500 43.24200
H  -0.85400 -5.74200 45.48500
H  -4.12500 -5.70200 44.93000
H  -3.49900 -4.04600 45.57600
H  -2.95500 -5.58000 46.12400
H  -0.18400 -6.79600 42.76400
H  -1.65800 -7.40000 43.64200
H  0.96200 -8.41400 44.13800
H  -0.61100 -8.85700 44.96700
H  0.45800 -7.54800 45.46500
H  5.05300 -5.95000 43.42900
H  4.18600 -5.88000 44.91600
H  5.73000 -5.01400 44.88600
H  5.61500 -1.20000 41.06500
H  6.86100 1.13400 45.27700
H  5.48200 2.18000 44.95600
H  6.69900 2.40000 43.93600

