158

Mg 45.18600 4.30100 47.84400
C  43.05600 6.95000 47.11000
C  42.59200 2.11700 47.05700
C  47.38600 1.62300 47.47600
C  47.85300 6.50500 47.93600
N  43.10700 4.53100 47.23200
C  42.48900 5.68100 46.89000
C  41.06200 5.36000 46.44600
C  40.85400 3.82500 46.77600
C  42.24600 3.44300 46.99700
C  39.75800 3.49900 47.88700
C  40.94500 5.78400 44.97100
C  40.02200 6.91000 44.53100
H  40.34800 7.77600 43.29000
N  44.99300 2.10500 47.67000
C  43.80400 1.49300 47.31800
C  44.08100 0.08300 47.12200
C  45.55200 -0.05400 47.33700
C  46.04300 1.28700 47.48300
C  43.04300 -0.99000 46.99500
C  46.29400 -1.41600 47.33300
O  45.66500 -2.44600 47.18000
C  47.75600 -1.55500 47.53500
N  47.32500 4.13900 47.71000
C  47.98800 2.89400 47.65100
C  49.54700 3.05300 47.82700
C  49.63800 4.57400 48.23300
C  48.21900 5.15200 47.96600
C  50.23100 2.12000 48.85700
C  50.83500 5.29000 47.50500
C  51.80800 6.24800 48.32100
N  45.41800 6.29400 47.72200
C  46.58800 7.09100 47.83100
C  46.21300 8.43000 47.75700
C  44.80200 8.44800 47.44400
C  44.38000 7.13900 47.41000
C  47.13100 9.60000 47.92400
C  43.63900 9.27300 47.29200
O  43.48100 10.49500 47.38700
C  42.38300 8.29900 47.07500
C  41.50800 8.43700 48.31500
O  41.66100 7.89800 49.39900
O  40.60000 9.39000 47.99800
C  39.56400 9.68000 49.01900
H  41.70800 1.48000 46.99400
H  48.07000 0.78300 47.33500
H  48.71600 7.17400 47.97100
H  40.31400 6.00300 46.91000
H  40.52700 3.29800 45.88000
H  39.08200 4.32000 48.12300
H  40.08800 3.02500 48.81100
H  39.12600 2.73000 47.44200
H  40.53600 4.86700 44.54700
H  41.94000 5.93300 44.55100
H  39.80000 7.67600 45.27500
H  39.07900 6.41800 44.29400
H  42.97900 -1.77700 47.74500
H  43.15400 -1.47600 46.02500
H  42.04500 -0.55200 46.95600
H  48.05200 -0.91700 48.36700
H  48.30400 -1.42100 46.60200
H  47.87500 -2.60400 47.80800
H  50.04800 2.88700 46.87300
H  49.78200 4.73600 49.30200
H  49.52800 1.53000 49.44500
H  50.79000 2.74200 49.55500
H  50.90400 1.47400 48.29300
H  50.43400 5.99300 46.77600
H  51.53200 4.60300 47.02600
H  52.78000 6.18800 47.83100
H  51.86600 6.06400 49.39400
H  51.45400 7.27600 48.23900
H  47.38900 9.55900 48.98200
H  46.55200 10.46300 47.59600
H  47.95200 9.38200 47.24000
H  41.81000 8.57600 46.19100
H  39.36200 8.69400 49.43800
H  38.65200 10.12100 48.61700
H  40.01800 10.33900 49.75800
Mg 47.65000 24.11400 27.67700
C  48.56500 26.10500 30.44400
C  47.09500 21.55500 30.12100
C  47.00100 22.00300 25.32400
C  48.81100 26.51100 25.54400
N  47.65400 23.87900 30.04700
C  48.05500 24.90000 30.94500
C  47.94100 24.46500 32.43500
C  47.43400 22.96400 32.33200
C  47.44600 22.73400 30.73500
C  48.42100 21.96600 33.01200
C  47.03400 25.36100 33.30900
C  47.65500 25.90400 34.64300
H  46.58700 26.31900 35.64800
N  47.04400 22.06200 27.69300
C  46.87100 21.22500 28.76600
C  46.32500 19.91900 28.27900
C  46.30600 20.02300 26.87600
C  46.83600 21.37100 26.55700
C  45.92600 18.73700 29.08400
C  45.73100 19.02600 25.88500
O  45.93900 19.21600 24.69000
C  45.20600 17.65900 26.29900
N  47.76800 24.34600 25.72700
C  47.38900 23.29100 24.88600
C  47.14600 23.78100 23.42600
C  47.77400 25.29500 23.54900
C  48.25300 25.36500 24.97100
C  47.91000 22.92200 22.40700
C  46.77200 26.37800 23.15000
C  46.73600 26.57700 21.71400
N  48.39900 25.99600 27.91100
C  48.80800 26.85100 26.91700
C  49.35100 28.05700 27.53500
C  49.28000 27.81600 28.91000
C  48.67300 26.55800 29.08000
C  49.87800 29.19900 26.84000
C  49.49800 28.38400 30.23700
O  49.85600 29.50800 30.54100
C  49.13700 27.29500 31.22400
C  50.37400 26.92300 31.90600
O  51.14500 26.05200 31.52800
O  50.46900 27.67100 33.02500
C  51.53000 27.06600 33.89800
H  46.84200 20.75500 30.82000
H  46.75100 21.40000 24.44800
H  49.14300 27.35800 24.94000
H  48.94500 24.56100 32.84700
H  46.41400 22.86200 32.70400
H  49.02000 22.63200 33.63200
H  49.05000 21.37300 32.34900
H  47.91100 21.37600 33.77300
H  46.14500 24.83500 33.65700
H  46.67100 26.16300 32.66700
H  48.27100 26.75100 34.34100
H  48.39200 25.15000 34.92200
H  46.75700 18.04000 28.98200
H  44.92000 18.41500 28.81200
H  45.77700 18.96800 30.13900
H  45.86500 17.15000 27.00300
H  45.18700 17.04900 25.39600
H  44.21000 17.70200 26.73800
H  46.05600 23.78700 23.42900
H  48.65000 25.41000 22.91100
H  48.22500 22.07200 23.01200
H  48.74700 23.41100 21.90900
H  47.34300 22.54500 21.55500
H  47.07200 27.33600 23.57600
H  45.74100 26.16200 23.43000
H  47.68300 26.39000 21.21000
H  46.49600 27.61200 21.46900
H  46.01900 25.94300 21.19300
H  49.61200 29.22000 25.78300
H  50.95100 29.37000 26.93100
H  49.40700 30.06700 27.30200
H  48.56900 27.81600 31.99400
H  51.53700 27.76900 34.73100
H  52.53500 27.04300 33.47500
H  51.36800 26.02500 34.17800

