158

Mg 7.25500 53.54200 40.82300
C  6.73100 50.11000 40.51100
C  10.60100 53.09100 40.16600
C  7.64700 56.88200 40.37200
C  3.83300 54.03400 41.16500
N  8.45800 51.74300 40.27700
C  8.07100 50.46700 40.22800
C  9.33000 49.53200 40.16900
C  10.56900 50.52000 40.18500
C  9.84000 51.93100 40.19400
C  11.53400 50.45100 41.33600
C  9.35000 48.57200 38.89400
C  9.22000 49.17100 37.47800
H  8.17300 48.62300 36.58100
N  8.89200 54.83700 40.24600
C  10.18000 54.46500 40.14800
C  10.99000 55.61500 39.79600
C  10.17100 56.75600 39.93400
C  8.88300 56.21100 40.23700
C  12.47600 55.46900 39.50100
C  10.59900 58.18500 39.73400
O  11.72400 58.42100 39.34300
C  9.69000 59.35100 39.91100
N  5.92200 55.17500 40.75200
C  6.38700 56.43100 40.61100
C  5.24700 57.47600 40.87200
C  4.00900 56.53700 40.87600
C  4.60000 55.14500 40.86100
C  5.48600 58.16600 42.22200
C  3.00700 56.86100 39.73000
C  1.49400 56.73600 40.06700
N  5.60100 52.37900 40.91100
C  4.30900 52.70000 41.22000
C  3.57100 51.47000 41.44400
C  4.49700 50.49900 41.24000
C  5.71900 51.05800 40.82800
C  2.14400 51.30700 41.93900
C  4.64300 49.07100 41.27800
O  3.85400 48.20200 41.60500
C  6.14700 48.76600 40.88200
C  6.13500 47.77100 39.79700
O  5.52900 47.99700 38.73500
O  6.65700 46.56100 40.15500
C  6.58500 45.51300 39.07300
H  11.67300 52.89100 40.12100
H  7.65800 57.97100 40.44100
H  2.75900 54.21600 41.24400
H  9.53300 48.78100 40.93400
H  11.14200 50.35100 39.27400
H  12.55300 50.18700 41.05500
H  11.19700 49.74000 42.09100
H  11.53100 51.38700 41.89600
H  8.45500 47.98500 39.10200
H  10.20000 47.89100 38.95300
H  10.09200 49.25700 36.82900
H  9.02600 50.24100 37.55700
H  13.14900 55.89700 40.24400
H  12.69300 55.99400 38.57100
H  12.86300 54.45200 39.42800
H  8.89600 59.37700 39.16400
H  10.24200 60.29000 39.89100
H  9.23700 59.36400 40.90200
H  5.25000 58.21300 40.06800
H  3.53800 56.67800 41.84900
H  4.65700 58.80900 42.51700
H  6.46100 58.64700 42.14600
H  5.59300 57.34500 42.93100
H  3.26200 56.05300 39.04400
H  3.17400 57.83900 39.28000
H  1.03400 57.70000 39.85000
H  1.28400 56.22500 41.00600
H  1.01800 56.05500 39.36000
H  2.00900 52.19700 42.55300
H  2.03300 50.43400 42.58300
H  1.39100 51.32100 41.15100
H  6.58700 48.34600 41.78600
H  7.11200 44.63600 39.44800
H  6.93000 45.92100 38.12200
H  5.53200 45.23800 39.01900
Mg -5.62800 24.96800 25.92500
C  -3.69300 26.34100 28.55500
C  -7.17300 23.03100 28.30000
C  -7.16200 23.05600 23.44000
C  -3.48500 26.37300 23.61500
N  -5.33900 24.55000 28.13100
C  -4.60700 25.38900 28.99000
C  -5.11400 25.23500 30.44700
C  -6.06500 23.99900 30.34700
C  -6.19900 23.82900 28.82200
C  -5.55000 22.65700 30.93800
C  -5.88600 26.47200 30.89700
C  -5.96300 26.68900 32.40600
H  -5.45000 25.60000 33.44900
N  -7.03000 23.34700 25.87000
C  -7.54500 22.75900 26.93400
C  -8.66200 21.85900 26.57600
C  -8.73600 21.90000 25.20400
C  -7.68700 22.77100 24.71100
C  -9.41600 20.96600 27.57300
C  -9.67700 21.20200 24.29600
O  -9.62900 21.28800 23.05300
C  -10.85300 20.37000 24.88000
N  -5.33300 24.71200 23.93300
C  -6.10400 23.90800 23.09700
C  -5.74900 24.18000 21.61500
C  -4.53500 25.19800 21.63100
C  -4.42000 25.48000 23.17300
C  -5.39300 22.85000 20.84800
C  -4.72100 26.49400 20.71900
C  -3.52700 26.77300 19.87700
N  -3.92400 26.18100 25.96300
C  -3.13700 26.69500 24.99000
C  -2.16700 27.66300 25.47900
C  -2.27900 27.53300 26.85100
C  -3.41000 26.68300 27.14500
C  -1.20200 28.44400 24.55800
C  -1.87900 27.92700 28.17800
O  -1.05700 28.80200 28.58400
C  -2.81000 27.31100 29.27100
C  -1.92900 26.72600 30.29800
O  -1.15800 25.78100 30.08200
O  -2.20900 27.16100 31.57700
C  -1.49200 26.60700 32.76100
H  -7.66300 22.32400 28.97300
H  -7.69700 22.71100 22.55200
H  -2.96100 26.81000 22.76300
H  -4.27300 25.13900 31.13300
H  -7.08100 24.20900 30.68100
H  -4.67800 22.81800 31.57300
H  -5.28700 21.98800 30.11900
H  -6.37000 22.15600 31.45200
H  -6.91200 26.37800 30.54200
H  -5.52300 27.40300 30.46300
H  -6.96100 27.02000 32.69300
H  -5.49600 27.65600 32.59400
H  -10.46100 21.27400 27.59600
H  -9.14900 21.09500 28.62200
H  -9.25800 19.92600 27.28800
H  -10.46400 19.45400 25.32600
H  -11.53900 20.18000 24.05500
H  -11.38600 21.01600 25.57800
H  -6.70600 24.50500 21.20600
H  -3.60700 24.68900 21.36900
H  -5.14700 22.18600 21.67600
H  -4.50500 23.00900 20.23500
H  -6.26000 22.47600 20.30400
H  -4.72500 27.30600 21.44700
H  -5.73900 26.40700 20.33900
H  -3.11500 27.67100 20.33800
H  -3.78900 26.90800 18.82800
H  -2.74100 26.02000 19.94100
H  -1.31400 27.97600 23.58000
H  -0.17600 28.30600 24.90000
H  -1.49600 29.48500 24.42500
H  -3.44400 28.08900 29.69700
H  -0.54400 27.13900 32.84600
H  -1.17500 25.56400 32.72100
H  -2.12100 26.68400 33.64800

