158

Mg 8.73100 48.06900 26.54200
C  6.82200 47.75400 29.38900
C  11.49200 48.93200 28.53100
C  10.70800 48.43300 23.75200
C  5.98200 47.81400 24.52400
N  8.95900 48.64600 28.72100
C  8.12700 48.25800 29.69100
C  8.77800 48.45000 31.05200
C  10.15200 49.18700 30.74900
C  10.26700 48.84100 29.26900
C  10.04900 50.70000 30.98500
C  8.94100 47.19600 31.99600
C  8.54400 47.52100 33.45900
H  8.78900 46.38300 34.50400
N  10.91000 48.49000 26.23900
C  11.83400 48.79400 27.22400
C  13.09400 48.81200 26.59700
C  12.88500 48.61900 25.20000
C  11.44600 48.56900 24.98500
C  14.38500 48.93100 27.32100
C  13.89400 48.57900 24.12000
O  13.60100 48.55600 22.94700
C  15.39600 48.46600 24.47900
N  8.40600 48.26200 24.39800
C  9.32700 48.36900 23.43300
C  8.70700 47.91900 22.03300
C  7.20800 47.80600 22.34600
C  7.18100 47.97200 23.83600
C  9.06200 48.90700 20.92000
C  6.62100 46.44100 21.85100
C  5.49700 46.47800 20.79900
N  6.82900 47.88600 26.87900
C  5.83700 47.68200 25.93400
C  4.56800 47.31300 26.63100
C  4.95200 47.28000 27.95500
C  6.31100 47.67200 28.09200
C  3.23600 47.10600 25.97200
C  4.47300 46.99100 29.33400
O  3.40000 46.53000 29.66800
C  5.72800 47.22700 30.27300
C  5.97300 45.98800 30.99500
O  6.47000 44.97500 30.50500
O  5.50600 46.13300 32.29100
C  5.66000 44.94400 33.13900
H  12.37200 49.06500 29.16400
H  11.30100 48.41600 22.83500
H  5.12700 47.63500 23.87000
H  8.17800 49.16200 31.61800
H  11.00100 48.80500 31.31600
H  9.03000 51.07700 31.07300
H  10.54800 51.34500 30.26200
H  10.55300 50.81500 31.94500
H  10.01500 47.00800 32.02600
H  8.52800 46.21500 31.76200
H  7.45900 47.59100 33.38000
H  8.91300 48.46900 33.85100
H  15.05800 48.08700 27.17200
H  14.24900 49.10500 28.38900
H  15.04900 49.70200 26.92900
H  15.48300 47.60400 25.14000
H  15.81000 49.29400 25.05400
H  15.96100 48.33300 23.55600
H  9.13400 46.95400 21.76100
H  6.62500 48.61500 21.90400
H  8.17300 49.14200 20.33400
H  9.71800 48.44400 20.18300
H  9.52000 49.77600 21.39100
H  6.11000 45.98600 22.70000
H  7.37000 45.70600 21.55600
H  4.61400 45.99500 21.21800
H  5.83200 45.80500 20.00900
H  5.17600 47.42400 20.36400
H  3.22100 46.73700 24.94600
H  2.87800 48.12900 25.86400
H  2.55700 46.55100 26.62000
H  5.54600 48.00600 31.01300
H  6.61400 44.65400 33.57900
H  5.32200 44.08900 32.55300
H  4.97700 44.99900 33.98800
Mg -2.33800 34.66800 26.59400
C  -3.91700 32.89500 29.23000
C  -0.90600 36.63600 29.08100
C  -1.31300 36.68500 24.18700
C  -4.20600 32.82500 24.34300
N  -2.69700 34.84600 28.97000
C  -3.16800 33.94900 29.81900
C  -2.75300 34.11500 31.22800
C  -2.06800 35.53800 31.19200
C  -1.85500 35.71100 29.63800
C  -2.95600 36.66400 31.89800
C  -1.93600 32.84300 31.84200
C  -2.64200 32.28200 33.13400
H  -1.80600 32.36000 34.42400
N  -1.14500 36.28000 26.59400
C  -0.67600 37.00900 27.68200
C  0.16200 38.10200 27.17100
C  0.06300 38.17500 25.78200
C  -0.79200 37.02000 25.50800
C  0.86200 39.00100 28.05700
C  0.64100 39.15100 24.76400
O  0.48500 39.07300 23.57300
C  1.46600 40.25000 25.19100
N  -2.88100 34.79900 24.61700
C  -2.26100 35.70200 23.84700
C  -2.69400 35.53200 22.38700
C  -3.35700 34.11000 22.38500
C  -3.50600 33.89000 23.88000
C  -3.59100 36.75800 21.95100
C  -2.76300 33.00200 21.50300
C  -1.43300 32.33000 21.91200
N  -3.78400 33.15100 26.67600
C  -4.36500 32.42000 25.67600
C  -5.03300 31.28600 26.25500
C  -4.86500 31.45700 27.65800
C  -4.17100 32.64100 27.81600
C  -5.71000 30.11900 25.50100
C  -5.21700 30.80600 28.95900
O  -5.83600 29.77600 29.19100
C  -4.64200 31.81100 30.04500
C  -5.75600 32.34900 30.88200
O  -6.44100 33.37300 30.69500
O  -5.79100 31.59400 32.06600
C  -6.92700 31.91700 33.02200
H  -0.21800 37.23300 29.68300
H  -1.00500 37.42000 23.44000
H  -4.66500 32.13600 23.63100
H  -3.58900 34.26200 31.91200
H  -1.13600 35.45300 31.75100
H  -3.38800 37.25800 31.09200
H  -2.36500 37.42800 32.40300
H  -3.77400 36.34700 32.54500
H  -0.94600 33.19200 32.13700
H  -1.80900 32.07100 31.08400
H  -2.71100 31.19800 33.03700
H  -3.62000 32.71800 33.33900
H  0.42000 39.99600 28.11700
H  1.88800 39.13300 27.71500
H  1.04800 38.39800 28.94600
H  2.49700 39.98000 25.42100
H  0.93200 40.75700 25.99400
H  1.52700 40.91900 24.33300
H  -1.71200 35.57200 21.91600
H  -4.36500 34.27300 22.00200
H  -4.54800 36.39500 21.57400
H  -3.07800 37.23700 21.11700
H  -3.79200 37.54100 22.68200
H  -2.54000 33.42200 20.52200
H  -3.52200 32.22900 21.38300
H  -1.11400 32.66600 22.89900
H  -0.68300 32.48500 21.13600
H  -1.64100 31.26000 21.92300
H  -5.21400 29.94700 24.54600
H  -6.75600 30.37800 25.33700
H  -5.66500 29.26700 26.17900
H  -3.88600 31.24500 30.59000
H  -7.79800 32.32100 32.50600
H  -6.61800 32.63200 33.78400
H  -7.28800 30.99600 33.47900

