158

Mg -1.70000 17.31400 26.65400
C  -1.66300 14.98800 29.12500
C  -2.30300 19.72100 29.03800
C  -1.73600 19.56900 24.13800
C  -1.48600 14.81800 24.32400
N  -1.83700 17.36300 28.81700
C  -1.76000 16.27500 29.62000
C  -1.96900 16.76500 31.09400
C  -2.50300 18.22200 30.96300
C  -2.16500 18.45400 29.54700
C  -4.00700 18.38900 31.34400
C  -0.55100 16.63000 31.89900
C  -0.07400 17.55800 33.02300
H  0.44600 16.95600 34.36600
N  -1.92700 19.31200 26.60100
C  -2.10700 20.13100 27.69400
C  -2.16200 21.54200 27.19600
C  -1.73900 21.51400 25.82800
C  -1.76100 20.14000 25.47200
C  -2.57200 22.79500 28.12800
C  -1.54100 22.68600 24.85300
O  -1.38500 22.56400 23.61600
C  -1.50700 24.07000 25.41100
N  -1.89100 17.21000 24.48900
C  -1.78200 18.27300 23.67900
C  -1.81900 17.86900 22.14900
C  -1.62100 16.32700 22.22100
C  -1.67900 16.08200 23.81900
C  -3.09900 18.37200 21.41000
C  -0.32000 15.79800 21.50400
C  1.00900 15.95000 22.34100
N  -1.75400 15.32600 26.64200
C  -1.57100 14.42100 25.63400
C  -1.49900 13.11700 26.16200
C  -1.57200 13.27900 27.55900
C  -1.67700 14.66700 27.77900
C  -1.26700 11.76600 25.45300
C  -1.57500 12.51800 28.82200
O  -1.36300 11.32800 29.09300
C  -1.87000 13.60900 29.88200
C  -0.95800 13.35400 31.02700
O  0.26200 13.58900 30.91100
O  -1.53800 12.85600 32.14400
C  -0.65900 12.65000 33.27900
H  -2.36600 20.44400 29.85300
H  -1.71700 20.31700 23.34200
H  -1.25000 14.04100 23.59400
H  -2.62500 16.07800 31.62700
H  -1.83700 18.90300 31.49100
H  -4.56800 17.60100 31.84700
H  -4.55100 18.60800 30.42500
H  -4.14600 19.28600 31.94800
H  0.28200 16.59500 31.19700
H  -0.73700 15.64900 32.33600
H  -0.78900 18.35000 33.24500
H  0.76300 18.06400 32.54200
H  -3.03000 22.41800 29.04200
H  -3.32700 23.31900 27.54100
H  -1.62300 23.26300 28.38900
H  -0.74400 24.06200 26.19000
H  -2.47100 24.30700 25.86100
H  -1.33500 24.79400 24.61500
H  -0.94100 18.31800 21.68400
H  -2.53900 15.92200 21.79500
H  -2.77800 19.09800 20.66200
H  -3.75400 18.97000 22.04300
H  -3.65400 17.57900 20.90800
H  -0.14700 16.23400 20.52000
H  -0.50300 14.72900 21.39600
H  0.84000 16.52900 23.24900
H  1.81700 16.29700 21.69700
H  1.31300 14.95700 22.67200
H  -0.58200 11.06900 25.93400
H  -1.01300 11.84900 24.39600
H  -2.22900 11.26000 25.37200
H  -2.87600 13.43500 30.26500
H  -0.23800 13.58200 33.65700
H  0.15000 12.01100 32.92500
H  -1.19200 11.97800 33.95300
Mg -11.07400 17.45200 42.84300
C  -7.72200 17.72200 43.26400
C  -11.37900 20.98400 42.72100
C  -14.28100 17.26600 41.55700
C  -10.56700 14.03000 42.18700
N  -9.69600 19.13500 43.04300
C  -8.34200 18.99100 43.21800
C  -7.74000 20.40700 43.20100
C  -8.96900 21.33000 43.39400
C  -10.12300 20.51700 43.05300
C  -9.16400 21.89800 44.87500
C  -7.04600 20.66800 41.83700
C  -5.64200 21.24600 41.76600
H  -4.60100 20.32800 40.96100
N  -12.66000 18.93400 42.37800
C  -12.50500 20.26100 42.33200
C  -13.79900 20.87100 42.05300
C  -14.73500 19.79200 41.82900
C  -13.88800 18.60600 41.85500
C  -14.07900 22.35500 41.99100
C  -16.22200 19.91900 41.51500
O  -16.71400 21.01300 41.34900
C  -17.14800 18.76800 41.35700
N  -12.19200 15.95200 41.72200
C  -13.57700 16.04000 41.49700
C  -14.20600 14.64800 41.35700
C  -13.02000 13.69200 41.69600
C  -11.86000 14.55300 41.85000
C  -15.42400 14.51400 42.27000
C  -12.73200 12.52900 40.64600
C  -12.07200 13.09100 39.35700
N  -9.52700 16.07300 42.80500
C  -9.42100 14.72800 42.54700
C  -8.11900 14.24600 42.87000
C  -7.35600 15.38800 43.17800
C  -8.29500 16.46500 43.05900
C  -7.61400 12.85500 42.73700
C  -6.06500 15.87900 43.51400
O  -4.94500 15.38900 43.50500
C  -6.23400 17.43900 43.51300
C  -5.64100 18.06900 44.71500
O  -6.20300 18.26500 45.82100
O  -4.40900 18.63900 44.39800
C  -3.73700 19.33600 45.58500
H  -11.48200 22.05700 42.89700
H  -15.31900 17.02600 41.31800
H  -10.48900 12.94200 42.13300
H  -6.90500 20.59000 43.87800
H  -9.00000 22.17000 42.70000
H  -8.94000 22.96200 44.94700
H  -8.41000 21.42400 45.50200
H  -10.16400 21.79900 45.29700
H  -7.69800 21.20400 41.14700
H  -7.01500 19.69900 41.33900
H  -5.27900 21.52600 42.75500
H  -5.59600 22.10500 41.09800
H  -14.48500 22.72700 41.05000
H  -13.27100 23.00100 42.33600
H  -14.79200 22.56000 42.79000
H  -18.15500 19.18300 41.37200
H  -17.04400 18.10100 42.21300
H  -16.92200 18.38400 40.36200
H  -14.53300 14.63000 40.31700
H  -13.15200 13.24700 42.68200
H  -15.32300 14.93500 43.27000
H  -15.43900 13.42700 42.35000
H  -16.30200 14.91600 41.76400
H  -13.71000 12.14800 40.35400
H  -12.20800 11.67800 41.08000
H  -12.75900 13.15700 38.51400
H  -11.26000 12.48500 38.95400
H  -11.73800 14.12500 39.44900
H  -6.66600 12.69400 43.25000
H  -7.45400 12.59100 41.69100
H  -8.41400 12.28400 43.20800
H  -5.64600 17.76100 42.65400
H  -2.87000 19.93600 45.30900
H  -3.55200 18.67200 46.42900
H  -4.46600 20.01100 46.03200

