158

Mg 30.93200 59.94700 40.57500
C  27.92700 58.46300 39.22200
C  32.65500 57.29700 39.06700
C  33.73500 61.51600 41.08800
C  29.01600 62.80200 41.37400
N  30.32500 58.12300 39.22900
C  29.08600 57.65300 38.91600
C  29.12200 56.38800 38.00800
C  30.64900 56.02100 38.15600
C  31.30600 57.21600 38.90700
C  31.06500 54.66000 38.79500
C  28.61200 56.70600 36.55200
C  27.62000 55.73800 35.91200
H  26.62200 56.28900 34.85000
N  32.87200 59.45800 40.31600
C  33.40100 58.32400 39.74100
C  34.83300 58.30100 39.82600
C  35.26000 59.49200 40.45800
C  33.91500 60.18100 40.65300
C  35.61800 57.25000 39.07500
C  36.76500 59.99900 40.81400
O  37.78100 59.37500 40.52800
C  36.98800 61.24300 41.64700
N  31.24500 61.86900 41.19400
C  32.59800 62.26800 41.29400
C  32.58500 63.80700 41.55600
C  31.10700 64.12500 41.90400
C  30.40100 62.87900 41.41800
C  33.71800 64.22000 42.60300
C  30.59200 65.49300 41.24200
C  29.73200 66.35900 42.16900
N  28.84900 60.57300 40.28600
C  28.23300 61.72600 40.77100
C  26.73500 61.60300 40.55800
C  26.65200 60.36200 39.88500
C  27.91200 59.74600 39.80300
C  25.71900 62.66400 40.74900
C  25.70400 59.46500 39.15700
O  24.55500 59.70000 38.77900
C  26.51500 58.18900 38.85400
C  25.92800 57.06500 39.57200
O  26.28900 56.64900 40.64200
O  24.92100 56.51400 38.82100
C  24.34500 55.23300 39.23200
H  33.27500 56.54800 38.56900
H  34.62600 62.14200 41.01100
H  28.52200 63.75500 41.57400
H  28.60200 55.58200 38.52500
H  31.05800 56.01600 37.14600
H  31.58700 54.08400 38.03100
H  30.26600 53.98800 39.11000
H  31.74800 54.70700 39.64400
H  29.45100 56.65700 35.85700
H  28.27100 57.73700 36.46200
H  27.06500 55.18700 36.67100
H  28.26100 54.97300 35.47300
H  35.53200 57.38500 37.99700
H  35.17500 56.28400 39.31700
H  36.66600 57.12700 39.35000
H  37.79900 61.18100 42.37200
H  36.10200 61.38700 42.26500
H  37.03900 62.11700 40.99800
H  32.89700 64.11900 40.55900
H  31.03100 64.23600 42.98500
H  34.12100 63.34400 43.11100
H  33.27400 64.84500 43.37900
H  34.54400 64.78900 42.17800
H  30.13900 65.25900 40.27800
H  31.44400 66.15400 41.08600
H  30.18700 67.32700 42.37600
H  29.44200 66.01600 43.16200
H  28.81600 66.62000 41.63800
H  25.94800 63.28700 41.61400
H  24.75500 62.19300 40.94400
H  25.79200 63.26400 39.84200
H  26.37100 58.01000 37.78900
H  23.32000 55.28400 39.60100
H  24.91100 54.67800 39.97900
H  24.36100 54.60300 38.34300
Mg 6.90700 56.82500 42.36200
C  5.97400 53.63900 42.02500
C  10.14800 55.95700 41.29900
C  7.68000 60.26100 41.79400
C  3.73700 57.74300 43.25400
N  7.90300 55.06400 41.73300
C  7.29800 53.86300 41.63100
C  8.21200 52.83900 41.05900
C  9.63200 53.43100 41.39900
C  9.24100 54.88200 41.62500
C  10.42000 52.80300 42.56300
C  7.94500 52.65700 39.51000
C  8.28200 51.25300 38.89800
H  7.54800 51.00700 37.51700
N  8.64400 57.94200 41.60900
C  9.83500 57.36700 41.28200
C  10.79700 58.40200 40.82900
C  10.14900 59.68900 41.10500
C  8.77100 59.34500 41.56700
C  12.19800 58.03700 40.33900
C  10.82100 60.98300 41.05400
O  12.02600 60.91500 40.73200
C  10.18700 62.31000 41.50500
N  5.84700 58.71400 42.53000
C  6.41800 59.96600 42.30500
C  5.32000 61.07300 42.39500
C  4.07900 60.27700 42.91500
C  4.59600 58.85100 42.97100
C  5.84100 62.18400 43.34500
C  2.78300 60.48300 42.12800
C  1.61100 60.52400 43.14000
N  5.21500 55.91800 42.68600
C  3.98400 56.35300 43.12400
C  3.14200 55.18900 43.32200
C  3.86900 54.06600 42.92500
C  5.11700 54.61800 42.54200
C  1.75300 55.24600 43.85100
C  3.85100 52.68200 42.72000
O  3.04800 51.82800 43.06800
C  5.28500 52.32800 42.21600
C  5.12300 51.44300 41.01100
O  4.70800 51.69300 39.94000
O  5.46400 50.17300 41.42100
C  5.04500 49.11700 40.52000
H  11.14300 55.55600 41.09500
H  7.90900 61.32800 41.77400
H  2.73600 58.09400 43.51600
H  8.10100 51.88600 41.57700
H  10.31300 53.37600 40.55000
H  10.89700 53.43700 43.31000
H  11.03200 52.02000 42.11600
H  9.70800 52.27800 43.20000
H  8.71600 53.13600 38.90600
H  6.97400 53.00400 39.15800
H  7.91200 50.42500 39.50200
H  9.32400 51.10700 38.61100
H  12.61000 58.73500 39.60900
H  12.09700 57.12400 39.75300
H  12.79700 57.83500 41.22600
H  9.86500 62.25200 42.54400
H  9.34600 62.51700 40.84400
H  10.90300 63.11700 41.34700
H  5.09400 61.46300 41.40300
H  3.95200 60.63000 43.93900
H  6.46800 62.92100 42.84300
H  6.37500 61.69700 44.16100
H  5.01600 62.64000 43.89200
H  2.63000 59.58200 41.53300
H  2.88400 61.34300 41.46700
H  0.88400 59.89600 42.62600
H  1.22500 61.54300 43.16700
H  1.81800 60.17300 44.15100
H  1.18500 55.53600 42.96700
H  1.60900 55.89600 44.71300
H  1.37400 54.26400 44.13300
H  5.86100 51.66300 42.86000
H  5.80700 49.11800 39.74100
H  4.06400 49.22100 40.05700
H  5.11400 48.18500 41.08200

