158

Mg 16.54500 -1.39500 27.97000
C  15.18200 0.91400 30.48300
C  18.51200 -2.65800 30.54900
C  18.18300 -2.98600 25.66800
C  15.02400 0.72400 25.66900
N  16.83300 -0.87200 30.29100
C  16.15900 0.07200 31.03600
C  16.44600 -0.18500 32.49900
C  17.60200 -1.19100 32.46000
C  17.67400 -1.68100 30.99800
C  18.96200 -0.64900 32.97100
C  15.19200 -0.79200 33.22000
C  15.03500 -0.36300 34.71100
H  16.15600 0.43000 35.54200
N  18.05700 -2.79800 28.09300
C  18.68400 -3.19900 29.17500
C  19.63000 -4.17500 28.80100
C  19.52700 -4.43900 27.42000
C  18.62500 -3.39000 26.96800
C  20.51100 -4.84900 29.83100
C  20.27100 -5.40400 26.50100
O  20.24100 -5.47600 25.24100
C  21.05400 -6.47500 27.08400
N  16.55400 -1.21500 25.89400
C  17.35600 -2.01000 25.19400
C  17.20800 -1.67200 23.64700
C  16.21700 -0.43700 23.74000
C  15.89600 -0.29100 25.21500
C  18.52900 -1.26500 22.97200
C  15.06100 -0.81200 22.84900
C  14.75200 -0.13900 21.53500
N  15.18700 0.26000 27.99200
C  14.67100 0.91300 26.99400
C  13.72500 1.94500 27.47600
C  13.92900 1.94800 28.84700
C  14.84000 0.95700 29.09100
C  12.75900 2.81800 26.66400
C  13.42200 2.54800 30.10100
O  12.50500 3.32200 30.26100
C  14.20700 1.79800 31.30300
C  14.93400 2.82700 32.07700
O  15.95500 3.45800 31.75600
O  14.34500 2.92200 33.25900
C  14.91000 3.82000 34.25300
H  19.17500 -3.16500 31.25300
H  18.71000 -3.57600 24.91600
H  14.58200 1.39600 24.93100
H  16.71300 0.72600 33.03500
H  17.31600 -1.95800 33.18000
H  19.33100 -1.41500 33.65400
H  18.87100 0.21800 33.62600
H  19.61600 -0.34700 32.15300
H  15.16300 -1.87300 33.08400
H  14.33100 -0.55100 32.59800
H  15.02700 -1.29600 35.27400
H  14.08500 0.14100 34.89000
H  21.39800 -5.30100 29.38600
H  20.05800 -5.64000 30.42900
H  20.92000 -3.98700 30.35800
H  20.58900 -6.78100 28.02100
H  22.04300 -6.01700 27.10000
H  20.98700 -7.40900 26.52600
H  16.74200 -2.49300 23.10300
H  16.70400 0.45000 23.33400
H  19.28900 -0.84000 23.62700
H  18.39200 -0.49700 22.21000
H  18.92500 -2.17400 22.51900
H  14.11200 -0.73800 23.37900
H  14.87700 -1.86900 22.65600
H  14.78700 -0.86300 20.72100
H  15.52600 0.59500 21.31100
H  13.79900 0.38800 21.48700
H  11.81000 2.28800 26.75100
H  13.06100 2.95200 25.62500
H  12.63500 3.83800 27.02700
H  13.52100 1.32100 32.00200
H  14.56600 4.84900 34.15200
H  15.99800 3.78100 34.31600
H  14.48100 3.47600 35.19400
Mg -11.22500 39.17300 41.69800
C  -9.41100 36.50700 40.83600
C  -8.96500 41.30600 40.01600
C  -13.40100 41.93900 41.88000
C  -13.72500 37.20000 42.98700
N  -9.42900 38.90500 40.48300
C  -8.82900 37.71600 40.28200
C  -7.53700 37.79000 39.46200
C  -7.41600 39.36900 39.26800
C  -8.64200 39.94100 40.05900
C  -6.06900 40.05500 39.48400
C  -7.47700 36.90400 38.15100
C  -6.21500 35.91800 38.02800
H  -5.04500 36.41800 37.23800
N  -11.12600 41.29500 41.22600
C  -10.04300 41.89700 40.62200
C  -10.28600 43.34100 40.61700
C  -11.54600 43.53500 41.27000
C  -12.10700 42.22500 41.47600
C  -9.37100 44.34900 40.05000
C  -12.20900 44.86300 41.50100
O  -11.66300 45.88300 40.96300
C  -13.43400 45.11400 42.46100
N  -13.43300 39.50600 42.14300
C  -13.97300 40.69900 42.23300
C  -15.49400 40.52000 42.67500
C  -15.50900 39.01300 43.10200
C  -14.15000 38.52300 42.70000
C  -15.97200 41.58300 43.68200
C  -16.69900 38.13000 42.53000
C  -17.99000 37.97800 43.32300
N  -11.51900 37.25600 41.80300
C  -12.49600 36.58400 42.54100
C  -12.18900 35.19000 42.66600
C  -10.95200 35.09500 41.98200
C  -10.61000 36.40000 41.50700
C  -12.98400 34.13800 43.32500
C  -9.91800 34.21600 41.71500
O  -9.77900 33.03000 42.04100
C  -8.82200 35.06700 40.86300
C  -7.50200 34.86200 41.61400
O  -6.75400 33.88000 41.48300
O  -7.18500 36.01100 42.23800
C  -5.87000 36.13500 42.89300
H  -8.15500 41.90700 39.59700
H  -14.08200 42.78200 41.74900
H  -14.34500 36.60000 43.65600
H  -6.77000 37.49400 40.17700
H  -7.71800 39.44200 38.22400
H  -5.49800 39.43200 38.79600
H  -5.65500 39.98600 40.49000
H  -6.22900 41.08900 39.17700
H  -7.32200 37.61900 37.34300
H  -8.31800 36.23000 37.99200
H  -6.52600 35.02600 37.48300
H  -5.96900 35.71400 39.07000
H  -8.39000 43.87600 40.00000
H  -9.33300 45.19400 40.73700
H  -9.63600 44.71200 39.05700
H  -13.48900 46.18100 42.67700
H  -13.15900 44.52600 43.33600
H  -14.34600 44.77600 41.96900
H  -16.04800 40.68000 41.75100
H  -15.49500 38.94700 44.19000
H  -15.09300 42.12500 44.03100
H  -16.53200 41.12700 44.49900
H  -16.66900 42.27300 43.20600
H  -16.44100 37.10600 42.25800
H  -16.95800 38.51200 41.54200
H  -18.82700 38.46700 42.82500
H  -17.72200 38.43600 44.27600
H  -18.22400 36.93700 43.54600
H  -12.44500 33.25000 42.99500
H  -14.01500 34.12800 42.96900
H  -12.97100 34.14400 44.41500
H  -8.67700 34.69300 39.85000
H  -5.67600 37.19200 43.07400
H  -5.13900 35.87200 42.12800
H  -5.88100 35.44800 43.73900

