158

Mg 35.72600 1.99100 29.90400
C  33.42700 3.28900 32.22300
C  38.03800 1.70100 32.50000
C  37.97100 1.44700 27.50700
C  33.23200 2.51900 27.36500
N  35.77300 2.49200 32.05600
C  34.64800 2.84900 32.77900
C  34.93900 2.75500 34.32700
C  36.40500 2.37500 34.41600
C  36.73400 2.17600 32.90100
C  37.34700 3.55500 34.90600
C  33.95700 1.73400 35.04300
C  33.13900 2.28700 36.25100
H  33.62700 3.56200 37.00800
N  37.75600 1.56800 30.01200
C  38.54500 1.41700 31.17900
C  39.81500 0.86600 30.73200
C  39.87800 0.92500 29.29900
C  38.46600 1.34100 28.90200
C  40.84000 0.25600 31.72700
C  40.98300 0.66200 28.34200
O  40.86400 0.72100 27.10500
C  42.30300 0.31800 28.76100
N  35.56700 1.62300 27.71700
C  36.70500 1.59600 26.98500
C  36.30300 1.50900 25.47100
C  34.67700 1.73600 25.42400
C  34.43600 1.96200 26.94600
C  36.99200 2.42300 24.49900
C  33.87200 0.51100 24.92800
C  32.55000 0.82500 24.26700
N  33.74200 2.61300 29.83600
C  32.88300 2.80200 28.71300
C  31.63900 3.42800 29.20800
C  31.78300 3.51900 30.60300
C  33.07300 3.09500 30.86100
C  30.49300 3.83000 28.34500
C  31.10500 3.91000 31.81400
O  29.94400 4.11000 32.04300
C  32.22300 3.82200 32.95300
C  32.42400 5.11900 33.55100
O  33.09200 6.02500 33.02000
O  31.59000 5.32500 34.57700
C  31.51900 6.62000 35.27900
H  38.76500 1.42800 33.26800
H  38.63900 1.24100 26.66900
H  32.43400 2.80200 26.67500
H  34.82700 3.72900 34.80400
H  36.57400 1.44300 34.95400
H  37.83500 4.11800 34.11100
H  38.21700 3.27700 35.50100
H  36.82200 4.35500 35.42800
H  34.47700 0.83400 35.37200
H  33.18100 1.47500 34.32200
H  33.25100 1.63700 37.11900
H  32.07400 2.37400 36.03800
H  41.57300 1.04100 31.91200
H  41.33700 -0.62100 31.31200
H  40.42300 -0.00700 32.69900
H  42.39500 -0.76800 28.73300
H  42.60200 0.74500 29.71900
H  43.00900 0.76200 28.05900
H  36.52700 0.50000 25.12700
H  34.36300 2.69500 25.01200
H  37.34800 3.35900 24.92900
H  36.26100 2.76200 23.76500
H  37.73900 1.80200 24.00400
H  33.61700 -0.18100 25.73100
H  34.56000 0.04900 24.22000
H  32.60400 1.89400 24.06200
H  31.67400 0.45700 24.80200
H  32.45100 0.32700 23.30300
H  30.19900 2.99900 27.70400
H  30.84800 4.71300 27.81200
H  29.61200 4.21300 28.86100
H  31.88900 3.14900 33.74200
H  30.68700 7.12700 34.79200
H  32.37000 7.25100 35.02200
H  31.09200 6.50700 36.27600
Mg 0.49600 43.66500 26.08200
C  2.69800 43.98000 28.80200
C  -2.09300 43.26300 28.36300
C  -1.45500 42.84800 23.49700
C  3.23000 44.20300 23.89300
N  0.36600 43.51400 28.39600
C  1.37400 43.73900 29.28200
C  0.83000 43.53400 30.68100
C  -0.58900 42.94200 30.52300
C  -0.82900 43.34900 29.02200
C  -0.77100 41.40900 30.80500
C  0.88900 44.88600 31.48400
C  1.32700 44.81100 32.92500
H  0.86200 43.65000 33.75400
N  -1.49900 43.16000 25.97200
C  -2.40400 43.11900 27.00600
C  -3.69100 42.75200 26.48000
C  -3.53600 42.54700 25.05200
C  -2.11500 42.80500 24.76800
C  -4.88700 42.51700 27.47300
C  -4.57300 42.24800 24.04800
O  -4.34400 41.96300 22.83300
C  -6.06200 42.21000 24.52500
N  0.91200 43.37400 23.97600
C  -0.13500 43.15500 23.11600
C  0.36200 43.14200 21.66600
C  1.75100 43.82100 21.75600
C  1.99900 43.80800 23.29300
C  0.13400 41.73200 20.92300
C  1.82000 45.29100 21.18000
C  0.82000 46.20800 21.73600
N  2.54600 43.97600 26.24700
C  3.49100 44.21500 25.25300
C  4.75300 44.47300 25.96100
C  4.47500 44.38500 27.29000
C  3.12800 44.02200 27.46300
C  6.13700 44.86800 25.40700
C  5.03900 44.32000 28.59100
O  6.23600 44.49300 28.86700
C  3.88600 44.15600 29.67100
C  4.31200 43.06800 30.44200
O  4.51300 41.98800 29.99400
O  4.68200 43.43300 31.72000
C  5.16800 42.41500 32.59600
H  -2.93800 43.06400 29.02500
H  -1.95300 42.48900 22.59300
H  4.06700 44.49000 23.25300
H  1.48900 42.79000 31.12700
H  -1.24600 43.50700 31.18400
H  -0.90100 40.87900 29.86200
H  -1.62300 41.21200 31.45700
H  0.15200 40.99700 31.21200
H  -0.14900 45.21400 31.53300
H  1.44900 45.70300 31.02800
H  0.88500 45.73800 33.29000
H  2.40100 44.99500 32.95800
H  -4.58400 42.19300 28.46900
H  -5.59600 41.76400 27.12900
H  -5.45000 43.44300 27.59000
H  -6.38000 41.38400 25.16200
H  -6.70900 42.19000 23.64800
H  -6.23100 43.21900 24.90300
H  -0.25500 43.70900 20.96900
H  2.37700 43.10900 21.21900
H  0.31700 41.80000 19.85100
H  -0.92300 41.48300 21.01100
H  0.82600 40.99300 21.32700
H  1.75600 45.24400 20.09300
H  2.82400 45.60300 21.46700
H  1.33500 46.94500 22.35200
H  -0.01800 45.70600 22.21700
H  0.36900 46.71000 20.88000
H  6.70600 45.33100 26.21400
H  6.23800 45.59500 24.60100
H  6.64100 43.93900 25.14100
H  3.72700 45.00600 30.33500
H  5.79500 41.67000 32.10600
H  4.33600 41.93900 33.11500
H  5.82100 42.81300 33.37200

