158

Mg 36.04500 50.32100 25.44600
C  35.95000 48.43800 28.53000
C  34.74700 52.95300 27.26800
C  35.99200 52.03400 22.58800
C  37.06700 47.47000 23.76000
N  35.46400 50.73800 27.69800
C  35.60500 49.82100 28.72000
C  35.19200 50.48300 30.06100
C  34.75900 51.89900 29.61300
C  34.97800 51.94200 28.10600
C  33.33300 52.32000 30.05900
C  36.28100 50.42700 31.15900
C  35.88600 49.71600 32.47000
H  34.47000 49.83600 33.04200
N  35.64500 52.27200 25.02400
C  34.99900 53.20600 25.84500
C  34.60200 54.40100 25.09400
C  35.01300 54.21700 23.76500
C  35.62000 52.82900 23.74800
C  33.89800 55.54100 25.74500
C  34.83000 55.07500 22.54400
O  35.29900 54.90800 21.42200
C  34.17600 56.41100 22.80800
N  36.26300 49.77900 23.47200
C  36.25200 50.66000 22.42200
C  36.67000 49.99300 21.09200
C  37.29200 48.66700 21.50200
C  36.80300 48.63500 23.01400
C  35.46500 49.98300 20.07500
C  38.84000 48.57100 21.37300
C  39.72300 49.29100 22.41500
N  36.34500 48.40100 25.94000
C  36.84100 47.32700 25.15900
C  37.01300 46.11500 25.97500
C  36.63000 46.50700 27.23700
C  36.23200 47.91700 27.20600
C  37.50900 44.81500 25.43700
C  36.50600 46.04800 28.61800
O  36.77000 44.95100 29.10400
C  36.17400 47.29000 29.48500
C  35.01500 46.82900 30.29800
O  33.81000 47.05700 29.96800
O  35.33100 46.12000 31.41900
C  34.24000 45.50600 32.23400
H  34.19700 53.80900 27.66400
H  35.95900 52.61400 21.66400
H  37.44900 46.58900 23.24100
H  34.31200 49.95900 30.43400
H  35.44700 52.65600 29.99300
H  32.79800 52.73400 29.20400
H  33.36700 53.15200 30.76200
H  32.67900 51.49900 30.35300
H  36.72200 51.40600 31.34900
H  37.07900 49.85000 30.69200
H  36.54200 50.05500 33.27100
H  36.15000 48.68400 32.23400
H  33.79600 55.61100 26.82800
H  32.94100 55.65200 25.23400
H  34.29900 56.53800 25.56500
H  33.12300 56.32500 23.07800
H  34.30200 57.05200 21.93600
H  34.75400 56.93400 23.56900
H  37.37000 50.63900 20.56200
H  36.78500 47.82300 21.03500
H  34.57900 50.11000 20.69700
H  35.41900 49.00300 19.60000
H  35.47700 50.87700 19.45200
H  39.09100 49.03600 20.41900
H  39.07200 47.51200 21.25900
H  39.10800 49.86700 23.10700
H  40.48000 49.85600 21.87100
H  40.27500 48.55700 23.00100
H  38.17300 45.13800 24.63500
H  36.60200 44.32700 25.07900
H  37.97500 44.13600 26.15100
H  37.00100 47.55500 30.14300
H  33.62200 44.90200 31.57000
H  33.71000 46.38400 32.60200
H  34.58700 44.82200 33.00800
Mg 15.97000 51.30400 25.41200
C  17.99500 50.69200 28.20100
C  13.48900 51.97900 27.31800
C  14.10000 51.39800 22.59400
C  18.72200 50.42000 23.41900
N  15.72400 51.33200 27.56000
C  16.73100 51.30700 28.45500
C  16.25600 51.65000 29.83400
C  14.73900 51.81000 29.57000
C  14.68900 51.77800 28.01200
C  13.80700 50.79000 30.30700
C  16.99900 52.92800 30.45500
C  17.30800 52.88800 31.99700
H  16.55800 51.77100 32.84000
N  13.96400 51.73000 25.01300
C  13.09100 51.93300 25.98200
C  11.76600 52.01200 25.43100
C  11.94900 51.79500 24.02300
C  13.33700 51.56200 23.77500
C  10.41800 52.16100 26.27400
C  10.83900 51.73200 22.97400
O  11.14300 51.56900 21.76100
C  9.38600 52.06400 23.30800
N  16.42800 51.27900 23.32200
C  15.45200 51.23800 22.39900
C  16.05500 50.89700 20.94800
C  17.54600 51.24800 21.22200
C  17.54300 50.94100 22.74900
C  15.81200 49.42700 20.38900
C  18.05200 52.67700 20.91000
C  18.83400 52.81000 19.58000
N  17.98800 50.70900 25.65100
C  18.92200 50.28500 24.77500
C  20.08200 49.74200 25.49200
C  19.74900 49.89200 26.87800
C  18.50000 50.48100 26.92200
C  21.36500 49.22700 24.93000
C  20.23200 49.72700 28.22000
O  21.33300 49.41400 28.65500
C  19.07000 50.23300 29.19700
C  18.72200 48.99700 29.97700
O  18.56300 47.84200 29.55500
O  18.70400 49.30400 31.28100
C  18.18600 48.31000 32.16500
H  12.64200 52.10600 27.99500
H  13.56200 51.42300 21.64400
H  19.61200 50.31500 22.79400
H  16.51400 50.78400 30.44300
H  14.38400 52.79800 29.86300
H  13.48400 50.08400 29.54100
H  12.94700 51.36000 30.65700
H  14.31300 50.30000 31.13900
H  16.42200 53.83200 30.26400
H  17.92400 53.03700 29.88900
H  16.92600 53.78200 32.49100
H  18.38900 52.81900 32.11600
H  9.64200 51.49900 25.89000
H  10.07600 53.16900 26.03700
H  10.40000 51.92000 27.33700
H  9.23900 53.03400 23.78200
H  8.84200 51.22700 23.74500
H  8.80400 52.06500 22.38600
H  15.45100 51.59200 20.36600
H  18.13700 50.53900 20.64100
H  15.31400 48.91400 21.21200
H  16.76400 48.94200 20.17200
H  15.35500 49.30800 19.40600
H  18.76900 52.90000 21.70000
H  17.21300 53.35200 21.07700
H  18.45800 52.14600 18.80300
H  19.91000 52.75400 19.74300
H  18.65300 53.79500 19.15100
H  21.69600 49.67400 23.99200
H  21.32000 48.15000 24.76700
H  22.19000 49.35600 25.63000
H  19.40400 51.00100 29.89500
H  18.53800 47.33800 31.82000
H  17.09700 48.35300 32.12900
H  18.63400 48.24900 33.15700

