158

Mg 48.05400 15.90400 29.16600
C  45.76000 15.55900 31.71100
C  50.05900 17.71600 31.29600
C  50.08700 16.54100 26.54400
C  45.54200 14.56600 26.94000
N  47.88600 16.62100 31.29700
C  46.90000 16.26800 32.15600
C  47.35700 16.46600 33.61600
C  48.46400 17.53500 33.40000
C  48.88000 17.32100 31.95100
C  47.89800 18.97200 33.57400
C  47.93000 15.11800 34.18700
C  47.95900 14.89200 35.74500
H  48.01500 16.16200 36.68200
N  49.82300 16.90000 28.92000
C  50.50800 17.56100 29.93700
C  51.84900 17.96500 29.47800
C  51.89100 17.64500 28.07500
C  50.53400 17.00200 27.78800
C  52.88000 18.67800 30.23100
C  52.99900 17.84000 27.04300
O  52.94300 17.43800 25.91800
C  54.23000 18.71400 27.36700
N  47.77200 15.76400 27.06300
C  48.78400 16.06300 26.21300
C  48.27400 15.76400 24.76700
C  47.03400 14.90500 24.88400
C  46.75700 15.09100 26.40800
C  48.05900 17.09400 24.01700
C  47.27900 13.38400 24.50600
C  46.22100 12.82400 23.50500
N  46.11300 15.10900 29.24400
C  45.25400 14.60000 28.31600
C  44.04600 14.20200 28.94900
C  44.20400 14.50800 30.30800
C  45.46600 15.06200 30.45300
C  42.86800 13.59900 28.23000
C  43.59100 14.46400 31.59800
O  42.44800 14.07200 31.86000
C  44.59200 15.19100 32.58300
C  43.90900 16.35600 33.25900
O  43.24900 17.23200 32.76100
O  44.18100 16.20300 34.61300
C  43.41700 17.18800 35.42900
H  50.84600 18.12300 31.93500
H  50.77600 16.64900 25.70500
H  44.91100 14.01300 26.24100
H  46.50000 16.80300 34.19900
H  49.22000 17.45100 34.18100
H  48.59700 19.53600 34.19100
H  46.85100 18.96400 33.87700
H  47.91700 19.48100 32.61000
H  48.96600 15.05700 33.85500
H  47.51300 14.25500 33.66600
H  48.85700 14.32100 35.97800
H  47.15800 14.27000 36.14600
H  53.79900 18.10600 30.10500
H  52.75900 18.70800 31.31400
H  52.94400 19.74500 30.01500
H  53.74800 19.67000 27.56900
H  54.77900 18.77100 26.42700
H  54.84400 18.23300 28.12900
H  49.04300 15.20300 24.23600
H  46.21300 15.35600 24.32600
H  47.07800 17.09900 23.54300
H  48.76400 17.10800 23.18600
H  48.21100 17.87500 24.76300
H  47.26300 12.74000 25.38500
H  48.24700 13.41300 24.00600
H  45.30300 13.40700 23.42200
H  45.85400 11.88300 23.91500
H  46.72100 12.77700 22.53700
H  42.88600 12.51500 28.33800
H  42.80300 13.64800 27.14300
H  41.93000 13.97000 28.64300
H  45.02900 14.45900 33.26200
H  42.52600 16.63100 35.71800
H  43.27600 18.17900 34.99800
H  43.89300 17.36300 36.39300
Mg 9.38900 48.18700 26.05600
C  7.03600 48.59100 28.70400
C  11.71300 49.44600 28.00200
C  11.36600 47.83700 23.41600
C  6.51000 48.06600 23.84100
N  9.39400 48.88700 28.17100
C  8.37700 48.78100 29.08900
C  8.95500 49.04500 30.49200
C  10.34400 49.71700 30.16500
C  10.51100 49.46000 28.65800
C  10.41100 51.30200 30.41400
C  8.95200 47.85400 31.49900
C  8.79700 48.27800 32.98500
H  8.64600 47.09200 33.95000
N  11.30700 48.50400 25.73600
C  12.12200 48.97400 26.70400
C  13.46000 48.88000 26.14400
C  13.37300 48.32600 24.83000
C  11.99900 48.15700 24.65600
C  14.64800 49.28700 26.92600
C  14.46300 47.77800 23.94000
O  14.26600 47.15200 22.88900
C  15.90800 47.87500 24.34600
N  9.02200 47.98600 23.87800
C  9.98200 47.79500 23.07400
C  9.44700 47.48100 21.62400
C  7.96000 47.89600 21.76000
C  7.79500 47.99700 23.28200
C  10.23400 48.13700 20.41400
C  6.93100 46.84100 21.14500
C  5.76700 47.52300 20.41400
N  7.28400 48.29500 26.19700
C  6.25300 48.20300 25.19800
C  4.94900 48.36200 25.84600
C  5.28500 48.46700 27.17400
C  6.65400 48.42600 27.33900
C  3.64400 48.34500 25.19900
C  4.63800 48.64000 28.48900
O  3.46700 48.68200 28.69000
C  5.79400 48.76100 29.50400
C  5.53600 47.64900 30.46100
O  5.92200 46.52000 30.20500
O  4.80800 47.99200 31.53800
C  4.58900 47.03100 32.65600
H  12.54000 49.80100 28.61900
H  11.90300 47.77600 22.46800
H  5.64200 48.06700 23.17800
H  8.43400 49.88900 30.94400
H  11.23800 49.36500 30.67900
H  9.40500 51.72100 30.39500
H  10.99200 51.69500 29.58000
H  11.02300 51.56200 31.27700
H  9.86100 47.26100 31.39800
H  8.14800 47.17700 31.20900
H  7.87100 48.85200 33.00500
H  9.64900 48.87300 33.31400
H  14.48200 49.67600 27.93100
H  15.11200 50.00700 26.25100
H  15.23500 48.37600 27.04600
H  16.21300 47.10400 25.05300
H  16.01000 48.83700 24.84800
H  16.46900 47.99600 23.41900
H  9.43800 46.39200 21.56500
H  7.85600 48.92300 21.40900
H  10.91100 48.87000 20.85300
H  9.71500 48.55600 19.55300
H  10.79300 47.43800 19.79200
H  6.53700 46.15300 21.89300
H  7.54400 46.33100 20.40200
H  5.71000 47.35800 19.33900
H  5.79300 48.60700 20.52800
H  4.91700 47.01100 20.86700
H  3.57800 49.18100 24.50200
H  2.92200 48.68300 25.94100
H  3.30700 47.38400 24.81200
H  5.79800 49.74000 29.98200
H  3.65200 47.36300 33.10400
H  5.26300 47.20000 33.49600
H  4.71000 45.98200 32.38400

