158

Mg -1.98400 17.72400 27.74600
C  -3.04300 15.74500 30.39200
C  -3.04300 20.49700 29.44900
C  -1.81100 19.46400 24.81800
C  -1.82400 14.75600 25.76700
N  -2.79800 18.13200 29.69300
C  -3.18000 17.11700 30.65000
C  -3.66200 17.88400 31.90900
C  -3.76000 19.42300 31.56400
C  -3.16700 19.35600 30.19900
C  -5.14600 19.94300 31.76200
C  -2.71300 17.71100 33.11400
C  -3.34800 17.65300 34.50500
H  -2.44400 17.29900 35.63700
N  -2.11400 19.72400 27.32500
C  -2.56200 20.70400 28.16100
C  -2.53700 21.96200 27.47400
C  -2.02300 21.72300 26.17000
C  -1.98900 20.23300 26.04600
C  -2.91300 23.33100 28.16600
C  -1.61600 22.63900 24.99800
O  -1.17100 22.21200 23.91900
C  -1.74800 24.08000 25.14000
N  -1.84800 17.15800 25.63900
C  -1.68500 18.10500 24.64300
C  -1.48100 17.46300 23.21500
C  -1.36700 15.97900 23.61600
C  -1.63900 15.98700 25.14100
C  -2.62100 17.76200 22.23700
C  -0.09300 15.25800 23.23500
C  1.15100 15.77400 23.94100
N  -2.24400 15.58800 28.01800
C  -2.09900 14.52700 27.13000
C  -2.32200 13.30500 27.79600
C  -2.66800 13.73400 29.08800
C  -2.50900 15.11800 29.22400
C  -2.30100 12.01800 27.18600
C  -3.07300 13.21300 30.40600
O  -3.23800 12.10500 30.84600
C  -3.31600 14.52500 31.26700
C  -2.55900 14.35100 32.54300
O  -1.35900 14.57100 32.77600
O  -3.51600 14.02100 33.50600
C  -3.00800 13.84400 34.88600
H  -3.47000 21.39600 29.89800
H  -1.78200 20.04200 23.89200
H  -1.79700 13.95500 25.02600
H  -4.59300 17.44300 32.26400
H  -3.19600 20.08600 32.22100
H  -5.52900 20.00100 30.74300
H  -5.07200 20.92900 32.22000
H  -5.81400 19.36100 32.39700
H  -2.01800 18.54900 33.16700
H  -2.00800 16.90900 32.90000
H  -4.05000 16.82000 34.53200
H  -3.82300 18.60100 34.75800
H  -2.25700 24.13800 27.83700
H  -2.76400 23.19400 29.23700
H  -3.91500 23.58700 27.82000
H  -2.78600 24.36300 25.31300
H  -1.45300 24.54800 24.20000
H  -1.14600 24.54100 25.92300
H  -0.54800 17.77600 22.74600
H  -2.15700 15.42600 23.10700
H  -2.97500 18.71300 22.63500
H  -3.47300 17.08200 22.19900
H  -2.24000 17.92600 21.22900
H  0.23400 15.30900 22.19700
H  -0.28800 14.20200 23.42300
H  1.05300 16.76200 24.39200
H  1.95800 15.94700 23.22900
H  1.41500 14.97600 24.63500
H  -1.94700 12.16000 26.16500
H  -3.36000 11.78000 27.28500
H  -1.67100 11.39600 27.82300
H  -4.38100 14.47500 31.49400
H  -2.31300 14.67500 35.00800
H  -2.57400 12.85700 35.04200
H  -3.77100 14.04000 35.64000
Mg 48.69300 35.74200 26.46200
C  46.90400 34.17000 28.87200
C  48.66300 38.68800 28.34800
C  50.60900 37.26900 24.08300
C  48.29700 33.07700 24.36300
N  47.99600 36.30600 28.39600
C  47.39900 35.43200 29.30200
C  47.35700 36.12900 30.64800
C  47.49700 37.64200 30.33200
C  48.00900 37.58900 28.88700
C  46.22800 38.60300 30.56900
C  48.46100 35.69400 31.63200
C  47.99000 35.31900 33.10800
H  46.92700 36.19600 33.77300
N  49.54600 37.64600 26.25400
C  49.39400 38.71100 27.08800
C  50.23600 39.78600 26.72800
C  50.94900 39.35500 25.59700
C  50.33800 38.04200 25.23500
C  50.37000 41.07600 27.50200
C  52.03200 40.06000 24.74700
O  52.51300 39.46300 23.78600
C  52.52700 41.40800 25.19100
N  49.15200 35.27600 24.40400
C  50.06500 36.05500 23.67700
C  50.28300 35.44600 22.30700
C  49.52800 34.08600 22.38700
C  48.96900 34.09100 23.77800
C  49.72800 36.40600 21.16700
C  50.56400 32.89200 22.15600
C  51.03100 32.74100 20.66700
N  47.72200 34.02300 26.50600
C  47.64100 33.02800 25.60200
C  46.91900 31.91300 26.15300
C  46.54400 32.31900 27.43800
C  47.00800 33.65600 27.55100
C  46.70900 30.61000 25.51000
C  45.93200 31.87200 28.69400
O  45.42600 30.82400 29.10100
C  46.03100 33.14900 29.59900
C  46.61900 32.68600 30.86700
O  47.83600 32.44300 31.06300
O  45.60300 32.37700 31.79500
C  46.07000 31.57700 32.97200
H  48.58300 39.47900 29.09600
H  51.28900 37.68200 23.33500
H  48.37200 32.14200 23.80400
H  46.41500 35.95300 31.16700
H  48.23700 38.10500 30.98400
H  45.38000 38.06600 30.99400
H  46.08300 39.11700 29.61900
H  46.48600 39.39600 31.27000
H  49.17600 36.49800 31.80500
H  48.99000 34.80600 31.28500
H  48.83500 35.39200 33.79300
H  47.68700 34.27300 33.13300
H  51.35500 41.53000 27.61300
H  49.93600 40.97400 28.49700
H  49.70000 41.86600 27.16100
H  51.83100 42.24200 25.09900
H  53.37800 41.62900 24.54700
H  52.88000 41.30800 26.21700
H  51.33900 35.20100 22.18600
H  48.71100 33.97500 21.67400
H  49.75300 37.49300 21.23400
H  48.72400 36.08700 20.88800
H  50.47500 36.28600 20.38200
H  50.20800 31.88100 22.35600
H  51.40100 33.06900 22.83200
H  50.98000 31.72300 20.28100
H  52.08400 33.00000 20.55300
H  50.45900 33.39500 20.01000
H  45.75300 30.18100 25.81100
H  47.44800 29.89100 25.86300
H  46.61800 30.63900 24.42400
H  45.10800 33.69600 29.79300
H  46.79600 32.15300 33.54500
H  46.67500 30.68200 32.83000
H  45.17800 31.24300 33.50100

