158

Mg 17.24500 -2.81200 27.35600
C  16.47100 -0.80900 30.22000
C  19.38500 -4.66900 29.59400
C  18.39800 -4.48900 24.78800
C  15.75900 -0.51400 25.35300
N  17.97700 -2.63900 29.66500
C  17.44100 -1.78900 30.56700
C  17.85900 -2.17900 32.03300
C  18.86200 -3.40500 31.74000
C  18.67200 -3.59200 30.24200
C  20.35700 -3.20700 32.26100
C  16.65300 -2.49300 32.95100
C  16.56800 -1.70700 34.24400
H  17.80900 -1.24800 35.08900
N  18.61900 -4.40700 27.20000
C  19.37300 -4.96500 28.20600
C  20.18300 -6.10700 27.64800
C  19.94700 -6.02500 26.23000
C  18.93800 -4.99100 26.01100
C  21.13700 -6.95000 28.49800
C  20.47500 -6.89400 25.13400
O  20.19600 -6.81300 23.97500
C  21.32900 -8.06600 25.54200
N  17.11900 -2.52800 25.39200
C  17.63200 -3.37700 24.54700
C  17.45700 -2.92600 23.13500
C  16.37900 -1.68200 23.25700
C  16.45800 -1.51400 24.73800
C  18.84200 -2.51700 22.52700
C  14.95200 -2.04200 22.78800
C  14.17000 -0.92200 22.11800
N  16.21900 -1.03700 27.69100
C  15.66500 -0.24900 26.71900
C  14.87800 0.78500 27.38500
C  15.10600 0.54200 28.81300
C  16.00800 -0.53200 28.91700
C  14.07900 1.84100 26.71700
C  14.83000 1.09500 30.19100
O  14.11800 2.02800 30.58100
C  15.80100 0.25800 31.12700
C  16.60200 1.33200 31.73100
O  17.71300 1.64300 31.35100
O  15.93700 2.00300 32.72600
C  16.66000 2.94900 33.60400
H  20.01500 -5.28500 30.23900
H  18.61200 -5.14000 23.93700
H  15.20000 0.15000 24.69000
H  18.40700 -1.28500 32.33200
H  18.41700 -4.27100 32.23000
H  20.49500 -2.39900 32.98000
H  20.95300 -2.98400 31.37600
H  20.64500 -4.10600 32.80500
H  16.45400 -3.54300 33.16200
H  15.74600 -2.19600 32.42300
H  15.98300 -2.27600 34.96700
H  16.11900 -0.72300 34.11300
H  22.13000 -6.97300 28.04900
H  20.86700 -8.00400 28.56100
H  21.26400 -6.76100 29.56400
H  20.87100 -8.76500 26.24100
H  22.24500 -7.68200 25.99000
H  21.65600 -8.66900 24.69500
H  16.91300 -3.73100 22.64000
H  16.72000 -0.79000 22.73100
H  19.61400 -2.79400 23.24500
H  18.89900 -1.44100 22.35800
H  19.03000 -2.97700 21.55700
H  14.34300 -2.38500 23.62500
H  15.06700 -2.93600 22.17600
H  14.77200 -0.01500 22.06400
H  13.22100 -0.74900 22.62600
H  13.98200 -1.06400 21.05400
H  13.92100 2.65300 27.42700
H  13.09100 1.39900 26.58800
H  14.40600 2.17800 25.73300
H  15.18200 -0.11000 31.94600
H  17.66100 2.56600 33.80200
H  16.08200 3.31200 34.45300
H  16.79600 3.89500 33.08100
Mg 29.67000 59.69600 41.17200
C  26.71800 57.96200 40.30500
C  31.32100 56.90500 39.84600
C  32.43900 61.56100 40.81400
C  27.78100 62.50900 41.86900
N  29.05000 57.72100 40.11400
C  27.80000 57.16400 39.96000
C  27.81100 55.84000 39.16700
C  29.28700 55.45400 39.34800
C  29.96400 56.77500 39.76600
C  29.49500 54.35700 40.44200
C  27.36700 56.16600 37.68700
C  26.34400 55.13100 36.99300
H  26.75400 54.52100 35.61800
N  31.63500 59.26000 40.54000
C  32.12000 58.05600 40.11700
C  33.53400 58.23300 39.95400
C  33.92200 59.52800 40.31800
C  32.62900 60.20300 40.61100
C  34.34500 57.19400 39.38500
C  35.36400 60.07700 40.22800
O  36.35700 59.36500 39.89600
C  35.66000 61.54400 40.40700
N  30.03300 61.71900 41.12600
C  31.30500 62.23500 41.13800
C  31.32000 63.76100 41.31700
C  29.84100 64.01500 41.77800
C  29.16200 62.64600 41.67500
C  32.46400 64.35300 42.18100
C  29.05000 65.05100 40.96500
C  28.40100 66.08000 41.84000
N  27.68600 60.17600 41.20400
C  27.00500 61.36300 41.51600
C  25.58700 61.11900 41.47000
C  25.46300 59.83600 41.01300
C  26.73700 59.27500 40.84000
C  24.60900 62.12400 41.77700
C  24.48100 58.86200 40.56700
O  23.26700 58.89200 40.52300
C  25.26700 57.68800 39.98400
C  24.89600 56.33500 40.52800
O  25.14800 55.82100 41.63200
O  24.06700 55.82200 39.64400
C  23.25500 54.68000 40.13200
H  31.77400 55.94200 39.60500
H  33.25000 62.28100 40.68800
H  27.12800 63.31800 42.20200
H  27.10700 55.11400 39.57600
H  29.82800 55.22600 38.42900
H  29.87000 54.89800 41.31000
H  30.36900 53.79000 40.12200
H  28.61800 53.74800 40.66300
H  28.27100 56.21500 37.08100
H  27.00300 57.19200 37.62700
H  25.35600 55.56700 36.84500
H  26.26400 54.33300 37.73100
H  33.81100 56.66200 38.59800
H  34.73800 56.49800 40.12700
H  35.34000 57.49600 39.05800
H  35.24500 62.33500 39.78300
H  36.73500 61.65600 40.26600
H  35.48200 61.67600 41.47400
H  31.43500 64.07400 40.27900
H  29.77500 64.25800 42.83800
H  33.16300 64.78400 41.46500
H  32.89400 63.55400 42.78500
H  32.12900 65.02400 42.97300
H  28.23100 64.50500 40.49700
H  29.68000 65.66300 40.32000
H  27.32300 65.94300 41.76000
H  28.70400 67.09400 41.58000
H  28.67200 65.93000 42.88500
H  24.66800 62.56700 42.77100
H  23.62100 61.68700 41.63200
H  24.88800 62.78500 40.95600
H  25.17500 57.55100 38.90600
H  22.50700 55.03400 40.84200
H  23.86100 53.94200 40.65700
H  22.71700 54.17200 39.33100

