158

Mg -1.85900 17.11000 25.96100
C  -1.86500 14.97200 28.63200
C  -3.17900 19.52400 28.00000
C  -1.76800 19.30700 23.35900
C  -1.34000 14.48900 23.77400
N  -2.36800 17.24900 28.16900
C  -2.17700 16.24000 29.05300
C  -2.63700 16.65500 30.44500
C  -3.36000 18.04200 30.16000
C  -2.97900 18.34100 28.66400
C  -4.84600 18.15900 30.53700
C  -1.46000 16.82700 31.54900
C  -1.44600 15.85200 32.73600
H  -1.97300 16.20000 34.16200
N  -2.23400 19.10400 25.71700
C  -2.86600 19.94000 26.67300
C  -2.98200 21.29100 26.14400
C  -2.36600 21.32000 24.85500
C  -2.08700 19.85400 24.61500
C  -3.69900 22.40300 26.94600
C  -2.09100 22.44500 23.90200
O  -1.62500 22.27400 22.77900
C  -2.32900 23.83300 24.30300
N  -1.72000 16.92900 23.77700
C  -1.59100 17.95500 22.94600
C  -1.25600 17.46800 21.57300
C  -1.01700 15.97600 21.73200
C  -1.39400 15.76000 23.17600
C  -2.20700 17.93900 20.47500
C  0.35400 15.37300 21.36600
C  0.48800 14.21700 20.52900
N  -1.71600 15.14400 26.08600
C  -1.47500 14.22900 25.14600
C  -1.36000 12.93600 25.78900
C  -1.52700 13.19600 27.14900
C  -1.70100 14.57600 27.32000
C  -1.08900 11.55900 25.11100
C  -1.51800 12.54800 28.41400
O  -1.52800 11.34900 28.73400
C  -1.54700 13.76800 29.45900
C  -0.20900 13.82800 30.03900
O  0.72700 14.34500 29.44200
O  -0.14700 13.31900 31.34100
C  1.10600 13.34500 32.03500
H  -3.62100 20.39500 28.48800
H  -1.47800 19.86800 22.46800
H  -0.84400 13.74600 23.14600
H  -3.44000 15.98600 30.75300
H  -2.90400 18.86400 30.71200
H  -5.35600 18.13800 29.57400
H  -4.90600 19.15400 30.97700
H  -5.20200 17.48100 31.31200
H  -1.51200 17.79600 32.04400
H  -0.54000 16.73400 30.97200
H  -0.38200 15.72200 32.93400
H  -1.91000 14.90000 32.47800
H  -2.98600 22.70600 27.71400
H  -4.57400 22.08500 27.51300
H  -3.75200 23.30600 26.33800
H  -3.38300 24.07500 24.17100
H  -1.78500 24.62900 23.79200
H  -1.97300 23.79200 25.33200
H  -0.35700 17.95300 21.19300
H  -1.64900 15.47300 21.00000
H  -1.85800 18.86000 20.00700
H  -3.17400 18.13000 20.94000
H  -2.31500 17.21900 19.66400
H  0.79600 15.09800 22.32300
H  1.05000 16.17400 21.11800
H  0.84900 14.62200 19.58400
H  -0.43700 13.67900 20.31600
H  1.19200 13.56400 21.04500
H  -0.25300 11.16400 25.68900
H  -0.76600 11.51400 24.07000
H  -1.92100 10.88200 25.30100
H  -2.29700 13.59600 30.23100
H  1.32600 14.30500 32.50100
H  1.87600 13.22200 31.27400
H  1.18100 12.65200 32.87400
Mg 47.58100 44.23600 41.61900
C  44.00400 43.86400 41.75700
C  47.78700 40.88800 41.61200
C  50.82200 44.64500 41.21700
C  47.13000 47.70700 41.36300
N  46.06800 42.61700 41.59300
C  44.68900 42.63900 41.62800
C  44.09400 41.21700 41.70600
C  45.36200 40.23100 41.85700
C  46.45900 41.30700 41.74600
C  45.36000 39.36000 43.08700
C  43.24900 40.83300 40.42100
C  43.56100 41.56400 39.06800
H  43.63800 40.69600 37.85400
N  49.11300 42.95400 41.44300
C  49.03900 41.56400 41.47200
C  50.35900 40.98100 41.29600
C  51.28300 42.06600 41.27700
C  50.44100 43.33500 41.36200
C  50.72800 39.46400 41.30700
C  52.81400 41.97500 41.22000
O  53.46000 40.93500 41.18400
C  53.65700 43.19000 41.23100
N  48.77200 45.93300 41.07400
C  50.08300 45.82700 41.17600
C  50.75800 47.19000 40.93600
C  49.60800 48.13600 40.91400
C  48.38100 47.24800 41.15800
C  51.88000 47.48500 42.00200
C  49.39600 48.96900 39.66900
C  49.22900 50.48800 39.88900
N  45.93200 45.57200 41.59000
C  45.92300 46.97200 41.42700
C  44.55800 47.39800 41.55600
C  43.78900 46.20200 41.71200
C  44.63000 45.12900 41.68300
C  44.00400 48.75700 41.44200
C  42.42000 45.61000 41.90700
O  41.37000 46.12300 42.15500
C  42.50400 44.08800 41.88300
C  41.83200 43.33100 43.01800
O  41.19800 42.31400 42.91300
O  42.17900 43.95100 44.14600
C  41.42500 43.46400 45.34700
H  48.03700 39.82700 41.55400
H  51.85500 44.98500 41.11900
H  47.06100 48.78700 41.51100
H  43.47200 41.18700 42.60000
H  45.44000 39.52900 41.02600
H  44.40600 38.83300 43.09000
H  45.33600 39.96600 43.99200
H  46.05300 38.51900 43.11600
H  42.19000 40.90700 40.66500
H  43.42800 39.76900 40.26800
H  44.53100 42.02900 39.24400
H  42.74700 42.25300 38.84200
H  50.99700 39.02700 40.34500
H  49.84400 38.86200 41.51700
H  51.53900 39.31600 42.02100
H  53.32700 43.72700 40.34200
H  54.71100 42.96700 41.06300
H  53.41000 43.76000 42.12700
H  51.32600 47.16300 40.00600
H  49.67000 48.71400 41.83600
H  51.76000 46.79100 42.83400
H  51.70700 48.49900 42.36000
H  52.84000 47.40000 41.49300
H  48.50500 48.74800 39.08200
H  50.24900 48.88900 38.99500
H  48.14800 50.59100 39.79100
H  49.96000 51.08400 39.34200
H  49.45900 50.80800 40.90500
H  43.51900 48.99800 40.49600
H  44.71800 49.57500 41.54100
H  43.25800 48.97800 42.20500
H  42.04200 43.84000 40.92700
H  40.41200 43.86100 45.41000
H  41.97800 43.64700 46.26800
H  41.45400 42.37500 45.32200

