158

Mg 25.85000 0.36600 29.58100
C  27.68600 0.14500 32.61400
C  22.94400 0.99300 31.52500
C  23.96300 0.16300 26.86500
C  28.65500 -0.58300 27.90900
N  25.35100 0.45200 31.81900
C  26.32300 0.45300 32.79600
C  25.66600 0.81300 34.15600
C  24.09600 0.87900 33.88400
C  24.09700 0.75800 32.31900
C  23.18200 -0.28800 34.45800
C  26.23200 2.08400 34.86100
C  26.93600 1.82100 36.22400
H  26.55000 2.73400 37.40200
N  23.78300 0.53300 29.26900
C  22.77900 0.87200 30.12200
C  21.54600 1.10300 29.42200
C  21.74500 0.86600 28.04600
C  23.20900 0.41400 28.02500
C  20.26200 1.56300 30.19300
C  20.94200 0.92500 26.87100
O  21.37100 0.87000 25.71600
C  19.43500 1.17100 26.98300
N  26.19900 -0.40600 27.68900
C  25.28400 -0.21500 26.65900
C  25.97600 -0.30700 25.23100
C  27.45800 -0.67600 25.60800
C  27.48300 -0.56700 27.13900
C  25.25800 -1.42200 24.34100
C  28.52200 0.35000 25.05400
C  28.47700 1.76000 25.63200
N  27.80500 -0.05400 30.16400
C  28.77900 -0.50300 29.29700
C  29.98600 -0.82400 30.09500
C  29.54300 -0.48600 31.42400
C  28.24600 -0.08800 31.37800
C  31.23400 -1.40700 29.63600
C  29.97600 -0.45300 32.79800
O  31.09200 -0.68100 33.29500
C  28.74100 -0.04300 33.61400
C  28.49400 -1.10000 34.63400
O  27.87100 -2.16800 34.43600
O  29.12900 -0.73800 35.81500
C  28.89000 -1.69500 36.85900
H  22.05500 1.16000 32.13600
H  23.52100 0.26400 25.87200
H  29.63300 -0.68000 27.43200
H  25.75600 -0.09200 34.75700
H  23.61700 1.85100 34.00400
H  23.05500 -1.09600 33.73700
H  22.26900 0.10100 34.90700
H  23.73400 -0.76900 35.26600
H  25.39000 2.76900 34.95900
H  27.00600 2.57300 34.26800
H  27.98700 1.89900 35.94800
H  26.61600 0.84800 36.59900
H  19.88000 0.62100 30.58800
H  19.53800 2.16500 29.64400
H  20.61000 2.23900 30.97400
H  19.06000 0.47600 27.73500
H  18.98100 0.92100 26.02500
H  19.20100 2.17200 27.34400
H  25.99300 0.70000 24.81500
H  27.79100 -1.65800 25.27100
H  25.74100 -2.37700 24.13300
H  25.17500 -0.99100 23.34300
H  24.26900 -1.65700 24.73400
H  28.36700 0.47100 23.98200
H  29.49300 -0.11200 25.23300
H  29.33900 2.04200 26.23500
H  27.59500 1.95500 26.24300
H  28.44700 2.50200 24.83500
H  31.93600 -0.57400 29.59800
H  31.11800 -1.86400 28.65300
H  31.51200 -2.11800 30.41500
H  28.86600 0.87200 34.19400
H  28.12100 -1.34700 37.55000
H  29.88800 -1.70300 37.29600
H  28.63000 -2.71500 36.57300
Mg 7.03300 53.72200 40.55600
C  6.80400 50.19200 40.06700
C  10.26700 53.52600 39.31700
C  7.24600 57.08600 40.53500
C  3.78900 53.74700 41.37100
N  8.31700 52.09700 39.61600
C  8.05000 50.75500 39.73800
C  9.35500 50.00000 39.50500
C  10.46400 51.08200 39.55100
C  9.63200 52.30200 39.37600
C  11.27700 51.09400 40.91000
C  9.38300 49.09300 38.19500
C  9.02400 49.70100 36.84200
H  8.02200 48.99600 35.94500
N  8.63100 55.11100 40.07800
C  9.86700 54.81000 39.61900
C  10.61700 55.95100 39.48100
C  9.82600 57.05000 39.94300
C  8.52100 56.46100 40.29500
C  12.06300 55.99000 39.07300
C  10.22500 58.47600 40.09900
O  11.40900 58.71800 39.80300
C  9.32200 59.63800 40.47800
N  5.56600 55.21700 40.65500
C  6.00200 56.54000 40.86800
C  4.82000 57.43000 41.25000
C  3.75700 56.37000 41.64500
C  4.38500 55.00200 41.13200
C  4.93800 58.57600 42.20400
C  2.27400 56.63500 41.06900
C  1.12100 57.05500 41.98600
N  5.50000 52.29400 40.64500
C  4.22600 52.45300 41.06400
C  3.61000 51.16900 41.17400
C  4.56000 50.23100 40.87500
C  5.70000 50.96200 40.49500
C  2.16200 50.93900 41.57200
C  4.89300 48.82000 40.70200
O  4.17500 47.84200 40.98900
C  6.30300 48.72700 40.20500
C  6.25900 47.81900 39.06000
O  5.81100 48.13000 37.96000
O  6.70400 46.53900 39.41700
C  6.29300 45.49600 38.41700
H  11.34900 53.41900 39.21600
H  7.42200 58.16400 40.56700
H  2.77800 53.80200 41.78000
H  9.46700 49.33800 40.36300
H  11.12000 51.00400 38.68400
H  11.51900 50.05400 41.12800
H  10.77800 51.55300 41.76400
H  12.24100 51.57800 40.75000
H  8.70600 48.24700 38.31300
H  10.40300 48.71000 38.16200
H  9.98500 49.74900 36.33100
H  8.69400 50.70500 37.10800
H  12.21100 56.28400 38.03400
H  12.53600 55.00800 39.08600
H  12.68600 56.63800 39.69000
H  8.62400 59.65700 39.64100
H  9.92000 60.54700 40.54400
H  9.02500 59.42700 41.50500
H  4.54000 57.85100 40.28400
H  3.64900 56.29500 42.72800
H  5.92100 58.72500 42.65000
H  4.32900 58.41000 43.09200
H  4.64500 59.49300 41.69200
H  1.98200 55.75200 40.50000
H  2.43600 57.52700 40.46400
H  0.67000 57.96100 41.58000
H  1.48800 57.21100 43.00000
H  0.29100 56.35300 42.05900
H  1.59900 51.83300 41.84000
H  2.19500 50.13600 42.30800
H  1.45000 50.51500 40.86300
H  6.83900 48.17100 40.97500
H  6.48200 45.87000 37.41100
H  5.23700 45.24300 38.52000
H  6.76600 44.51500 38.47000

