158

Mg 9.30000 2.63600 28.45700
C  10.43000 1.24500 31.28400
C  7.66700 5.15700 30.39000
C  8.15300 4.19600 25.68400
C  10.74200 0.18400 26.48000
N  8.99400 3.08200 30.58800
C  9.59500 2.33300 31.57700
C  9.40700 2.98400 32.94100
C  8.36400 4.16300 32.71100
C  8.28600 4.14100 31.15500
C  6.97800 3.94600 33.52200
C  10.84700 3.54300 33.48700
C  11.28900 3.11700 34.92900
H  10.19400 3.02600 36.09100
N  8.00900 4.30100 28.10900
C  7.48700 5.25300 29.00800
C  6.71400 6.27700 28.30800
C  6.88200 6.02100 26.89800
C  7.71700 4.74700 26.85900
C  5.91100 7.35000 29.10800
C  6.30800 6.91700 25.75500
O  6.45300 6.65300 24.52900
C  5.68500 8.21000 26.08900
N  9.16900 2.02800 26.37000
C  8.77000 2.95300 25.43400
C  8.94000 2.47300 24.00300
C  9.96000 1.32500 24.21700
C  9.94100 1.13400 25.76800
C  7.46600 2.10900 23.58200
C  11.38900 1.56600 23.81000
C  12.13800 0.57800 22.91000
N  10.29100 1.05800 28.80000
C  10.90000 0.14900 27.87000
C  11.60500 -0.85000 28.67700
C  11.48300 -0.46300 30.05800
C  10.68800 0.68700 29.95600
C  12.27800 -2.01200 28.07500
C  11.80200 -0.74200 31.45300
O  12.45700 -1.63900 31.99100
C  11.06000 0.31700 32.29800
C  10.09100 -0.34500 33.16500
O  9.07300 -0.92700 32.84800
O  10.61300 -0.36400 34.51700
C  9.68400 -0.96800 35.50500
H  7.05300 5.88400 30.92500
H  7.99000 4.73400 24.74700
H  11.29600 -0.55900 25.90100
H  9.04100 2.23300 33.64100
H  8.77100 5.13900 32.97500
H  6.89800 4.65300 34.34800
H  6.95900 2.94100 33.94300
H  6.15400 4.19300 32.85400
H  10.96200 4.62000 33.36100
H  11.61200 3.17700 32.80200
H  11.94100 3.89500 35.32500
H  11.92300 2.23100 34.95600
H  6.39300 8.31400 29.27500
H  5.64700 6.96700 30.09400
H  4.94700 7.48600 28.61800
H  6.34400 8.90800 26.60500
H  4.81600 8.04500 26.72500
H  5.42600 8.78700 25.20100
H  9.31100 3.21200 23.29400
H  9.53600 0.43500 23.75300
H  7.49300 1.06000 23.28700
H  7.21900 2.65400 22.67100
H  6.71900 2.26100 24.36200
H  12.14600 1.61900 24.59200
H  11.31800 2.46100 23.19200
H  13.06300 0.23800 23.37500
H  12.42200 1.09200 21.99200
H  11.55700 -0.33400 22.77300
H  13.24700 -1.71400 27.67500
H  11.65800 -2.59500 27.39400
H  12.44000 -2.68800 28.91400
H  11.88300 0.77500 32.84700
H  9.38500 -1.96800 35.18900
H  8.88000 -0.25400 35.68100
H  10.21900 -1.11100 36.44400
Mg 34.49000 49.41000 25.47400
C  34.65800 47.63800 28.58000
C  33.17200 52.07800 27.18400
C  34.01000 50.74200 22.52100
C  34.98400 46.31900 23.83800
N  33.94200 49.75600 27.58800
C  34.23700 48.93400 28.71600
C  34.04300 49.65800 30.03400
C  33.38200 51.01500 29.58000
C  33.50600 50.97100 28.05800
C  31.95200 51.29600 30.10500
C  35.24200 49.79300 31.02600
C  35.05300 49.42600 32.53700
H  33.55500 49.58600 33.11700
N  33.75300 51.20100 24.95000
C  33.21900 52.16200 25.77700
C  32.71500 53.25000 24.96600
C  33.12200 52.96200 23.60500
C  33.68700 51.59200 23.67000
C  31.69000 54.20700 25.55200
C  32.83200 53.76500 22.32400
O  33.25300 53.43100 21.22300
C  31.89400 54.96800 22.44600
N  34.40200 48.60000 23.40600
C  34.24300 49.39400 22.35500
C  34.44800 48.73400 20.94600
C  34.79300 47.28700 21.47400
C  34.74300 47.38200 23.01500
C  33.28500 48.72500 19.92800
C  36.22800 46.93900 21.05900
C  37.47400 47.55900 21.78600
N  34.86300 47.37600 26.02900
C  35.01700 46.20600 25.26900
C  35.22000 45.08800 26.12300
C  35.07400 45.55400 27.41200
C  34.86900 46.95800 27.30400
C  35.60500 43.66800 25.65700
C  35.17000 45.21500 28.81700
O  35.35900 44.15100 29.40400
C  34.81000 46.51000 29.58700
C  33.51700 46.16100 30.33300
O  32.42700 46.15400 29.79000
O  33.75200 45.74500 31.62500
C  32.52800 45.61700 32.44500
H  32.78100 52.94600 27.71800
H  33.84600 51.30800 21.60100
H  35.18800 45.31200 23.46700
H  33.28300 49.00500 30.46300
H  33.97400 51.79400 30.06100
H  31.47100 50.36600 30.40600
H  31.26400 51.75700 29.39700
H  31.95200 51.86600 31.03400
H  35.55800 50.83600 31.03200
H  36.00100 49.15600 30.57200
H  35.64900 50.14100 33.10400
H  35.47100 48.47800 32.87500
H  30.82400 54.47800 24.94900
H  32.13400 55.13200 25.92100
H  31.24200 53.79300 26.45500
H  32.26700 55.60600 23.24700
H  30.89100 54.55700 22.56500
H  32.01600 55.52200 21.51600
H  35.30000 49.15600 20.41300
H  34.10000 46.46800 21.28000
H  32.36500 49.05800 20.40700
H  33.25900 47.73100 19.48100
H  33.51700 49.31400 19.04100
H  36.42500 47.14600 20.00700
H  36.18200 45.85800 21.18500
H  37.27500 48.61200 21.98600
H  38.32100 47.51600 21.10200
H  37.69500 47.02600 22.71100
H  36.45300 43.30500 26.23800
H  35.87200 43.61900 24.60100
H  34.80300 42.97400 25.90900
H  35.51900 46.62900 30.40600
H  32.24200 44.56500 32.46900
H  31.70000 46.25300 32.13300
H  32.77100 45.87500 33.47600

