158

Mg 24.44000 -6.84300 46.73100
C  26.74000 -4.63400 45.15900
C  22.07400 -5.56200 44.60700
C  22.60200 -9.64900 47.33300
C  27.18800 -8.43000 48.27000
N  24.45200 -5.28500 45.06700
C  25.51500 -4.56600 44.55000
C  25.01700 -3.46600 43.59200
C  23.44100 -3.52700 43.67300
C  23.27600 -4.81400 44.56500
C  22.64700 -2.36500 44.28500
C  25.65300 -3.68500 42.12700
C  26.15900 -2.42200 41.50600
H  26.16100 -2.27700 39.95400
N  22.60000 -7.44200 46.18500
C  21.76000 -6.66100 45.38700
C  20.40700 -7.28400 45.36700
C  20.52300 -8.51900 46.13400
C  21.89700 -8.53700 46.64700
C  19.25500 -6.66100 44.68400
C  19.29900 -9.51700 46.25000
O  18.19800 -9.29600 45.72800
C  19.41500 -10.88600 46.93900
N  24.86100 -8.73800 47.70000
C  23.88000 -9.65000 47.90300
C  24.34200 -10.83700 48.73500
C  25.85400 -10.48700 48.97600
C  26.02900 -9.10500 48.24600
C  23.58300 -11.09200 50.02100
C  26.82800 -11.61400 48.67300
C  27.63400 -11.61000 47.38300
N  26.53300 -6.50400 46.86800
C  27.50400 -7.24600 47.55000
C  28.77600 -6.53400 47.34900
C  28.51700 -5.48300 46.48300
C  27.13300 -5.56100 46.13400
C  30.13200 -7.07000 47.82900
C  29.13600 -4.37600 45.74800
O  30.28700 -4.01900 45.76500
C  27.98100 -3.69800 44.91300
C  27.73600 -2.29400 45.26600
O  27.80700 -1.38900 44.41100
O  27.43300 -2.08100 46.57000
C  27.14700 -0.77300 47.09100
H  21.25800 -5.22900 43.96200
H  22.15400 -10.63400 47.47700
H  28.00600 -8.95500 48.76800
H  25.38400 -2.55800 44.07100
H  23.02900 -3.79000 42.69900
H  22.27800 -1.77000 43.45000
H  23.25400 -1.78300 44.97800
H  21.71600 -2.68000 44.75700
H  24.82600 -4.10700 41.55500
H  26.45900 -4.41800 42.12300
H  27.18900 -2.24200 41.81300
H  25.59800 -1.59300 41.93800
H  19.46700 -6.59000 43.61700
H  19.17400 -5.70500 45.20200
H  18.33200 -7.24100 44.67000
H  20.02400 -11.54500 46.32000
H  18.51900 -11.47400 47.13500
H  19.87600 -10.74400 47.91600
H  24.34000 -11.75700 48.15000
H  26.00000 -10.33400 50.04600
H  23.27200 -12.13100 50.13300
H  22.68200 -10.48400 49.93500
H  24.10400 -10.81100 50.93700
H  26.22900 -12.52500 48.67900
H  27.51400 -11.76200 49.50700
H  28.70000 -11.45900 47.55500
H  27.13400 -10.85100 46.78000
H  27.48200 -12.53000 46.81800
H  30.30500 -7.97700 47.25000
H  30.06500 -7.45000 48.84900
H  30.93500 -6.33900 47.73400
H  28.30200 -3.74600 43.87300
H  26.31100 -0.80700 47.79000
H  26.98200 0.04000 46.38400
H  27.97800 -0.46700 47.72600
Mg 47.07100 24.47200 28.61700
C  47.47500 26.79100 31.19400
C  46.27200 22.06800 30.91600
C  47.55800 22.19500 26.18400
C  48.62900 26.85400 26.33200
N  46.86100 24.46700 30.82400
C  47.09100 25.51100 31.67600
C  46.75700 25.12700 33.12900
C  46.42100 23.61800 33.04100
C  46.52300 23.35200 31.54200
C  47.20700 22.69400 33.95100
C  45.59300 25.96500 33.78600
C  45.72100 26.65500 35.20400
H  44.55300 26.52300 36.24400
N  46.62000 22.55000 28.51700
C  46.25100 21.71500 29.55300
C  46.04500 20.43100 29.01800
C  46.46800 20.39500 27.67000
C  46.90700 21.79000 27.40500
C  45.55300 19.36300 29.89200
C  46.63500 19.27100 26.74800
O  46.96000 19.46200 25.56100
C  46.52500 17.84700 27.22200
N  47.88400 24.53300 26.56200
C  47.98200 23.42300 25.76800
C  48.63100 23.71500 24.44700
C  48.49800 25.27100 24.37700
C  48.39800 25.59900 25.88300
C  50.18200 23.19200 24.46800
C  47.09900 25.61700 23.57100
C  46.45600 27.05300 23.71400
N  47.89900 26.40200 28.71300
C  48.50000 27.26000 27.71700
C  48.75400 28.48800 28.27600
C  48.38900 28.30800 29.62500
C  47.83100 27.08500 29.87200
C  49.12500 29.78800 27.48200
C  48.45600 29.01800 30.88500
O  48.93300 30.08700 31.16900
C  47.84500 28.03200 31.96800
C  48.90400 27.72000 33.05300
O  49.99600 27.26500 32.77300
O  48.49600 28.06800 34.38200
C  49.35900 27.78600 35.55600
H  46.01100 21.27400 31.61900
H  47.76000 21.49300 25.37300
H  49.13800 27.48100 25.59600
H  47.68700 25.28200 33.67800
H  45.38600 23.34000 33.24200
H  47.88100 22.03300 33.40800
H  46.49400 22.16000 34.58000
H  47.87700 23.24700 34.60900
H  44.67300 25.40200 33.94300
H  45.25800 26.74400 33.10100
H  45.91700 27.70700 34.99700
H  46.58100 26.21200 35.70600
H  44.95600 18.74700 29.21900
H  44.93200 19.62800 30.74800
H  46.44200 18.79100 30.15700
H  47.28500 17.67300 27.98300
H  46.74000 17.24500 26.33800
H  45.50600 17.64700 27.55400
H  48.02000 23.20100 23.70600
H  49.24800 25.79300 23.78300
H  50.64800 23.16200 25.45300
H  50.81100 23.85000 23.86900
H  50.18400 22.16400 24.10500
H  46.33300 24.89900 23.86400
H  47.24500 25.46900 22.50100
H  45.53900 26.91000 24.28600
H  46.15300 27.57900 22.80900
H  47.23300 27.64200 24.20200
H  48.41900 29.97700 26.67300
H  50.03900 29.55000 26.93600
H  49.25200 30.69500 28.07200
H  47.05700 28.59400 32.47000
H  49.92900 26.85700 35.55000
H  48.74100 27.66500 36.44600
H  50.06800 28.61500 35.54200

