158

Mg 1.78800 -1.04300 43.90800
C  5.07200 0.07300 43.15500
C  0.63600 1.79600 42.15600
C  -1.31500 -2.18300 44.03000
C  3.25100 -4.11300 45.19000
N  2.73100 0.55800 42.69300
C  4.07800 0.89600 42.59300
C  4.32100 2.17000 41.78400
C  2.89700 2.81500 41.80200
C  2.00100 1.64700 42.23200
C  2.84400 4.03900 42.86700
C  4.93800 1.87100 40.36800
C  6.13500 2.88100 40.12100
H  5.92700 3.88600 38.95800
N  -0.20700 -0.25800 43.24500
C  -0.41500 0.95600 42.61900
C  -1.83800 1.19700 42.60400
C  -2.47800 0.04100 43.24300
C  -1.32800 -0.89300 43.49900
C  -2.51800 2.43200 42.07900
C  -3.88600 -0.07500 43.61500
O  -4.72300 0.79200 43.26300
C  -4.49900 -1.18000 44.40700
N  1.12000 -2.99900 44.24800
C  -0.21800 -3.14100 44.42200
C  -0.43700 -4.56900 45.01100
C  0.95800 -5.06800 45.53500
C  1.88300 -4.03700 44.92200
C  -1.50600 -4.57000 46.15900
C  1.36800 -6.44800 45.00500
C  1.42500 -7.65700 46.05600
N  3.75700 -1.95800 44.12300
C  4.15500 -3.14600 44.65800
C  5.66900 -3.20300 44.66700
C  5.94800 -1.97000 44.02900
C  4.81400 -1.24300 43.69500
C  6.53900 -4.27600 45.17100
C  7.08800 -1.20100 43.62400
O  8.29700 -1.50500 43.81700
C  6.52400 0.11800 43.02500
C  7.20700 1.11000 43.86300
O  7.27200 1.10700 45.07100
O  7.84100 2.07600 43.08800
C  8.63000 3.16700 43.78400
H  0.25900 2.74900 41.77900
H  -2.29700 -2.64800 44.13200
H  3.64000 -4.94000 45.78800
H  4.92500 2.70900 42.51400
H  2.65800 3.21700 40.81700
H  3.60900 3.85200 43.62100
H  1.90000 4.20900 43.38500
H  3.12000 4.97000 42.37100
H  4.19100 1.85900 39.57500
H  5.26100 0.83100 40.32100
H  7.03200 2.31300 39.87500
H  6.37600 3.49400 40.98900
H  -3.19100 2.67000 42.90200
H  -3.07700 2.02100 41.23900
H  -1.81600 3.26300 42.02200
H  -5.56600 -0.99900 44.53600
H  -3.90300 -1.21600 45.31900
H  -4.34500 -1.94600 43.64700
H  -0.67100 -5.25000 44.19200
H  1.02700 -4.97600 46.61900
H  -1.93600 -3.58000 46.31200
H  -1.16800 -5.00100 47.10100
H  -2.36300 -5.14000 45.80000
H  2.28100 -6.40900 44.41200
H  0.75100 -6.89000 44.22400
H  2.36900 -8.18800 45.92500
H  0.62500 -8.37200 45.86800
H  1.34100 -7.32700 47.09100
H  7.39700 -3.98200 45.77700
H  6.92100 -4.80200 44.29700
H  5.93900 -5.02500 45.68900
H  6.85200 0.08900 41.98600
H  9.17400 3.69400 43.00000
H  9.38600 2.80600 44.48200
H  8.05200 3.92600 44.31100
Mg 47.98800 15.97000 29.18700
C  45.94100 15.75100 31.83400
C  50.23300 17.85900 31.05600
C  49.82100 16.36100 26.36800
C  45.42700 14.48800 27.14800
N  48.03400 16.82900 31.19500
C  47.15500 16.41200 32.11300
C  47.79400 16.63500 33.53000
C  48.87700 17.71000 33.23300
C  49.00700 17.56800 31.70200
C  48.50400 19.12700 33.61000
C  48.34600 15.33900 34.23600
C  48.66100 15.42100 35.73500
H  48.43100 16.74600 36.43200
N  49.81600 16.82400 28.86600
C  50.59900 17.49100 29.76000
C  51.94700 17.67400 29.18800
C  51.81700 17.32300 27.79400
C  50.45400 16.82800 27.61400
C  53.18000 18.00500 29.89700
C  52.80900 17.43300 26.57300
O  52.59300 16.86900 25.50300
C  54.09300 18.22800 26.68000
N  47.62400 15.58700 27.08300
C  48.56500 15.83900 26.14900
C  48.13500 15.54900 24.66700
C  46.81800 14.71700 24.97200
C  46.62900 14.90600 26.49900
C  47.75900 16.88800 23.88300
C  46.88100 13.20600 24.63900
C  45.98400 12.61600 23.54100
N  46.07000 15.29300 29.41600
C  45.13500 14.74400 28.54500
C  43.87300 14.49400 29.23100
C  44.20000 14.82900 30.57700
C  45.49100 15.34300 30.60200
C  42.64100 13.91800 28.64500
C  43.65100 14.82200 31.89900
O  42.59000 14.40700 32.30300
C  44.79200 15.35400 32.81500
C  44.28100 16.43800 33.78500
O  43.89100 17.54500 33.46300
O  44.34100 16.03200 35.05800
C  44.03800 17.07200 36.04300
H  51.09400 18.20100 31.63600
H  50.34500 16.52000 25.42400
H  44.64800 13.96800 26.58700
H  47.09900 17.05000 34.25900
H  49.78800 17.32300 33.68900
H  49.43100 19.69700 33.54700
H  48.04900 19.26900 34.59000
H  47.94700 19.50400 32.75200
H  49.28200 15.05700 33.75300
H  47.59700 14.55300 34.14300
H  49.66400 15.03100 35.90800
H  47.95600 14.67800 36.10900
H  53.67100 18.85500 29.42500
H  53.76500 17.11400 29.66900
H  53.11900 18.09200 30.98200
H  54.71300 17.49900 27.20200
H  53.91400 19.15000 27.23400
H  54.40800 18.47400 25.66600
H  48.90000 15.04200 24.07900
H  45.90700 15.10600 24.51800
H  47.65700 17.75200 24.54000
H  46.87600 16.61500 23.30500
H  48.61100 16.97500 23.20800
H  46.70300 12.65800 25.56500
H  47.93100 13.07800 24.37800
H  46.42000 11.68900 23.16800
H  45.75000 13.35000 22.77000
H  45.05700 12.25800 23.98900
H  42.40200 14.28200 27.64500
H  41.82800 14.20500 29.31200
H  42.62100 12.83100 28.57700
H  45.15600 14.50800 33.39800
H  44.79200 17.85200 35.94500
H  44.01500 16.50400 36.97300
H  43.02500 17.46700 35.96100

