158

Mg 16.41100 -2.19700 27.96200
C  15.57500 -0.27800 30.71100
C  18.46000 -4.07700 29.93800
C  17.56200 -3.74400 25.24600
C  14.42800 -0.13800 26.01700
N  16.96600 -2.20500 30.08000
C  16.60400 -1.19300 30.96800
C  17.18300 -1.54400 32.33600
C  18.32500 -2.61300 31.98800
C  17.84200 -3.04800 30.62200
C  19.80900 -2.06900 32.18800
C  16.14800 -2.17000 33.33100
C  16.42800 -1.93500 34.82300
H  17.50500 -1.00000 35.31100
N  17.75800 -3.84100 27.62800
C  18.49100 -4.46500 28.53500
C  19.29700 -5.48200 27.91400
C  18.84500 -5.53200 26.50200
C  18.06900 -4.34500 26.40600
C  20.34500 -6.34500 28.72600
C  19.29800 -6.46000 25.32900
O  18.87500 -6.27200 24.21200
C  20.29900 -7.54400 25.61900
N  16.12200 -1.85400 25.90400
C  16.79700 -2.61600 25.00800
C  16.39300 -2.13800 23.61300
C  15.37900 -0.96000 23.83000
C  15.31200 -0.90300 25.29000
C  17.78600 -1.68600 22.92100
C  14.04900 -1.25500 23.07300
C  13.72100 -0.45700 21.81600
N  15.19600 -0.55000 28.20400
C  14.30900 0.10400 27.35000
C  13.59700 1.14800 28.06100
C  14.02900 1.01400 29.37000
C  15.01500 0.00400 29.40500
C  12.58600 2.12700 27.53800
C  13.91700 1.49200 30.69900
O  13.13200 2.35500 31.10800
C  14.81600 0.63300 31.64200
C  15.66700 1.57000 32.29300
O  16.70700 2.02900 31.88500
O  14.98200 2.02900 33.42100
C  15.57100 3.23700 33.99000
H  19.12500 -4.62100 30.61200
H  18.03400 -4.17000 24.35900
H  13.65200 0.38900 25.45700
H  17.51800 -0.60200 32.76900
H  18.20500 -3.44900 32.67700
H  20.19800 -1.98100 31.17400
H  20.44500 -2.70000 32.80900
H  19.81600 -1.10600 32.69900
H  16.16000 -3.25200 33.19900
H  15.13200 -1.95300 33.00200
H  16.49800 -2.93700 35.24700
H  15.53800 -1.41000 35.17000
H  19.98100 -7.35500 28.91300
H  20.65900 -5.87900 29.66100
H  21.26600 -6.45600 28.15400
H  20.17800 -8.06500 26.56800
H  21.31000 -7.13700 25.66400
H  20.30800 -8.27000 24.80600
H  15.99800 -3.01000 23.09000
H  15.85100 -0.02200 23.53700
H  18.53800 -1.62700 23.70700
H  17.76700 -0.63000 22.65200
H  18.27100 -2.23200 22.11200
H  13.34800 -1.16000 23.90200
H  14.01000 -2.32100 22.85100
H  12.81900 0.07800 22.11300
H  13.76300 -1.05600 20.90700
H  14.57400 0.20300 21.65900
H  12.12900 2.63400 28.38800
H  11.83700 1.63600 26.91800
H  13.04200 2.79600 26.80800
H  14.08300 0.17300 32.30600
H  15.28200 4.05300 33.32800
H  16.65800 3.14900 34.00100
H  15.24600 3.38500 35.02000
Mg 0.92300 42.38000 24.38800
C  1.81600 42.44400 27.76900
C  -2.11500 40.91000 25.25800
C  0.25700 41.72900 21.11100
C  4.09800 43.37300 23.48400
N  -0.03000 41.74800 26.45200
C  0.49400 41.91900 27.66700
C  -0.44200 41.45200 28.79100
C  -1.56200 40.78800 27.92300
C  -1.24400 41.09700 26.45800
C  -1.89300 39.26200 28.10200
C  -0.78500 42.68900 29.73100
C  -1.07600 42.36900 31.24500
H  -1.86900 41.07300 31.59200
N  -0.85500 41.74500 23.36600
C  -1.98100 41.21100 23.86900
C  -2.92200 40.87500 22.85700
C  -2.24100 41.14800 21.59700
C  -0.85900 41.59800 21.95300
C  -4.28500 40.27900 23.12200
C  -2.78400 40.75900 20.17900
O  -2.10400 40.87800 19.18400
C  -4.23800 40.26800 19.94700
N  2.08000 42.32200 22.70500
C  1.56300 42.03100 21.46200
C  2.65600 42.13300 20.47100
C  3.70900 43.02100 21.05900
C  3.30100 42.90300 22.47100
C  3.16000 40.67300 20.17100
C  3.62200 44.54400 20.57100
C  2.42000 45.32800 20.98500
N  2.66800 42.90200 25.42900
C  3.91600 43.37000 24.89900
C  4.79700 43.63500 26.05800
C  4.02800 43.29300 27.17800
C  2.71700 42.87800 26.76200
C  6.14400 44.26900 26.01800
C  4.06800 43.10500 28.64800
O  4.90900 43.25100 29.52800
C  2.64400 42.60000 29.01400
C  2.74400 41.32800 29.76800
O  3.32200 40.27400 29.44500
O  2.03500 41.50500 30.89400
C  1.92000 40.30600 31.67000
H  -3.01000 40.34300 25.52400
H  0.06700 41.58100 20.04600
H  5.03100 43.82800 23.14600
H  -0.00400 40.70400 29.45200
H  -2.52400 41.20100 28.22800
H  -1.99200 38.83200 27.10500
H  -2.75700 39.04400 28.72900
H  -1.01300 38.73100 28.46400
H  -1.62000 43.15700 29.20900
H  0.06500 43.36500 29.64000
H  -1.80000 43.10500 31.59300
H  -0.21300 42.55800 31.88400
H  -4.48900 40.15500 24.18500
H  -4.36800 39.30800 22.63300
H  -5.08800 40.91900 22.75700
H  -4.97000 41.00600 20.27700
H  -4.43500 39.28900 20.38500
H  -4.24500 40.27300 18.85700
H  2.17500 42.58600 19.60500
H  4.71600 42.61500 20.96500
H  2.93300 40.08700 21.06100
H  4.23400 40.69800 19.98500
H  2.54400 40.30000 19.35200
H  3.71600 44.60100 19.48700
H  4.54900 44.89700 21.02400
H  1.57900 44.67400 21.21600
H  2.10900 45.82000 20.06300
H  2.52400 46.12100 21.72500
H  6.44000 43.98500 27.02700
H  6.21400 45.34800 25.87900
H  6.92300 43.87900 25.36300
H  2.19000 43.29600 29.71900
H  1.86200 39.32600 31.19700
H  1.11600 40.26000 32.40500
H  2.83600 40.31100 32.26000

