158

Mg 7.34300 57.67900 41.58600
C  6.44400 54.29200 41.51100
C  10.42900 56.70100 40.20300
C  8.04300 60.86200 41.04200
C  4.18400 58.46800 42.57500
N  8.37600 55.65000 40.86600
C  7.77100 54.42600 41.03500
C  8.69600 53.35900 40.54000
C  10.08000 54.08300 40.42500
C  9.67500 55.55800 40.51300
C  11.10000 53.69500 41.44500
C  8.28700 52.64700 39.19700
C  8.53200 51.14100 39.03800
H  8.74200 50.49600 37.68400
N  8.97900 58.67100 40.70900
C  10.11300 58.08900 40.24400
C  11.00300 59.08700 39.75400
C  10.44300 60.36900 39.92800
C  9.09900 59.97700 40.61200
C  12.38000 58.74500 39.26500
C  11.04000 61.70200 39.49500
O  12.20200 61.85000 39.18500
C  10.10500 62.82500 39.60400
N  6.18500 59.44300 41.71000
C  6.78300 60.63800 41.52300
C  5.82600 61.79800 42.09300
C  4.63700 60.97200 42.66000
C  5.01000 59.53900 42.30900
C  6.46200 62.79400 43.16500
C  3.28200 61.49500 42.17000
C  2.17400 61.84000 43.22900
N  5.59500 56.64900 42.00600
C  4.39900 57.06700 42.44300
C  3.57700 55.91900 42.85000
C  4.33600 54.80900 42.37900
C  5.53900 55.30100 41.99800
C  2.22800 55.93800 43.40800
C  4.32700 53.35300 42.31600
O  3.58800 52.43400 42.61900
C  5.69300 53.01500 41.63400
C  5.22000 52.24500 40.39200
O  4.79500 52.70800 39.35700
O  5.44000 50.89900 40.67200
C  4.97100 49.90300 39.64600
H  11.39000 56.37700 39.79900
H  8.25200 61.93100 40.95600
H  3.18400 58.77700 42.88500
H  8.90300 52.58000 41.27400
H  10.56700 53.96500 39.45700
H  11.12500 52.71000 41.91000
H  11.09500 54.44700 42.23400
H  12.11600 53.77700 41.05900
H  8.84900 53.14100 38.40400
H  7.24400 52.82100 38.93400
H  7.62500 50.67000 39.41600
H  9.36900 50.83000 39.66200
H  12.51200 57.81900 38.70500
H  13.06000 58.90300 40.10200
H  12.77300 59.51500 38.60100
H  9.80400 62.98200 40.64000
H  9.19900 62.43300 39.14200
H  10.48500 63.75700 39.18700
H  5.45000 62.35900 41.23700
H  4.60900 60.94700 43.74900
H  6.33000 63.80600 42.78100
H  7.52600 62.61000 43.31100
H  5.94900 62.85300 44.12500
H  2.74100 60.73300 41.61000
H  3.37900 62.42600 41.61000
H  1.37800 62.39100 42.72700
H  2.42300 62.46300 44.08900
H  1.74800 60.93700 43.66600
H  1.45900 56.43300 42.81500
H  2.25600 56.49000 44.34800
H  1.94400 54.89500 43.55200
H  6.22300 52.30600 42.27000
H  5.83200 49.26800 39.43800
H  4.74300 50.35700 38.68100
H  4.08500 49.41400 40.05000
Mg 15.88000 52.07700 25.37500
C  17.90400 51.16200 28.18300
C  13.23800 52.47000 27.49100
C  14.33700 53.11700 22.72400
C  18.55300 50.93400 23.34500
N  15.65800 51.93400 27.51900
C  16.57400 51.67400 28.53900
C  16.10000 52.09600 29.92900
C  14.53700 52.11400 29.64900
C  14.44600 52.10200 28.12700
C  13.82400 50.77800 30.23900
C  16.71600 53.42700 30.22000
C  16.71500 53.83000 31.72000
H  15.79200 53.02000 32.70900
N  13.93000 52.75700 25.15000
C  12.97300 52.78600 26.11200
C  11.77100 53.32900 25.45800
C  12.05200 53.55100 24.08100
C  13.44300 53.17600 23.92200
C  10.39600 53.38300 26.20000
C  11.14200 54.06100 22.97000
O  11.49100 54.23500 21.82000
C  9.67500 54.33800 23.23900
N  16.46000 52.19500 23.34900
C  15.65100 52.67100 22.44200
C  16.20900 52.62700 21.00800
C  17.67500 52.16600 21.29300
C  17.59100 51.78100 22.74100
C  15.40500 51.57200 20.10600
C  18.76100 53.23700 21.12000
C  20.11400 52.77400 20.33600
N  17.75000 50.96300 25.57800
C  18.68700 50.52900 24.73800
C  19.78800 49.90300 25.40000
C  19.51800 50.20900 26.74000
C  18.33300 50.85500 26.82600
C  20.91900 49.18700 24.73400
C  20.13600 50.16600 28.02500
O  21.19800 49.72600 28.40900
C  19.02900 50.65100 29.10300
C  18.56200 49.41200 29.89000
O  18.01800 48.35400 29.48800
O  18.68000 49.70400 31.23100
C  18.06900 48.76700 32.15600
H  12.37700 52.73100 28.11000
H  13.79400 53.34300 21.80400
H  19.39600 50.73900 22.67900
H  16.57800 51.42300 30.64100
H  14.20600 53.03900 30.12200
H  13.27700 50.20300 29.49200
H  13.12000 51.09600 31.00800
H  14.53300 50.17600 30.80700
H  16.11200 54.24800 29.83200
H  17.73500 53.46700 29.83700
H  16.73900 54.91900 31.76000
H  17.71900 53.55500 32.04400
H  9.71400 52.62700 25.80900
H  9.85500 54.32300 26.09200
H  10.54500 53.20300 27.26400
H  9.29000 53.53600 23.87000
H  9.12400 54.32500 22.29900
H  9.45100 55.29400 23.71200
H  16.31100 53.51700 20.38700
H  17.91200 51.26100 20.73300
H  14.65800 52.18000 19.59700
H  14.90900 50.78300 20.67200
H  15.97100 51.09400 19.30600
H  19.06100 53.56800 22.11500
H  18.44500 54.16800 20.64900
H  20.01600 51.70700 20.13500
H  21.04900 52.96200 20.86300
H  20.23900 53.29600 19.38800
H  20.64900 49.12200 23.68000
H  21.00100 48.16100 25.09300
H  21.91600 49.61900 24.81700
H  19.30800 51.43800 29.80400
H  18.93300 48.21800 32.53000
H  17.29100 48.16100 31.69200
H  17.70400 49.25800 33.05800

