158

Mg 24.62100 -5.52800 45.36000
C  27.17900 -3.42900 44.07000
C  22.47900 -4.05100 43.26100
C  22.66000 -8.18300 45.71100
C  27.17300 -7.12600 47.24500
N  24.88400 -3.96700 43.81100
C  25.94300 -3.15700 43.49900
C  25.55700 -2.05100 42.53600
C  23.98300 -2.10100 42.54900
C  23.74700 -3.43700 43.29300
C  23.28700 -0.88800 43.34100
C  26.19300 -2.42300 41.19000
C  26.84500 -1.25600 40.38300
H  26.25900 -1.05000 38.98400
N  22.79100 -6.00700 44.60000
C  22.00100 -5.22300 43.79000
C  20.69200 -5.86200 43.60100
C  20.68300 -7.09100 44.37100
C  22.07000 -7.18200 44.95700
C  19.58600 -5.37700 42.71200
C  19.46600 -8.03500 44.53200
O  18.32400 -7.71000 44.09600
C  19.61200 -9.32500 45.20800
N  24.88600 -7.32200 46.33900
C  23.85800 -8.23600 46.35700
C  24.18100 -9.49000 47.21000
C  25.62600 -9.20100 47.61800
C  25.93700 -7.79200 47.05100
C  23.24100 -9.77400 48.42300
C  26.64000 -10.22600 47.00600
C  26.82300 -11.51100 47.85300
N  26.71000 -5.25800 45.72500
C  27.57700 -6.01300 46.50000
C  28.85000 -5.41700 46.56400
C  28.81600 -4.35000 45.59300
C  27.46500 -4.30700 45.12400
C  29.99900 -5.82800 47.32800
C  29.59200 -3.31900 45.03500
O  30.75600 -2.98900 45.12800
C  28.61600 -2.68900 43.98500
C  28.52400 -1.25900 44.23900
O  28.08500 -0.70700 45.28700
O  28.85400 -0.45900 43.17000
C  28.79000 1.00800 43.30600
H  21.73300 -3.58400 42.61500
H  22.02200 -9.05300 45.87900
H  27.86500 -7.63900 47.91600
H  25.84600 -1.06500 42.90000
H  23.61700 -2.25400 41.53400
H  22.65800 -0.41700 42.58500
H  23.87800 -0.02500 43.65000
H  22.60800 -1.23400 44.12100
H  25.46600 -3.05200 40.67700
H  26.96100 -3.17900 41.35200
H  27.90400 -1.49200 40.27400
H  26.67200 -0.35100 40.96500
H  19.25800 -6.31600 42.26700
H  20.14500 -4.90700 41.90300
H  18.85900 -4.70700 43.17000
H  18.62500 -9.77100 45.33000
H  19.97600 -8.95500 46.16700
H  20.24600 -9.91800 44.54900
H  24.04200 -10.40500 46.63500
H  25.82500 -8.96300 48.66300
H  22.71700 -10.70400 48.20300
H  22.59100 -8.92300 48.62700
H  23.94500 -9.95900 49.23400
H  27.64700 -9.80800 46.98600
H  26.34800 -10.29700 45.95800
H  27.88800 -11.45000 48.07600
H  26.49300 -12.42300 47.35600
H  26.36100 -11.40900 48.83600
H  29.77400 -5.28500 48.24600
H  30.92100 -5.39200 46.94600
H  30.06300 -6.90600 47.47700
H  29.00100 -2.67800 42.96500
H  29.70600 1.27900 43.83100
H  27.96200 1.40400 43.89400
H  28.76700 1.40400 42.29100
Mg 48.30100 45.79900 42.68400
C  45.19200 46.76500 41.56300
C  48.02900 42.86600 40.95000
C  51.74000 45.21100 43.20400
C  48.77900 48.98500 44.01900
N  46.94600 45.06200 41.08100
C  45.62200 45.53800 40.96200
C  44.78700 44.72200 39.97600
C  45.55500 43.34500 40.14200
C  46.95300 43.76100 40.74400
C  44.82700 42.25400 41.05300
C  44.93100 45.22200 38.51800
C  43.83200 44.79200 37.49800
H  44.20200 43.72000 36.53700
N  49.71500 44.25700 42.20800
C  49.30700 43.11300 41.53400
C  50.48600 42.20600 41.52400
C  51.62400 42.87500 42.21600
C  51.03500 44.16200 42.62300
C  50.44400 40.77100 40.90500
C  52.97300 42.21800 42.47700
O  53.36400 41.23000 41.91300
C  53.97100 42.82100 43.40000
N  50.08700 47.00300 43.31900
C  51.35700 46.51100 43.48400
C  52.29800 47.66200 43.99500
C  51.28400 48.71100 44.51500
C  49.97400 48.28200 43.89900
C  53.52000 47.34000 44.93700
C  51.75200 50.16500 44.23200
C  51.56900 51.10100 45.45900
N  47.20800 47.44000 42.84900
C  47.48900 48.63400 43.49200
C  46.27400 49.48300 43.39500
C  45.29800 48.65300 42.86000
C  45.97800 47.51900 42.42300
C  46.07900 50.83600 43.94400
C  43.88600 48.59900 42.45800
O  42.89000 49.32700 42.65600
C  43.81400 47.47100 41.42100
C  42.71100 46.61900 41.94000
O  41.57300 46.64300 41.41400
O  43.06000 45.85400 43.00300
C  42.21900 44.68800 43.30500
H  47.91900 41.83100 40.62100
H  52.74900 45.00900 43.57000
H  48.88100 49.99100 44.42900
H  43.74500 44.72100 40.29600
H  45.68500 42.82600 39.19300
H  43.84500 42.70800 41.18800
H  45.29900 42.14200 42.02900
H  44.73700 41.26500 40.60500
H  45.88000 44.83700 38.14400
H  45.01700 46.30700 38.57900
H  43.49100 45.65500 36.92500
H  42.92400 44.48900 38.02000
H  50.69500 40.88200 39.85000
H  49.46600 40.29200 40.95400
H  51.16900 40.10900 41.38000
H  53.52000 43.07900 44.35800
H  54.24700 43.78400 42.97100
H  54.84500 42.17700 43.49400
H  52.70400 48.04600 43.06000
H  51.18600 48.45000 45.56900
H  53.43500 47.79200 45.92500
H  54.36300 47.81100 44.43300
H  53.72700 46.27900 45.07700
H  51.18700 50.59700 43.40600
H  52.80800 50.17200 43.96000
H  51.06600 50.63700 46.30700
H  50.92500 51.95600 45.25300
H  52.57700 51.41000 45.73600
H  45.63000 51.39100 43.12000
H  46.96500 51.36300 44.29700
H  45.31600 50.79600 44.72100
H  43.60400 47.74700 40.38800
H  42.76000 43.76800 43.52700
H  41.52500 44.50000 42.48500
H  41.44300 44.96100 44.02000

