158

Mg 43.68000 42.20800 26.55400
C  42.45500 44.63500 28.79900
C  44.73400 40.37100 29.22200
C  44.82000 40.01200 24.44400
C  43.13800 44.57800 23.99200
N  43.77400 42.64200 28.69300
C  43.04500 43.52200 29.38800
C  43.22200 43.29900 30.95800
C  43.88400 41.88900 31.08600
C  44.22600 41.64200 29.57100
C  45.19600 41.83500 31.95300
C  41.92300 43.38800 31.94900
C  42.14000 44.31100 33.09400
H  42.45400 43.67100 34.50400
N  44.50700 40.34600 26.82000
C  44.97600 39.78000 27.97100
C  45.40000 38.42000 27.74800
C  45.31100 38.26900 26.32900
C  44.86500 39.54300 25.75700
C  45.97000 37.59100 28.82900
C  45.64400 37.02400 25.50000
O  45.37700 36.90500 24.34200
C  46.44500 35.93900 26.10000
N  44.03300 42.37400 24.59300
C  44.50400 41.29600 23.91700
C  44.61500 41.56300 22.41600
C  43.88400 42.96300 22.23500
C  43.72200 43.34000 23.68400
C  46.14200 41.59000 22.08500
C  42.56100 42.95400 21.38400
C  41.21500 42.78800 21.97700
N  42.91700 44.29100 26.41400
C  42.66800 45.01800 25.25200
C  41.93000 46.18000 25.61900
C  41.84800 46.17800 27.05200
C  42.48800 44.99300 27.46500
C  41.64600 47.30200 24.57300
C  41.26200 46.84600 28.18000
O  40.63600 47.90200 28.25400
C  41.66300 45.80900 29.45200
C  42.41500 46.72700 30.41600
O  43.51900 47.20200 30.24000
O  41.58300 47.10400 31.43700
C  42.20300 47.97300 32.52600
H  45.16100 40.00200 30.15700
H  45.16000 39.29100 23.69800
H  42.85200 45.30700 23.23000
H  43.99700 44.04600 31.12900
H  43.20800 41.09400 31.40300
H  45.13600 42.74300 32.55400
H  46.10600 41.81300 31.35400
H  45.15700 41.04100 32.69900
H  41.66300 42.38900 32.29900
H  41.02300 43.70300 31.42100
H  41.16500 44.77900 33.22900
H  42.88900 45.08700 32.93800
H  47.01700 37.88900 28.78100
H  45.83600 36.52500 28.64500
H  45.63100 37.90600 29.81600
H  46.78900 35.18600 25.39100
H  45.85000 35.41600 26.84800
H  47.38000 36.31200 26.51700
H  43.94800 40.88000 21.89100
H  44.51300 43.64800 21.66800
H  46.83100 41.59700 22.92900
H  46.35200 42.55800 21.63000
H  46.37000 40.73400 21.45000
H  42.61600 42.22500 20.57500
H  42.50200 43.92000 20.88200
H  41.28800 42.60900 23.04900
H  40.64100 41.99000 21.50500
H  40.70900 43.74800 21.87500
H  41.23100 46.83000 23.68200
H  42.50400 47.93600 24.35000
H  40.85300 47.90100 25.02100
H  40.75700 45.42000 29.91800
H  43.20300 48.36800 32.34800
H  42.18900 47.53300 33.52400
H  41.39600 48.70500 32.55300
Mg 2.35800 41.67300 25.42400
C  4.59300 41.75400 28.12000
C  -0.07000 40.74100 27.68000
C  0.31500 41.13500 22.78700
C  4.92700 42.35400 23.21500
N  2.23600 41.38500 27.72600
C  3.26100 41.56700 28.61900
C  2.79700 41.53500 30.08800
C  1.28300 40.99200 29.96200
C  1.11400 40.97700 28.33600
C  1.17900 39.55000 30.64500
C  2.79900 42.95500 30.68400
C  2.31300 43.25900 32.17700
H  2.26500 42.15500 33.22500
N  0.42900 41.07500 25.28900
C  -0.39200 40.74500 26.36300
C  -1.63600 40.34400 25.80000
C  -1.55500 40.35600 24.38800
C  -0.22400 40.93100 24.08800
C  -2.70800 39.78700 26.71600
C  -2.58200 40.01400 23.34900
O  -2.41700 40.32300 22.14600
C  -3.93300 39.34500 23.69200
N  2.51100 41.82400 23.29200
C  1.55300 41.71700 22.46900
C  2.01500 42.03700 21.03200
C  3.47600 42.55500 21.21500
C  3.67700 42.30500 22.66700
C  1.82700 40.91100 19.97300
C  3.76200 44.09100 20.80500
C  4.04100 44.37100 19.32800
N  4.32800 41.97800 25.54300
C  5.24600 42.30500 24.61100
C  6.55300 42.40000 25.18600
C  6.35100 42.09400 26.50500
C  4.95500 41.86100 26.72600
C  7.76400 42.93500 24.48100
C  7.00300 42.00100 27.79700
O  8.22500 41.97100 28.07700
C  5.86400 41.91200 28.94800
C  6.10000 40.83900 29.94000
O  5.79900 39.66200 29.80500
O  6.43600 41.31000 31.16600
C  6.34700 40.56400 32.42900
H  -0.85900 40.53300 28.40500
H  -0.30500 40.92600 21.91300
H  5.72400 42.72200 22.56500
H  3.45600 40.86600 30.64200
H  0.55700 41.69200 30.37800
H  0.81000 38.83600 29.91000
H  0.40900 39.57400 31.41700
H  2.11200 39.17200 31.06300
H  2.15400 43.60700 30.09600
H  3.78600 43.39700 30.55100
H  1.36800 43.80100 32.13100
H  3.04500 44.00900 32.47900
H  -2.23500 39.17500 27.48500
H  -3.50500 39.20900 26.24800
H  -3.11700 40.70400 27.14000
H  -4.38600 39.20100 22.71100
H  -4.43900 40.02000 24.38300
H  -3.57100 38.42200 24.14400
H  1.45000 42.91600 20.72400
H  4.18900 41.94100 20.66400
H  2.79400 40.74700 19.49800
H  1.06500 41.13100 19.22500
H  1.43900 40.01300 20.45500
H  4.66800 44.42300 21.31300
H  3.01400 44.71600 21.29200
H  4.03800 43.44200 18.75800
H  5.08500 44.67000 19.24400
H  3.37700 45.13000 18.91200
H  8.60100 42.29500 24.75900
H  7.95700 43.90900 24.93200
H  7.85700 42.96200 23.39500
H  5.92200 42.84500 29.50900
H  5.63800 39.74200 32.32400
H  5.95400 41.14600 33.26300
H  7.33900 40.18600 32.67200

