158

Mg 26.86000 50.43500 26.74600
C  24.76700 51.37900 29.32300
C  29.24100 49.80700 29.13700
C  29.01900 49.45700 24.23100
C  24.61800 51.38200 24.42500
N  26.96900 50.48900 28.94500
C  25.97800 50.96200 29.81300
C  26.42800 50.83600 31.27500
C  27.90000 50.59900 31.12200
C  28.07400 50.32100 29.62600
C  28.85100 51.79900 31.58000
C  25.60200 49.71000 32.10600
C  24.87400 50.24700 33.30900
H  24.78500 49.37900 34.54600
N  28.80800 49.66000 26.64300
C  29.64900 49.51900 27.76300
C  31.00000 49.04700 27.34700
C  30.90900 49.09600 25.90200
C  29.56000 49.37800 25.53700
C  31.97300 48.60100 28.34900
C  32.08000 48.95800 24.89600
O  32.01400 49.10300 23.67400
C  33.40600 48.74300 25.48400
N  26.82900 50.18200 24.62000
C  27.80300 49.83000 23.78700
C  27.26200 49.81200 22.31300
C  25.80100 50.37300 22.45000
C  25.72900 50.71700 23.93100
C  28.05900 50.50600 21.25600
C  24.65500 49.36300 21.96500
C  23.80300 49.80700 20.75900
N  25.09000 51.25300 26.82800
C  24.27000 51.61800 25.77400
C  23.14600 52.34100 26.38100
C  23.18700 52.18100 27.75000
C  24.43300 51.51300 27.93000
C  22.00400 53.01900 25.52300
C  22.52400 52.48200 29.04800
O  21.43900 53.05600 29.21500
C  23.58500 51.91200 30.13300
C  23.93800 53.13500 30.86000
O  24.65800 54.04600 30.45700
O  23.31800 53.03900 32.09600
C  23.76600 53.96700 33.16200
H  29.91100 49.59400 29.97300
H  29.66300 48.98600 23.48600
H  23.83900 51.58200 23.68700
H  26.23300 51.82000 31.70100
H  28.13900 49.79600 31.81900
H  29.28700 51.59800 32.55800
H  28.34600 52.75800 31.70200
H  29.67800 51.93000 30.88300
H  26.18800 48.88500 32.50900
H  24.87400 49.32300 31.39200
H  23.85800 50.44400 32.96500
H  25.32300 51.16900 33.67700
H  32.93300 49.11100 28.28300
H  32.21500 47.53800 28.34500
H  31.65600 48.82500 29.36800
H  33.84200 49.57000 26.04500
H  34.02600 48.45000 24.63700
H  33.30900 47.86300 26.12000
H  27.30300 48.75400 22.05200
H  25.62000 51.32100 21.94500
H  28.93900 50.92500 21.74500
H  27.50100 51.36800 20.89100
H  28.31200 49.83200 20.43700
H  24.10700 49.11900 22.87600
H  25.05700 48.42200 21.58900
H  24.04600 50.85300 20.57000
H  22.73700 49.80000 20.98500
H  24.06300 49.19700 19.89400
H  22.20200 52.79500 24.47500
H  22.06400 54.05300 25.86200
H  21.00700 52.66900 25.79200
H  23.05600 51.21500 30.78300
H  24.69700 53.69600 33.65900
H  23.03000 54.30100 33.89300
H  24.01300 54.97800 32.83800
Mg -6.07600 24.89400 25.08500
C  -4.53700 26.15000 28.11700
C  -7.53500 22.48100 27.10600
C  -6.83600 23.31600 22.33900
C  -3.83900 27.10100 23.35600
N  -5.95400 24.37800 27.30900
C  -5.33900 25.05600 28.32300
C  -5.83900 24.62400 29.64000
C  -6.55800 23.20100 29.32800
C  -6.57600 23.26100 27.77900
C  -5.83700 21.95600 29.89900
C  -6.82000 25.69000 30.26300
C  -6.62500 25.96800 31.73600
H  -5.86900 24.92100 32.58500
N  -7.24700 23.30000 24.78600
C  -7.81500 22.49600 25.70600
C  -8.69500 21.56400 25.01400
C  -8.45400 21.73100 23.63400
C  -7.46000 22.83600 23.51900
C  -9.48100 20.57200 25.79300
C  -8.97100 20.87500 22.41100
O  -8.68700 21.10600 21.24500
C  -10.00600 19.77800 22.59700
N  -5.43700 25.16900 23.14100
C  -5.96200 24.39600 22.10700
C  -5.50700 24.80400 20.74200
C  -4.58500 26.04200 21.02100
C  -4.59100 26.14800 22.61300
C  -4.73100 23.66500 19.99700
C  -5.02300 27.37000 20.28200
C  -4.01400 27.97400 19.37200
N  -4.50300 26.37000 25.52000
C  -3.76700 27.19500 24.70500
C  -2.89100 28.01900 25.47200
C  -3.16300 27.64500 26.81200
C  -4.19900 26.69500 26.78400
C  -1.82200 28.96500 24.83900
C  -2.79400 27.89900 28.22100
O  -1.97200 28.62300 28.69000
C  -3.75600 26.97900 29.06700
C  -2.91200 26.32800 30.09800
O  -2.27200 25.31700 29.88000
O  -2.84800 27.13300 31.23100
C  -1.87500 26.75900 32.28100
H  -8.12900 21.81900 27.74000
H  -7.13400 22.66100 21.51700
H  -3.35300 27.85200 22.73000
H  -4.92800 24.44600 30.21200
H  -7.60500 23.19600 29.62800
H  -4.99900 22.17700 30.56000
H  -5.51100 21.41900 29.00800
H  -6.59400 21.35300 30.40200
H  -7.83200 25.30200 30.14800
H  -6.97900 26.60300 29.69000
H  -7.49100 26.16400 32.36800
H  -6.03800 26.87600 31.87000
H  -8.87100 19.68500 25.96500
H  -10.37100 20.22200 25.27000
H  -9.88300 21.05600 26.68300
H  -9.70600 19.00200 23.30200
H  -10.21700 19.37900 21.60500
H  -10.91600 20.27900 22.92600
H  -6.42400 25.06500 20.21400
H  -3.54900 25.81900 20.76500
H  -3.95700 23.98800 19.30000
H  -5.49100 23.03100 19.53900
H  -4.17100 22.96900 20.62000
H  -5.21300 28.08400 21.08400
H  -5.92700 27.21800 19.69100
H  -3.93500 29.04300 19.56800
H  -4.36500 27.87100 18.34500
H  -3.03500 27.50100 19.44400
H  -2.07200 30.02300 24.92100
H  -1.61800 28.67700 23.80800
H  -0.83400 28.76200 25.25200
H  -4.50400 27.60700 29.55100
H  -0.85300 27.01400 32.00000
H  -1.85200 25.67100 32.35500
H  -2.25400 27.14800 33.22500

