158

Mg -3.18000 17.09100 26.60300
C  -3.45200 14.96800 29.42200
C  -3.81800 19.75600 28.66200
C  -2.93000 18.96700 23.89900
C  -2.90900 14.22600 24.61900
N  -3.67900 17.29800 28.80000
C  -3.67900 16.30800 29.71200
C  -3.84000 16.90500 31.17200
C  -3.98400 18.44000 30.87100
C  -3.79300 18.51200 29.32600
C  -5.32900 19.06200 31.33300
C  -2.70700 16.42300 32.11300
C  -2.09700 17.42900 33.07400
H  -1.58700 16.89600 34.47000
N  -3.25700 19.08000 26.32300
C  -3.52600 20.05300 27.30800
C  -3.32000 21.35400 26.74100
C  -2.91600 21.11100 25.35500
C  -3.01100 19.65400 25.11500
C  -3.62000 22.61000 27.53000
C  -2.34500 22.02300 24.38000
O  -2.00700 21.78000 23.23900
C  -2.07100 23.44200 24.78700
N  -3.09400 16.58900 24.47100
C  -3.00300 17.61400 23.61700
C  -2.80100 17.07900 22.23500
C  -2.41700 15.54600 22.44200
C  -2.82600 15.39000 23.88500
C  -3.87300 17.47600 21.21500
C  -0.97800 15.13800 21.98500
C  0.21600 15.57900 22.85900
N  -3.32200 15.06200 26.84200
C  -3.09900 13.99200 25.97300
C  -3.31100 12.67300 26.58800
C  -3.37700 13.02200 27.96400
C  -3.40700 14.48200 28.08200
C  -3.17600 11.29100 25.96800
C  -3.49900 12.52900 29.34900
O  -3.61800 11.34600 29.73000
C  -3.53500 13.75600 30.32800
C  -2.44800 13.47200 31.38300
O  -1.20400 13.59900 31.30200
O  -2.98000 13.05200 32.54500
C  -2.14900 13.07400 33.75200
H  -3.98700 20.54400 29.39800
H  -2.59800 19.58100 23.05900
H  -2.65100 13.28800 24.12300
H  -4.74100 16.40400 31.52500
H  -3.22500 19.05600 31.35400
H  -6.05000 18.36800 31.76500
H  -5.90800 19.44400 30.49200
H  -5.09900 19.86900 32.02900
H  -1.83300 16.05900 31.57300
H  -3.13400 15.66100 32.76400
H  -2.80500 18.21400 33.33900
H  -1.17800 17.92900 32.77000
H  -4.29900 22.35100 28.34300
H  -4.22000 23.21100 26.84700
H  -2.69300 23.09400 27.83800
H  -3.05600 23.86400 24.98300
H  -1.55500 23.98100 23.99200
H  -1.33600 23.50000 25.59000
H  -1.90500 17.60200 21.90100
H  -3.08600 14.92800 21.84300
H  -4.40300 18.37100 21.53900
H  -4.56500 16.67700 20.94800
H  -3.48500 17.77900 20.24200
H  -0.72300 15.73500 21.10900
H  -0.97400 14.06800 21.77500
H  -0.22400 15.78100 23.83600
H  0.79900 16.43100 22.51100
H  0.95300 14.77900 22.92300
H  -2.95900 11.36000 24.90200
H  -4.05700 10.66900 26.12700
H  -2.39700 10.76000 26.51600
H  -4.54200 13.80700 30.74000
H  -2.14100 14.07900 34.17300
H  -1.11400 12.79800 33.55100
H  -2.68300 12.42500 34.44600
Mg 23.95700 -4.27700 45.15300
C  26.22300 -1.87500 44.03600
C  21.52900 -2.97800 43.18200
C  22.12600 -7.17100 45.70400
C  26.69000 -5.76200 46.85600
N  24.01600 -2.71400 43.67000
C  24.90900 -1.79200 43.40200
C  24.43000 -0.83200 42.30400
C  22.90000 -1.06700 42.23000
C  22.74700 -2.31800 43.16600
C  21.95200 0.13800 42.60300
C  25.22200 -1.09800 40.95800
C  25.52300 0.16700 40.13200
H  25.08200 0.14500 38.62900
N  22.12200 -4.96400 44.55900
C  21.18100 -4.24800 43.75000
C  19.95200 -4.94000 43.61000
C  20.13700 -6.23000 44.23800
C  21.50600 -6.15600 44.90200
C  18.80700 -4.30300 42.84400
C  19.08200 -7.30400 44.09200
O  18.01600 -7.03700 43.54000
C  19.34100 -8.54400 44.78300
N  24.28400 -6.07500 46.19300
C  23.32600 -7.04500 46.33200
C  23.87600 -8.21800 47.14900
C  25.32900 -7.75600 47.63800
C  25.44100 -6.41800 46.90200
C  22.97400 -8.79400 48.30500
C  26.50700 -8.70200 47.22700
C  27.70500 -8.71100 48.19100
N  25.97900 -3.80500 45.56100
C  26.91500 -4.49400 46.25900
C  28.16000 -3.77500 46.15700
C  27.92100 -2.70800 45.35800
C  26.62000 -2.77500 44.94600
C  29.45500 -4.14500 46.87200
C  28.47300 -1.48400 44.73000
O  29.58500 -1.07200 44.75600
C  27.34200 -0.90600 43.79300
C  27.03100 0.38800 44.27300
O  26.16400 0.75600 45.03400
O  27.92600 1.31800 43.82300
C  27.96700 2.64800 44.35500
H  20.72500 -2.43400 42.68200
H  21.64500 -8.13900 45.85600
H  27.59500 -6.26700 47.19900
H  24.69500 0.20000 42.53100
H  22.67300 -1.40000 41.21800
H  21.68000 0.59000 41.64900
H  22.55500 0.88800 43.11300
H  21.15200 -0.34500 43.16400
H  24.56600 -1.68400 40.31500
H  26.16000 -1.63300 41.10300
H  26.59000 0.32600 40.29100
H  24.82900 0.92000 40.50500
H  19.09400 -3.45100 42.22700
H  18.19200 -4.06500 43.71100
H  18.13800 -4.91100 42.23700
H  18.55500 -9.27100 44.57800
H  19.51600 -8.30700 45.83200
H  20.32400 -8.85900 44.43200
H  23.94800 -9.01700 46.41100
H  25.46400 -7.56700 48.70300
H  23.42300 -8.81500 49.29800
H  22.79100 -9.84500 48.08200
H  21.98600 -8.33400 48.31500
H  26.88100 -8.40200 46.24800
H  26.14700 -9.72900 47.17300
H  27.75200 -7.84600 48.85300
H  28.59700 -8.74200 47.56600
H  27.61700 -9.57300 48.85200
H  30.15700 -4.45300 46.09700
H  29.35300 -4.92000 47.63200
H  29.88000 -3.30700 47.42500
H  27.73200 -0.76500 42.78400
H  28.55500 3.20500 43.62600
H  28.32500 2.61800 45.38500
H  26.99100 3.13000 44.29800

