158

Mg 54.81400 24.45000 45.45000
C  52.19400 26.78400 44.70000
C  52.70600 22.02400 44.10500
C  57.42400 22.33800 45.35100
C  56.91200 27.15700 46.22400
N  52.79300 24.49800 44.31900
C  51.84800 25.52600 44.32400
C  50.51000 25.06300 43.69600
C  50.63600 23.49100 43.91300
C  52.16500 23.32400 44.09800
C  49.83200 22.87700 45.09200
C  50.34300 25.64100 42.26900
C  50.28900 24.63300 41.03300
H  50.02900 25.06500 39.61100
N  55.03400 22.38400 44.85700
C  54.01200 21.54100 44.39700
C  54.57600 20.20300 44.16000
C  55.97700 20.29900 44.28300
C  56.20800 21.67300 44.85100
C  53.60400 18.97900 43.81100
C  56.96900 19.18600 44.08100
O  56.65000 18.07400 43.66800
C  58.49600 19.32100 44.36000
N  56.82900 24.71300 45.72500
C  57.66400 23.67300 45.83900
C  59.09300 24.06700 46.25100
C  58.94900 25.58500 46.37000
C  57.41900 25.87200 46.14700
C  59.75800 23.31300 47.33300
C  60.02000 26.45900 45.71600
C  60.71600 27.42700 46.57900
N  54.66400 26.49800 45.57700
C  55.58200 27.45700 45.97000
C  54.94400 28.75700 46.02300
C  53.63900 28.50900 45.55800
C  53.53400 27.11300 45.17100
C  55.56000 30.01500 46.49800
C  52.43500 29.16200 45.34900
O  52.00900 30.25900 45.61400
C  51.45600 28.11200 44.65700
C  51.09200 28.61800 43.31600
O  51.88900 29.14500 42.50000
O  49.68900 28.54000 43.15200
C  49.26800 29.22500 41.92500
H  52.04700 21.20900 43.79700
H  58.27500 21.65400 45.32500
H  57.55600 28.00200 46.47500
H  49.66800 25.33500 44.33300
H  50.48800 22.88900 43.01700
H  50.43800 22.16100 45.64800
H  48.88900 22.41300 44.80300
H  49.54800 23.65400 45.80200
H  51.11400 26.31800 41.90100
H  49.34000 26.06500 42.31100
H  49.44400 23.94500 41.06600
H  51.23500 24.09800 41.11000
H  52.82400 19.09600 44.56300
H  54.08500 18.00600 43.90800
H  53.22700 19.03900 42.79000
H  58.84400 20.26100 43.93100
H  59.08200 18.67000 43.71200
H  58.74300 19.22000 45.41700
H  59.68900 23.68700 45.42100
H  59.10100 25.75700 47.43600
H  60.72200 22.84600 47.13600
H  59.10900 22.47700 47.59700
H  59.94600 23.89100 48.23800
H  59.52100 27.03200 44.93400
H  60.64600 25.83000 45.08300
H  61.77200 27.46400 46.31400
H  60.59600 27.37500 47.66100
H  60.28700 28.38800 46.29300
H  56.22100 30.44100 45.74300
H  56.14400 29.96300 47.41800
H  54.78400 30.76900 46.63000
H  50.54200 27.96900 45.23400
H  49.68500 28.71700 41.05500
H  49.75200 30.20200 41.93000
H  48.19100 29.35000 42.03700
Mg -5.27700 25.79700 26.41700
C  -3.94000 27.48200 29.26000
C  -7.30200 23.93100 28.46700
C  -5.95400 24.10300 23.70000
C  -2.96700 27.68000 24.34900
N  -5.59800 25.67300 28.62600
C  -4.96300 26.49600 29.61700
C  -5.54700 26.14900 31.05000
C  -6.54800 24.97700 30.74100
C  -6.47700 24.86900 29.22700
C  -6.31700 23.62300 31.50100
C  -6.12900 27.42800 31.66700
C  -5.72400 27.77000 33.08000
H  -5.55800 26.59700 33.94900
N  -6.46800 24.28400 26.11900
C  -7.22200 23.64800 27.08300
C  -7.95100 22.59300 26.46100
C  -7.51200 22.54200 25.11100
C  -6.57400 23.65600 24.90200
C  -8.80600 21.63500 27.26400
C  -7.73900 21.56000 23.99100
O  -7.18800 21.58300 22.92600
C  -8.64800 20.41300 24.18900
N  -4.76100 26.17000 24.24500
C  -5.20200 25.20700 23.33100
C  -4.59900 25.47300 21.89100
C  -3.74300 26.73300 22.17500
C  -3.85200 26.90700 23.67000
C  -3.64000 24.30300 21.38200
C  -4.31200 28.12800 21.60100
C  -3.51500 28.57300 20.43300
N  -3.80900 27.27700 26.69900
C  -3.01500 27.90800 25.76000
C  -2.16100 28.82900 26.46200
C  -2.47300 28.77300 27.89200
C  -3.46500 27.72900 27.96200
C  -1.17300 29.69500 25.83900
C  -2.18400 29.18800 29.18100
O  -1.39500 30.07400 29.53100
C  -3.06800 28.39200 30.12200
C  -2.14100 27.61500 30.98700
O  -1.33700 26.76000 30.63700
O  -2.39300 27.84200 32.32900
C  -1.56000 27.32300 33.38900
H  -7.91900 23.32800 29.13500
H  -6.25200 23.52000 22.82600
H  -2.14300 28.16700 23.82300
H  -4.71000 25.65600 31.54500
H  -7.55200 25.34600 30.94800
H  -6.15400 22.90400 30.69800
H  -7.17200 23.33100 32.11100
H  -5.55700 23.61800 32.28300
H  -7.21800 27.42000 31.69100
H  -5.87900 28.26200 31.01200
H  -6.51500 28.45800 33.38000
H  -4.88600 28.46500 33.13500
H  -8.32800 21.11100 28.09200
H  -9.30700 20.88900 26.64700
H  -9.54400 22.26500 27.75900
H  -8.53200 19.91300 23.22700
H  -9.66500 20.78400 24.31700
H  -8.32500 19.69200 24.94000
H  -5.38400 25.68300 21.16500
H  -2.71000 26.57800 21.86500
H  -2.71400 24.57800 20.87600
H  -4.31300 23.78300 20.70100
H  -3.40500 23.65200 22.22400
H  -4.17000 28.86100 22.39500
H  -5.35300 28.09000 21.28100
H  -4.01400 28.35300 19.49000
H  -2.54400 28.07800 20.41800
H  -3.50600 29.64900 20.60200
H  -0.51700 29.11700 25.18900
H  -0.62300 30.23400 26.61000
H  -1.74000 30.40800 25.24100
H  -3.58500 29.11000 30.75900
H  -0.54500 27.38900 32.99500
H  -1.84600 26.27700 33.49700
H  -1.59100 27.91900 34.30200

