158

Mg 47.66500 24.92400 28.97800
C  47.98600 27.30400 31.43000
C  46.66100 22.70100 31.39800
C  47.55700 22.45300 26.58400
C  48.87600 27.16100 26.58300
N  47.42300 25.01800 31.22500
C  47.52400 26.08000 31.98900
C  47.20700 25.81500 33.43600
C  46.83300 24.31900 33.37000
C  47.01300 23.95800 31.87400
C  47.71500 23.44300 34.35000
C  45.98700 26.65100 33.96900
C  46.04300 27.45400 35.30200
H  46.57400 26.68100 36.50200
N  47.21700 22.89900 28.96700
C  46.73600 22.16900 30.05900
C  46.21000 20.94400 29.58100
C  46.36900 20.96400 28.12500
C  47.14000 22.13500 27.86500
C  45.60000 19.81200 30.38300
C  45.85400 19.93500 27.02800
O  45.89900 20.06000 25.81700
C  44.99000 18.77200 27.50800
N  48.20000 24.78600 26.87700
C  48.12300 23.67500 26.07000
C  48.54700 24.03900 24.61600
C  48.91700 25.52200 24.65600
C  48.60700 25.85000 26.10900
C  49.58900 23.03700 24.16400
C  48.31800 26.42200 23.57100
C  46.80700 26.54900 23.65400
N  48.30700 26.80400 29.01800
C  48.80900 27.61000 27.99200
C  49.16700 28.93300 28.46200
C  48.87900 28.92200 29.82500
C  48.30000 27.57500 30.10600
C  49.72700 30.03500 27.61900
C  48.84500 29.63400 31.04800
O  49.12400 30.81300 31.21100
C  48.44000 28.63000 32.11800
C  49.52100 28.33100 33.05200
O  50.59200 27.85000 32.65500
O  49.33000 28.93000 34.24300
C  50.45700 28.84400 35.18300
H  46.28000 22.05200 32.18900
H  47.27400 21.72400 25.82200
H  49.39200 27.91100 25.98000
H  48.13100 26.02700 33.97500
H  45.80500 24.16100 33.69500
H  47.06700 23.15800 35.17900
H  48.51900 24.00000 34.83100
H  48.14600 22.58200 33.84000
H  45.09400 26.04400 34.12200
H  45.80700 27.40600 33.20400
H  45.00500 27.70700 35.52000
H  46.64200 28.33600 35.07800
H  44.53500 19.75700 30.15600
H  45.61800 19.86800 31.47100
H  46.05900 18.92900 29.93800
H  44.16500 19.19700 28.08000
H  45.50200 18.05800 28.15400
H  44.62000 18.27600 26.61100
H  47.74200 23.95100 23.88600
H  49.98400 25.58500 24.44600
H  49.93300 22.44800 25.01400
H  50.46400 23.60600 23.85000
H  49.26000 22.31300 23.41900
H  48.59500 26.01000 22.60100
H  48.75600 27.41500 23.46800
H  46.46200 27.57400 23.78800
H  46.40600 26.13300 24.57900
H  46.25400 26.18300 22.78900
H  48.97500 30.14700 26.83700
H  50.70400 29.69200 27.28000
H  49.77400 30.93700 28.22900
H  47.59000 28.97800 32.70500
H  50.03300 29.15200 36.13900
H  51.31700 29.51000 35.12000
H  50.78400 27.80500 35.23900
Mg 35.94100 48.99600 24.81900
C  36.23300 47.31400 27.95200
C  34.98700 51.81000 26.58900
C  35.33100 50.54600 21.96300
C  37.18600 46.20600 23.31000
N  35.50900 49.40100 27.03000
C  35.73400 48.60700 28.12900
C  35.42000 49.34200 29.41100
C  35.29100 50.75000 28.92700
C  35.23000 50.68900 27.39400
C  34.01000 51.53500 29.52400
C  36.46600 49.03700 30.49400
C  36.54800 49.94000 31.72200
H  35.25900 50.13800 32.56200
N  35.15200 50.91600 24.35300
C  34.86700 51.90800 25.15500
C  34.56300 53.12800 24.44200
C  34.52500 52.74000 23.08400
C  35.01500 51.35600 23.04800
C  34.39200 54.52100 25.06600
C  34.07400 53.55800 21.85100
O  34.03900 53.08100 20.72400
C  33.67700 54.99600 21.86100
N  36.14800 48.42600 22.89400
C  35.78600 49.24700 21.81400
C  36.24300 48.59400 20.49200
C  36.86100 47.23400 20.94600
C  36.74800 47.26300 22.44000
C  35.27000 48.49400 19.35200
C  38.27700 47.00600 20.23400
C  39.47900 47.41300 21.14900
N  36.66200 47.16000 25.44600
C  37.05800 46.12100 24.69800
C  37.47500 44.98600 25.51000
C  37.07100 45.40100 26.77500
C  36.65600 46.74500 26.70800
C  37.88500 43.66300 25.07700
C  36.97300 44.98900 28.15800
O  37.21400 43.93800 28.65800
C  36.45400 46.19200 28.96400
C  35.17400 45.83900 29.63500
O  34.08400 45.66200 29.10400
O  35.35300 45.62000 31.00300
C  34.18100 45.41200 31.86400
H  35.05500 52.77500 27.09600
H  35.42200 51.10300 21.02800
H  37.52100 45.31800 22.77000
H  34.49500 49.00200 29.87700
H  36.11200 51.38700 29.25700
H  34.20400 52.58900 29.72700
H  33.61200 51.01600 30.39600
H  33.18400 51.65400 28.82300
H  37.45100 48.74500 30.13000
H  36.16100 48.12300 31.00300
H  36.92200 50.92200 31.43300
H  37.29900 49.42300 32.31900
H  34.94000 55.32000 24.56700
H  34.65600 54.45300 26.12100
H  33.35200 54.84100 25.01100
H  33.15300 55.25400 22.78100
H  33.19200 55.22800 20.91300
H  34.68200 55.40400 21.75400
H  36.97900 49.29900 20.10700
H  36.16500 46.45800 20.62700
H  34.31500 48.90300 19.68200
H  35.10500 47.45200 19.07900
H  35.64200 48.94300 18.43200
H  38.41200 47.53200 19.28900
H  38.40700 45.94100 20.04000
H  40.26300 48.04600 20.73400
H  39.97600 46.50800 21.49700
H  39.08500 47.96500 22.00200
H  36.97200 43.08300 24.94400
H  38.51300 43.27900 25.88100
H  38.44000 43.73700 24.14200
H  37.13000 46.44900 29.77900
H  34.37900 44.49800 32.42200
H  33.23500 45.19900 31.36600
H  34.04200 46.28600 32.50100

