158

Mg 26.37000 51.06500 25.73200
C  24.63100 52.20200 28.50100
C  28.78700 49.78200 27.79400
C  27.93400 49.97400 23.04600
C  24.01600 52.71700 23.76600
N  26.66100 51.06500 27.89700
C  25.76900 51.53600 28.85200
C  26.26000 51.21900 30.31300
C  27.70700 50.71500 29.93400
C  27.74000 50.48000 28.44600
C  28.95400 51.52800 30.34600
C  25.29400 50.15200 31.01800
C  24.79500 50.43700 32.50000
H  25.89000 50.95000 33.49200
N  28.16100 50.04900 25.44900
C  28.96700 49.62200 26.39900
C  29.96400 48.68400 25.85900
C  29.78300 48.75700 24.41300
C  28.62100 49.67400 24.22700
C  31.10300 48.03300 26.59300
C  30.52200 48.06300 23.34500
O  30.13700 48.14000 22.16600
C  31.69700 47.20800 23.68400
N  26.08600 51.49800 23.66400
C  26.78600 50.70400 22.75300
C  26.04000 50.63600 21.39000
C  24.83000 51.60300 21.57100
C  24.93200 51.94700 23.08700
C  26.91300 50.91200 20.15900
C  23.52100 50.87800 21.40400
C  22.67400 51.26100 20.16300
N  24.61600 52.29200 26.05700
C  23.74200 52.84700 25.09100
C  22.74000 53.64900 25.76100
C  23.04900 53.39600 27.14000
C  24.18400 52.59800 27.24900
C  21.67900 54.50300 25.16200
C  22.59300 53.50700 28.50700
O  21.53400 53.98400 28.89300
C  23.64600 52.91900 29.43400
C  24.26300 53.96000 30.38500
O  25.21300 54.65000 30.12100
O  23.69900 53.98900 31.60700
C  24.45700 54.83900 32.56400
H  29.44200 49.24800 28.48600
H  28.24100 49.39700 22.17100
H  23.27700 53.13000 23.07600
H  26.23500 52.07800 30.98300
H  27.91900 49.74500 30.38500
H  28.61200 52.17300 31.15700
H  29.36400 52.01500 29.46200
H  29.72300 50.84300 30.70300
H  25.71100 49.14900 30.93000
H  24.40100 50.08000 30.39700
H  24.28300 49.55500 32.88400
H  24.00800 51.19100 32.47700
H  31.10500 46.94600 26.51200
H  31.17600 48.29500 27.64800
H  32.01600 48.43800 26.15600
H  32.45600 47.93100 23.98600
H  32.19100 46.60300 22.92400
H  31.42000 46.49200 24.45700
H  25.76700 49.58600 21.28900
H  24.90800 52.49800 20.95400
H  27.89900 51.20900 20.51800
H  26.61300 51.70600 19.47600
H  27.04500 49.96500 19.63600
H  22.93500 50.84100 22.32300
H  23.58300 49.83500 21.09400
H  21.74000 51.58200 20.62500
H  22.50100 50.45300 19.45200
H  23.08000 52.14900 19.67900
H  22.01100 54.71100 24.14500
H  21.45500 55.38700 25.75900
H  20.78900 53.90200 24.97800
H  22.99100 52.24500 29.98500
H  25.52700 54.65000 32.47100
H  24.21100 54.61400 33.60200
H  24.23200 55.89000 32.37800
Mg 9.17100 49.03200 26.31500
C  7.39300 49.14500 29.25500
C  11.93900 50.23800 27.94000
C  10.74200 49.08100 23.25700
C  6.11200 48.30700 24.65300
N  9.59800 49.40000 28.35700
C  8.72300 49.49700 29.41800
C  9.47000 50.02900 30.63900
C  10.59700 50.88400 30.00600
C  10.79100 50.08900 28.67200
C  10.26400 52.42900 29.76400
C  9.95900 48.87600 31.49600
C  9.90800 49.11600 33.03900
H  9.67700 47.94000 33.97900
N  11.14200 49.48600 25.68900
C  12.15800 49.91600 26.56600
C  13.32600 50.03200 25.79400
C  13.02100 49.62500 24.40600
C  11.57400 49.34200 24.35800
C  14.67700 50.53900 26.49000
C  13.98100 49.34700 23.29300
O  13.68000 48.91500 22.17300
C  15.39600 49.59200 23.54300
N  8.52800 48.90900 24.27400
C  9.35600 48.79500 23.25000
C  8.66300 48.41900 21.95900
C  7.23400 47.99100 22.41900
C  7.24400 48.41600 23.88200
C  8.63400 49.54900 20.90200
C  6.85700 46.49800 22.18200
C  7.68700 45.39300 22.80300
N  7.08200 48.82300 26.83400
C  5.99200 48.61700 26.04800
C  4.82500 48.53400 26.89000
C  5.36300 48.70900 28.13100
C  6.74000 48.86800 28.06000
C  3.36800 48.20900 26.45400
C  5.03500 48.78700 29.57500
O  3.90900 48.70200 30.06700
C  6.32300 49.11300 30.33300
C  6.46300 47.99700 31.28500
O  6.76200 46.91300 30.92300
O  6.15200 48.35500 32.60700
C  5.96600 47.24700 33.55000
H  12.77300 50.71000 28.46300
H  11.21300 48.79900 22.31300
H  5.18700 48.06400 24.12500
H  8.84900 50.62200 31.31100
H  11.48000 50.90500 30.64600
H  10.17600 52.43500 28.67700
H  10.92700 53.16300 30.22200
H  9.24700 52.65200 30.08600
H  10.99400 48.67700 31.21600
H  9.40000 47.96200 31.29300
H  9.07000 49.77300 33.27500
H  10.89200 49.46500 33.35100
H  14.50600 51.17700 27.35700
H  15.37800 51.02900 25.81400
H  15.18800 49.64000 26.83500
H  16.04400 49.44600 22.67900
H  15.73300 48.92000 24.33200
H  15.49200 50.63000 23.86300
H  9.23600 47.56500 21.59700
H  6.43500 48.67500 22.13400
H  7.70100 49.49300 20.34100
H  9.51000 49.33500 20.28900
H  8.78100 50.55100 21.30400
H  6.91300 46.45200 21.09400
H  5.81100 46.31700 22.43200
H  8.24400 45.79800 23.64800
H  8.43800 45.01800 22.10700
H  6.97600 44.62200 23.09900
H  3.27800 48.11800 25.37200
H  2.60400 48.79800 26.96200
H  3.11900 47.20600 26.80200
H  6.14400 50.07400 30.81400
H  4.95900 46.86400 33.38700
H  5.97500 47.65700 34.56000
H  6.85200 46.64100 33.36000

