158

Mg 25.45900 1.55300 29.49700
C  27.64700 1.02400 32.29700
C  22.85100 1.67600 31.63200
C  23.46900 1.50200 26.82400
C  28.15800 0.73400 27.38900
N  25.26200 1.30700 31.73700
C  26.34800 1.20200 32.70800
C  25.79500 1.47100 34.14400
C  24.24900 1.48500 33.90800
C  24.07600 1.41900 32.33100
C  23.42500 0.43200 34.67000
C  26.45900 2.62600 34.82700
C  27.06900 2.27000 36.23300
H  26.95800 3.45000 37.23900
N  23.41000 1.53600 29.26100
C  22.50400 1.59200 30.31000
C  21.19100 1.60600 29.70900
C  21.33700 1.46800 28.30000
C  22.80700 1.43500 28.03400
C  19.91700 1.74300 30.61100
C  20.23800 1.38600 27.21800
O  20.47100 1.10000 26.04100
C  18.77900 1.61200 27.57400
N  25.80700 1.28500 27.37400
C  24.83900 1.38100 26.48400
C  25.35900 1.14000 25.07300
C  26.90500 1.07500 25.22700
C  26.94300 0.97400 26.76400
C  24.75500 -0.25500 24.51900
C  27.76100 2.31700 24.75500
C  29.04200 2.00300 24.04200
N  27.54700 1.10300 29.68400
C  28.45200 0.84200 28.74900
C  29.75000 0.62100 29.40100
C  29.48000 0.73800 30.76700
C  28.12900 0.96600 30.88300
C  31.03200 0.27400 28.76300
C  30.01600 0.77000 32.09500
O  31.15400 0.48400 32.51400
C  28.85300 1.00000 33.10400
C  28.84900 -0.18300 34.04000
O  28.16300 -1.17100 33.93600
O  29.61100 0.17200 35.13900
C  29.30300 -0.62600 36.29600
H  22.10800 2.03200 32.34800
H  22.81200 1.39200 25.95900
H  28.99500 0.40700 26.76900
H  26.03800 0.56800 34.70500
H  23.74300 2.40700 34.19500
H  22.63400 0.71400 35.36500
H  23.97900 -0.19500 35.37000
H  23.04100 -0.21300 33.87900
H  25.75500 3.45900 34.85100
H  27.26900 3.01400 34.20900
H  28.11900 2.03900 36.04900
H  26.59400 1.44100 36.75900
H  20.18400 1.54300 31.64900
H  19.21900 1.03500 30.16400
H  19.48800 2.73500 30.47300
H  18.48700 0.80900 28.25100
H  18.13900 1.79400 26.71100
H  18.72400 2.57000 28.09000
H  25.03300 2.00600 24.49600
H  27.41900 0.22800 24.77100
H  24.28800 -0.04500 23.55700
H  24.08800 -0.65300 25.28400
H  25.60700 -0.89300 24.28200
H  28.06100 2.89100 25.63200
H  27.21600 2.98100 24.08400
H  29.01700 2.50700 23.07600
H  29.14400 0.94500 23.80100
H  29.85500 2.34500 24.68300
H  30.77900 0.08300 27.72000
H  31.39700 -0.70900 29.06100
H  31.81900 1.00500 28.94600
H  29.04700 1.79700 33.82200
H  28.40600 -0.22900 36.77000
H  29.96200 -0.47900 37.15100
H  29.31900 -1.69700 36.09400
Mg 53.84000 23.70300 44.93800
C  51.40400 26.14000 44.23200
C  51.76200 21.33600 43.60000
C  56.32000 21.42200 45.22900
C  56.08300 26.20900 45.58600
N  51.93200 23.81400 43.86200
C  51.11800 24.83000 43.75000
C  49.98600 24.51500 42.75800
C  49.83600 23.00900 43.23600
C  51.25600 22.65800 43.55800
C  48.83100 22.75400 44.36500
C  50.17100 24.68600 41.19500
C  51.48700 25.19900 40.68100
H  51.43700 25.93100 39.37400
N  53.99200 21.66800 44.59200
C  53.02200 20.87000 44.03400
C  53.43200 19.52900 44.14600
C  54.72600 19.48400 44.61600
C  55.09400 20.88800 44.82900
C  52.56600 18.32800 43.80100
C  55.56500 18.20600 44.91800
O  55.23800 17.06400 44.58000
C  56.84500 18.35100 45.65900
N  55.86800 23.79900 45.20300
C  56.71700 22.72100 45.28900
C  58.22400 23.15200 45.43100
C  58.09400 24.65200 45.75600
C  56.55900 24.92300 45.59200
C  59.11100 22.34400 46.52200
C  58.94800 25.64200 44.93100
C  58.45800 25.91300 43.50500
N  53.77100 25.82000 44.98400
C  54.72400 26.67000 45.31700
C  54.20000 28.07100 45.33300
C  52.83800 27.84400 45.02000
C  52.68900 26.48400 44.76700
C  54.93800 29.31000 45.70600
C  51.49200 28.49200 44.84800
O  51.16000 29.66200 45.07600
C  50.49400 27.35400 44.33500
C  49.87500 27.78800 43.08600
O  50.45500 28.25600 42.14200
O  48.47700 27.67900 43.13600
C  47.64000 27.94800 41.98300
H  51.05600 20.57800 43.25400
H  57.15400 20.72600 45.34000
H  56.78100 27.03700 45.72700
H  49.11600 25.02100 43.17600
H  49.40700 22.52100 42.36000
H  49.40100 22.25900 45.15100
H  48.02300 22.04300 44.19200
H  48.44100 23.70500 44.72800
H  49.45000 25.39900 40.79400
H  49.95500 23.72600 40.72800
H  52.17400 24.35300 40.68800
H  51.98000 25.88800 41.36600
H  52.51100 17.55300 44.56500
H  52.94600 18.00500 42.83200
H  51.50500 18.56800 43.72400
H  57.19000 17.37500 45.99900
H  56.69500 18.98400 46.53400
H  57.44100 18.86900 44.90800
H  58.71000 22.99500 44.46800
H  58.31900 24.87900 46.79900
H  59.28600 23.01600 47.36200
H  60.03600 22.29500 45.94600
H  58.69800 21.37100 46.78700
H  59.93200 25.18600 45.04600
H  58.94000 26.52500 45.57000
H  59.05000 25.68100 42.61900
H  58.45300 26.99400 43.36900
H  57.49300 25.43900 43.32800
H  55.79800 29.44500 45.05100
H  55.26800 29.20000 46.73900
H  54.29700 30.18800 45.62400
H  49.87500 27.06600 45.18400
H  46.97600 27.10600 41.78500
H  48.06300 28.31300 41.04800
H  47.04400 28.80600 42.29300

