158

Mg -9.71800 40.17200 42.54100
C  -8.48400 37.11500 41.37700
C  -7.02500 41.66100 41.03300
C  -11.24700 43.03300 42.91800
C  -12.76500 38.44100 43.10900
N  -7.89900 39.49400 41.30100
C  -7.65700 38.20400 41.05300
C  -6.25600 38.02700 40.34600
C  -5.62700 39.53700 40.37000
C  -6.91700 40.27000 40.87700
C  -4.53700 39.69000 41.44300
C  -6.39100 37.49600 38.91300
C  -5.66200 36.21100 38.57900
H  -4.77000 36.04800 37.36200
N  -9.10100 42.03100 42.29600
C  -7.95900 42.49500 41.67700
C  -7.99300 43.94800 41.57200
C  -9.19700 44.39800 42.23700
C  -9.95600 43.15700 42.49100
C  -7.01000 44.87200 40.87200
C  -9.56400 45.81200 42.49700
O  -8.77600 46.68700 42.10000
C  -10.90900 46.27200 43.13300
N  -11.69500 40.67400 42.91000
C  -12.08000 41.94100 43.04000
C  -13.59200 42.07700 43.12100
C  -14.09100 40.60900 43.31500
C  -12.78400 39.82100 43.10400
C  -14.05500 43.03800 44.30600
C  -15.16500 40.19000 42.19900
C  -16.40400 41.12100 42.13100
N  -10.50800 38.18200 42.42700
C  -11.73400 37.63700 42.73600
C  -11.64200 36.18100 42.63200
C  -10.44100 36.00000 42.11600
C  -9.74800 37.16200 41.97400
C  -12.61700 35.24400 43.15200
C  -9.47300 34.95700 41.72000
O  -9.57000 33.77800 41.78000
C  -8.21600 35.65800 41.19500
C  -7.11200 35.10200 41.91700
O  -6.77200 35.52200 43.01300
O  -6.33300 34.25700 41.17700
C  -5.04700 33.83300 41.70600
H  -6.10700 42.13100 40.67300
H  -11.78400 43.98100 42.84300
H  -13.68200 37.86600 43.25200
H  -5.78000 37.30000 41.00300
H  -5.39400 40.00100 39.41100
H  -3.61100 39.81600 40.88200
H  -4.59500 38.75700 42.00500
H  -4.55900 40.53500 42.13100
H  -6.04100 38.21900 38.17600
H  -7.44900 37.29800 38.74100
H  -6.40100 35.41500 38.48900
H  -4.95700 36.15000 39.40900
H  -7.52100 45.18800 39.96200
H  -6.20600 44.18500 40.60700
H  -6.48100 45.66400 41.40200
H  -11.05200 47.28600 43.50600
H  -11.23500 45.72100 44.01500
H  -11.67900 46.14500 42.37200
H  -13.86500 42.45600 42.13700
H  -14.50500 40.53400 44.32100
H  -13.25400 43.64800 44.72300
H  -14.50500 42.49600 45.13800
H  -14.81500 43.62900 43.79500
H  -15.42300 39.13800 42.32800
H  -14.51600 40.37900 41.34500
H  -16.48000 41.51200 41.11700
H  -16.40200 41.99600 42.78100
H  -17.24500 40.45100 42.30800
H  -13.64800 35.50200 42.91200
H  -12.54800 35.27400 44.24000
H  -12.49200 34.22700 42.78000
H  -7.98900 35.42400 40.15500
H  -4.51300 33.33900 40.89400
H  -5.25500 33.07000 42.45600
H  -4.44100 34.65800 42.08000
Mg -11.25300 18.28400 42.23300
C  -7.86000 17.39000 41.79500
C  -10.42500 21.53300 41.22200
C  -14.53600 19.14700 42.27800
C  -12.03400 14.89900 42.35300
N  -9.41200 19.28800 41.58600
C  -8.09000 18.75000 41.56100
C  -7.04100 19.72300 40.90000
C  -7.86300 21.08600 40.97500
C  -9.31600 20.60300 41.32400
C  -7.34800 22.12500 42.02500
C  -6.73000 19.23500 39.38500
C  -5.22100 19.13000 39.01300
H  -4.89100 19.27000 37.49400
N  -12.38000 20.15600 41.86700
C  -11.85400 21.37100 41.44500
C  -12.88500 22.39800 41.47300
C  -14.04500 21.73400 41.92600
C  -13.68300 20.22700 41.97600
C  -12.63200 23.79800 41.13800
C  -15.42800 22.36300 42.20700
O  -15.57500 23.53400 42.16900
C  -16.62700 21.58600 42.58500
N  -13.03800 17.17300 42.44100
C  -14.29400 17.76600 42.40400
C  -15.35600 16.62600 42.55000
C  -14.58500 15.31600 42.73000
C  -13.11900 15.79200 42.37800
C  -16.33300 16.80000 43.65400
C  -15.13300 14.23300 41.76900
C  -14.72400 14.34800 40.29800
N  -10.19700 16.51200 42.13800
C  -10.67100 15.24900 42.21300
C  -9.52200 14.30900 42.23000
C  -8.39100 15.13800 42.13000
C  -8.84900 16.41700 41.93800
C  -9.54300 12.88600 42.48800
C  -6.93200 15.12900 42.02200
O  -6.19300 14.17300 42.22800
C  -6.57800 16.61100 41.74300
C  -5.50400 17.10300 42.69000
O  -4.46000 17.58100 42.37200
O  -5.83200 16.87100 44.05800
C  -4.74500 17.12900 45.00100
H  -9.97600 22.45500 40.84700
H  -15.61200 19.28300 42.40500
H  -12.30000 13.84300 42.43700
H  -6.11700 19.88600 41.45500
H  -7.88500 21.53900 39.98400
H  -8.19500 22.34700 42.67500
H  -6.98900 23.03400 41.54300
H  -6.64600 21.68300 42.73200
H  -7.13700 19.96800 38.68900
H  -7.24600 18.30500 39.15000
H  -5.05200 18.06800 39.18700
H  -4.57600 19.78300 39.60200
H  -12.98400 24.37700 41.99200
H  -13.23100 23.91600 40.23500
H  -11.61200 24.09900 40.90100
H  -17.08500 20.93000 41.84400
H  -17.38200 22.22900 43.03700
H  -16.29100 21.02500 43.45700
H  -15.84300 16.62200 41.57500
H  -14.58600 14.84400 43.71300
H  -17.35400 16.71200 43.28200
H  -16.25400 17.79200 44.09700
H  -16.33900 16.10100 44.49000
H  -16.21600 14.20700 41.88900
H  -14.84800 13.22300 42.06300
H  -15.49700 14.12800 39.56300
H  -13.89800 13.64600 40.18200
H  -14.28400 15.30800 40.02600
H  -10.46800 12.51700 42.04300
H  -9.44100 12.66900 43.55100
H  -8.71800 12.38600 41.98100
H  -6.00900 16.61100 40.81300
H  -4.47900 16.15100 45.40300
H  -5.14400 17.77400 45.78500
H  -3.83700 17.63900 44.67700

