158

Mg 41.77600 41.45900 26.18800
C  40.92800 43.72300 28.73000
C  42.71700 39.13500 28.65800
C  43.06800 39.59700 23.73500
C  41.08800 43.98200 23.75300
N  41.89100 41.48300 28.44700
C  41.36000 42.45600 29.25000
C  41.56600 42.05900 30.77400
C  42.18300 40.59900 30.71500
C  42.30100 40.36300 29.19300
C  43.43300 40.21700 31.68400
C  40.22700 42.02000 31.48300
C  40.17800 41.48700 32.92400
H  40.38000 42.38700 34.14000
N  42.60700 39.62500 26.14700
C  42.97700 38.81100 27.26800
C  43.41200 37.48800 26.74100
C  43.68200 37.70700 25.33500
C  43.11400 39.01700 24.98500
C  43.52200 36.23200 27.53900
C  44.21700 36.75800 24.36400
O  44.69500 37.12200 23.27900
C  44.53600 35.31200 24.68800
N  41.98100 41.66900 24.01500
C  42.48300 40.72800 23.20700
C  42.40600 41.09700 21.75200
C  41.56600 42.40100 21.78200
C  41.48300 42.66500 23.25900
C  43.74000 41.34200 21.05500
C  40.20100 42.18600 21.16400
C  39.23800 41.21900 21.95800
N  41.22000 43.42200 26.14400
C  41.03900 44.34300 25.11600
C  40.64800 45.62600 25.66900
C  40.53000 45.42100 27.04000
C  40.92100 44.06400 27.31000
C  40.56100 46.89400 24.92100
C  40.26000 46.03100 28.32900
O  39.98200 47.17600 28.56700
C  40.43100 44.97600 29.41600
C  41.44600 45.43800 30.34600
O  42.63400 45.49700 30.05800
O  41.01500 45.68800 31.67400
C  42.01000 46.22900 32.56200
H  43.02500 38.40200 29.40700
H  43.38000 38.92600 22.93200
H  40.71200 44.77400 23.10200
H  42.26800 42.77500 31.20200
H  41.37800 39.92900 31.01700
H  43.13200 39.86200 32.66900
H  44.21400 40.97700 31.64900
H  43.93400 39.33900 31.27600
H  39.42500 41.43400 31.03300
H  39.86900 42.99600 31.81000
H  40.88200 40.65700 32.96900
H  39.17800 41.12100 33.15600
H  43.24000 36.51300 28.55400
H  44.55200 35.88100 27.60700
H  42.90800 35.44000 27.11300
H  45.42500 35.33100 25.31800
H  44.76200 34.71100 23.80700
H  43.74200 34.83900 25.26700
H  41.80900 40.35900 21.21700
H  42.06200 43.21400 21.25200
H  43.95800 40.32000 20.74400
H  44.35500 41.64900 21.90100
H  43.58500 41.83700 20.09600
H  40.41800 41.71600 20.20500
H  39.77000 43.16600 20.95900
H  38.47000 41.79000 22.47900
H  39.74800 40.60600 22.70200
H  38.79800 40.58000 21.19200
H  40.87200 47.76700 25.49400
H  39.52600 47.03200 24.60800
H  41.29100 46.81500 24.11500
H  39.52800 44.70300 29.96300
H  41.51600 47.02300 33.12200
H  42.91000 46.59500 32.06900
H  42.33600 45.50000 33.30400
Mg 17.07200 51.77400 25.50000
C  18.72500 50.31100 28.38500
C  14.52500 52.38700 27.63800
C  15.47400 52.87800 22.93400
C  19.61600 50.45800 23.57400
N  16.79800 51.55900 27.81900
C  17.60700 50.97700 28.76800
C  17.05700 51.23200 30.19600
C  15.57200 51.78700 29.85300
C  15.57400 51.90700 28.34900
C  14.36800 51.03200 30.44600
C  18.03300 52.32100 30.90500
C  18.05600 52.37600 32.41600
H  17.15900 51.35200 33.13700
N  15.25700 52.51400 25.29100
C  14.32200 52.74700 26.25200
C  13.10800 53.38800 25.70200
C  13.36200 53.55400 24.28200
C  14.67200 52.91300 24.06800
C  12.00700 53.91200 26.50100
C  12.54700 54.32400 23.30600
O  12.80800 54.48300 22.11700
C  11.35300 55.14800 23.77400
N  17.41000 51.60200 23.46400
C  16.63800 52.17100 22.54100
C  17.29300 52.15500 21.18000
C  18.73200 51.51400 21.48300
C  18.51400 51.08500 22.91100
C  16.40200 51.59900 20.00800
C  19.98400 52.42800 21.27700
C  20.95100 52.00400 20.09400
N  18.72900 50.58600 25.82300
C  19.72400 50.14000 24.91500
C  20.72400 49.42100 25.56000
C  20.36800 49.46300 26.92800
C  19.13200 50.17100 27.02600
C  21.88200 48.78600 24.86300
C  20.81600 49.04300 28.29300
O  21.83900 48.49000 28.63400
C  19.69900 49.52300 29.26400
C  19.13200 48.28900 29.99800
O  18.80200 47.24400 29.46300
O  19.18100 48.48600 31.32700
C  18.88300 47.27100 32.12400
H  13.66800 52.56100 28.29200
H  14.93500 53.32700 22.09700
H  20.55900 50.30700 23.04400
H  17.00000 50.37100 30.86200
H  15.50400 52.78600 30.28600
H  13.64300 51.65400 30.97000
H  14.73400 50.27300 31.13800
H  13.87600 50.46500 29.65500
H  17.58300 53.28400 30.66500
H  19.01500 52.26400 30.43500
H  17.82500 53.40600 32.68900
H  19.07800 52.06600 32.63200
H  12.07200 54.99500 26.39300
H  12.20300 53.64900 27.54000
H  11.02400 53.55900 26.18800
H  10.85300 55.67600 22.96200
H  11.74500 55.91000 24.44800
H  10.62500 54.48800 24.24500
H  17.34600 53.23900 21.07300
H  18.81900 50.65300 20.82000
H  15.68900 50.96800 20.53800
H  17.04600 51.02100 19.34500
H  16.02800 52.42200 19.39900
H  20.57500 52.43200 22.19300
H  19.62300 53.45500 21.21100
H  20.78200 52.74800 19.31600
H  20.92900 51.01300 19.63900
H  21.98900 52.08400 20.41700
H  22.01600 49.20500 23.86500
H  21.73100 47.70800 24.80000
H  22.84900 49.04800 25.29200
H  20.16700 50.15300 30.02100
H  17.94100 46.82300 31.80600
H  18.96000 47.39900 33.20300
H  19.63400 46.50200 31.94300

