158

Mg 47.57300 24.34600 28.26300
C  48.48600 26.56900 30.84900
C  46.76200 21.97300 30.66100
C  46.71300 22.18600 25.80900
C  48.44900 26.78900 26.00400
N  47.56800 24.25300 30.48900
C  47.95800 25.29600 31.34900
C  47.63000 24.90300 32.81500
C  47.25300 23.37100 32.65700
C  47.18800 23.17700 31.18100
C  48.28800 22.41400 33.32600
C  46.56700 25.74100 33.52100
C  46.16500 25.42200 34.91900
H  46.47100 26.46000 36.03200
N  46.84500 22.36900 28.22500
C  46.49900 21.55800 29.33600
C  45.93600 20.33300 28.91800
C  45.92200 20.33600 27.48700
C  46.53900 21.62100 27.08400
C  45.41100 19.26600 29.79400
C  45.52700 19.23900 26.53200
O  45.52000 19.41100 25.29900
C  45.12700 17.86100 27.08700
N  47.78100 24.38000 26.16600
C  47.32200 23.41800 25.38000
C  47.38500 23.79200 23.80500
C  47.71000 25.28900 23.98800
C  48.02700 25.55700 25.47700
C  48.39300 23.00100 23.03100
C  46.56200 26.28400 23.50800
C  47.08100 27.59900 22.71100
N  48.26900 26.26600 28.27900
C  48.61200 27.16500 27.30400
C  48.98600 28.46000 27.78400
C  48.81400 28.24000 29.13300
C  48.48100 26.87200 29.42000
C  49.33000 29.69600 27.06400
C  48.97800 29.00200 30.42900
O  49.34400 30.15000 30.65800
C  48.77000 27.89000 31.57400
C  49.90400 27.80400 32.50300
O  51.00000 27.25800 32.32700
O  49.55100 28.43700 33.62900
C  50.37400 28.33400 34.87900
H  46.48800 21.22000 31.40300
H  46.36900 21.63300 24.93200
H  48.63900 27.55700 25.25100
H  48.59100 25.06300 33.30400
H  46.24200 23.23200 33.04000
H  48.68900 21.73300 32.57500
H  47.78500 21.72700 34.00600
H  49.14300 22.81200 33.87300
H  45.63400 25.60100 32.97500
H  46.75700 26.80300 33.37100
H  46.63700 24.49800 35.25200
H  45.11200 25.14900 34.84900
H  45.50200 19.42500 30.86800
H  46.03200 18.38000 29.65800
H  44.39500 19.09700 29.43900
H  44.26700 17.92400 27.75500
H  45.92600 17.46900 27.71600
H  44.84000 17.26200 26.22300
H  46.38200 23.60000 23.42300
H  48.58500 25.46600 23.36300
H  49.36600 23.49200 23.06600
H  48.19600 22.84500 21.97000
H  48.54600 22.02800 23.49900
H  45.96900 26.63400 24.35300
H  45.92500 25.67900 22.86300
H  48.16700 27.55200 22.63400
H  46.72000 28.47200 23.25500
H  46.52100 27.68100 21.77900
H  49.07200 30.51700 27.73300
H  48.71000 29.79500 26.17300
H  50.37500 29.75500 26.76100
H  47.82200 28.15000 32.04600
H  51.10900 29.13800 34.83200
H  50.97500 27.42500 34.85700
H  49.79000 28.41900 35.79500
Mg -2.20800 35.30100 26.79800
C  -4.08600 33.39400 29.08900
C  -1.25300 37.30300 29.43300
C  -0.85500 37.24400 24.68100
C  -3.53200 33.29300 24.19000
N  -2.73300 35.35800 29.01500
C  -3.36800 34.44200 29.75700
C  -3.08500 34.57300 31.29100
C  -2.47000 36.00300 31.39300
C  -2.08700 36.21900 29.84300
C  -3.35500 37.10500 32.01000
C  -2.35000 33.28900 31.90600
C  -2.81900 32.71800 33.22200
H  -3.22100 33.72000 34.38300
N  -1.18500 36.98100 27.06400
C  -0.80100 37.66900 28.20100
C  0.01100 38.78000 27.94800
C  0.11900 38.80000 26.51700
C  -0.63100 37.64200 26.02400
C  0.72400 39.63200 28.95700
C  0.96700 39.72100 25.69400
O  1.03700 39.55700 24.47900
C  1.66100 40.96900 26.27700
N  -2.22200 35.30100 24.72400
C  -1.55400 36.21300 24.06500
C  -1.43600 35.97800 22.58600
C  -2.05700 34.53000 22.43900
C  -2.66000 34.33800 23.85500
C  -2.04700 37.04600 21.63200
C  -1.13100 33.38000 22.04200
C  -1.10800 33.30700 20.49500
N  -3.53400 33.57200 26.60300
C  -4.01900 32.95500 25.43900
C  -4.74500 31.81300 25.87400
C  -4.81400 31.88100 27.28000
C  -4.10700 33.05300 27.69900
C  -5.30500 30.80400 24.89600
C  -5.39200 31.26600 28.47500
O  -5.99300 30.22900 28.63500
C  -4.95500 32.22900 29.70400
C  -6.15700 32.68500 30.47700
O  -7.15400 33.22100 29.95700
O  -5.88500 32.45800 31.81000
C  -6.90200 32.68700 32.86000
H  -0.90800 37.97300 30.22400
H  -0.27800 37.79000 23.93200
H  -3.73400 32.52400 23.44200
H  -3.98400 34.50700 31.90400
H  -1.53800 35.93600 31.95400
H  -4.37900 36.80300 32.23100
H  -3.34900 37.94800 31.31800
H  -2.84200 37.29900 32.95200
H  -1.31700 33.58800 32.08200
H  -2.19800 32.49400 31.17600
H  -1.97900 32.10000 33.53900
H  -3.60800 31.97400 33.10800
H  1.80500 39.61600 28.81500
H  0.51800 39.36300 29.99300
H  0.37400 40.65900 28.85900
H  0.97100 41.51100 26.92300
H  2.15300 41.43700 25.42500
H  2.52400 40.58600 26.82200
H  -0.37900 36.00800 22.32100
H  -2.80700 34.58200 21.65000
H  -2.67800 37.76300 22.15800
H  -2.63900 36.52900 20.87700
H  -1.25800 37.68600 21.23500
H  -1.46200 32.43000 22.46000
H  -0.20300 33.67700 22.53100
H  -1.74800 32.44400 20.30600
H  -0.16600 32.93700 20.09200
H  -1.47300 34.13200 19.88400
H  -6.11000 31.25700 24.31700
H  -5.72100 29.96400 25.45200
H  -4.59000 30.28100 24.26200
H  -4.35200 31.57000 30.32900
H  -6.78600 33.66800 33.32300
H  -6.79400 31.95500 33.66000
H  -7.91900 32.66600 32.46600

