158

Mg 1.63400 8.26900 27.34700
C  1.92000 10.11800 30.28800
C  1.46900 5.49800 29.26900
C  1.53800 6.47000 24.58400
C  1.84600 11.25900 25.54700
N  1.73700 7.89600 29.58900
C  1.73700 8.78700 30.57900
C  1.41800 8.18800 31.93800
C  1.52600 6.65400 31.55200
C  1.51200 6.64500 30.02600
C  2.75900 6.02200 32.10500
C  -0.02400 8.57200 32.42400
C  -0.35600 8.63800 33.94900
H  0.74900 8.25800 34.98300
N  1.67500 6.22100 26.94300
C  1.47100 5.29800 27.88700
C  1.33700 3.96400 27.29600
C  1.45400 4.25600 25.92000
C  1.62700 5.68700 25.74200
C  1.16900 2.67800 28.13100
C  1.45600 3.33900 24.79400
O  1.63000 3.72600 23.63700
C  1.10800 1.85100 25.03800
N  1.76900 8.76700 25.37400
C  1.71400 7.87400 24.38100
C  1.73900 8.57700 22.96600
C  1.42900 10.03500 23.34600
C  1.75700 10.01100 24.86300
C  3.11800 8.16000 22.32500
C  -0.05300 10.50600 22.99300
C  -0.57000 10.41300 21.47200
N  1.82300 10.35000 27.78900
C  1.95900 11.42500 26.96100
C  2.15100 12.57000 27.68800
C  2.17000 12.17000 29.01600
C  2.03000 10.75900 29.00600
C  2.15100 13.94100 27.12700
C  2.39700 12.57500 30.39200
O  2.73300 13.62700 30.89100
C  2.03500 11.25700 31.21900
C  2.93800 11.24000 32.40900
O  3.99400 10.66700 32.60600
O  2.28800 12.00200 33.35900
C  3.03100 12.05400 34.67800
H  1.37600 4.58400 29.85900
H  1.35900 5.91800 23.65800
H  2.01100 12.07600 24.84200
H  2.11700 8.50500 32.71200
H  0.72000 6.03700 31.94900
H  3.65300 6.47400 31.67400
H  2.81500 5.03600 31.64400
H  2.91700 5.98000 33.18300
H  -0.79400 7.84200 32.17600
H  -0.20300 9.55600 31.99100
H  -1.17500 7.94000 34.12600
H  -0.69000 9.65500 34.15600
H  0.83700 1.75000 27.66600
H  0.47000 2.88700 28.94100
H  2.13100 2.48400 28.60400
H  1.32200 1.31500 24.11300
H  0.10300 1.81900 25.45900
H  1.81800 1.38800 25.72400
H  0.92400 8.04300 22.47800
H  2.19400 10.65000 22.87200
H  3.51700 8.95000 21.69000
H  2.66000 7.42400 21.66400
H  3.89900 7.86100 23.02500
H  -0.06900 11.55300 23.29500
H  -0.82400 10.07500 23.63300
H  0.16400 9.98000 20.79300
H  -1.08500 11.31200 21.13400
H  -1.44300 9.76000 21.47100
H  1.65100 14.10000 26.17100
H  3.19100 14.21200 26.94500
H  1.65000 14.72600 27.69300
H  1.01800 11.51200 31.51700
H  2.43900 12.74600 35.27800
H  4.03400 12.46200 34.55300
H  3.15100 11.09400 35.18100
Mg 17.57000 -1.23700 28.63900
C  16.27600 0.66300 31.13000
C  19.20800 -3.14300 30.79500
C  19.05500 -2.74000 26.01700
C  16.07800 1.08100 26.35300
N  17.84800 -1.10200 30.76500
C  17.11600 -0.39500 31.57800
C  17.40900 -0.80600 33.03600
C  18.46000 -1.89600 32.89400
C  18.59500 -2.04000 31.38900
C  19.77400 -1.54400 33.54200
C  16.10600 -1.16200 33.79300
C  15.99300 -0.77200 35.23200
H  17.31300 -0.29400 36.00300
N  18.86000 -2.79500 28.41400
C  19.38500 -3.48500 29.49500
C  20.15200 -4.61100 29.04800
C  20.15200 -4.52600 27.60400
C  19.31700 -3.27300 27.29400
C  20.65300 -5.69300 29.95000
C  20.78800 -5.48200 26.58300
O  20.68300 -5.27900 25.38200
C  21.47500 -6.73000 27.07900
N  17.38800 -1.05800 26.37400
C  18.15800 -1.79200 25.60100
C  18.06200 -1.26800 24.17300
C  17.01000 -0.08200 24.21700
C  16.72500 -0.00600 25.73100
C  19.43100 -0.89400 23.50700
C  15.66700 -0.26000 23.37900
C  14.34000 -0.84100 23.98800
N  16.33600 0.49300 28.64900
C  15.83000 1.36700 27.71600
C  15.01400 2.45000 28.30000
C  15.16300 2.18300 29.70900
C  15.96000 1.02300 29.82900
C  14.26300 3.46700 27.55300
C  14.82900 2.69000 31.01000
O  14.10900 3.55300 31.39700
C  15.58900 1.74600 31.91700
C  16.46100 2.60100 32.78600
O  17.57900 3.01100 32.41900
O  15.85400 2.91800 33.96300
C  16.52800 3.88800 34.73300
H  19.69800 -3.67400 31.61400
H  19.47700 -3.19900 25.12000
H  15.70200 1.74300 25.57100
H  17.79900 0.07900 33.53800
H  18.28100 -2.85500 33.38100
H  20.01100 -2.19300 34.38600
H  19.66700 -0.56200 34.00200
H  20.53900 -1.49400 32.76700
H  16.06800 -2.23800 33.62000
H  15.26900 -0.71200 33.26100
H  15.63800 -1.71200 35.65400
H  15.26300 0.02000 35.39800
H  20.25300 -6.66100 29.64800
H  20.51300 -5.46400 31.00600
H  21.74200 -5.73500 29.96800
H  22.21100 -6.33100 27.77800
H  21.94300 -7.16200 26.19300
H  20.68300 -7.36300 27.48000
H  17.53900 -2.06000 23.63600
H  17.42400 0.86300 23.86500
H  20.28700 -1.03000 24.16800
H  19.38800 0.11700 23.10100
H  19.56700 -1.63600 22.72000
H  15.91900 -1.01100 22.63000
H  15.44200 0.73200 22.98700
H  13.55700 -0.08400 23.95600
H  14.42100 -1.10900 25.04200
H  13.95000 -1.66800 23.39400
H  13.63100 3.90600 28.32500
H  13.67700 2.97300 26.77800
H  14.97400 4.17300 27.12400
H  14.81600 1.32200 32.55700
H  16.72700 4.72100 34.05800
H  17.51200 3.56100 35.06700
H  15.89000 4.40100 35.45300

