158

Mg 8.87500 4.45000 27.61200
C  9.72000 2.74100 30.66100
C  6.71300 6.36500 29.56400
C  7.80900 5.88100 24.83300
C  10.49600 1.92200 25.85100
N  8.15700 4.40100 29.76300
C  8.74500 3.73400 30.86200
C  8.25800 4.27900 32.23000
C  7.10100 5.24500 31.77500
C  7.28200 5.28400 30.23100
C  5.71000 4.77600 32.25300
C  9.38300 4.94700 33.18200
C  9.58200 4.27700 34.55500
H  10.79200 4.61500 35.30300
N  7.58200 6.02200 27.26900
C  6.86500 6.73700 28.19300
C  6.17600 7.81600 27.54700
C  6.47700 7.68500 26.13400
C  7.33500 6.49500 26.04300
C  5.29900 8.85300 28.27400
C  5.91300 8.54600 24.98500
O  6.31400 8.33800 23.80200
C  4.90900 9.64400 25.26400
N  9.09200 3.87300 25.63000
C  8.55900 4.65100 24.62600
C  8.78700 4.05800 23.19000
C  9.53400 2.68400 23.56600
C  9.85400 2.86700 25.10500
C  7.51400 3.91900 22.42300
C  10.77100 2.33900 22.59000
C  10.89600 0.87900 22.24700
N  10.04000 2.83500 28.02900
C  10.57600 1.88100 27.25700
C  11.16000 0.84500 28.03000
C  10.98600 1.26000 29.35300
C  10.19100 2.38900 29.33600
C  11.90000 -0.42100 27.55200
C  11.18800 0.89700 30.72800
O  11.85900 -0.06500 31.16200
C  10.41300 1.93500 31.67500
C  9.67700 1.05100 32.55100
O  8.52200 0.72800 32.34800
O  10.47100 0.84000 33.66700
C  9.87300 0.18900 34.86100
H  6.01400 6.91100 30.20100
H  7.42600 6.26300 23.88500
H  10.97200 1.06800 25.36500
H  7.73400 3.50200 32.78600
H  7.19300 6.27900 32.10800
H  4.98400 4.60000 31.46000
H  5.36400 5.61200 32.86100
H  5.80800 3.94300 32.95000
H  9.30700 6.02700 33.30400
H  10.35100 4.77900 32.70900
H  9.62100 3.20500 34.36400
H  8.69700 4.55800 35.12600
H  5.64100 9.06600 29.28700
H  4.29900 8.44000 28.40700
H  5.24900 9.79600 27.73000
H  4.45300 9.91900 24.31300
H  5.37900 10.49400 25.76000
H  4.09800 9.33800 25.92500
H  9.60500 4.68900 22.84500
H  8.74900 1.92900 23.51900
H  7.36100 2.90300 22.05800
H  7.62800 4.56500 21.55200
H  6.58500 4.23100 22.90000
H  11.73200 2.73300 22.92100
H  10.48300 2.86700 21.68200
H  10.10500 0.20900 22.58400
H  11.76500 0.59800 22.84400
H  11.07900 0.83900 21.17400
H  12.95800 -0.18500 27.66600
H  11.71700 -0.81000 26.55000
H  11.57000 -1.19600 28.24300
H  11.07800 2.53900 32.29400
H  9.25400 -0.66400 34.58300
H  9.27800 0.91500 35.41600
H  10.61700 -0.17500 35.57000
Mg 48.23500 16.36700 28.64800
C  46.16600 15.91500 31.37100
C  50.40600 18.00000 30.76400
C  49.97400 17.17700 25.97000
C  45.65700 15.07900 26.53500
N  48.23800 16.94700 30.82300
C  47.35000 16.55600 31.76600
C  47.76900 16.98800 33.16700
C  48.99100 17.91500 32.90500
C  49.25500 17.68900 31.39200
C  48.78100 19.49200 33.15300
C  48.12300 15.61800 33.80600
C  48.59300 15.64700 35.27900
H  48.59500 16.93800 36.21900
N  50.05700 17.39200 28.44100
C  50.82400 17.85700 29.43700
C  52.03100 18.40600 28.79200
C  51.97100 18.15200 27.36100
C  50.58400 17.59500 27.15000
C  53.07000 19.13100 29.55500
C  52.95800 18.35800 26.24500
O  52.70100 18.25100 25.06800
C  54.41600 18.69800 26.47300
N  47.82000 16.13000 26.48500
C  48.78500 16.45700 25.62800
C  48.34500 16.18200 24.17200
C  47.12300 15.26300 24.38200
C  46.82200 15.47600 25.90000
C  48.09700 17.43600 23.20800
C  47.32400 13.72100 24.10500
C  47.68300 12.75300 25.29100
N  46.33700 15.58900 28.85800
C  45.37000 15.07400 27.95100
C  44.24900 14.67600 28.61900
C  44.49100 15.03100 29.96100
C  45.76300 15.54500 30.05600
C  43.09100 14.09600 27.99600
C  43.89800 14.89800 31.27000
O  42.86100 14.35800 31.69300
C  44.96300 15.57800 32.19300
C  44.34200 16.71100 32.87900
O  43.93200 17.76000 32.45300
O  44.21200 16.39600 34.21500
C  43.60400 17.38100 35.09700
H  51.17100 18.39700 31.43500
H  50.54700 17.31000 25.05000
H  44.81600 14.61800 26.01300
H  46.98300 17.45000 33.76400
H  49.82700 17.47100 33.44600
H  47.79100 19.73800 33.53800
H  48.84300 20.00300 32.19300
H  49.57300 19.83900 33.81600
H  48.98800 15.20400 33.28800
H  47.41600 14.82300 33.56700
H  49.62700 15.33100 35.14200
H  48.07600 14.85800 35.82400
H  52.51400 19.84100 30.16600
H  53.73000 19.77000 28.96700
H  53.58300 18.39400 30.17200
H  55.02300 17.88800 26.87800
H  54.48100 19.52800 27.17600
H  54.84900 19.10000 25.55700
H  49.07100 15.51100 23.71300
H  46.25200 15.64100 23.84700
H  48.59000 18.28200 23.68700
H  47.06100 17.72800 23.03100
H  48.60300 17.08500 22.30800
H  48.15600 13.67500 23.40300
H  46.50000 13.29300 23.53500
H  47.81900 13.20900 26.27200
H  48.47500 12.03200 25.08500
H  46.85800 12.07400 25.50500
H  42.77600 14.85100 27.27600
H  42.33100 14.05200 28.77700
H  43.23100 13.09600 27.58600
H  45.22000 14.80200 32.91500
H  43.50000 18.40100 34.72600
H  44.08700 17.32900 36.07300
H  42.61200 16.95100 35.23500

