158

Mg 3.01000 -0.18400 44.49500
C  6.39700 0.54500 43.99600
C  2.16000 2.80700 42.55500
C  -0.25500 -1.07300 44.35900
C  3.84100 -3.13500 45.94300
N  4.08100 1.36000 43.38600
C  5.51400 1.46000 43.28600
C  5.95100 2.47600 42.18500
C  4.65000 3.46000 42.13800
C  3.52800 2.54000 42.72600
C  4.84200 4.86400 42.93000
C  6.42900 1.73800 40.81200
C  7.72200 2.40000 40.09900
H  7.39900 3.45600 39.03900
N  1.18400 0.76300 43.56400
C  1.06500 1.96300 42.84000
C  -0.28300 2.07800 42.46700
C  -1.01400 0.94100 42.88600
C  -0.01400 0.10500 43.54200
C  -0.75500 3.34100 41.66300
C  -2.45000 0.78700 42.61700
O  -3.19700 1.66100 42.19900
C  -3.04600 -0.61400 42.81700
N  1.99800 -1.85400 45.04700
C  0.59500 -1.97500 44.96700
C  0.20800 -3.41000 45.41700
C  1.50000 -3.78600 46.29200
C  2.49300 -2.93600 45.63700
C  -1.17300 -3.49600 46.15600
C  1.88600 -5.33600 46.19700
C  2.02100 -6.06000 47.52600
N  4.75500 -1.19400 44.87100
C  4.92900 -2.40900 45.49000
C  6.35400 -2.66400 45.56500
C  6.92900 -1.54300 45.06700
C  5.94000 -0.62400 44.64400
C  7.05500 -3.92000 46.22600
C  8.19500 -0.93400 44.75100
O  9.37400 -1.39900 44.85400
C  7.90300 0.48400 44.04900
C  8.54000 1.62600 44.79300
O  8.08300 2.15300 45.80800
O  9.56700 2.17500 44.04200
C  9.91300 3.59900 44.38000
H  1.97600 3.77600 42.08500
H  -1.28100 -1.44800 44.35900
H  4.16000 -3.89600 46.65800
H  6.81200 3.03100 42.55700
H  4.56100 3.77000 41.09700
H  5.60400 4.66500 43.68400
H  3.98300 5.23200 43.49000
H  5.31600 5.61100 42.29300
H  5.52700 1.85000 40.21100
H  6.63900 0.67700 40.95100
H  8.38500 1.66000 39.65100
H  8.25200 3.01100 40.82900
H  0.07900 3.61100 41.01600
H  -1.13000 4.17400 42.25700
H  -1.43900 3.13000 40.84200
H  -3.95200 -0.72800 42.22200
H  -3.43000 -0.78600 43.82200
H  -2.35900 -1.38700 42.47200
H  0.19400 -3.95200 44.47100
H  1.44900 -3.56000 47.35700
H  -1.87200 -4.09600 45.57200
H  -1.55400 -2.50300 46.39200
H  -1.07100 -4.13400 47.03400
H  2.79900 -5.45900 45.61500
H  1.14500 -5.93300 45.66400
H  2.89400 -5.94500 48.16800
H  2.00500 -7.12900 47.31400
H  1.15700 -5.78800 48.13400
H  7.85000 -4.15400 45.51800
H  6.48200 -4.84700 46.24900
H  7.51800 -3.83400 47.21000
H  8.34500 0.39100 43.05700
H  10.26400 4.05600 43.45500
H  10.62300 3.67200 45.20400
H  8.99800 4.10600 44.68700
Mg 54.43500 24.16200 44.45500
C  51.62000 26.31200 43.70700
C  52.27200 21.66600 43.25900
C  57.13600 22.40900 44.44800
C  56.00200 26.99700 45.68100
N  52.27200 24.02000 43.43400
C  51.29500 25.03000 43.36500
C  49.99000 24.53400 42.74000
C  50.07500 23.00000 43.15000
C  51.60600 22.87300 43.25000
C  49.41200 22.67500 44.52600
C  49.82500 24.76500 41.23100
C  51.11100 24.61600 40.26400
H  50.83700 25.02000 38.78800
N  54.65800 22.33300 44.01800
C  53.68300 21.45000 43.51200
C  54.35100 20.16400 43.42300
C  55.69800 20.29700 43.88000
C  55.87900 21.73700 44.09000
C  53.77600 18.84000 42.90500
C  56.74800 19.22400 44.01700
O  56.40400 18.04900 43.70000
C  58.09500 19.44500 44.55100
N  56.47500 24.78900 44.73700
C  57.37100 23.76400 44.84100
C  58.64400 24.33000 45.50300
C  58.14200 25.68100 46.23900
C  56.78400 25.78800 45.54800
C  59.55400 23.28800 46.34000
C  59.05700 26.96700 46.05900
C  59.28500 27.52300 44.60100
N  54.07000 26.26900 44.49300
C  54.74000 27.21400 45.11100
C  54.01500 28.44500 45.30500
C  52.74500 28.17600 44.61200
C  52.83300 26.77800 44.29900
C  54.46700 29.75300 45.82000
C  51.38600 28.69000 44.31000
O  50.81400 29.77900 44.52100
C  50.67300 27.50200 43.63700
C  50.23200 28.08300 42.25500
O  50.90600 28.15100 41.22700
O  48.86300 28.28100 42.38100
C  48.09400 28.31600 41.12600
H  51.63900 20.77700 43.25600
H  58.08200 21.88100 44.30900
H  56.36600 27.76900 46.36200
H  49.20600 25.06300 43.28200
H  49.63200 22.29100 42.45000
H  48.60400 21.96400 44.35700
H  48.96500 23.54000 45.01600
H  50.19200 22.21100 45.13100
H  49.46600 25.78800 41.11800
H  49.23500 23.98200 40.75400
H  51.59100 23.64400 40.37400
H  51.87200 25.30200 40.63700
H  54.50800 18.63800 42.12300
H  52.83700 18.93400 42.35800
H  53.72200 18.00900 43.60800
H  57.93900 19.96100 45.49700
H  58.70300 20.01400 43.84700
H  58.60300 18.52200 44.83200
H  59.29000 24.63700 44.68000
H  58.15400 25.48300 47.31000
H  59.33500 22.23600 46.15700
H  59.59000 23.49700 47.40900
H  60.58800 23.53000 46.09200
H  60.05700 26.72000 46.41700
H  58.68000 27.74300 46.72600
H  60.09100 26.98300 44.10400
H  59.39700 28.60400 44.67800
H  58.41100 27.30700 43.98600
H  55.35400 29.81400 46.45100
H  53.56400 30.12200 46.30700
H  54.65100 30.44400 44.99700
H  49.81300 27.27900 44.26900
H  47.37000 27.50100 41.13300
H  48.72700 28.30200 40.24000
H  47.43400 29.18300 41.09600

