158

Mg 47.99800 14.62700 28.42400
C  45.89100 14.71700 31.10700
C  50.20000 16.59700 30.29200
C  50.09200 14.89300 25.73900
C  45.54400 13.27600 26.41200
N  48.06300 15.41100 30.55600
C  47.07400 15.34800 31.47000
C  47.48600 15.91600 32.82900
C  48.74600 16.74700 32.44700
C  49.08600 16.21100 31.01200
C  48.50300 18.28400 32.47400
C  47.88400 14.64600 33.72800
C  46.89300 14.51200 35.00000
H  47.60700 14.78800 36.33400
N  49.96100 15.47000 28.15300
C  50.66200 16.24800 29.00000
C  52.03000 16.52300 28.39600
C  52.07900 15.81800 27.12700
C  50.68700 15.32600 26.95100
C  53.08000 17.29800 29.13000
C  53.16900 15.70500 26.00000
O  52.98900 15.25400 24.82500
C  54.48800 16.32200 26.27000
N  47.83400 14.25100 26.37400
C  48.83900 14.42900 25.48700
C  48.33100 14.14000 24.05900
C  46.95100 13.36000 24.27000
C  46.74000 13.62100 25.76000
C  48.43900 15.40300 23.07800
C  46.86700 11.83000 23.93500
C  47.52900 10.87500 25.02900
N  46.09000 14.07800 28.60200
C  45.20700 13.46800 27.75400
C  44.00500 13.22800 28.42600
C  44.22000 13.70400 29.77100
C  45.53400 14.20600 29.82100
C  42.71800 12.69800 27.93400
C  43.53200 13.87500 31.06000
O  42.35800 13.74500 31.46100
C  44.55200 14.62300 31.86900
C  44.05000 15.97000 32.26900
O  43.88200 16.95100 31.50700
O  43.58200 15.97200 33.54800
C  42.93900 17.18700 34.08300
H  50.96900 17.12400 30.86100
H  50.69400 14.89000 24.82800
H  44.75200 12.86300 25.78300
H  46.60500 16.38200 33.27100
H  49.54900 16.65900 33.17900
H  47.45400 18.46400 32.23900
H  49.12200 18.81900 31.75400
H  48.63600 18.44700 33.54400
H  48.90100 14.81500 34.08200
H  47.91800 13.73900 33.12400
H  46.47700 13.50800 34.91000
H  46.04300 15.17300 34.83500
H  53.63100 16.62800 29.78900
H  52.48400 18.01900 29.69000
H  53.69800 17.80600 28.39000
H  54.86000 15.99600 27.24200
H  54.22900 17.37600 26.17300
H  55.24100 16.10900 25.51200
H  48.98400 13.36900 23.65000
H  46.13500 13.79700 23.69300
H  47.96300 16.28000 23.51400
H  48.03100 15.22600 22.08300
H  49.51800 15.53600 22.99900
H  47.32800 11.60700 22.97300
H  45.83000 11.49300 23.95700
H  46.89500 10.83200 25.91500
H  48.54700 11.21200 25.22300
H  47.52400 9.85000 24.65900
H  42.36300 13.17800 27.02100
H  41.97600 13.04400 28.65300
H  42.65800 11.61600 27.81700
H  44.67200 14.06200 32.79600
H  42.97500 18.03900 33.40300
H  43.39200 17.46100 35.03600
H  42.01800 16.74900 34.46800
Mg 41.97700 41.07700 27.13600
C  41.19800 43.54200 29.51400
C  42.64500 38.88200 29.61200
C  42.93300 38.89600 24.74000
C  41.09300 43.37700 24.58200
N  42.15900 41.32500 29.30700
C  41.70300 42.36000 30.10700
C  41.50800 41.84700 31.56200
C  42.35800 40.51400 31.53700
C  42.35100 40.19300 30.03100
C  43.73000 40.79500 32.14700
C  40.03500 41.72600 32.00500
C  39.52500 42.80700 32.96200
H  39.38000 42.51300 34.44400
N  42.72400 39.11900 27.22800
C  42.88900 38.35500 28.32900
C  43.32100 37.08100 27.92300
C  43.47900 37.07800 26.51100
C  43.08000 38.36600 26.09000
C  43.78300 36.02300 28.87100
C  44.07900 36.04500 25.58800
O  44.50500 36.24500 24.44700
C  44.25100 34.68300 26.04800
N  41.97200 41.11600 24.96400
C  42.43600 40.08000 24.23400
C  42.29000 40.40100 22.72900
C  41.68500 41.79700 22.69900
C  41.58100 42.13700 24.17800
C  43.67600 40.17100 21.97800
C  40.36600 41.90900 21.89100
C  39.10700 41.34000 22.54900
N  41.33800 43.04200 27.02700
C  41.01600 43.81700 25.91500
C  40.70900 45.15500 26.35300
C  40.68700 45.06900 27.79200
C  41.18300 43.81600 28.17400
C  40.41800 46.47300 25.49100
C  40.55600 45.83300 29.05100
O  40.37400 46.99400 29.19900
C  40.71800 44.79600 30.19500
C  41.73600 45.37500 31.11200
O  42.96900 45.28900 30.90700
O  41.10900 46.03600 32.13300
C  42.02300 46.80500 32.96500
H  42.75600 38.21400 30.46900
H  43.17900 38.15700 23.97400
H  40.93800 44.08800 23.76800
H  41.94300 42.50800 32.31100
H  41.92300 39.64800 32.03600
H  44.54400 40.47700 31.49500
H  43.83000 40.12700 33.00200
H  43.90500 41.80800 32.50800
H  39.82600 40.74200 32.42400
H  39.45200 41.97700 31.11900
H  38.55800 43.11500 32.56300
H  40.09500 43.72800 32.84600
H  43.20200 35.12000 28.68600
H  43.65700 36.39900 29.88700
H  44.83000 35.72200 28.86000
H  44.43800 33.94900 25.26400
H  43.29600 34.37800 26.47600
H  45.00300 34.71000 26.83700
H  41.61200 39.64500 22.33400
H  42.34900 42.50100 22.19900
H  44.15700 39.25200 22.31400
H  44.35300 40.97700 22.25900
H  43.46300 39.89700 20.94400
H  40.48900 41.39900 20.93600
H  40.26200 42.98900 21.78600
H  39.33500 40.88300 23.51100
H  38.55700 40.68900 21.87000
H  38.43500 42.18000 22.72400
H  39.72700 47.07000 26.08600
H  39.88700 46.27200 24.56100
H  41.34600 46.96400 25.20000
H  39.75300 44.57100 30.65000
H  43.07300 46.51500 32.99900
H  41.60000 46.62500 33.95300
H  41.81400 47.85900 32.78200

