158

Mg 36.40500 49.05900 25.18000
C  36.53000 47.00800 28.16100
C  35.17400 51.57100 27.06500
C  35.77000 50.60900 22.34500
C  37.64100 46.20700 23.46600
N  35.53800 49.14200 27.30600
C  35.96100 48.30100 28.35700
C  35.83200 48.97800 29.72000
C  35.20200 50.32800 29.32700
C  35.28300 50.37100 27.82800
C  33.65300 50.48900 29.66200
C  37.16100 49.11800 30.59100
C  37.07200 48.54900 32.04800
H  36.67600 49.40800 33.12800
N  35.62300 50.90500 24.72100
C  35.19700 51.83400 25.63700
C  35.00300 53.07600 25.02900
C  35.25200 52.82900 23.63000
C  35.51900 51.38300 23.51300
C  34.75200 54.42700 25.77000
C  35.11000 53.82800 22.48900
O  35.28400 53.60300 21.27300
C  34.84800 55.17300 22.87100
N  36.77600 48.51700 23.23500
C  36.37800 49.34200 22.24700
C  36.65300 48.62000 20.88100
C  37.63100 47.38600 21.25700
C  37.41300 47.39600 22.80900
C  35.25700 48.26000 20.27600
C  39.11500 47.36700 20.84400
C  39.50400 46.57800 19.56800
N  36.92600 46.95600 25.61000
C  37.43300 45.91800 24.83600
C  37.62700 44.73700 25.63000
C  37.36700 45.18900 26.93400
C  36.93100 46.48700 26.88000
C  38.05900 43.43500 25.05800
C  37.51700 44.79500 28.31600
O  37.99600 43.80000 28.87200
C  36.89400 45.95700 29.15100
C  35.69200 45.47900 30.03600
O  34.55200 45.51900 29.64200
O  36.13500 45.04000 31.26400
C  35.03800 44.75800 32.29200
H  34.89400 52.41000 27.70500
H  35.35500 50.99100 21.41000
H  37.88100 45.38100 22.79400
H  35.06400 48.34600 30.16600
H  35.68100 51.21200 29.74600
H  33.14500 51.06500 28.88900
H  33.54100 50.94900 30.64300
H  33.01900 49.60200 29.66100
H  37.38600 50.17100 30.75700
H  38.00500 48.61500 30.11800
H  38.00200 48.04700 32.31600
H  36.35600 47.72800 32.06800
H  35.38400 55.26300 25.47000
H  35.15800 54.31300 26.77500
H  33.70700 54.70100 25.91000
H  35.70600 55.55900 23.42200
H  33.86800 55.37400 23.30500
H  34.90900 55.76100 21.95500
H  37.11400 49.36400 20.23200
H  37.11800 46.49500 20.89600
H  34.46700 48.79200 20.80700
H  34.96600 47.21100 20.33600
H  35.13000 48.59100 19.24600
H  39.76100 47.21300 21.70800
H  39.24600 48.41000 20.55600
H  39.24900 47.20200 18.71100
H  38.96200 45.65500 19.36300
H  40.57100 46.37000 19.65100
H  37.22400 42.89300 24.61600
H  38.58300 42.89300 25.84500
H  38.75300 43.68100 24.25300
H  37.62600 46.40700 29.82300
H  34.00100 44.76700 31.95600
H  35.05700 45.55100 33.03900
H  35.33000 43.91100 32.91200
Mg -12.60000 16.35900 42.54800
C  -9.57900 14.70000 41.95700
C  -11.35600 19.02200 41.00700
C  -15.79900 17.66500 42.79300
C  -14.03600 13.16100 43.53800
N  -10.75400 16.71200 41.37200
C  -9.60500 15.94500 41.48500
C  -8.38000 16.69700 40.93200
C  -8.95500 18.14900 40.89100
C  -10.45300 17.95600 41.14900
C  -8.33500 19.20900 41.98800
C  -7.88700 16.15000 39.56300
C  -6.43500 15.80700 39.37700
H  -6.03000 14.75400 38.34500
N  -13.48800 18.07700 42.02400
C  -12.71700 19.07300 41.34100
C  -13.62500 20.15700 41.05700
C  -14.88800 19.85600 41.58300
C  -14.82300 18.46800 42.17400
C  -13.19900 21.46800 40.38100
C  -16.06800 20.75300 41.42100
O  -15.99100 21.91400 40.94100
C  -17.46600 20.32300 41.88600
N  -14.72200 15.44700 42.84300
C  -15.79600 16.32700 43.03900
C  -17.02900 15.47800 43.66100
C  -16.30700 14.15000 44.10400
C  -14.94700 14.24500 43.44900
C  -17.72800 16.26900 44.86100
C  -17.06300 12.83700 43.93600
C  -16.98500 11.90200 45.10500
N  -12.01800 14.32000 42.69100
C  -12.70700 13.20100 43.21300
C  -11.72100 12.11300 43.30300
C  -10.51800 12.66200 42.87800
C  -10.69000 14.00100 42.48100
C  -11.96200 10.74800 43.80200
C  -9.14000 12.34600 42.55600
O  -8.38100 11.31900 42.72700
C  -8.48200 13.72800 42.02000
C  -7.38600 14.07900 43.01200
O  -7.62500 14.57100 44.13700
O  -6.15600 13.89700 42.45900
C  -5.07800 14.54200 43.19500
H  -10.87200 19.86100 40.50200
H  -16.70300 18.17400 43.13300
H  -14.38200 12.23700 44.00600
H  -7.61200 16.62700 41.70300
H  -8.83200 18.58600 39.90000
H  -8.93200 19.76200 42.71200
H  -7.76000 19.92900 41.40600
H  -7.57100 18.67800 42.55600
H  -8.10100 16.90800 38.81000
H  -8.48900 15.25800 39.39400
H  -6.08300 15.47300 40.35200
H  -5.96900 16.72600 39.02100
H  -12.20400 21.42200 39.93900
H  -13.27100 22.38200 40.97000
H  -13.82100 21.63300 39.50200
H  -17.76300 20.31400 42.93500
H  -17.53100 19.28000 41.57800
H  -18.21600 20.90000 41.34500
H  -17.70000 15.26300 42.82900
H  -16.12900 14.39600 45.15100
H  -16.97200 16.94000 45.26800
H  -17.91800 15.51800 45.62900
H  -18.64800 16.73200 44.50400
H  -16.58100 12.34900 43.09000
H  -18.08100 13.08100 43.63100
H  -17.94200 11.65700 45.56400
H  -16.27900 12.27900 45.84600
H  -16.57300 10.98500 44.68300
H  -11.00000 10.27900 44.00800
H  -12.47400 10.13000 43.06500
H  -12.54000 10.79500 44.72500
H  -8.03600 13.63900 41.03000
H  -5.24100 15.61600 43.11500
H  -4.10000 14.37100 42.74500
H  -4.99300 14.10800 44.19200

