158

Mg 55.51100 22.59500 44.78200
C  53.42500 24.96200 43.52900
C  53.12900 20.23400 43.89200
C  57.84500 20.19800 45.16300
C  57.89200 24.99300 45.35200
N  53.57500 22.61600 43.69000
C  52.90100 23.71500 43.18800
C  51.54300 23.30000 42.71000
C  51.34800 21.83700 43.33600
C  52.72700 21.54500 43.72800
C  50.32200 21.71600 44.49900
C  51.33700 23.66800 41.22200
C  50.05600 24.40300 40.91100
H  49.25100 23.86900 39.75200
N  55.46400 20.57800 44.39500
C  54.42700 19.75500 44.03500
C  54.81100 18.36900 44.06000
C  56.20000 18.34800 44.33500
C  56.60200 19.72600 44.63300
C  53.87600 17.25600 43.87500
C  57.03300 17.07900 44.52000
O  56.44300 15.96300 44.46300
C  58.47400 17.05900 45.01700
N  57.54300 22.51000 45.32800
C  58.32100 21.45400 45.48100
C  59.83700 21.71900 45.85100
C  59.80400 23.35000 45.74000
C  58.30300 23.65100 45.47500
C  60.25400 21.23600 47.28700
C  60.69800 23.94700 44.53100
C  61.44800 25.25100 44.79700
N  55.63700 24.55700 44.65800
C  56.60700 25.44700 45.00800
C  56.11700 26.80700 44.83900
C  54.84300 26.70300 44.32800
C  54.58600 25.29800 44.21500
C  56.85100 28.09700 45.19400
C  53.65200 27.38000 43.86600
O  53.38100 28.57500 43.89100
C  52.82800 26.31200 43.15000
C  52.92000 26.54700 41.69400
O  53.87500 26.23100 40.95500
O  51.86300 27.30400 41.35200
C  51.93100 28.12000 40.14900
H  52.38500 19.47100 43.65300
H  58.64900 19.51700 45.44600
H  58.54700 25.85500 45.49200
H  50.89300 23.89900 43.34800
H  51.05500 21.08600 42.60100
H  50.85800 21.19500 45.29300
H  49.49100 21.09800 44.15700
H  49.93400 22.71600 44.68800
H  51.39000 22.73600 40.66000
H  52.14100 24.31900 40.88000
H  50.26500 25.40300 40.53000
H  49.42000 24.43400 41.79500
H  54.02600 16.94000 42.84300
H  52.82900 17.48500 44.07400
H  54.11100 16.42700 44.54300
H  58.53300 17.40900 46.04800
H  59.07700 17.66400 44.33900
H  58.94100 16.07500 45.05100
H  60.37600 21.27300 45.01500
H  60.05700 23.86300 46.66700
H  59.39600 20.75200 47.75300
H  60.56300 22.13400 47.82200
H  61.02000 20.47200 47.15100
H  60.07600 24.10700 43.65000
H  61.43600 23.17800 44.30100
H  61.33200 25.79900 43.86100
H  62.52800 25.20300 44.93700
H  60.97800 25.89800 45.53800
H  56.36500 28.64700 46.00000
H  56.72000 28.76400 44.34100
H  57.93200 27.98300 45.27500
H  51.77200 26.37200 43.41300
H  51.28500 28.99800 40.15100
H  51.57600 27.50500 39.32300
H  52.96800 28.39000 39.95100
Mg 36.01000 49.06100 26.43200
C  36.28700 46.73800 29.04300
C  35.04600 51.45600 28.75500
C  35.11100 51.10900 23.96100
C  36.76500 46.53200 24.15900
N  35.46800 49.02700 28.62500
C  35.81800 47.99700 29.49500
C  35.81800 48.48900 30.89000
C  35.06200 49.84200 30.78600
C  35.24900 50.17200 29.33600
C  33.60100 49.74000 31.06700
C  37.35100 48.68200 31.45800
C  37.63800 47.96300 32.82400
H  37.22800 48.80800 34.06700
N  35.27100 50.99600 26.36200
C  35.02800 51.84400 27.46800
C  34.54700 53.20600 27.02000
C  34.68800 53.16200 25.59000
C  35.04200 51.74900 25.24500
C  34.22700 54.33800 28.06200
C  34.59800 54.25000 24.50700
O  35.00400 54.11900 23.32900
C  34.14300 55.61200 24.92200
N  35.96800 48.86400 24.31100
C  35.56100 49.87400 23.53600
C  35.67500 49.50200 22.05100
C  36.32200 47.99700 22.12500
C  36.50400 47.78800 23.59300
C  34.33800 49.59100 21.32800
C  37.54900 47.72900 21.24400
C  38.96400 47.55600 21.90100
N  36.28500 46.98000 26.52300
C  36.71000 46.12700 25.50400
C  36.88900 44.78100 26.05400
C  36.82100 45.01400 27.46400
C  36.39400 46.35200 27.65000
C  37.36400 43.53400 25.39100
C  36.93800 44.38000 28.70100
O  37.16700 43.25100 29.01300
C  36.72500 45.52300 29.78600
C  35.71800 45.12900 30.83600
O  34.51400 45.11600 30.65300
O  36.29200 44.68400 31.97900
C  35.31600 44.64400 33.09000
H  34.89000 52.31800 29.40700
H  34.85200 51.69500 23.07700
H  36.92400 45.66400 23.51500
H  35.35500 47.72700 31.51600
H  35.54000 50.54800 31.46400
H  33.12300 50.66800 31.38000
H  33.35700 48.95000 31.77700
H  33.05700 49.34000 30.21100
H  37.56200 49.74700 31.55500
H  38.01100 48.27200 30.69400
H  38.69500 47.69800 32.84600
H  37.05600 47.04100 32.84800
H  35.17800 54.39800 28.59100
H  33.48600 53.98200 28.77800
H  34.04100 55.36100 27.73400
H  34.91500 55.90500 25.63300
H  33.17800 55.50000 25.41700
H  34.11300 56.26800 24.05100
H  36.44200 50.14400 21.61900
H  35.56100 47.28600 21.80100
H  33.86900 48.61700 21.18900
H  34.40500 50.05100 20.34200
H  33.62700 50.23100 21.85100
H  37.68000 48.54300 20.53100
H  37.38000 46.78700 20.72200
H  39.65300 48.23900 21.40400
H  39.22400 46.51000 21.74400
H  39.07200 47.85100 22.94500
H  36.98700 42.67200 25.94100
H  38.42900 43.67400 25.20600
H  36.83000 43.45200 24.44500
H  37.64500 45.62900 30.35900
H  35.67500 43.95900 33.85700
H  34.33100 44.27900 32.79800
H  35.08100 45.59900 33.56000

