158

Mg -2.90500 16.63300 26.21300
C  -2.95000 14.23400 28.88900
C  -3.37000 19.08600 28.50900
C  -2.62200 18.78100 23.66100
C  -2.69200 13.95200 23.97100
N  -3.12300 16.60900 28.45600
C  -3.15800 15.55700 29.36500
C  -3.46100 16.03500 30.75700
C  -3.85700 17.55900 30.53700
C  -3.47400 17.73700 29.03700
C  -5.24500 18.09100 30.95700
C  -2.35700 15.63100 31.78900
C  -1.97800 16.67600 32.85000
H  -1.46000 16.05500 34.19000
N  -2.95100 18.65400 26.13900
C  -3.19800 19.53500 27.19900
C  -2.99900 20.93600 26.75400
C  -2.80200 20.81500 25.30500
C  -2.75700 19.38600 24.97700
C  -3.17800 22.15900 27.67500
C  -2.69400 21.97900 24.34100
O  -2.63900 21.73200 23.15900
C  -2.46500 23.35200 24.73000
N  -2.68900 16.43700 24.15800
C  -2.56900 17.46300 23.28000
C  -2.54000 16.93100 21.82600
C  -2.30600 15.42500 21.98500
C  -2.57300 15.24300 23.44800
C  -3.87200 17.09100 21.05400
C  -0.89400 14.86300 21.56700
C  -0.93000 13.53200 20.80100
N  -3.06500 14.57500 26.29800
C  -2.94000 13.67500 25.28000
C  -2.99800 12.34300 25.82700
C  -2.90900 12.51300 27.22400
C  -2.96300 13.90600 27.46200
C  -2.96600 11.04500 25.03900
C  -2.90900 11.75800 28.53200
O  -2.99400 10.53600 28.66300
C  -2.73900 12.83900 29.62600
C  -1.47700 12.66500 30.45900
O  -0.41100 13.24900 30.33800
O  -1.68700 11.60700 31.30200
C  -0.66500 11.42400 32.33600
H  -3.45800 19.79300 29.33700
H  -2.48100 19.40500 22.77700
H  -2.73100 13.13600 23.24700
H  -4.41500 15.60100 31.05700
H  -3.12400 18.10700 31.12800
H  -5.68700 18.55100 30.07300
H  -5.15200 18.83700 31.74600
H  -5.85400 17.28400 31.36400
H  -1.54300 15.32600 31.13100
H  -2.56800 14.67300 32.26300
H  -2.81400 17.36700 32.96400
H  -1.08600 17.25900 32.62400
H  -3.00900 21.84700 28.70600
H  -4.10100 22.72900 27.57400
H  -2.40600 22.91000 27.50100
H  -3.23700 23.63800 25.44500
H  -2.52600 23.99900 23.85500
H  -1.41600 23.44300 25.01400
H  -1.70400 17.47400 21.38600
H  -3.00900 14.87000 21.36400
H  -4.29900 18.03900 21.38100
H  -4.61700 16.33300 21.29500
H  -3.68000 16.95600 19.99000
H  -0.24200 14.80600 22.43900
H  -0.47200 15.62700 20.91500
H  -0.47500 13.74100 19.83300
H  -1.94600 13.15200 20.69200
H  -0.34200 12.79700 21.35100
H  -2.09500 11.24200 24.41400
H  -3.88900 10.97100 24.46400
H  -2.69900 10.16700 25.62700
H  -3.52700 12.56700 30.32800
H  -0.23600 10.45400 32.08100
H  -1.15500 11.21000 33.28500
H  0.16000 12.13600 32.34300
Mg 49.82000 35.96300 28.55400
C  47.50600 34.67000 30.48000
C  50.10900 38.67100 30.57500
C  52.15500 37.33600 26.39500
C  49.15600 33.71000 25.98800
N  49.00000 36.51400 30.43000
C  48.12400 35.75400 31.15100
C  47.84800 36.40900 32.60500
C  48.35500 37.88200 32.28300
C  49.27900 37.65500 31.09500
C  47.24500 38.92100 31.96900
C  48.44000 35.67800 33.76300
C  49.97400 35.33900 33.72900
H  50.74700 35.48300 35.00900
N  51.05100 37.73800 28.53700
C  51.03000 38.70400 29.53400
C  52.11100 39.63500 29.27900
C  52.67300 39.31600 27.97600
C  52.02000 38.07700 27.54500
C  52.33900 40.72700 30.22800
C  53.93600 39.94400 27.28100
O  54.56300 39.51900 26.32800
C  54.45700 41.20000 28.02000
N  50.32200 35.77300 26.24900
C  51.43700 36.35600 25.77400
C  51.82600 35.80900 24.39100
C  50.75700 34.66900 24.21500
C  50.10300 34.65300 25.57400
C  51.73300 36.86800 23.20300
C  51.39200 33.34900 23.82900
C  52.31900 33.33100 22.57700
N  48.66000 34.45400 28.27100
C  48.43600 33.59700 27.19400
C  47.54200 32.57100 27.57100
C  47.06100 33.03100 28.80400
C  47.78600 34.13900 29.19100
C  47.08200 31.38600 26.86300
C  46.10200 32.75600 29.88900
O  45.26500 31.81500 29.97900
C  46.24900 33.93800 30.92300
C  46.28100 33.31200 32.24600
O  46.94900 32.33000 32.46100
O  45.35600 33.78000 33.06200
C  45.35300 33.27500 34.42900
H  50.12300 39.41500 31.37400
H  53.02000 37.58400 25.77700
H  48.85500 32.93800 25.27600
H  46.78300 36.23200 32.75800
H  48.94200 38.22300 33.13600
H  47.29400 39.64000 32.78800
H  46.26400 38.44800 31.94100
H  47.37200 39.59800 31.12500
H  47.96700 34.70000 33.66900
H  48.13400 36.05900 34.73700
H  50.43700 35.99700 32.99300
H  50.13000 34.32600 33.35800
H  53.32600 40.68000 30.69000
H  51.68500 40.61200 31.09300
H  52.18600 41.68900 29.74100
H  53.83000 42.08900 28.09300
H  55.30200 41.52700 27.41300
H  54.84800 40.87600 28.98400
H  52.84400 35.42500 24.45100
H  49.99700 34.98900 23.50200
H  51.08200 36.61400 22.36600
H  52.72000 36.90700 22.74200
H  51.54800 37.83100 23.67900
H  50.65700 32.55800 23.68000
H  51.89500 32.87600 24.67200
H  53.36600 33.31500 22.87800
H  52.20200 34.34100 22.18500
H  52.02700 32.54100 21.88500
H  46.49200 31.77500 26.03300
H  46.52300 30.72900 27.52900
H  47.88600 30.74500 26.50200
H  45.42800 34.65000 30.84400
H  45.31300 34.18100 35.03300
H  46.16300 32.62000 34.74800
H  44.46700 32.69500 34.68600

