158

Mg 1.94700 -2.15900 42.77900
C  5.31500 -1.88500 42.22500
C  1.50400 0.95900 41.32500
C  -1.27400 -2.90200 42.39700
C  2.60500 -5.60300 43.54000
N  3.31500 -0.76100 41.66000
C  4.65900 -0.79100 41.75200
C  5.24100 0.40800 41.10500
C  4.10500 1.44900 41.06200
C  2.86800 0.55200 41.39700
C  4.31700 2.70000 41.97700
C  6.11300 0.33400 39.78400
C  5.58600 -0.70000 38.80700
H  5.24400 -0.29000 37.38700
N  0.37400 -1.10400 41.98600
C  0.33500 0.22400 41.38200
C  -1.02900 0.56000 41.12000
C  -1.88100 -0.49900 41.52400
C  -0.93600 -1.53800 42.05200
C  -1.53100 1.99600 40.71100
C  -3.46100 -0.50900 41.69800
O  -4.13500 0.41300 41.26600
C  -4.15700 -1.58000 42.35200
N  0.83500 -3.92500 42.92500
C  -0.51000 -3.99300 42.82000
C  -1.13000 -5.34400 42.99200
C  0.13400 -6.20400 43.36200
C  1.28100 -5.18700 43.30200
C  -2.27800 -5.39100 44.01300
C  0.44900 -7.43400 42.56500
C  0.52500 -8.79800 43.34900
N  3.59600 -3.44600 43.21300
C  3.73200 -4.78000 43.44000
C  5.07800 -5.16500 43.71400
C  5.79400 -4.06800 43.23200
C  4.76200 -3.05600 42.86400
C  5.46200 -6.55600 44.21700
C  7.08800 -3.54000 42.97800
O  8.26300 -3.86300 43.07400
C  6.82500 -2.15200 42.18900
C  7.68800 -1.04800 42.91600
O  8.84500 -0.76500 42.62300
O  7.02400 -0.48000 43.89800
C  7.47800 0.80100 44.36500
H  1.40700 2.01400 41.06000
H  -2.27900 -3.32400 42.32100
H  2.72500 -6.61800 43.92500
H  5.90200 0.81300 41.87200
H  3.95800 1.78500 40.03500
H  5.26700 2.72000 42.51100
H  3.61000 2.62200 42.80200
H  4.01400 3.65500 41.54700
H  7.16100 0.16500 40.02800
H  6.00500 1.26300 39.22400
H  4.75900 -1.28200 39.21400
H  6.31600 -1.50700 38.74500
H  -2.45400 2.25000 41.23200
H  -1.73400 1.87200 39.64700
H  -0.74500 2.74500 40.80300
H  -5.18900 -1.30700 42.57000
H  -3.71300 -1.91400 43.29000
H  -4.04100 -2.36100 41.60000
H  -1.46100 -5.75900 42.04000
H  0.08000 -6.58100 44.38300
H  -3.01900 -6.00500 43.50100
H  -2.63300 -4.37100 44.16000
H  -1.97900 -5.92400 44.91600
H  1.40400 -7.23300 42.07900
H  -0.29500 -7.60300 41.78700
H  1.51700 -9.01800 43.74500
H  0.03400 -9.58900 42.78300
H  -0.10500 -8.75000 44.23700
H  5.70600 -7.27800 43.43800
H  4.76200 -6.95700 44.95000
H  6.39300 -6.36300 44.75000
H  7.15600 -2.34900 41.16900
H  7.75300 0.64700 45.40900
H  6.75100 1.60700 44.27300
H  8.44200 1.14600 43.99200
Mg 7.61000 2.40600 28.34300
C  9.32100 0.95400 31.09600
C  5.69000 4.10800 30.49400
C  5.92400 3.37900 25.74800
C  9.35700 0.01600 26.31000
N  7.52900 2.46700 30.60600
C  8.35400 1.89800 31.51100
C  8.07300 2.36300 32.94900
C  6.78400 3.28000 32.72600
C  6.64400 3.32500 31.20500
C  5.54600 3.00100 33.51300
C  9.38600 2.97000 33.47600
C  9.84300 2.47100 34.85300
H  10.36500 3.54400 35.81800
N  6.12900 3.71100 28.14300
C  5.40100 4.27800 29.11200
C  4.33200 5.12600 28.54600
C  4.48400 5.07300 27.19700
C  5.54100 3.95600 26.94100
C  3.48300 6.03200 29.34800
C  3.85300 5.89300 26.10100
O  4.18600 5.67100 24.94300
C  2.79900 6.92600 26.43900
N  7.54300 1.69000 26.31000
C  6.83800 2.42000 25.39600
C  7.07800 1.86900 23.98200
C  8.28000 0.88900 24.20200
C  8.43000 0.80600 25.68600
C  5.77500 1.16500 23.20000
C  9.66500 1.30100 23.54800
C  10.70600 2.08700 24.34700
N  8.90000 0.70300 28.65800
C  9.54600 -0.11100 27.72800
C  10.47300 -1.01600 28.35100
C  10.40600 -0.64200 29.71500
C  9.47000 0.42600 29.83300
C  11.39900 -1.96000 27.65500
C  10.94500 -0.88900 31.01500
O  11.80700 -1.68600 31.41600
C  10.23000 0.03600 32.02200
C  9.54700 -0.78100 33.10800
O  8.42100 -1.22100 33.06800
O  10.31200 -0.85000 34.21600
C  9.60200 -1.08800 35.49400
H  5.10400 4.59800 31.27500
H  5.27000 3.67500 24.92500
H  9.92600 -0.60900 25.61900
H  7.69500 1.45700 33.42300
H  7.04800 4.25500 33.13800
H  5.47900 3.70200 34.34500
H  5.49100 2.02500 33.99600
H  4.68600 3.16000 32.86300
H  9.24200 4.05000 33.51400
H  10.13500 2.87400 32.69100
H  10.64200 1.75800 34.65000
H  9.03600 1.98000 35.39800
H  2.44300 6.01300 29.02200
H  3.77000 7.08000 29.26500
H  3.45800 5.71900 30.39200
H  3.23600 7.54800 27.22000
H  1.85200 6.48100 26.74300
H  2.68000 7.62400 25.61000
H  7.32900 2.65200 23.26700
H  7.95000 -0.07600 23.81800
H  4.84400 1.37000 23.72900
H  5.86900 0.09100 23.35500
H  5.70600 1.41000 22.14000
H  9.38100 1.93400 22.70700
H  10.07700 0.39500 23.10400
H  11.64200 1.53100 24.39200
H  10.22800 2.35100 25.29100
H  11.04200 2.88400 23.68500
H  11.59800 -1.50000 26.68700
H  10.89700 -2.91100 27.47800
H  12.29900 -2.14800 28.24100
H  10.92400 0.65400 32.59100
H  10.18300 -0.96900 36.40800
H  9.23900 -2.11300 35.57800
H  8.70300 -0.47800 35.57700

