158

Mg 17.30100 -1.30800 27.51000
C  16.43500 0.55500 30.33200
C  19.02100 -3.49300 29.64300
C  18.34600 -2.94100 24.81400
C  15.75100 1.14600 25.55700
N  17.77500 -1.36500 29.65300
C  17.28400 -0.50700 30.60400
C  17.78400 -0.91100 32.02300
C  18.73600 -2.10300 31.73000
C  18.47100 -2.41100 30.27700
C  20.22700 -1.73800 32.08200
C  16.54600 -1.24100 33.01500
C  16.44200 -0.62700 34.41400
H  17.76200 -0.10500 35.09600
N  18.54800 -3.03900 27.18100
C  19.04400 -3.83300 28.25900
C  19.68000 -4.90900 27.57400
C  19.64700 -4.76400 26.19500
C  18.78400 -3.63400 25.98700
C  20.25900 -6.07700 28.37500
C  20.26100 -5.53800 25.05000
O  20.09400 -5.13400 23.91100
C  21.07500 -6.78800 25.28000
N  17.13500 -0.92700 25.47100
C  17.65300 -1.77100 24.57400
C  17.38100 -1.23300 23.22000
C  16.23200 -0.14200 23.38400
C  16.43200 0.12600 24.90500
C  18.63500 -0.54700 22.54900
C  14.74200 -0.60600 22.99000
C  14.01300 -0.11900 21.66600
N  16.15100 0.43300 27.84700
C  15.53500 1.32700 26.97000
C  14.76600 2.27700 27.75200
C  15.09000 1.99000 29.05400
C  15.92700 0.90400 29.04900
C  13.80600 3.35300 27.18200
C  14.86000 2.40900 30.37300
O  14.07900 3.24500 30.89700
C  15.77000 1.54200 31.22400
C  16.72400 2.39200 31.99200
O  17.82800 2.70000 31.64500
O  15.98200 2.96100 33.06000
C  16.73600 4.03400 33.76700
H  19.61100 -4.17700 30.25600
H  18.76500 -3.39200 23.91200
H  15.11900 1.80100 24.95400
H  18.31800 -0.06300 32.45100
H  18.43100 -3.00100 32.26600
H  20.78800 -2.32100 31.35200
H  20.41600 -2.29300 33.00100
H  20.58800 -0.71100 32.11600
H  16.59600 -2.30500 33.24700
H  15.60700 -1.01900 32.50800
H  16.00500 -1.33500 35.11700
H  15.84700 0.28400 34.34400
H  21.32400 -5.92700 28.19800
H  19.94200 -7.07100 28.06000
H  19.91300 -6.07600 29.40800
H  21.50100 -7.17900 24.35600
H  20.55000 -7.61300 25.76200
H  21.82700 -6.39100 25.96200
H  17.01400 -2.02600 22.56900
H  16.66400 0.64400 22.76500
H  19.42200 -0.67300 23.29300
H  18.57800 0.44000 22.09000
H  18.87800 -1.18400 21.69900
H  14.10900 -0.34000 23.83700
H  14.77200 -1.69200 22.89500
H  13.18500 0.46900 22.06100
H  13.58400 -0.90000 21.03800
H  14.55700 0.64500 21.10900
H  12.89100 2.95000 26.74800
H  14.30800 4.01300 26.47500
H  13.44900 3.98500 27.99500
H  15.07200 1.06500 31.91300
H  16.22400 4.99600 33.74900
H  17.73600 4.28300 33.41300
H  16.90100 3.75900 34.80900
Mg -5.34800 25.75800 26.12600
C  -4.33100 27.05200 29.17300
C  -6.96500 23.26700 27.59400
C  -5.90900 24.49200 23.07400
C  -2.87600 27.90500 24.64200
N  -5.37800 25.15800 28.07200
C  -5.10800 25.91900 29.19500
C  -5.68200 25.29800 30.45100
C  -6.17500 23.88200 29.92500
C  -6.15200 24.08400 28.37700
C  -5.33600 22.60400 30.34500
C  -6.85900 26.24200 31.16100
C  -6.62000 26.68500 32.57500
H  -6.15700 25.60900 33.64300
N  -6.34500 24.13000 25.43700
C  -7.13200 23.30400 26.22300
C  -7.94900 22.53600 25.37500
C  -7.60200 22.78000 24.06400
C  -6.53000 23.83300 24.12700
C  -8.99100 21.65100 25.94000
C  -8.12300 22.20100 22.84200
O  -7.60900 22.54500 21.76600
C  -9.25900 21.23500 22.86600
N  -4.52400 26.20700 24.17100
C  -5.01000 25.54400 23.05300
C  -4.04200 25.88300 21.85600
C  -3.40600 27.19400 22.31000
C  -3.58300 27.07400 23.79600
C  -3.06900 24.74600 21.60600
C  -4.10500 28.47100 21.74200
C  -4.34800 28.63200 20.25800
N  -3.93900 27.23700 26.70000
C  -2.99100 28.00300 26.01200
C  -2.29200 28.87100 26.92200
C  -2.80700 28.53900 28.14800
C  -3.74400 27.52600 27.94600
C  -1.33600 29.99200 26.61200
C  -2.80300 28.98100 29.59000
O  -2.10800 29.86000 30.15500
C  -3.80600 27.96300 30.33600
C  -3.04700 27.28300 31.51400
O  -2.44400 26.22400 31.37600
O  -3.08700 28.09700 32.61500
C  -2.37200 27.60500 33.87100
H  -7.55100 22.56000 28.18500
H  -6.15800 24.02000 22.12100
H  -2.18500 28.53400 24.07700
H  -4.93600 25.24600 31.24500
H  -7.19700 23.67200 30.24200
H  -4.54900 23.02600 30.96900
H  -4.84900 22.00000 29.58000
H  -5.90500 21.93500 30.99000
H  -7.82800 25.74200 31.14500
H  -6.82300 27.08300 30.46800
H  -7.58800 27.01100 32.95600
H  -5.86800 27.47000 32.49900
H  -9.94300 22.00400 25.54200
H  -9.07100 21.77700 27.02000
H  -8.77500 20.61900 25.66300
H  -8.82500 20.28700 23.18400
H  -9.71600 20.97900 21.91000
H  -9.97300 21.68200 23.55800
H  -4.67300 25.99700 20.97500
H  -2.33000 27.11300 22.15700
H  -2.14900 25.06900 21.11900
H  -3.57700 24.12200 20.87100
H  -2.86900 24.03200 22.40500
H  -3.42100 29.29000 21.96000
H  -5.07300 28.67100 22.20000
H  -5.33700 29.02300 20.02000
H  -4.03900 27.73000 19.73000
H  -3.69600 29.46700 20.00000
H  -1.64200 30.85300 27.20700
H  -1.37200 30.35700 25.58500
H  -0.28200 29.74700 26.74500
H  -4.56300 28.60500 30.78700
H  -2.99000 27.27100 34.70500
H  -1.81200 28.48500 34.18700
H  -1.69400 26.79700 33.59800

