158

Mg -0.27200 7.26400 27.17600
C  0.69100 9.75900 29.57200
C  -0.11600 4.94400 29.53800
C  -1.07000 5.30600 24.75700
C  0.44200 9.91000 24.65600
N  0.22400 7.40200 29.29500
C  0.44600 8.48200 30.04700
C  0.39800 8.10700 31.53000
C  0.32600 6.51500 31.52700
C  0.14100 6.24100 30.06200
C  1.63200 5.81500 32.07800
C  -0.90200 8.67000 32.22500
C  -0.81200 8.69700 33.75400
H  0.54400 8.42600 34.47600
N  -0.58300 5.35500 27.21200
C  -0.43500 4.47100 28.26500
C  -0.60500 3.11400 27.79300
C  -0.79700 3.22600 26.35500
C  -0.82700 4.68300 26.01100
C  -0.48500 1.86700 28.62900
C  -0.98300 2.10200 25.37000
O  -1.01600 2.26800 24.17400
C  -1.03700 0.67100 25.80800
N  -0.26100 7.56300 25.03000
C  -0.89100 6.59000 24.30000
C  -1.19300 7.07000 22.82000
C  -0.79100 8.61100 22.93500
C  -0.15300 8.71600 24.27600
C  -0.42500 6.34000 21.66400
C  -2.07000 9.48100 22.93400
C  -2.22700 10.45600 21.82700
N  0.44800 9.40600 27.06400
C  0.78700 10.21200 26.00100
C  1.34000 11.42700 26.49900
C  1.28200 11.35600 27.85900
C  0.72800 10.14500 28.15400
C  1.85800 12.63300 25.69700
C  1.64300 11.97400 29.09900
O  2.25100 13.06400 29.19500
C  1.21300 11.01200 30.23600
C  2.46700 10.84600 31.04500
O  3.44500 10.15100 30.70400
O  2.46100 11.62900 32.14800
C  3.72500 11.73100 32.89100
H  0.00100 4.17500 30.30300
H  -1.52100 4.79500 23.90400
H  0.60900 10.68100 23.90200
H  1.32500 8.43900 31.99700
H  -0.45800 6.06500 32.13700
H  1.34200 4.97800 32.71300
H  2.15200 6.58900 32.64300
H  2.18200 5.40100 31.23200
H  -1.79200 8.19300 31.81600
H  -0.95800 9.73100 31.98000
H  -1.55900 8.02000 34.16800
H  -1.08500 9.71900 34.01500
H  0.42800 1.31500 28.40600
H  -1.45900 1.38300 28.70500
H  -0.34000 2.08500 29.68700
H  -1.19600 0.03800 24.93500
H  -1.82100 0.39800 26.51400
H  -0.02000 0.40200 26.09300
H  -2.24800 6.91700 22.58900
H  -0.11900 8.93100 22.13900
H  -0.11700 7.04400 20.89000
H  -0.99500 5.62500 21.07100
H  0.47900 5.86400 22.04300
H  -2.09300 10.05200 23.86200
H  -3.05200 9.01000 22.96400
H  -1.52500 11.28500 21.91700
H  -3.23200 10.87700 21.80800
H  -1.99300 10.05000 20.84300
H  2.52300 12.26400 24.91600
H  2.42700 13.28700 26.35800
H  1.16800 13.21100 25.08100
H  0.37200 11.43900 30.78200
H  3.65400 12.34600 33.78800
H  4.55600 12.18200 32.34800
H  3.93200 10.69600 33.16400
Mg 26.08200 0.93600 28.92200
C  27.95500 0.02400 31.76800
C  23.27100 0.97500 31.04400
C  24.27900 1.35900 26.28500
C  28.85600 0.23700 26.96800
N  25.73100 0.47100 31.16200
C  26.62000 0.21300 32.12400
C  26.10300 0.53700 33.59900
C  24.56100 0.65500 33.26000
C  24.50600 0.76900 31.74500
C  23.74400 -0.55600 33.65800
C  26.90500 1.67700 34.36900
C  27.72200 1.17500 35.53800
H  27.41400 1.91700 36.84200
N  24.08600 1.18100 28.70300
C  23.09300 1.10400 29.66900
C  21.82200 1.33700 29.05500
C  22.04500 1.48900 27.66600
C  23.52300 1.33800 27.46400
C  20.46200 1.27600 29.83500
C  21.09400 1.51600 26.53200
O  21.40200 1.68400 25.34600
C  19.58000 1.46900 26.80100
N  26.49000 0.52500 26.85900
C  25.53800 0.93600 25.98300
C  26.08400 0.93300 24.54400
C  27.61000 0.55000 24.73900
C  27.69600 0.51500 26.30100
C  25.42600 -0.11600 23.51900
C  28.63000 1.64100 24.17700
C  29.90300 1.07300 23.48400
N  28.07700 0.34900 29.26600
C  29.07900 0.11000 28.38300
C  30.32500 -0.13900 29.06300
C  29.95800 -0.21200 30.40500
C  28.58500 0.09600 30.52200
C  31.66600 -0.47100 28.51000
C  30.39100 -0.45800 31.77200
O  31.51800 -0.76300 32.13800
C  29.13900 -0.35500 32.68900
C  29.05900 -1.63000 33.40900
O  28.54500 -2.64200 32.98600
O  29.60000 -1.41900 34.63800
C  29.34900 -2.37100 35.71400
H  22.41500 0.96900 31.72300
H  23.78900 1.59600 25.33800
H  29.77300 0.17500 26.37900
H  26.28300 -0.39600 34.13400
H  24.09600 1.57200 33.62100
H  23.06800 -0.85000 32.85600
H  23.15500 -0.29400 34.53800
H  24.46300 -1.33600 33.90900
H  26.10400 2.26100 34.82200
H  27.54900 2.23900 33.69200
H  28.76500 1.43600 35.35700
H  27.61900 0.10100 35.69200
H  20.14500 0.23600 29.76100
H  19.82000 2.01200 29.34900
H  20.54300 1.60800 30.87000
H  18.95200 1.55200 25.91400
H  19.17000 2.26400 27.42400
H  19.36300 0.52000 27.29100
H  25.84000 1.89700 24.09800
H  27.96500 -0.42500 24.40600
H  24.91500 -0.81200 24.18500
H  26.11900 -0.74400 22.96000
H  24.74400 0.33100 22.79600
H  28.88400 2.37500 24.94200
H  28.03600 2.15300 23.42000
H  30.71700 1.79100 23.38400
H  29.54600 0.70500 22.52200
H  30.18100 0.20900 24.08700
H  31.38500 -1.37300 27.96600
H  32.44700 -0.55000 29.26600
H  31.91600 0.33300 27.81800
H  29.41400 0.52500 33.27100
H  28.57200 -1.89300 36.31000
H  30.20900 -2.62700 36.33300
H  28.84700 -3.27500 35.37000

