158

Mg -2.37300 17.06300 26.43000
C  -2.76300 14.70500 28.95600
C  -3.22300 19.49500 28.66200
C  -2.60500 19.15500 23.85300
C  -1.78100 14.40600 24.14500
N  -2.69100 17.02800 28.57800
C  -2.65100 16.01200 29.45100
C  -2.90400 16.44900 30.94200
C  -3.03700 18.00400 30.73200
C  -3.09700 18.16800 29.24400
C  -4.11400 18.78800 31.53500
C  -1.93300 15.94900 32.04200
C  -1.61500 16.90800 33.23100
H  -0.95700 16.33200 34.51600
N  -2.75600 19.06600 26.27100
C  -3.10200 19.91500 27.28700
C  -3.28000 21.31100 26.77500
C  -3.07200 21.22300 25.35000
C  -2.89500 19.75800 25.09800
C  -3.59900 22.52000 27.64000
C  -3.18000 22.30700 24.37200
O  -2.85500 22.13600 23.16300
C  -3.39000 23.75800 24.76700
N  -2.45600 16.71900 24.20800
C  -2.37700 17.81600 23.43900
C  -1.91800 17.44400 22.02000
C  -1.61900 15.92000 22.11900
C  -1.93700 15.65300 23.59600
C  -2.79500 17.94300 20.90200
C  -0.16800 15.49900 21.72800
C  1.05800 16.29700 22.32600
N  -2.34900 14.94700 26.47200
C  -2.09600 14.02900 25.46100
C  -2.24300 12.69000 26.00300
C  -2.56000 12.91400 27.38500
C  -2.59300 14.29300 27.59700
C  -2.07500 11.43700 25.25400
C  -2.74100 12.20000 28.63900
O  -2.66500 10.99800 28.91300
C  -3.05700 13.35700 29.67300
C  -2.12300 13.19300 30.83400
O  -0.85900 13.28800 30.71800
O  -2.78900 12.68500 31.94400
C  -1.98800 12.10700 33.01600
H  -3.36000 20.28900 29.39800
H  -2.69800 19.80300 22.97800
H  -1.41900 13.64900 23.44700
H  -3.84900 16.05700 31.31600
H  -2.10600 18.48500 31.03400
H  -3.64600 19.66200 31.98900
H  -4.53100 18.14300 32.30800
H  -4.95800 19.16500 30.95600
H  -0.99900 15.82000 31.49600
H  -2.31200 15.04200 32.51500
H  -2.59500 17.36500 33.37100
H  -0.93600 17.72200 32.98000
H  -2.77400 23.20000 27.42700
H  -3.56200 22.26100 28.69800
H  -4.61900 22.88700 27.53200
H  -4.36600 23.75200 25.25200
H  -3.49900 24.31400 23.83600
H  -2.55600 23.94600 25.44300
H  -0.97300 17.98400 21.95900
H  -2.33600 15.42400 21.46500
H  -2.54900 18.96600 20.61600
H  -3.86600 17.79000 21.02900
H  -2.61400 17.31700 20.02800
H  -0.12700 15.45500 20.64000
H  -0.14300 14.44700 22.01200
H  0.77900 17.24000 22.79700
H  1.76400 16.64000 21.57000
H  1.51100 15.73900 23.14600
H  -1.37400 11.58200 24.43200
H  -3.05100 11.13900 24.87000
H  -1.68400 10.64600 25.89500
H  -4.08500 13.07300 29.89700
H  -1.01100 11.75900 32.68000
H  -2.57400 11.23900 33.31900
H  -1.98400 12.79800 33.85900
Mg 54.04100 23.58700 44.18700
C  51.71500 26.18900 43.44500
C  51.82600 21.27900 43.11200
C  56.50000 21.50000 44.07500
C  56.34000 26.20000 44.70400
N  52.09100 23.70200 43.33000
C  51.34800 24.86600 43.01500
C  49.97100 24.51400 42.28300
C  49.91000 22.99800 42.57200
C  51.36600 22.62300 43.10600
C  48.76300 22.51400 43.55400
C  49.86300 24.84800 40.75100
C  51.05300 24.58400 39.75800
H  51.30500 25.48000 38.49000
N  54.09900 21.59500 43.67400
C  53.06700 20.77300 43.26600
C  53.58600 19.45200 43.34200
C  54.92600 19.44900 43.82700
C  55.26400 20.87000 43.84800
C  52.82100 18.26000 42.92800
C  55.79600 18.15500 44.01100
O  55.42100 17.12400 43.50100
C  57.18200 18.16200 44.61000
N  56.19800 23.86600 44.38500
C  57.00700 22.75400 44.27600
C  58.50500 23.04200 44.26200
C  58.47900 24.54900 44.66300
C  56.95600 24.91800 44.62600
C  59.56400 22.17300 45.04700
C  59.36200 25.38500 43.66900
C  60.24600 26.48700 44.25100
N  54.02000 25.72900 44.38700
C  54.99700 26.61600 44.58500
C  54.49400 27.99500 44.68700
C  53.16600 27.83100 44.24900
C  52.94400 26.43600 44.03300
C  55.20900 29.32200 45.22600
C  51.85800 28.52300 44.01100
O  51.51700 29.72800 44.13500
C  50.92000 27.56900 43.38100
C  50.77800 28.05100 41.95900
O  51.65600 28.27700 41.13800
O  49.43200 28.22700 41.73700
C  49.15800 29.19200 40.66900
H  51.01400 20.59200 42.86300
H  57.26000 20.74300 43.87100
H  56.97100 27.06900 44.90500
H  49.16400 24.97000 42.85500
H  49.61000 22.48400 41.65900
H  48.58300 23.30400 44.28300
H  49.15400 21.57500 43.94700
H  47.84800 22.27900 43.01000
H  49.58400 25.89100 40.59700
H  49.15200 24.15000 40.30900
H  50.95600 23.58400 39.33500
H  51.99400 24.48400 40.29800
H  53.18000 17.96100 41.94300
H  51.78000 18.58400 42.89600
H  52.92600 17.64600 43.82200
H  57.33700 18.82800 45.45800
H  57.92600 18.54000 43.90900
H  57.37100 17.14900 44.96600
H  58.73500 23.00200 43.19700
H  58.82900 24.72000 45.68100
H  60.37900 21.75300 44.45700
H  58.94300 21.43200 45.55200
H  59.92300 22.76700 45.88700
H  58.64700 25.74800 42.93100
H  60.08500 24.77000 43.13300
H  61.28300 26.60600 43.93600
H  60.33600 26.33800 45.32700
H  59.82300 27.47700 44.08300
H  55.65900 29.97800 44.48000
H  56.00500 28.91400 45.84900
H  54.44200 29.74000 45.87700
H  49.96900 27.44600 43.89900
H  49.29700 28.84600 39.64400
H  49.80300 30.06600 40.74400
H  48.09500 29.43200 40.69100

