158

Mg 24.58100 -5.34600 45.51300
C  26.60100 -2.97500 43.80300
C  21.90200 -4.32300 43.28000
C  22.98500 -8.29500 46.04000
C  27.38700 -6.31900 47.31400
N  24.26600 -3.75100 43.82200
C  25.30800 -2.96700 43.23600
C  24.72900 -2.01800 42.15700
C  23.18300 -2.35900 42.24900
C  23.05300 -3.53000 43.26500
C  22.24900 -1.15600 42.64800
C  25.38000 -2.35300 40.74500
C  25.70700 -1.12400 39.95000
H  25.08400 -0.90400 38.60900
N  22.72900 -6.17600 44.78400
C  21.72400 -5.53600 43.93500
C  20.58200 -6.40400 43.85800
C  20.87300 -7.56400 44.65200
C  22.25000 -7.39700 45.16400
C  19.37900 -6.11900 43.17900
C  19.91900 -8.73400 44.91600
O  18.82300 -8.77500 44.33800
C  20.18800 -9.93400 45.78500
N  25.10900 -7.07900 46.47500
C  24.22800 -8.13700 46.61800
C  24.78100 -9.11500 47.61100
C  26.19800 -8.51000 47.96000
C  26.26500 -7.18100 47.25800
C  23.83800 -9.16600 48.91700
C  27.40900 -9.48900 47.56300
C  28.25200 -10.18400 48.66900
N  26.59100 -4.67200 45.72000
C  27.65400 -5.13200 46.54500
C  28.83800 -4.39000 46.30600
C  28.44900 -3.50500 45.26100
C  27.14800 -3.78000 44.86800
C  30.03900 -4.58800 47.04600
C  28.99000 -2.46000 44.33800
O  30.12500 -2.05000 44.21700
C  27.74900 -2.03000 43.39100
C  27.58800 -0.53600 43.58300
O  27.53800 0.11400 44.64300
O  27.69200 0.03500 42.29100
C  27.38900 1.43900 42.27200
H  21.08300 -4.03800 42.61600
H  22.48100 -9.22100 46.32500
H  28.24000 -6.71200 47.87000
H  24.75600 -0.93800 42.30600
H  22.76500 -2.79700 41.34200
H  21.36000 -1.27000 42.02700
H  22.77400 -0.21900 42.46500
H  21.92800 -1.20100 43.68800
H  24.73000 -2.87300 40.04100
H  26.27400 -2.96900 40.83200
H  26.78100 -0.96800 39.84700
H  25.51800 -0.18500 40.47000
H  19.30200 -6.84300 42.36800
H  19.52300 -5.09700 42.82900
H  18.48700 -6.16900 43.80400
H  21.08300 -10.48100 45.48700
H  19.25700 -10.49400 45.87100
H  20.42400 -9.58600 46.79100
H  24.87200 -10.14000 47.25000
H  26.30500 -8.20900 49.00300
H  23.61000 -10.19800 49.18100
H  22.88500 -8.66300 48.75400
H  24.39600 -8.82600 49.78900
H  28.09100 -9.01800 46.85600
H  26.87600 -10.31300 47.08900
H  29.25000 -9.75200 48.61200
H  28.39400 -11.26500 48.66400
H  27.75200 -9.89400 49.59300
H  30.82500 -3.91200 46.70800
H  30.42500 -5.60600 47.00700
H  29.81800 -4.41200 48.09900
H  28.02800 -2.19400 42.35000
H  28.26600 2.07300 42.40000
H  26.49000 1.72500 42.81900
H  26.98400 1.76300 41.31300
Mg 35.80300 49.35300 24.09900
C  35.93800 47.62000 27.28200
C  34.49500 51.98100 25.71500
C  35.45900 50.63400 21.15200
C  37.01500 46.26200 22.66600
N  35.29700 49.73000 26.26800
C  35.48200 48.98300 27.37800
C  35.14700 49.74200 28.64200
C  34.54700 51.06700 28.09900
C  34.80400 50.94700 26.54100
C  32.97400 51.23600 28.53800
C  36.31100 49.94500 29.68000
C  36.19500 49.13400 31.05600
H  34.75600 49.10400 31.63900
N  35.25400 51.20900 23.52200
C  34.69000 52.15300 24.32600
C  34.45900 53.35400 23.56700
C  34.74500 52.96100 22.23000
C  35.16800 51.53200 22.24800
C  34.10400 54.66200 24.13800
C  34.80300 53.79800 21.01600
O  35.08600 53.37500 19.87200
C  34.59100 55.28600 21.15300
N  36.07300 48.50900 22.25200
C  35.88800 49.29900 21.16400
C  36.28100 48.56100 19.90100
C  37.28100 47.55900 20.53800
C  36.69500 47.34700 21.85300
C  35.08100 48.00600 19.11100
C  38.64200 48.26600 20.84000
C  39.81500 47.38800 20.41100
N  36.32600 47.29800 24.78000
C  36.86000 46.27100 24.04400
C  37.17900 45.23000 24.94900
C  36.84500 45.70500 26.23000
C  36.25200 46.95600 26.05400
C  37.72500 43.86300 24.54800
C  36.95400 45.43900 27.64300
O  37.37700 44.40200 28.12300
C  36.27800 46.64500 28.43500
C  35.12800 46.27200 29.32400
O  33.96300 46.48000 29.08200
O  35.58500 45.66200 30.39100
C  34.60900 44.97900 31.27100
H  34.07400 52.84100 26.24100
H  35.28600 50.97400 20.12900
H  37.44700 45.35300 22.24300
H  34.33700 49.13800 29.05100
H  35.12600 51.92300 28.44300
H  32.85900 52.04300 29.26100
H  32.65400 50.30900 29.01300
H  32.20500 51.52500 27.82100
H  36.44600 50.99100 29.95500
H  37.22000 49.54100 29.23400
H  36.80300 49.72700 31.73900
H  36.70500 48.19300 30.85000
H  34.99700 55.07200 24.61000
H  33.39700 54.48400 24.94900
H  33.60700 55.24900 23.36600
H  34.79900 55.74000 20.18400
H  35.25800 55.68600 21.91700
H  33.54300 55.45800 21.39600
H  36.77800 49.13600 19.12000
H  37.37500 46.59200 20.04400
H  34.10800 48.27300 19.52400
H  35.12400 46.91700 19.11700
H  35.04000 48.30100 18.06300
H  38.89600 48.30000 21.89900
H  38.82600 49.24500 20.39700
H  39.64900 46.78000 19.52100
H  39.96800 46.59800 21.14600
H  40.70700 47.99400 20.25300
H  38.52400 44.06300 23.83300
H  36.92100 43.29500 24.08100
H  38.03800 43.14000 25.30000
H  37.11300 47.05200 29.00600
H  34.23200 45.46800 32.16900
H  34.99100 44.04000 31.67100
H  33.70200 44.71100 30.72900

