158

Mg -2.97700 17.63500 26.72900
C  -3.32500 15.31500 29.47900
C  -3.56900 20.14000 28.97700
C  -3.25100 19.75900 24.16800
C  -3.14600 14.88700 24.67500
N  -3.46900 17.69300 29.02000
C  -3.45700 16.62400 29.92100
C  -3.60800 17.12100 31.39500
C  -3.80200 18.66200 31.15200
C  -3.69900 18.87100 29.58900
C  -5.10000 19.18000 31.77700
C  -2.36400 16.79600 32.31500
C  -2.35200 17.64500 33.59100
H  -1.89500 16.95700 34.90300
N  -3.21000 19.66600 26.64100
C  -3.30300 20.52400 27.64500
C  -2.94800 21.84400 27.10600
C  -2.82400 21.78600 25.69000
C  -3.15300 20.41900 25.44200
C  -2.89100 23.07600 28.02200
C  -2.44200 22.88700 24.73600
O  -2.30700 22.65400 23.53800
C  -2.32200 24.30800 25.16000
N  -3.39100 17.34500 24.71400
C  -3.35600 18.36000 23.86700
C  -3.59800 17.90500 22.40000
C  -3.45900 16.29700 22.57900
C  -3.28100 16.14900 24.07800
C  -4.69100 18.58600 21.56100
C  -2.23600 15.75100 21.81900
C  -0.86600 16.31900 22.25600
N  -3.08100 15.54000 26.95900
C  -3.15400 14.57900 26.00500
C  -3.05400 13.25200 26.57400
C  -3.19200 13.52200 27.93700
C  -3.19800 14.92000 28.14000
C  -2.96100 11.97500 25.85400
C  -3.37600 12.83200 29.22500
O  -3.47200 11.68300 29.58100
C  -3.42300 14.01700 30.24600
C  -2.29900 13.77300 31.10600
O  -1.12900 14.02600 30.89800
O  -2.73100 13.08400 32.20800
C  -1.67900 12.77900 33.23100
H  -3.54400 20.96800 29.69000
H  -3.41400 20.41100 23.30700
H  -3.24100 13.98000 24.07300
H  -4.49400 16.63000 31.79800
H  -3.09600 19.36800 31.58900
H  -5.68900 19.64800 30.98800
H  -4.88200 19.92400 32.54300
H  -5.69300 18.42200 32.28800
H  -1.41700 16.76100 31.77900
H  -2.65400 15.83400 32.73700
H  -3.15700 18.36400 33.74600
H  -1.55300 18.34300 33.33800
H  -1.89900 23.52400 27.96300
H  -3.15600 22.90200 29.06500
H  -3.59000 23.88300 27.79900
H  -2.40500 24.92900 24.26800
H  -1.42100 24.31900 25.77400
H  -3.17500 24.57800 25.78200
H  -2.67600 18.24100 21.92600
H  -4.39900 15.83500 22.27800
H  -5.15800 17.98100 20.78400
H  -4.34900 19.54100 21.16100
H  -5.57600 18.79200 22.16300
H  -2.28700 15.86500 20.73700
H  -2.08000 14.69200 22.02600
H  -0.90900 17.13300 22.98000
H  -0.34000 16.61600 21.34900
H  -0.31500 15.52600 22.76300
H  -3.74200 12.02700 25.09500
H  -3.12400 11.17200 26.57200
H  -1.98900 11.91900 25.36400
H  -4.34800 13.95500 30.82000
H  -2.17100 11.90100 33.64900
H  -1.57600 13.65700 33.86800
H  -0.71600 12.46100 32.83100
Mg 26.00100 1.58200 29.91000
C  28.16900 1.21300 32.45100
C  23.44100 1.75900 32.28700
C  23.65900 1.57300 27.44700
C  28.35500 0.77800 27.62800
N  25.75100 1.29500 32.21500
C  26.87000 1.36200 32.97400
C  26.55300 1.62700 34.44700
C  24.98500 1.40600 34.40600
C  24.65800 1.53300 32.88200
C  24.39300 0.01700 34.94800
C  27.04400 2.98400 34.99700
C  27.02100 2.98200 36.55500
H  26.21900 4.09800 37.26000
N  23.85500 1.65100 29.85100
C  23.01300 1.73300 30.90600
C  21.65100 1.83900 30.47400
C  21.62300 1.68600 29.03700
C  23.03800 1.65800 28.74800
C  20.48400 2.06200 31.37900
C  20.45600 1.58900 28.05000
O  20.61200 1.38900 26.85800
C  19.08200 1.90600 28.48900
N  26.00600 1.31900 27.84500
C  24.98400 1.58300 27.04300
C  25.39000 1.50800 25.63100
C  26.88200 1.32700 25.65500
C  27.10000 1.01000 27.11900
C  24.63700 0.43900 24.68700
C  27.89000 2.42400 25.21200
C  27.65400 3.89900 25.59300
N  27.86100 1.05300 29.97500
C  28.75800 0.79500 28.99400
C  30.11100 0.54800 29.56800
C  29.90800 0.81100 30.95500
C  28.55300 1.06600 31.11800
C  31.34400 0.20800 28.76500
C  30.53600 0.81100 32.26000
O  31.66600 0.49500 32.58400
C  29.42400 1.21600 33.26900
C  29.37800 0.22100 34.42700
O  28.90000 -0.89100 34.33900
O  29.84100 0.79400 35.54300
C  29.63600 0.17600 36.88300
H  22.61200 1.99000 32.96000
H  22.94100 1.73000 26.64000
H  29.07400 0.57200 26.83200
H  26.91200 0.83300 35.10100
H  24.47600 2.15300 35.01600
H  25.15900 -0.75200 34.84500
H  23.57100 -0.30300 34.30800
H  23.98600 -0.01500 35.95800
H  26.40000 3.80600 34.68400
H  28.06300 3.14800 34.64600
H  28.02100 3.19000 36.93700
H  26.60900 2.02100 36.86300
H  19.83200 1.26900 31.01000
H  20.08000 3.05100 31.16200
H  20.70200 1.91200 32.43600
H  18.87100 0.95000 28.96900
H  18.45800 2.01600 27.60200
H  18.90000 2.74200 29.16400
H  25.23400 2.49500 25.19600
H  27.17400 0.39200 25.17700
H  23.66800 0.26400 25.15400
H  25.33600 -0.39300 24.60600
H  24.54000 0.96500 23.73700
H  27.82200 2.22200 24.14300
H  28.91000 2.14500 25.47500
H  27.07200 4.09000 26.49500
H  27.33100 4.34100 24.65100
H  28.66200 4.29300 25.73000
H  31.11000 -0.17100 27.77100
H  31.88400 -0.57300 29.30000
H  31.93900 1.11600 28.67200
H  29.64400 2.23500 33.58700
H  29.72600 -0.91000 36.88500
H  28.63700 0.39700 37.25900
H  30.32700 0.63400 37.59100

