158

Mg 2.95900 -0.88400 44.00900
C  6.46300 -0.31600 43.70600
C  2.49800 1.73300 41.71600
C  -0.26500 -1.87700 43.79600
C  3.71500 -3.80700 45.81500
N  4.38900 0.56400 42.95300
C  5.69300 0.62100 42.97500
C  6.20200 1.63400 41.93600
C  4.90500 2.28800 41.41400
C  3.78700 1.52600 42.08400
C  4.76000 3.85000 41.64200
C  7.12500 1.00500 40.80600
C  8.38400 1.77900 40.42600
H  8.21100 2.37900 39.01000
N  1.33800 -0.11100 43.01600
C  1.35700 0.97400 42.14500
C  -0.03400 1.25700 41.79500
C  -0.86200 0.29600 42.43700
C  0.03300 -0.61900 43.16000
C  -0.42100 2.48800 41.05300
C  -2.32200 0.24800 42.46000
O  -2.90100 1.10800 41.83500
C  -3.17900 -0.73000 43.21300
N  1.83300 -2.59200 44.79600
C  0.51900 -2.69600 44.62700
C  0.12400 -4.04200 45.04900
C  1.24800 -4.51000 46.05000
C  2.32900 -3.62500 45.50300
C  -1.23000 -4.13700 45.74200
C  1.53500 -6.08200 45.87600
C  1.88800 -6.74500 47.24500
N  4.70700 -1.90700 44.61600
C  4.85600 -3.05600 45.30900
C  6.27000 -3.33200 45.55500
C  6.95500 -2.23000 44.98000
C  5.92700 -1.44700 44.36400
C  6.86100 -4.47000 46.24400
C  8.24900 -1.62200 44.75600
O  9.41000 -2.01700 44.90200
C  7.98200 -0.34600 43.86000
C  8.25500 0.86400 44.66600
O  8.13100 1.02500 45.90200
O  8.65500 1.87200 43.80200
C  8.92300 3.18300 44.35900
H  2.13000 2.56500 41.11100
H  -1.25700 -2.29700 43.61900
H  4.06500 -4.74400 46.25200
H  6.79300 2.43100 42.38700
H  4.77500 2.08700 40.35100
H  4.12000 4.05700 42.50000
H  4.37200 4.46000 40.82600
H  5.74400 4.14500 42.00600
H  6.50200 0.85800 39.92300
H  7.40700 -0.02900 41.00800
H  9.29600 1.19800 40.55700
H  8.42700 2.67100 41.05000
H  -1.16000 2.26400 40.28400
H  0.40200 2.87300 40.45200
H  -0.84100 3.24800 41.71200
H  -2.93900 -0.75200 44.27600
H  -3.01600 -1.68900 42.72100
H  -4.24900 -0.52500 43.26300
H  0.10500 -4.70200 44.18200
H  1.04000 -4.12600 47.04900
H  -1.05700 -4.65600 46.68500
H  -1.90500 -4.71900 45.11500
H  -1.72600 -3.18000 45.89800
H  2.38400 -6.30300 45.22800
H  0.67400 -6.51100 45.36200
H  1.13200 -7.50300 47.45000
H  2.01300 -6.03700 48.06400
H  2.86200 -7.19300 47.04800
H  7.48800 -5.05500 45.57200
H  6.08200 -5.11400 46.65100
H  7.54200 -4.18000 47.04500
H  8.57300 -0.46500 42.95200
H  8.32100 3.29600 45.26100
H  8.72500 3.91200 43.57400
H  9.98800 3.08200 44.57100
Mg 43.80100 4.15600 47.52300
C  41.55600 6.91700 47.27300
C  41.01700 2.19200 48.03600
C  45.72700 1.48200 47.26400
C  46.36300 6.28500 46.87300
N  41.54400 4.57100 47.62100
C  40.90600 5.74700 47.44300
C  39.40000 5.55700 47.63800
C  39.22500 4.03600 47.90900
C  40.66600 3.53800 47.90600
C  38.28700 3.60500 49.10700
C  38.47800 6.11800 46.54900
C  38.96900 6.09300 45.13300
H  38.53900 7.21000 44.16900
N  43.43100 2.09900 47.70300
C  42.22500 1.50600 47.89200
C  42.51400 0.05800 48.02200
C  43.84900 -0.20100 47.69900
C  44.39800 1.14500 47.58700
C  41.48300 -1.00700 48.30200
C  44.52900 -1.55800 47.70700
O  43.89800 -2.55900 48.00300
C  45.89300 -1.84800 47.26700
N  45.69800 3.91200 46.84800
C  46.27800 2.67500 47.04300
C  47.81600 2.82400 47.08700
C  48.04700 4.39700 46.88800
C  46.63500 4.92000 46.85500
C  48.54800 2.18400 48.36400
C  48.87800 4.73200 45.56900
C  50.32500 4.99100 45.86100
N  43.96300 6.20800 46.97000
C  45.13600 7.00100 46.86500
C  44.76600 8.40700 46.76100
C  43.39400 8.39500 46.86600
C  42.90800 7.09900 46.98100
C  45.69700 9.58500 46.63800
C  42.29400 9.23700 47.06000
O  42.27800 10.46600 47.13900
C  40.98200 8.32200 47.14600
C  40.07900 8.72800 48.33000
O  40.24600 8.46900 49.47800
O  38.96600 9.39200 47.78900
C  38.07300 9.97300 48.73800
H  40.11700 1.57600 48.09400
H  46.40800 0.63100 47.20800
H  47.25000 6.90800 46.74500
H  39.10500 6.08800 48.54300
H  38.69700 3.59300 47.06400
H  37.91000 4.53700 49.52800
H  38.85800 3.05100 49.85200
H  37.48500 2.92900 48.80900
H  38.07700 7.10900 46.76200
H  37.53400 5.57800 46.47600
H  38.49200 5.22000 44.68900
H  40.02900 5.84300 45.07900
H  41.65400 -1.44500 49.28500
H  41.51700 -1.60900 47.39400
H  40.45700 -0.64000 48.26400
H  46.73500 -1.45700 47.83700
H  46.00700 -1.41900 46.27100
H  45.93800 -2.93500 47.19300
H  48.32300 2.28000 46.29000
H  48.51900 4.66700 47.83200
H  47.75800 1.94500 49.07600
H  49.26900 2.80700 48.89300
H  49.00000 1.25600 48.01600
H  48.54600 5.71400 45.23200
H  48.71600 4.03600 44.74700
H  50.89000 4.83700 44.94100
H  50.76100 4.40900 46.67300
H  50.38300 6.03600 46.16700
H  46.49400 9.29800 45.95100
H  46.18600 9.66800 47.60900
H  45.19600 10.51900 46.38400
H  40.35400 8.35100 46.25600
H  38.59000 10.32100 49.63200
H  37.39800 9.17000 49.03400
H  37.62700 10.79100 48.17300

