158

Mg 7.50200 53.52500 41.44200
C  6.77700 50.00500 41.05100
C  10.51400 52.96200 40.09100
C  7.86200 56.87500 40.85100
C  4.20900 54.01900 42.25500
N  8.38300 51.69400 40.50900
C  8.08400 50.38500 40.54200
C  9.20600 49.44700 40.07200
C  10.48500 50.40900 40.21500
C  9.75600 51.79900 40.23600
C  11.49700 50.26900 41.35700
C  9.05000 48.81500 38.70500
C  8.31200 49.54800 37.57000
H  7.70600 48.72700 36.46900
N  9.05500 54.73700 40.90800
C  10.21900 54.28200 40.32600
C  11.10100 55.42200 40.17200
C  10.40000 56.58200 40.48100
C  9.02100 56.11000 40.76300
C  12.51300 55.25200 39.58200
C  10.92300 58.04300 40.30200
O  12.08100 58.17400 39.99500
C  10.00100 59.21400 40.49600
N  6.17600 55.20800 41.24800
C  6.56900 56.47300 41.11700
C  5.42600 57.49600 41.18300
C  4.25200 56.57500 41.74900
C  4.93500 55.15400 41.79600
C  5.70700 58.66000 42.22700
C  2.92400 56.55300 40.99700
C  2.87000 55.99300 39.57100
N  5.85500 52.27100 41.75900
C  4.59700 52.65300 42.10900
C  3.79900 51.47200 42.30700
C  4.63300 50.40600 41.95500
C  5.88400 50.97700 41.55800
C  2.35200 51.43100 42.46900
C  4.73000 48.97900 41.78900
O  3.88600 48.12800 41.93000
C  6.12100 48.61500 41.23900
C  5.87100 47.95100 39.88800
O  5.23900 48.53500 39.01400
O  6.28100 46.62500 39.84700
C  5.86900 45.82200 38.68900
H  11.55600 52.76900 39.82600
H  7.84200 57.91900 40.53000
H  3.17600 54.10400 42.59600
H  9.43800 48.61100 40.73300
H  11.08300 50.32900 39.30800
H  12.45100 49.92400 40.95900
H  11.22000 49.40300 41.95900
H  11.46500 51.22600 41.87800
H  8.55300 47.88200 38.97100
H  10.05300 48.58500 38.34600
H  9.00700 50.21100 37.05500
H  7.52000 50.13100 38.04000
H  13.06500 54.33600 39.79100
H  13.24900 55.92700 40.01900
H  12.53400 55.61100 38.55300
H  9.28200 59.34100 39.68700
H  10.69000 60.01600 40.76000
H  9.56900 59.07500 41.48700
H  5.21900 57.82200 40.16400
H  4.04500 56.88800 42.77200
H  6.69000 59.06500 41.99000
H  5.60900 58.23300 43.22500
H  5.06500 59.54000 42.19800
H  2.55200 57.57500 41.06400
H  2.24700 55.96800 41.61900
H  3.81800 55.59500 39.21100
H  2.53600 56.74700 38.85800
H  2.13900 55.18500 39.60100
H  1.82600 51.97800 41.68700
H  1.97700 51.78100 43.43100
H  2.11800 50.37900 42.30800
H  6.80600 48.05400 41.87500
H  6.70600 45.26100 38.27500
H  5.43200 46.41500 37.88500
H  5.18100 44.99900 38.88000
Mg 10.26400 47.23900 26.25100
C  8.22900 47.29000 29.14200
C  12.77800 48.54500 28.06200
C  12.16500 47.30000 23.41700
C  7.37300 46.82700 24.32100
N  10.50500 47.58500 28.40400
C  9.54700 47.60800 29.40000
C  10.10800 48.16000 30.77600
C  11.36600 48.91700 30.20600
C  11.62500 48.22900 28.85100
C  11.18100 50.51200 30.11700
C  10.45000 47.06000 31.81000
C  10.61200 47.41900 33.32900
H  10.41900 46.22400 34.31300
N  12.20400 47.70000 25.86500
C  13.11000 48.19100 26.74300
C  14.41400 48.30200 26.13600
C  14.28600 47.83000 24.77000
C  12.80100 47.61200 24.60100
C  15.67700 48.71800 26.82000
C  15.30500 47.69600 23.57500
O  15.05100 47.47300 22.37800
C  16.86200 47.88400 23.88100
N  9.86600 46.94400 24.12200
C  10.81400 47.08700 23.11400
C  10.13300 46.83700 21.74800
C  8.67500 46.46700 22.16400
C  8.64200 46.86500 23.62400
C  10.30100 47.97900 20.75200
C  8.10400 45.01500 21.82300
C  8.78800 43.84000 22.53000
N  8.27300 47.04500 26.66500
C  7.20200 46.79800 25.75200
C  6.01800 46.41800 26.48700
C  6.38400 46.71100 27.81500
C  7.72600 47.07400 27.84500
C  4.63300 45.99400 25.90600
C  5.89900 46.70600 29.22900
O  4.83300 46.48000 29.66800
C  7.11500 47.11000 30.10400
C  7.33700 45.91000 31.00300
O  7.81600 44.83000 30.71600
O  6.76300 46.16800 32.21700
C  6.87900 45.02000 33.18300
H  13.58100 49.04800 28.60400
H  12.81600 47.41200 22.54800
H  6.43400 46.84700 23.76400
H  9.42200 48.86500 31.24600
H  12.27300 48.77000 30.79100
H  11.46100 50.81200 29.10700
H  11.84100 50.94500 30.86900
H  10.21100 50.93100 30.38200
H  11.36000 46.67600 31.34900
H  9.76100 46.23800 31.61700
H  9.95300 48.21600 33.67300
H  11.62000 47.82300 33.41800
H  16.51800 48.03700 26.94300
H  15.43100 49.05300 27.82800
H  16.13100 49.63500 26.44400
H  17.03400 48.87700 24.29700
H  17.38300 47.65700 22.95100
H  17.26500 47.23200 24.65600
H  10.60600 45.99000 21.24900
H  7.93800 47.12000 21.69700
H  10.89600 48.71800 21.28800
H  9.33200 48.44000 20.56100
H  10.92100 47.75500 19.88400
H  8.22200 44.78100 20.76500
H  7.05300 44.99300 22.11100
H  9.39000 44.13700 23.38900
H  9.36000 43.16500 21.89400
H  8.01600 43.15100 22.87300
H  4.15300 46.85700 25.44400
H  3.93700 45.46800 26.55900
H  4.90800 45.24200 25.16600
H  6.86200 48.09200 30.50500
H  6.59300 45.11600 34.23100
H  7.95200 44.83200 33.18100
H  6.27700 44.14800 32.92600

