158

Mg 2.45500 -2.45500 45.06200
C  5.76600 -1.81300 44.44000
C  1.62000 0.15300 42.84000
C  -0.85500 -3.42100 45.07200
C  3.29100 -5.51700 46.55900
N  3.54300 -0.95500 43.94500
C  4.92500 -0.89700 43.81900
C  5.45200 0.16200 42.81200
C  4.06200 0.80900 42.38500
C  3.00600 -0.08000 43.08200
C  3.93400 2.22000 42.93400
C  6.30900 -0.35500 41.60100
C  7.72200 0.27500 41.47000
H  8.01800 1.01600 40.21200
N  0.62200 -1.54400 44.33300
C  0.51800 -0.53600 43.38200
C  -0.85300 -0.31300 43.18900
C  -1.63200 -1.21700 43.96900
C  -0.64400 -2.12200 44.55400
C  -1.28900 0.88000 42.25800
C  -3.14100 -1.17200 44.14000
O  -3.85700 -0.37000 43.48800
C  -3.73000 -2.01900 45.11800
N  1.40000 -4.34000 45.58200
C  0.04300 -4.37100 45.58800
C  -0.48100 -5.66800 46.26500
C  0.85700 -6.39300 46.67300
C  1.93700 -5.46600 46.14000
C  -1.62300 -5.45200 47.34300
C  0.91300 -7.83000 46.10700
C  0.53200 -9.03200 47.07000
N  4.16300 -3.44700 45.52800
C  4.33500 -4.70600 46.06700
C  5.79100 -4.97900 46.18400
C  6.43400 -3.84100 45.55000
C  5.39700 -3.01300 45.17800
C  6.50600 -6.20500 46.75200
C  7.72000 -3.20600 45.19800
O  8.88800 -3.50100 45.43300
C  7.30800 -1.89700 44.45900
C  7.76200 -0.75200 45.25800
O  7.61700 -0.64400 46.46600
O  8.45400 0.19000 44.46300
C  8.69400 1.46700 45.05900
H  1.49000 0.84900 42.00900
H  -1.91100 -3.60300 45.28400
H  3.60400 -6.47200 46.98700
H  5.98700 0.90000 43.41000
H  3.81600 0.82700 41.32300
H  3.74200 2.89100 42.09700
H  4.74100 2.50300 43.60800
H  3.04600 2.37800 43.54600
H  5.80500 -0.12600 40.66100
H  6.28200 -1.43700 41.73000
H  8.39300 -0.56000 41.67200
H  7.98800 1.00200 42.23700
H  -2.18200 0.49700 41.76400
H  -0.59600 1.09200 41.44400
H  -1.41700 1.82600 42.78400
H  -3.16300 -2.04300 46.04800
H  -3.77400 -3.01100 44.66800
H  -4.77200 -1.75700 45.29900
H  -1.00600 -6.21500 45.48200
H  0.94800 -6.55300 47.74800
H  -2.07600 -4.46200 47.30200
H  -1.27800 -5.39700 48.37500
H  -2.42800 -6.18100 47.25100
H  1.95100 -7.98300 45.81200
H  0.36000 -8.03400 45.19000
H  -0.42000 -9.38800 46.67800
H  0.27900 -8.65500 48.06100
H  1.36900 -9.72700 47.13600
H  6.09000 -6.54500 47.70100
H  7.56500 -5.98500 46.88400
H  6.42300 -6.92500 45.93900
H  7.79900 -1.97600 43.48900
H  7.80500 1.80800 45.59000
H  8.85100 2.21300 44.28000
H  9.53500 1.39300 45.74800
Mg 26.06900 0.58300 30.10700
C  28.12000 0.73200 33.02000
C  23.29600 1.08700 32.22200
C  24.02800 0.05900 27.59900
C  28.85000 -0.19600 28.16800
N  25.74300 0.72900 32.42500
C  26.69900 0.85700 33.37100
C  26.12000 1.32900 34.75400
C  24.64500 1.35500 34.40400
C  24.54600 0.99800 32.94200
C  23.71500 0.46200 35.33300
C  26.70300 2.69700 35.19200
C  27.64100 2.62200 36.38200
H  27.08000 3.08600 37.73900
N  23.93300 0.64200 29.94900
C  23.01900 0.90700 30.89800
C  21.71000 0.85300 30.28500
C  21.83800 0.64400 28.91600
C  23.30400 0.42400 28.73800
C  20.40900 1.08100 31.06900
C  20.77200 0.58400 27.81400
O  21.06100 0.35700 26.61700
C  19.35300 0.60100 28.13800
N  26.41400 0.18200 28.12000
C  25.36800 -0.04400 27.29400
C  25.82200 -0.40700 25.89500
C  27.36900 0.01800 25.96400
C  27.62000 -0.07800 27.45000
C  25.52900 -1.83400 25.54300
C  27.88700 1.38900 25.36200
C  28.59400 1.27500 24.02400
N  28.07900 0.27800 30.45800
C  29.09600 -0.04600 29.56400
C  30.38400 -0.03800 30.26700
C  30.02500 0.24600 31.62800
C  28.60900 0.42400 31.69900
C  31.71700 -0.37600 29.75200
C  30.50600 0.41400 32.94900
O  31.67800 0.47600 33.32800
C  29.29700 0.66800 33.89300
C  29.27100 -0.57600 34.64000
O  28.45500 -1.50400 34.50500
O  30.23100 -0.54800 35.65000
C  30.08800 -1.50000 36.70600
H  22.53900 1.30000 32.98000
H  23.37000 -0.15300 26.75300
H  29.76300 -0.46700 27.63400
H  26.33500 0.61500 35.54900
H  24.18700 2.34300 34.44500
H  23.24500 -0.34500 34.77100
H  22.85600 1.08000 35.59300
H  24.20800 0.05100 36.21400
H  25.91200 3.40000 35.45100
H  27.26200 3.21300 34.41100
H  28.46900 3.30300 36.18500
H  28.02500 1.62800 36.61100
H  19.65500 0.37600 30.71900
H  20.12400 2.12500 30.93900
H  20.51100 0.81900 32.12200
H  18.70200 0.60100 27.26400
H  19.15100 1.48300 28.74500
H  19.12500 -0.24800 28.78300
H  25.27100 0.20700 25.18300
H  27.96400 -0.79000 25.53900
H  25.01000 -2.35000 26.35000
H  26.46400 -2.33000 25.28200
H  24.98800 -1.90400 24.59900
H  28.51800 1.96800 26.03700
H  26.95600 1.94100 25.23600
H  27.89600 1.34100 23.19000
H  29.13500 0.32900 24.00400
H  29.45500 1.93900 24.10200
H  31.83300 -0.81700 28.76200
H  31.99400 -1.16800 30.44800
H  32.30700 0.53600 29.66600
H  29.44800 1.65600 34.32800
H  29.88800 -2.51000 36.34900
H  29.16400 -1.23400 37.22000
H  30.95600 -1.50100 37.36500

