158

Mg 34.91000 2.12300 29.34200
C  32.48600 3.38900 31.70700
C  37.25300 2.20200 31.61500
C  37.01600 1.56800 26.77400
C  32.37800 2.68400 26.89500
N  34.82400 2.69200 31.39200
C  33.82600 3.11500 32.20300
C  34.26900 3.18000 33.70100
C  35.85900 2.95600 33.63700
C  35.99500 2.53000 32.14700
C  36.75000 4.10200 33.98700
C  33.45500 2.24300 34.66400
C  32.79800 2.71400 35.95900
H  33.45300 3.95400 36.65800
N  36.78800 1.75000 29.24900
C  37.63500 1.85100 30.32400
C  38.95200 1.45600 29.83000
C  38.85800 1.26500 28.48100
C  37.49600 1.53400 28.05200
C  40.21300 1.34700 30.72900
C  39.96800 0.86200 27.48700
O  39.72600 0.41500 26.39800
C  41.34300 0.61100 28.01900
N  34.74100 2.27300 27.11600
C  35.73000 1.81200 26.30300
C  35.25000 1.82600 24.84800
C  33.69600 1.87300 24.98100
C  33.56500 2.25800 26.41400
C  35.87600 3.04800 23.99700
C  33.09800 0.44400 24.78700
C  31.80300 0.36200 23.91500
N  32.81600 2.83200 29.27500
C  31.94900 3.04100 28.18100
C  30.65200 3.60500 28.68200
C  30.87500 3.75400 30.04800
C  32.15100 3.27100 30.35900
C  29.45100 4.07900 27.85800
C  30.35000 4.25400 31.33200
O  29.25600 4.79200 31.50400
C  31.29700 4.04200 32.45800
C  31.58800 5.38300 33.03100
O  32.29400 6.21800 32.47800
O  30.82900 5.46500 34.13200
C  31.03900 6.68800 34.87000
H  38.12400 2.26500 32.27100
H  37.73500 1.38700 25.97200
H  31.52800 2.69600 26.21000
H  33.95100 4.19300 33.94800
H  36.16800 2.03800 34.13600
H  36.10600 4.83700 34.47200
H  37.18400 4.61700 33.13000
H  37.54200 3.92500 34.71400
H  34.15600 1.43500 34.87100
H  32.57700 1.86200 34.14200
H  32.70900 1.88300 36.65900
H  31.76800 3.03400 35.79900
H  40.47700 0.29200 30.79400
H  39.96200 1.83600 31.67100
H  40.99800 1.96500 30.29200
H  41.82400 1.52700 28.36300
H  41.86900 0.17000 27.17200
H  41.40400 -0.05200 28.88300
H  35.42300 0.84900 24.39600
H  33.22700 2.61800 24.33800
H  36.34400 2.78800 23.04800
H  36.58300 3.62800 24.58900
H  35.09200 3.77800 23.79700
H  32.90500 0.14000 25.81600
H  33.87300 -0.19100 24.35700
H  31.52800 1.33600 23.51100
H  30.98100 0.03700 24.55300
H  31.95900 -0.24700 23.02400
H  28.62900 3.38300 28.02600
H  29.71800 4.12400 26.80200
H  29.17700 5.10800 28.09200
H  30.84000 3.36600 33.18000
H  30.50700 7.43000 34.27500
H  32.10300 6.86700 35.02600
H  30.47000 6.66800 35.79900
Mg 17.51600 52.36300 26.77100
C  19.40800 50.82800 29.45900
C  15.04000 53.01700 29.02900
C  15.62900 53.49100 24.21500
C  19.86100 51.20100 24.56600
N  17.20300 51.74400 28.99600
C  18.16000 51.36200 29.88100
C  17.62400 51.57900 31.30600
C  16.13100 52.01500 31.08000
C  16.12800 52.33100 29.58300
C  15.06100 51.00100 31.58900
C  18.47900 52.70400 31.90600
C  18.80700 52.55500 33.39200
H  17.75400 53.10800 34.38000
N  15.61700 53.16600 26.66200
C  14.75700 53.45500 27.71900
C  13.64600 54.28100 27.30600
C  13.75400 54.38000 25.86900
C  15.03600 53.68900 25.48500
C  12.54900 54.70500 28.28000
C  12.77100 54.91800 24.89700
O  13.09600 55.05300 23.76100
C  11.42400 55.39500 25.45700
N  17.75300 52.41600 24.65000
C  16.75100 52.79800 23.84300
C  17.14400 52.66200 22.36800
C  18.63400 52.12300 22.51000
C  18.78500 51.83900 24.00600
C  16.13900 51.70300 21.63300
C  19.70200 53.17100 22.13300
C  21.06500 52.64200 21.72300
N  19.33000 51.27500 26.97000
C  20.16900 50.93800 25.96200
C  21.40300 50.32400 26.55000
C  21.12600 50.20700 27.92500
C  19.88300 50.80500 28.11600
C  22.52300 49.72800 25.74700
C  21.62500 49.74400 29.17800
O  22.62600 49.14100 29.48300
C  20.53000 50.21100 30.27400
C  20.05000 49.00300 31.02700
O  19.66600 47.94400 30.53500
O  20.12900 49.30100 32.32600
C  19.69900 48.30100 33.36900
H  14.30200 53.38200 29.74600
H  15.01100 53.91100 23.41900
H  20.62200 50.82200 23.88100
H  17.72300 50.56600 31.69500
H  15.96900 52.95800 31.60200
H  15.60100 50.31000 32.23600
H  14.73900 50.51000 30.67000
H  14.24500 51.47400 32.13500
H  17.97400 53.64300 31.68100
H  19.39000 52.90100 31.34200
H  19.77600 53.03800 33.51700
H  19.02800 51.51600 33.63500
H  11.83200 53.88600 28.22200
H  12.21900 55.70100 27.98600
H  12.91300 54.70400 29.30800
H  10.68500 55.71600 24.72300
H  11.84100 56.28300 25.93300
H  11.00900 54.73000 26.21300
H  17.05000 53.61600 21.85000
H  18.84800 51.21600 21.94400
H  15.28600 51.56600 22.29700
H  16.52100 50.68900 21.51700
H  15.82800 51.95400 20.61900
H  19.89100 53.66900 23.08400
H  19.30800 53.77300 21.31500
H  21.86800 52.94600 22.39500
H  21.28700 52.89600 20.68700
H  21.09300 51.56600 21.54700
H  23.44000 49.70500 26.33600
H  22.61000 50.38100 24.87800
H  22.35700 48.72200 25.36100
H  20.95900 50.94400 30.95700
H  20.48600 47.54900 33.42800
H  18.80400 47.80800 32.99100
H  19.41400 48.73600 34.32600

