158

Mg 46.27600 24.62600 27.92600
C  47.45700 26.72200 30.29700
C  45.16700 22.43100 30.40600
C  45.29100 22.52800 25.54100
C  47.70700 26.69500 25.38100
N  46.38900 24.54500 30.06100
C  46.79500 25.63200 30.89000
C  46.40500 25.48800 32.39400
C  45.75000 24.03300 32.36600
C  45.74400 23.57700 30.85500
C  46.31900 23.00000 33.38200
C  45.69300 26.66200 33.11100
C  44.91000 26.34700 34.34300
H  45.33100 26.92300 35.71700
N  45.45300 22.73100 27.99700
C  44.99800 22.03800 29.05300
C  44.50100 20.78500 28.65700
C  44.60600 20.69400 27.24300
C  45.15400 22.02600 26.90800
C  43.99300 19.76000 29.65400
C  44.43200 19.51300 26.25300
O  44.48200 19.54700 25.02200
C  43.95700 18.19700 26.80100
N  46.61000 24.50700 25.72600
C  45.83600 23.67300 25.08800
C  45.76500 24.12100 23.51200
C  46.63800 25.42200 23.42600
C  47.00200 25.60400 24.89300
C  46.24300 23.05000 22.50600
C  45.69000 26.59800 22.98300
C  45.49400 26.63600 21.43900
N  47.43200 26.29200 27.81100
C  47.94000 27.01800 26.73500
C  48.68300 28.18800 27.23300
C  48.42300 28.09900 28.64600
C  47.70700 26.90300 28.89300
C  49.39400 29.23100 26.47100
C  48.64100 28.79700 29.80700
O  49.13100 29.94300 29.90100
C  47.97800 27.97500 30.96100
C  48.95500 27.78300 32.07300
O  49.85300 26.94400 32.17300
O  48.65400 28.68700 33.04000
C  49.52800 28.67600 34.26200
H  44.80800 21.78600 31.21000
H  44.79400 21.90200 24.79700
H  48.04500 27.46500 24.68500
H  47.40000 25.47100 32.83800
H  44.70100 24.15100 32.63700
H  46.74500 22.17500 32.81100
H  45.66000 22.61800 34.16200
H  47.20800 23.35700 33.90300
H  45.13900 27.26100 32.38800
H  46.48700 27.32600 33.45200
H  44.86600 25.25800 34.37600
H  43.86700 26.55400 34.10200
H  43.07700 19.36800 29.21200
H  43.76100 20.19700 30.62500
H  44.76600 19.00700 29.80900
H  44.60600 17.84200 27.60200
H  44.11800 17.44700 26.02700
H  42.91800 18.27800 27.12000
H  44.68300 24.12200 23.38100
H  47.54200 25.30200 22.83000
H  46.79100 22.24200 22.99100
H  46.80200 23.43100 21.65100
H  45.41500 22.46700 22.10200
H  46.01500 27.61100 23.22100
H  44.71100 26.49300 23.45000
H  45.71500 25.70500 20.91800
H  45.97500 27.49300 20.96800
H  44.44200 26.81200 21.21500
H  50.46600 29.07200 26.59100
H  49.17200 30.23900 26.82300
H  49.12900 29.24200 25.41400
H  47.10300 28.56100 31.24400
H  50.53600 28.63600 33.84900
H  49.39300 27.78100 34.87000
H  49.39200 29.53300 34.92200
Mg -10.30400 16.89100 40.95000
C  -6.84400 16.18400 41.05000
C  -9.49900 20.17300 40.33700
C  -13.56300 17.50000 40.32300
C  -10.90500 13.52500 40.70800
N  -8.40400 17.94000 40.68800
C  -7.09200 17.50100 40.86200
C  -6.06400 18.53600 40.36100
C  -6.86500 19.78000 40.64300
C  -8.34500 19.31300 40.54400
C  -6.65200 20.47700 41.93900
C  -5.61000 18.41700 38.79800
C  -4.08400 18.40400 38.33700
H  -3.57600 17.00100 37.79600
N  -11.44600 18.65700 40.62300
C  -10.88400 19.89000 40.32000
C  -12.00300 20.85500 40.20900
C  -13.09900 20.12700 40.28600
C  -12.83500 18.72100 40.47700
C  -11.84800 22.35200 39.73000
C  -14.57500 20.70500 40.10800
O  -14.77900 21.91000 39.97500
C  -15.74600 19.80000 40.17500
N  -12.00100 15.61800 40.59300
C  -13.20000 16.13100 40.30800
C  -14.22100 14.95300 39.97200
C  -13.36900 13.63600 40.07700
C  -12.04700 14.30300 40.52600
C  -15.40200 14.87200 40.92800
C  -13.18000 12.92900 38.67600
C  -13.19800 11.40000 38.68200
N  -9.15600 15.18200 40.97400
C  -9.55200 13.85700 40.96900
C  -8.41100 12.93500 41.06600
C  -7.35900 13.81900 41.09500
C  -7.84900 15.16500 41.05000
C  -8.37400 11.35900 41.16700
C  -5.82700 13.85500 41.25000
O  -4.98600 12.99400 41.39800
C  -5.48300 15.39000 41.19100
C  -4.72700 15.85000 42.35000
O  -3.79800 16.61000 42.38000
O  -5.30000 15.27200 43.42300
C  -4.63200 15.51400 44.69200
H  -9.22600 21.20700 40.11700
H  -14.62900 17.59800 40.10700
H  -11.03200 12.49800 40.36200
H  -5.20700 18.56500 41.03400
H  -6.59300 20.57600 39.95000
H  -5.93100 19.95100 42.56500
H  -7.60900 20.57100 42.45300
H  -6.19700 21.46000 41.81400
H  -6.10500 19.17900 38.19700
H  -5.99800 17.41600 38.61000
H  -3.37800 18.78400 39.07500
H  -4.00400 19.10100 37.50300
H  -10.81300 22.40400 39.39000
H  -11.85400 23.00000 40.60700
H  -12.44200 22.79900 38.93400
H  -15.80800 19.16800 39.28800
H  -16.65100 20.38000 40.35300
H  -15.62800 19.12100 41.02000
H  -14.58400 15.14200 38.96200
H  -13.72800 12.95800 40.85100
H  -15.39000 15.73600 41.59300
H  -15.48000 13.94600 41.49800
H  -16.33400 14.91900 40.36600
H  -12.25800 13.27900 38.21300
H  -14.01100 13.16700 38.01200
H  -14.12200 11.20600 38.13600
H  -13.27400 10.98200 39.68600
H  -12.42900 10.82800 38.16400
H  -7.36700 11.00100 40.95200
H  -9.14400 10.90500 40.54300
H  -8.43400 11.14600 42.23400
H  -4.74400 15.45000 40.39200
H  -5.08400 16.35200 45.22200
H  -3.55300 15.55300 44.54200
H  -4.86200 14.65800 45.32600

