158

Mg 46.93100 16.98800 28.21700
C  45.02200 16.31500 31.16100
C  49.10600 18.76900 30.09800
C  48.42000 17.95200 25.36100
C  44.30900 15.44300 26.36600
N  47.00900 17.44200 30.40800
C  46.19300 17.02500 31.42600
C  46.77500 17.45300 32.81000
C  48.01400 18.42700 32.42700
C  48.03800 18.25500 30.88800
C  47.77800 19.89100 32.90100
C  47.27600 16.21900 33.64400
C  46.61900 16.00300 35.01800
H  46.33200 17.17900 35.89500
N  48.56800 18.09000 27.80000
C  49.38900 18.66900 28.70600
C  50.57600 19.19300 28.04800
C  50.36000 19.03800 26.63700
C  49.05900 18.33800 26.51600
C  51.82200 19.75900 28.77000
C  51.24600 19.47600 25.50800
O  50.94200 19.24300 24.32300
C  52.42000 20.41200 25.74400
N  46.38500 16.79100 26.14900
C  47.19400 17.33200 25.16300
C  46.59100 17.05600 23.77900
C  45.31100 16.19000 24.11900
C  45.36600 16.04000 25.64300
C  46.36400 18.20700 22.87000
C  45.08600 14.94200 23.29600
C  45.99600 13.64900 23.54700
N  45.02600 15.84800 28.64900
C  44.08500 15.40000 27.75200
C  42.91700 14.95400 28.54400
C  43.30300 15.26300 29.87200
C  44.56200 15.82600 29.85900
C  41.57100 14.44600 28.16400
C  42.80200 15.31000 31.26500
O  41.66100 15.02200 31.73300
C  43.91900 16.00400 32.12800
C  43.36600 17.13600 32.98600
O  43.53600 18.29600 32.71300
O  42.52300 16.67000 33.97000
C  41.70000 17.73400 34.62600
H  49.83200 19.32500 30.69500
H  48.91400 18.21500 24.42300
H  43.43800 15.21900 25.74600
H  45.99100 18.03500 33.29500
H  48.97200 18.00200 32.72600
H  47.01200 20.06000 33.65800
H  47.30700 20.39200 32.05600
H  48.72100 20.41400 33.06100
H  48.35600 16.14600 33.77300
H  47.09200 15.30800 33.07400
H  47.06900 15.19800 35.59900
H  45.59600 15.64800 34.90000
H  52.74500 19.41500 28.30300
H  51.89400 19.50700 29.82800
H  51.73300 20.84300 28.69300
H  52.19300 21.22800 26.43000
H  52.74400 20.77800 24.77000
H  53.23900 19.79600 26.11500
H  47.21500 16.27100 23.35200
H  44.56800 16.92100 23.80000
H  46.01200 18.93000 23.60600
H  45.52400 18.22000 22.17600
H  47.16300 18.56500 22.22100
H  44.94400 15.28800 22.27300
H  44.08800 14.53900 23.46900
H  46.40000 13.24700 22.61800
H  45.41100 12.91500 24.10100
H  46.77700 13.95700 24.24100
H  41.23800 14.89700 27.22900
H  40.90600 14.79900 28.95200
H  41.53100 13.35700 28.13000
H  44.23900 15.19700 32.78700
H  42.33100 18.53500 35.01100
H  41.31100 17.22300 35.50600
H  40.92400 18.11900 33.96400
Mg 47.48000 25.29900 29.16000
C  48.09200 27.55600 31.60500
C  46.20900 23.12400 31.52000
C  46.99800 22.91700 26.68300
C  49.12600 27.31600 26.87700
N  47.23200 25.35400 31.30900
C  47.51300 26.43900 32.16000
C  47.24600 26.17200 33.67300
C  46.79800 24.66500 33.54600
C  46.73000 24.34100 32.02500
C  47.73000 23.66000 34.27600
C  46.10400 27.10400 34.25700
C  46.53000 27.91600 35.45400
H  47.01100 27.00600 36.66700
N  46.64900 23.26600 29.03700
C  46.15000 22.64000 30.13400
C  45.62100 21.36600 29.73100
C  45.75800 21.27900 28.30600
C  46.44600 22.47600 27.91300
C  44.94800 20.47000 30.66200
C  45.26900 20.20300 27.32300
O  45.58600 20.19300 26.14800
C  44.27300 19.20600 27.78400
N  47.81600 25.24600 27.00800
C  47.74500 24.05000 26.33100
C  48.36300 24.18000 24.88800
C  49.01000 25.62000 24.94800
C  48.60700 26.13900 26.37600
C  49.30300 23.00200 24.41800
C  48.59100 26.46100 23.76600
C  49.71400 27.11700 23.00600
N  48.39700 27.13200 29.18600
C  49.02100 27.79200 28.15700
C  49.36500 29.11100 28.58000
C  49.09200 29.10500 29.98600
C  48.49900 27.81600 30.31700
C  50.04800 30.16100 27.73100
C  49.13600 29.84400 31.19700
O  49.51800 30.98200 31.43500
C  48.54900 28.82100 32.33200
C  49.72900 28.47700 33.20600
O  50.52100 27.57100 33.04100
O  49.77500 29.46300 34.16600
C  50.70300 29.13500 35.28200
H  45.82400 22.43900 32.27800
H  46.89100 22.11300 25.95200
H  49.64400 27.95400 26.15700
H  48.19800 26.34300 34.17600
H  45.75200 24.63100 33.85100
H  47.18600 23.17500 35.08700
H  48.65500 24.12000 34.62300
H  48.10400 22.88900 33.60200
H  45.20100 26.51100 34.39800
H  45.93500 27.92800 33.56300
H  45.69100 28.54400 35.75400
H  47.33300 28.60000 35.17700
H  44.88300 20.72200 31.72100
H  45.42800 19.49900 30.54400
H  43.92500 20.46900 30.28800
H  43.41600 19.69100 28.25100
H  44.85100 18.70600 28.56000
H  43.88000 18.49100 27.06000
H  47.55500 24.13300 24.15900
H  50.08400 25.44400 25.00200
H  50.33300 23.35600 24.36500
H  49.03800 22.62200 23.43100
H  49.31700 22.08600 25.00900
H  47.98400 27.33500 24.00400
H  48.01600 25.90800 23.02300
H  50.66500 26.96100 23.51600
H  49.54100 28.15600 22.72500
H  49.89500 26.66600 22.03100
H  49.49600 30.20600 26.79200
H  51.06300 29.88700 27.44400
H  50.05600 31.06100 28.34600
H  47.82400 29.36700 32.93600
H  50.69300 28.04500 35.25800
H  50.26900 29.50700 36.21000
H  51.73100 29.36600 35.00100

