158

Mg 9.03500 2.85300 26.97100
C  10.05700 1.47600 30.02500
C  6.79100 4.70300 28.71700
C  7.97300 4.07200 24.06600
C  10.87000 0.25400 25.31800
N  8.44600 3.00200 29.18500
C  9.08500 2.45400 30.21800
C  8.64300 3.14700 31.51500
C  7.43500 4.03100 30.99800
C  7.54200 3.90100 29.53000
C  5.97600 3.59600 31.55400
C  9.78000 3.92600 32.30500
C  9.55200 4.35600 33.77200
H  10.34700 3.82500 34.99900
N  7.57800 4.28000 26.48000
C  6.73300 4.88900 27.31700
C  5.98700 5.91300 26.61800
C  6.29900 5.71100 25.26400
C  7.33700 4.66900 25.20400
C  5.19100 6.99500 27.27300
C  5.82500 6.50800 24.09600
O  6.20700 6.41200 22.96200
C  4.77000 7.62200 24.34500
N  9.23100 2.10600 24.98400
C  8.77300 2.90800 23.93600
C  9.25400 2.35800 22.62600
C  10.06600 1.11300 22.98400
C  10.09200 1.15300 24.51100
C  8.18700 2.14100 21.50300
C  11.50200 1.19600 22.41900
C  11.76000 0.58900 21.05600
N  10.20800 1.25000 27.50400
C  10.93500 0.33800 26.69800
C  11.68200 -0.59000 27.53400
C  11.36000 -0.16000 28.85600
C  10.38500 0.90500 28.75200
C  12.65800 -1.72000 27.12400
C  11.56900 -0.41600 30.23700
O  12.22600 -1.25700 30.79200
C  10.79400 0.68200 31.05800
C  10.05400 -0.06500 32.11700
O  9.22000 -0.94200 31.83300
O  10.38200 0.33200 33.41300
C  9.81600 -0.27200 34.59600
H  6.14700 5.40200 29.25400
H  7.74100 4.62700 23.15500
H  11.48000 -0.43100 24.72600
H  8.24700 2.38100 32.18200
H  7.69500 5.05900 31.24900
H  6.16100 3.08500 32.49800
H  5.40300 2.92200 30.91700
H  5.28200 4.41800 31.73000
H  10.13400 4.71400 31.64100
H  10.59100 3.19800 32.28800
H  8.49900 4.21200 34.01200
H  9.70900 5.43500 33.79500
H  5.72700 7.92000 27.06300
H  4.92600 6.74600 28.30100
H  4.20100 6.96300 26.81800
H  5.15200 8.55100 24.76800
H  3.88000 7.20700 24.81700
H  4.37400 7.87600 23.36200
H  9.96200 3.07100 22.20200
H  9.50000 0.22800 22.69300
H  8.34000 2.89400 20.73000
H  7.22800 2.24300 22.01100
H  8.34200 1.12800 21.13200
H  12.20100 0.62000 23.02500
H  11.89200 2.21100 22.50200
H  10.84900 0.84800 20.51800
H  11.89600 -0.48300 21.19700
H  12.68100 0.91600 20.57300
H  12.62800 -1.78300 26.03600
H  12.46600 -2.59300 27.74700
H  13.62500 -1.30600 27.40800
H  11.55600 1.29500 31.53900
H  10.58800 -0.92700 35.00000
H  8.99600 -0.96800 34.42000
H  9.55600 0.57800 35.22600
Mg 41.03400 8.88600 29.02800
C  43.10700 9.91500 31.66200
C  38.96500 7.54500 31.29000
C  39.22400 7.70000 26.46000
C  43.62800 9.73200 26.89500
N  41.06000 8.84100 31.16500
C  41.94600 9.32900 32.05800
C  41.45500 9.24300 33.52700
C  40.11700 8.51100 33.36300
C  40.09600 8.19200 31.88100
C  39.92600 7.23100 34.20500
C  41.42800 10.67100 34.19300
C  40.24200 11.10500 35.14000
H  40.67700 11.68900 36.49900
N  39.27700 7.86400 28.86400
C  38.60600 7.32000 29.93800
C  37.39200 6.70600 29.43100
C  37.44100 6.66200 28.01700
C  38.67300 7.49300 27.71500
C  36.42500 5.98400 30.38500
C  36.47500 5.99700 26.96200
O  36.78800 5.86300 25.76300
C  35.10200 5.49300 27.39700
N  41.43100 8.67200 27.04700
C  40.49900 8.19400 26.13500
C  41.03100 8.27300 24.70100
C  42.45000 8.97000 24.84900
C  42.48800 9.23300 26.35800
C  41.05400 6.93400 24.01000
C  42.59700 10.14500 23.87600
C  42.24300 11.63400 24.30600
N  43.02000 9.68700 29.17900
C  43.98200 10.00400 28.24800
C  45.19500 10.63900 28.75700
C  44.86000 10.70100 30.18600
C  43.59700 10.03700 30.34500
C  46.52600 11.01900 28.00600
C  45.22200 11.14500 31.50100
O  46.19200 11.82000 31.81200
C  44.14600 10.64000 32.48100
C  44.70100 9.71500 33.44200
O  44.59700 8.50800 33.41800
O  45.20400 10.40000 34.47200
C  45.40700 9.50200 35.63500
H  38.11800 7.38100 31.95900
H  38.66700 7.30100 25.61000
H  44.37200 10.01800 26.14800
H  42.12800 8.51300 33.97600
H  39.23000 9.13000 33.49600
H  38.97600 6.93400 34.64900
H  40.62800 7.05500 35.02000
H  40.11900 6.34700 33.59800
H  41.38300 11.42300 33.40600
H  42.37000 10.74200 34.73700
H  39.56400 10.28300 35.36700
H  39.68200 11.84500 34.56800
H  35.48900 6.54100 30.33500
H  36.82800 5.85700 31.39000
H  36.11600 5.01500 29.99300
H  35.35500 4.57200 27.92300
H  34.53500 5.24700 26.49900
H  34.47000 6.05500 28.08400
H  40.24900 8.89700 24.26900
H  43.30600 8.31600 24.68000
H  42.11000 6.74100 23.82000
H  40.27000 6.96900 23.25400
H  40.80000 6.13100 24.70200
H  41.87300 9.91100 23.09600
H  43.56400 10.05300 23.38100
H  41.39200 11.98800 23.72400
H  43.07600 12.27700 24.02200
H  42.20700 11.54100 25.39100
H  46.32500 12.04100 27.68600
H  46.69700 10.36700 27.14900
H  47.39300 11.06400 28.66500
H  43.66600 11.56500 32.80200
H  45.99400 8.59900 35.47000
H  44.55700 9.19500 36.24500
H  45.87200 10.21400 36.31800

