158

Mg 23.80000 -6.15900 46.92400
C  25.95400 -3.61600 45.84700
C  21.38500 -4.78700 44.86400
C  21.92000 -8.76100 47.69800
C  26.49400 -7.68800 48.54500
N  23.77100 -4.52500 45.38900
C  24.70300 -3.57400 45.31700
C  24.27500 -2.38700 44.40600
C  22.72000 -2.65300 44.37600
C  22.59800 -4.07600 44.91000
C  21.83400 -1.70500 45.18900
C  24.97500 -2.55300 43.03600
C  25.74000 -1.23200 42.50200
H  25.01400 -0.59700 41.16500
N  21.90800 -6.73800 46.28200
C  21.09600 -6.05400 45.43200
C  19.84300 -6.76600 45.29800
C  19.98700 -7.88700 46.15800
C  21.34200 -7.83400 46.76200
C  18.82600 -6.37600 44.31600
C  18.94300 -8.91600 46.38000
O  17.80700 -8.79500 45.90600
C  19.14900 -10.14700 47.22100
N  24.19700 -7.97800 47.93100
C  23.20400 -8.86300 48.12000
C  23.67400 -10.10800 48.93900
C  25.19100 -9.78200 49.19000
C  25.32200 -8.40900 48.53300
C  22.86400 -10.48400 50.20700
C  26.16000 -10.83800 48.46900
C  26.92300 -11.84200 49.49000
N  25.75300 -5.72300 47.27400
C  26.72400 -6.42700 47.95900
C  27.98400 -5.67800 47.94900
C  27.66300 -4.53000 47.13600
C  26.35200 -4.67800 46.72700
C  29.14500 -6.02900 48.74000
C  28.19600 -3.31400 46.58800
O  29.29100 -2.74600 46.76600
C  27.12900 -2.68900 45.73700
C  26.87400 -1.35700 46.13600
O  26.11500 -1.03900 47.06200
O  27.75400 -0.46100 45.52800
C  27.42300 0.96000 45.86400
H  20.53000 -4.22600 44.48000
H  21.22600 -9.47200 48.15100
H  27.34100 -8.13000 49.07400
H  24.41500 -1.42800 44.90600
H  22.40900 -2.59800 43.33300
H  21.37900 -2.28300 45.99500
H  21.00700 -1.33600 44.58200
H  22.38000 -0.93200 45.72900
H  24.25900 -2.80400 42.25300
H  25.71800 -3.35000 43.01300
H  26.75500 -1.52900 42.23800
H  25.73100 -0.53400 43.33900
H  18.50800 -7.13600 43.60200
H  19.29300 -5.58700 43.72600
H  17.96700 -5.88900 44.77800
H  18.34800 -10.87000 47.06500
H  19.22100 -9.91400 48.28400
H  20.06800 -10.58400 46.82900
H  23.52900 -10.97200 48.29000
H  25.46700 -9.57100 50.22300
H  21.95800 -9.87700 50.23800
H  23.37000 -10.23100 51.13900
H  22.70900 -11.56100 50.25800
H  26.97000 -10.36600 47.91500
H  25.56300 -11.32700 47.69900
H  26.34600 -11.76500 50.41100
H  27.98400 -11.61200 49.57900
H  26.84300 -12.89000 49.20000
H  28.75300 -6.53800 49.62100
H  29.75200 -5.15600 48.97700
H  29.81200 -6.62000 48.11300
H  27.42100 -2.61700 44.68900
H  28.22000 1.30800 46.52200
H  26.43500 1.15900 46.27700
H  27.53500 1.45200 44.89700
Mg 30.57400 58.09500 40.44200
C  27.69800 56.30100 39.56700
C  32.55600 55.70500 39.17300
C  33.24200 60.23800 40.53700
C  28.43300 60.84100 41.24600
N  30.11700 56.29400 39.37400
C  28.89300 55.66200 39.21800
C  29.02400 54.19400 38.71300
C  30.57800 54.08600 38.75300
C  31.17300 55.46300 39.16400
C  31.02800 52.98700 39.71000
C  28.27400 53.80300 37.39800
C  29.05900 53.90500 36.06700
H  28.21800 54.11600 34.84900
N  32.66200 58.00000 40.07200
C  33.23900 56.88100 39.50500
C  34.68800 57.04800 39.51800
C  34.92500 58.35200 40.01100
C  33.54900 58.94700 40.21200
C  35.69600 55.97800 39.13900
C  36.30500 59.02600 40.33900
O  37.39100 58.38600 40.21300
C  36.49800 60.49400 40.70600
N  30.82100 60.18900 40.87400
C  32.04000 60.80900 40.94400
C  31.86800 62.29600 41.11500
C  30.35300 62.44800 41.51200
C  29.81600 61.07600 41.18700
C  32.81800 63.09300 42.08700
C  29.49600 63.73600 40.92600
C  28.75700 64.58000 42.01700
N  28.47400 58.52100 40.52000
C  27.70600 59.68100 40.85000
C  26.26800 59.34400 40.56600
C  26.27700 57.99100 40.29600
C  27.57400 57.59600 40.13300
C  25.08600 60.20900 40.72600
C  25.35600 56.86400 40.09500
O  24.14700 56.85100 40.21600
C  26.30400 55.76800 39.48400
C  26.11200 54.60800 40.36100
O  26.64000 54.42300 41.43500
O  25.23800 53.64500 39.79800
C  24.89700 52.41200 40.69200
H  33.27500 54.93300 38.89300
H  33.89700 61.10100 40.40100
H  27.82600 61.68000 41.59400
H  28.61200 53.50300 39.44900
H  30.99300 53.84700 37.77400
H  31.47700 53.33600 40.64000
H  31.76800 52.40500 39.16100
H  30.23500 52.25700 39.86700
H  27.36600 54.40000 37.32000
H  27.99100 52.77500 37.62100
H  29.65100 52.99800 35.94400
H  29.88600 54.59900 36.21700
H  36.48600 56.44200 38.54900
H  35.20600 55.34800 38.39700
H  36.02000 55.36000 39.97700
H  35.87200 60.69500 41.57500
H  36.21100 61.08100 39.83400
H  37.55800 60.69100 40.86600
H  31.94600 62.83400 40.17100
H  30.36000 62.32100 42.59400
H  32.30600 63.54400 42.93600
H  33.28000 63.79100 41.38800
H  33.59800 62.50200 42.56600
H  28.82900 63.38900 40.13600
H  30.21000 64.43000 40.48200
H  29.40100 65.45500 42.09900
H  28.68600 64.04700 42.96600
H  27.74700 64.85600 41.71300
H  25.13700 60.95400 41.52000
H  24.10900 59.73900 40.83500
H  25.11600 60.76500 39.78900
H  26.03500 55.70900 38.43000
H  25.54300 51.56800 40.45000
H  23.85000 52.11400 40.64900
H  24.98200 52.53700 41.77200

