158

Mg 47.65600 16.45300 28.77200
C  45.62200 15.98000 31.78100
C  49.79100 18.20600 30.72600
C  49.22100 17.28900 25.92800
C  45.02300 15.08200 26.89800
N  47.62500 17.06500 31.09100
C  46.78500 16.76000 32.05400
C  47.36500 17.20600 33.41900
C  48.66300 18.01400 33.01000
C  48.68800 17.85700 31.46600
C  48.81200 19.42800 33.52600
C  47.57900 15.98200 34.33700
C  47.91000 16.19400 35.80900
H  47.70200 17.63900 36.52000
N  49.34600 17.42500 28.37500
C  50.14300 18.18300 29.29900
C  51.35400 18.50700 28.64000
C  51.14100 18.21500 27.29100
C  49.81800 17.59700 27.13800
C  52.51300 19.14100 29.33700
C  52.09200 18.38100 26.01400
O  51.84100 17.96700 24.91200
C  53.47600 18.75600 26.22700
N  47.10900 16.29700 26.58500
C  47.97100 16.67800 25.61200
C  47.32200 16.39000 24.19600
C  46.14600 15.42300 24.53100
C  46.06400 15.57200 26.09100
C  46.76700 17.68500 23.59700
C  46.44800 13.93400 24.23700
C  45.73300 13.10600 23.13200
N  45.76800 15.68000 29.18900
C  44.82700 15.09400 28.28000
C  43.64800 14.62900 29.02700
C  43.96100 14.92500 30.33500
C  45.25000 15.49800 30.43700
C  42.37200 14.04200 28.34600
C  43.40100 14.85300 31.64000
O  42.36200 14.38000 32.08700
C  44.49000 15.46700 32.58500
C  43.88200 16.62800 33.31500
O  43.71300 17.71700 32.80000
O  43.61700 16.36800 34.66700
C  42.97700 17.49800 35.35700
H  50.54100 18.68100 31.36200
H  49.70500 17.48900 24.97000
H  44.18100 14.68700 26.32600
H  46.62200 17.83500 33.90800
H  49.51000 17.42000 33.35300
H  48.69700 20.19600 32.76200
H  49.79300 19.61400 33.96400
H  48.10000 19.51300 34.34700
H  48.32900 15.26800 33.99700
H  46.62900 15.44600 34.33000
H  48.88000 15.71900 35.95800
H  47.21200 15.52000 36.30500
H  52.36300 19.13600 30.41600
H  52.75900 20.15100 29.00900
H  53.38900 18.52300 29.13700
H  53.85100 17.84700 26.69800
H  53.46500 19.63300 26.87400
H  54.03800 19.08300 25.35200
H  48.02400 15.94300 23.49300
H  45.14700 15.65600 24.16200
H  47.67000 18.14700 23.19800
H  46.33100 18.32400 24.36500
H  46.09800 17.53900 22.75000
H  46.27400 13.29500 25.10200
H  47.52200 13.98400 24.05900
H  46.48400 12.73400 22.43400
H  44.79700 13.50100 22.73900
H  45.39500 12.11200 23.42500
H  42.57600 13.07400 27.88900
H  41.99200 14.74000 27.60100
H  41.58800 14.00800 29.10300
H  44.89500 14.74400 33.29400
H  42.62700 17.02500 36.27500
H  42.14200 17.89200 34.77900
H  43.63500 18.28600 35.72200
Mg 47.87200 24.84700 29.60700
C  49.05700 27.13000 31.89000
C  46.56800 22.99600 32.02200
C  47.08300 22.39200 27.25500
C  49.57700 26.62600 27.06600
N  47.92200 25.05400 31.76600
C  48.36600 26.08200 32.48700
C  47.94500 26.00000 34.02400
C  47.46600 24.42800 34.00900
C  47.28100 24.11200 32.51200
C  48.47500 23.49800 34.73600
C  46.79000 26.91200 34.48500
C  47.02900 27.97600 35.56400
H  45.94800 28.04200 36.69600
N  46.91000 22.96400 29.66900
C  46.43000 22.35700 30.79200
C  45.79400 21.16500 30.54200
C  45.97400 20.94300 29.15800
C  46.72100 22.13600 28.59500
C  45.09300 20.24600 31.58400
C  45.61500 19.78500 28.29900
O  45.77900 19.80500 27.06400
C  44.77000 18.70900 28.81200
N  48.34400 24.53600 27.46100
C  47.89300 23.41800 26.77100
C  48.47200 23.51000 25.27000
C  49.04300 24.95600 25.20700
C  49.01600 25.40400 26.72700
C  49.36300 22.37700 24.61600
C  48.27000 25.88700 24.21900
C  48.72000 26.06100 22.71200
N  48.96000 26.56700 29.42100
C  49.56100 27.18600 28.35500
C  50.09700 28.37600 28.74700
C  49.95600 28.44200 30.08800
C  49.25200 27.27600 30.45500
C  50.70100 29.46700 27.99000
C  50.14900 29.22800 31.30000
O  50.59600 30.34600 31.53300
C  49.63500 28.42000 32.53800
C  50.79000 28.08200 33.42000
O  51.53600 27.17700 33.25200
O  50.86700 29.01400 34.49300
C  51.85800 28.84900 35.59600
H  46.10400 22.55500 32.90700
H  46.91200 21.66800 26.45500
H  50.01800 27.18600 26.23900
H  48.83000 26.19200 34.63000
H  46.48600 24.27300 34.46100
H  48.30700 22.42900 34.60100
H  48.36800 23.78900 35.78100
H  49.46200 23.71800 34.32900
H  46.10300 26.14500 34.84200
H  46.26500 27.36500 33.64400
H  47.04100 28.91700 35.01400
H  48.07000 27.92400 35.88300
H  45.72900 19.37300 31.72400
H  44.12800 19.83800 31.28200
H  44.96500 20.63300 32.59500
H  44.60300 17.88900 28.11300
H  43.89500 19.24500 29.17800
H  45.26500 18.32000 29.70200
H  47.58600 23.49700 24.63500
H  50.07500 24.79900 24.89300
H  50.30600 22.74800 24.21300
H  48.76000 22.02800 23.77700
H  49.48200 21.55500 25.32200
H  48.28300 26.90900 24.59600
H  47.21400 25.61600 24.19800
H  49.59100 25.44000 22.50200
H  49.05200 27.08700 22.54900
H  47.93500 25.80300 22.00200
H  51.08300 29.05800 27.05400
H  51.47700 29.93100 28.59800
H  49.89200 30.12800 27.67700
H  48.88900 28.95300 33.12700
H  51.60200 29.62800 36.31400
H  52.88700 29.03500 35.28900
H  51.83800 27.88500 36.10400

