158

Mg 46.83600 16.65300 27.40900
C  45.01000 16.51000 30.41100
C  49.18900 18.43000 28.99600
C  48.32100 16.94500 24.40700
C  44.21800 15.00900 25.81500
N  46.91700 17.62000 29.51600
C  46.19700 17.22000 30.62200
C  46.88400 17.65400 31.91900
C  48.19100 18.50800 31.36500
C  48.14600 18.15300 29.91300
C  48.15700 19.98500 31.64100
C  47.33500 16.45700 32.73300
C  47.06300 16.56500 34.20700
H  47.05200 18.00700 34.82100
N  48.48400 17.64100 26.76900
C  49.39900 18.33400 27.58200
C  50.50600 18.75400 26.72100
C  50.21300 18.33800 25.40500
C  48.96700 17.63400 25.53400
C  51.64900 19.59800 27.29700
C  50.98400 18.62400 24.09500
O  50.70700 18.26500 22.96400
C  52.18400 19.48700 24.26200
N  46.37600 15.94200 25.36800
C  47.20400 16.14300 24.33700
C  46.67300 15.49000 23.01100
C  45.26300 14.88100 23.52500
C  45.30200 15.18800 25.03700
C  46.46600 16.66400 21.96100
C  45.01300 13.39500 23.09100
C  44.23500 13.26500 21.79600
N  45.05800 15.80300 28.00600
C  44.01400 15.27500 27.22100
C  42.85100 14.91000 28.02100
C  43.24000 15.44000 29.31400
C  44.56100 15.95700 29.17600
C  41.72400 14.08700 27.59800
C  42.82500 15.54600 30.72200
O  41.77500 15.14100 31.22200
C  44.05100 16.12000 31.46600
C  43.56300 17.20800 32.32100
O  43.16000 18.31400 31.99300
O  43.54300 16.68300 33.60300
C  42.68000 17.48900 34.46000
H  49.96100 18.92700 29.58600
H  48.86300 17.08100 23.46800
H  43.31200 14.63200 25.33600
H  46.29400 18.33600 32.53100
H  49.11700 18.13600 31.80300
H  49.05200 20.20600 32.22100
H  47.28500 20.27200 32.22900
H  48.17900 20.50300 30.68200
H  48.39900 16.22200 32.71100
H  46.81600 15.60400 32.29400
H  47.82100 15.98700 34.73600
H  46.18500 15.93800 34.36700
H  52.60900 19.12800 27.08500
H  51.66200 19.62800 28.38600
H  51.66000 20.60500 26.88100
H  51.88900 20.38300 24.80900
H  52.51000 19.92900 23.32000
H  52.99800 18.95900 24.75900
H  47.44200 14.79500 22.67400
H  44.45600 15.43300 23.04400
H  46.47700 17.63500 22.45600
H  45.46500 16.50600 21.55900
H  47.16300 16.59100 21.12600
H  44.45300 12.97100 23.92500
H  45.97800 12.89000 23.07100
H  44.90700 12.73300 21.12300
H  44.07800 14.21400 21.28400
H  43.29200 12.74200 21.95400
H  41.98200 13.07300 27.29500
H  41.29500 14.54400 26.70600
H  41.05700 14.08300 28.46000
H  44.56600 15.40100 32.10300
H  42.94500 18.54300 34.37200
H  42.63000 17.05400 35.45800
H  41.70800 17.45200 33.96700
Mg 10.03900 49.16500 26.11800
C  8.03400 49.04600 28.91100
C  12.52600 50.74400 27.93000
C  11.92500 49.36800 23.24000
C  7.46000 47.86800 24.23900
N  10.18400 49.85500 28.22500
C  9.28300 49.61500 29.16800
C  9.93800 50.10300 30.56100
C  11.32200 50.77700 30.21900
C  11.40800 50.42300 28.71400
C  11.13400 52.38900 30.59600
C  10.13400 48.85000 31.53300
C  9.21800 48.89900 32.83200
H  9.89000 49.72200 34.01900
N  11.93900 49.76600 25.73600
C  12.86000 50.25600 26.62900
C  14.14500 50.32100 25.98700
C  13.97100 50.00200 24.56000
C  12.53300 49.63300 24.43700
C  15.41700 50.68400 26.75900
C  15.01300 49.89400 23.49000
O  14.72600 49.63800 22.31800
C  16.46100 50.28800 23.73200
N  9.70000 48.64500 24.00900
C  10.59900 48.91000 23.03000
C  10.12300 48.35100 21.71300
C  8.70700 47.71500 22.08800
C  8.64600 48.01100 23.56700
C  10.12800 49.46600 20.70800
C  8.61900 46.14200 21.80800
C  9.46400 45.15900 22.64300
N  8.06800 48.81400 26.46000
C  7.15600 48.22500 25.59300
C  5.89000 48.21300 26.28600
C  6.17100 48.37000 27.61500
C  7.57100 48.71900 27.62800
C  4.56700 47.87100 25.63200
C  5.68000 48.44400 29.00400
O  4.57100 48.24600 29.50900
C  6.91800 48.61400 29.87800
C  7.04700 47.36300 30.56900
O  7.79500 46.50600 30.17500
O  6.31800 47.30000 31.78600
C  6.50700 46.22900 32.78600
H  13.27900 51.21400 28.56600
H  12.53500 49.37900 22.33400
H  6.65000 47.45000 23.63800
H  9.18300 50.74400 31.01600
H  12.23600 50.40000 30.67700
H  12.01600 52.76900 31.11200
H  10.19400 52.56300 31.11900
H  11.14300 52.90700 29.63700
H  11.11200 48.67800 31.98300
H  10.10600 47.84800 31.10600
H  9.01000 47.85000 33.04300
H  8.28600 49.45100 32.71500
H  15.37300 50.52800 27.83700
H  15.66200 51.72400 26.54400
H  16.15300 50.00400 26.33100
H  16.82400 49.58300 24.48000
H  16.48100 51.16500 24.37900
H  17.11600 50.29400 22.86100
H  10.73400 47.48000 21.47200
H  7.90300 48.25900 21.59100
H  10.19200 50.48200 21.09800
H  9.17700 49.38500 20.18100
H  10.97700 49.34100 20.03500
H  8.78100 45.97200 20.74400
H  7.56500 45.86800 21.86700
H  10.15600 45.56500 23.38200
H  9.98000 44.56900 21.88600
H  8.76100 44.59000 23.25100
H  3.81400 47.92100 26.41900
H  4.59000 46.89500 25.14800
H  4.35800 48.63200 24.88000
H  6.74200 49.36000 30.65300
H  6.77600 46.57200 33.78500
H  7.37000 45.62200 32.51300
H  5.62600 45.59200 32.85800

