158

Mg -1.92600 17.15900 25.52500
C  -2.23700 14.79200 28.05200
C  -3.23700 19.52100 27.55600
C  -1.89100 19.26700 22.90900
C  -1.33300 14.49300 23.30600
N  -2.56300 17.18400 27.58600
C  -2.63700 16.10200 28.47800
C  -3.07100 16.61200 29.92700
C  -3.70000 17.99400 29.56700
C  -3.09500 18.31000 28.16700
C  -5.28300 17.99200 29.34100
C  -1.86600 16.78800 30.90100
C  -2.24900 16.74000 32.34900
H  -1.19800 16.06600 33.27600
N  -2.32200 19.19000 25.35800
C  -2.83600 20.01900 26.28100
C  -2.85200 21.43300 25.76900
C  -2.30400 21.36000 24.41400
C  -2.18700 19.87300 24.16900
C  -3.08800 22.69000 26.63900
C  -1.88700 22.39400 23.41400
O  -1.52300 22.10800 22.32100
C  -1.95600 23.78000 23.76300
N  -1.85300 16.91200 23.36500
C  -1.78100 17.92600 22.52700
C  -1.39500 17.58000 21.08100
C  -1.21200 16.03500 21.22000
C  -1.38400 15.77500 22.70400
C  -2.43700 18.04700 19.96000
C  0.12300 15.50800 20.58800
C  1.39600 15.94000 21.26300
N  -1.88300 15.06000 25.54900
C  -1.56500 14.13000 24.58000
C  -1.65400 12.77500 25.13400
C  -1.86200 12.97200 26.52300
C  -1.94700 14.42000 26.74100
C  -1.58800 11.48600 24.48500
C  -2.01800 12.31800 27.90000
O  -1.90200 11.16000 28.27500
C  -2.21100 13.47300 28.89700
C  -1.17100 13.39900 29.93400
O  -0.06200 13.84900 29.76600
O  -1.58100 12.71500 31.06400
C  -0.55000 12.41300 31.99200
H  -3.69100 20.33800 28.12200
H  -1.76200 19.95700 22.07200
H  -1.05700 13.59700 22.74600
H  -3.80200 15.91500 30.33600
H  -3.59100 18.71600 30.37600
H  -5.64200 16.98800 29.56800
H  -5.44600 18.08900 28.26800
H  -5.77100 18.76400 29.93700
H  -1.43400 17.77500 30.73700
H  -1.06200 16.06800 30.74300
H  -3.17300 16.19300 32.53000
H  -2.28000 17.73100 32.80200
H  -3.57700 22.23500 27.50000
H  -3.74400 23.49800 26.31500
H  -2.14500 23.17800 26.88600
H  -1.86200 24.41200 22.88000
H  -1.18900 24.07000 24.48100
H  -2.92700 24.06700 24.16600
H  -0.45300 18.03000 20.76900
H  -2.06400 15.45600 20.86100
H  -2.44400 17.49400 19.02000
H  -2.30000 19.06100 19.58600
H  -3.46000 18.09800 20.33300
H  0.07300 15.96600 19.60000
H  0.17400 14.42100 20.53100
H  2.19400 16.22200 20.57600
H  1.80800 15.05600 21.75100
H  1.22400 16.70900 22.01600
H  -1.80200 10.79600 25.30100
H  -0.54500 11.35800 24.19600
H  -2.33200 11.49700 23.68800
H  -3.21000 13.30900 29.30000
H  -0.47600 11.32800 32.07200
H  -0.97500 12.63300 32.97200
H  0.45500 12.83200 31.94300
Mg 48.43400 14.81800 28.38000
C  46.29700 14.34300 31.05700
C  50.10000 17.24900 30.30000
C  50.59900 15.16600 25.92200
C  46.22800 13.22700 26.30900
N  48.30100 15.67300 30.50600
C  47.39000 15.20400 31.46200
C  47.66700 15.75800 32.81800
C  48.63900 16.97900 32.41000
C  49.01900 16.62900 30.95400
C  47.87500 18.27400 32.52900
C  48.17500 14.64500 33.87100
C  47.98100 15.13500 35.28400
H  49.19900 15.02900 36.22900
N  50.30300 15.81700 28.23400
C  50.76500 16.85100 29.08200
C  51.99500 17.32300 28.55400
C  52.13600 16.73500 27.26000
C  51.00600 15.83300 27.07600
C  52.89700 18.39800 29.27900
C  53.28000 16.86800 26.33300
O  53.41100 16.17900 25.33000
C  54.51400 17.68700 26.67700
N  48.48600 14.02100 26.41100
C  49.47200 14.39400 25.58300
C  49.20700 14.00900 24.08900
C  47.77600 13.37900 24.19600
C  47.46500 13.56600 25.72900
C  49.15500 15.31400 23.18600
C  47.57600 11.86800 23.81500
C  46.29400 11.51400 23.07600
N  46.63600 14.00500 28.53500
C  45.85000 13.33800 27.59600
C  44.58400 12.97900 28.16300
C  44.75300 13.31300 29.56300
C  45.96400 13.94800 29.69000
C  43.27000 12.47900 27.50300
C  44.14000 13.29100 30.85500
O  43.05200 12.88100 31.22200
C  45.09800 13.92900 31.80000
C  44.31000 15.10700 32.34500
O  44.28300 16.17700 31.76500
O  44.00300 14.89300 33.65800
C  43.64600 16.05600 34.44600
H  50.56400 18.09400 30.81300
H  51.21700 15.40100 25.05300
H  45.57500 12.82200 25.53300
H  46.74000 16.12000 33.26400
H  49.51800 16.88900 33.04800
H  47.12900 18.16100 33.31600
H  47.40400 18.41500 31.55600
H  48.56600 19.07200 32.80100
H  49.17200 14.29500 33.60300
H  47.63700 13.70900 33.72300
H  47.19300 14.47300 35.64000
H  47.65800 16.17600 35.24900
H  52.87700 19.30900 28.68100
H  53.90500 18.12100 29.58600
H  52.44100 18.75900 30.20100
H  54.33000 18.76100 26.71900
H  55.30500 17.56900 25.93700
H  55.02600 17.49700 27.62000
H  49.94900 13.35100 23.63700
H  47.08500 13.95000 23.57600
H  49.40400 16.16500 23.82100
H  48.15900 15.36200 22.74600
H  49.97200 15.27600 22.46600
H  47.74100 11.23900 24.68900
H  48.34800 11.54200 23.11800
H  46.46700 10.97800 22.14200
H  45.65500 12.35700 22.81600
H  45.71000 10.92900 23.78700
H  42.40900 13.00300 27.91600
H  43.25700 11.41900 27.75800
H  43.45400 12.67600 26.44700
H  45.40500 13.26900 32.61200
H  44.29400 16.37900 35.26100
H  42.67700 15.94600 34.93400
H  43.42100 16.93100 33.83800

