158

Mg -0.83300 17.74300 27.19500
C  -1.37400 15.62400 29.65100
C  -1.74100 20.38200 29.24900
C  -0.77700 20.13600 24.51600
C  -0.72200 15.26600 24.86700
N  -1.36100 17.99500 29.22300
C  -1.44800 16.95900 30.08100
C  -1.67100 17.35800 31.57600
C  -1.95100 18.86900 31.39100
C  -1.66300 19.13200 29.87000
C  -3.40800 19.25800 31.86700
C  -0.42000 17.22300 32.53900
C  -0.88400 17.00100 33.98600
H  0.14800 17.21200 35.14100
N  -1.12700 19.91500 26.98400
C  -1.42600 20.78500 27.97100
C  -1.49200 22.17300 27.48000
C  -1.19400 22.14600 26.09800
C  -0.98700 20.68600 25.78700
C  -1.82100 23.39800 28.30400
C  -1.08700 23.29300 25.05700
O  -0.87100 23.13100 23.88300
C  -1.08100 24.75400 25.57400
N  -0.74000 17.80500 25.02300
C  -0.64900 18.82100 24.14100
C  -0.43400 18.30600 22.70500
C  -0.11000 16.75000 22.94300
C  -0.57000 16.56200 24.35900
C  -1.59900 18.47900 21.71700
C  1.32200 16.26700 22.80800
C  2.38800 16.76500 23.90000
N  -0.92200 15.83400 27.17600
C  -0.89200 14.85200 26.20500
C  -1.10500 13.52500 26.81200
C  -1.27000 13.82400 28.14700
C  -1.12100 15.22700 28.31900
C  -1.22100 12.12700 26.10400
C  -1.45400 13.16400 29.41000
O  -1.49000 12.00100 29.74500
C  -1.57200 14.33900 30.40800
C  -0.35600 14.23500 31.33600
O  0.79200 14.30300 31.00300
O  -0.77600 13.88400 32.59500
C  0.25400 13.70400 33.63200
H  -1.95800 21.19400 29.94500
H  -0.60900 20.77600 23.64800
H  -0.60300 14.52600 24.07300
H  -2.54400 16.78100 31.88100
H  -1.23200 19.36900 32.03900
H  -3.94000 19.84300 31.11700
H  -3.18700 19.70900 32.83400
H  -4.04300 18.38400 32.01600
H  0.32400 18.01700 32.59600
H  0.20900 16.36500 32.30300
H  -1.18900 15.95600 34.04100
H  -1.74600 17.60300 34.27500
H  -2.17800 23.11700 29.29400
H  -2.60200 23.99300 27.82900
H  -0.93100 24.00700 28.46200
H  -1.93600 25.11700 26.14500
H  -0.93000 25.32200 24.65600
H  -0.19200 24.80800 26.20300
H  0.43300 18.83100 22.30500
H  -0.70800 16.06800 22.33900
H  -2.48200 18.70900 22.31300
H  -1.89700 17.58200 21.17300
H  -1.37500 19.31000 21.04800
H  1.59600 16.73100 21.86000
H  1.22000 15.19100 22.66700
H  2.77100 15.89800 24.43900
H  1.97000 17.45600 24.63200
H  3.14000 17.26500 23.28900
H  -0.78800 11.91600 25.12600
H  -2.29200 11.94300 26.01300
H  -0.84000 11.38800 26.80900
H  -2.44300 14.38700 31.06300
H  0.82500 12.79700 33.43000
H  -0.28300 13.62800 34.57700
H  0.88900 14.59000 33.65500
Mg -10.68300 18.20000 40.31200
C  -7.13600 17.93000 40.20100
C  -10.28600 21.38200 39.32800
C  -13.96700 18.20700 39.68500
C  -10.83700 14.65400 40.40800
N  -8.82200 19.53000 39.73800
C  -7.52400 19.23800 39.91300
C  -6.62500 20.38800 39.35300
C  -7.73500 21.53500 39.36700
C  -9.07300 20.81500 39.52200
C  -7.44400 22.63400 40.50100
C  -6.00600 20.10900 37.87800
C  -4.41600 19.90100 37.85200
H  -3.98000 18.73800 36.99700
N  -11.96200 19.62100 39.77700
C  -11.64300 20.89300 39.46500
C  -12.83200 21.73800 39.31300
C  -13.94900 20.84100 39.41000
C  -13.32600 19.44300 39.56900
C  -12.85500 23.15500 39.25200
C  -15.43200 21.23700 39.18100
O  -15.71500 22.42600 38.96400
C  -16.54300 20.29400 39.26000
N  -12.29600 16.64100 40.09800
C  -13.59100 16.94000 39.91800
C  -14.47300 15.64200 40.00000
C  -13.37700 14.50900 40.24900
C  -12.06900 15.31600 40.28600
C  -15.55500 15.66900 41.07700
C  -13.46700 13.32200 39.34500
C  -13.69600 11.94300 40.10800
N  -9.31500 16.57500 40.36000
C  -9.51500 15.21500 40.40100
C  -8.24000 14.50500 40.56000
C  -7.29900 15.56400 40.57300
C  -8.00600 16.76200 40.33900
C  -8.01500 13.06000 40.68600
C  -5.81400 15.85800 40.61700
O  -4.89300 14.99600 40.65200
C  -5.72200 17.43200 40.47500
C  -5.16700 18.10300 41.73300
O  -4.56600 19.16500 41.69800
O  -5.49700 17.40100 42.86900
C  -5.27200 18.10200 44.17500
H  -10.25000 22.36800 38.85900
H  -15.05800 18.20000 39.63800
H  -10.92200 13.56800 40.47600
H  -5.78700 20.62500 40.00900
H  -7.77600 22.10600 38.44000
H  -6.56400 22.33000 41.06800
H  -8.27900 22.62300 41.20200
H  -7.25300 23.62900 40.10000
H  -6.23600 20.99100 37.28000
H  -6.56700 19.30300 37.40700
H  -4.08500 19.62400 38.85300
H  -3.97400 20.77100 37.36600
H  -13.32200 23.75500 38.47000
H  -11.80600 23.45400 39.26300
H  -13.38200 23.43300 40.16400
H  -16.48900 19.66700 38.37000
H  -17.50400 20.77200 39.07100
H  -16.42100 19.67500 40.15000
H  -14.93800 15.60800 39.01500
H  -13.46600 14.07100 41.24300
H  -15.89400 16.67800 41.31300
H  -15.34500 15.21200 42.04300
H  -16.39000 15.13700 40.62100
H  -12.52700 13.19200 38.80800
H  -14.29100 13.50700 38.65600
H  -14.11900 12.08000 41.10400
H  -12.70700 11.48900 40.15600
H  -14.34500 11.34900 39.46400
H  -8.50000 12.72200 41.60200
H  -6.96700 12.78300 40.79400
H  -8.38100 12.56600 39.78600
H  -5.03200 17.68600 39.67000
H  -6.17000 18.40200 44.71400
H  -4.53200 18.89600 44.07600
H  -4.71200 17.33100 44.70500

