158

Mg -0.60000 7.04200 26.52200
C  0.59700 8.97700 29.36600
C  -0.74900 4.38300 28.63300
C  -1.09500 5.29600 23.79400
C  0.06000 9.87000 24.55500
N  0.00300 6.72700 28.78900
C  0.31800 7.66300 29.74900
C  0.13900 7.02500 31.14800
C  -0.17900 5.52700 30.87300
C  -0.36200 5.52100 29.34700
C  0.80100 4.46000 31.52400
C  -1.03200 7.70800 31.91800
C  -0.76400 8.33900 33.25600
H  0.27000 7.74000 34.25100
N  -0.83100 5.05000 26.22900
C  -0.91900 4.13500 27.17000
C  -1.38400 2.84800 26.57400
C  -1.35500 3.06800 25.13500
C  -1.05400 4.54700 24.99900
C  -1.79200 1.62800 27.41200
C  -1.67900 2.09700 24.04000
O  -1.63900 2.32400 22.81800
C  -2.04300 0.60100 24.22400
N  -0.39100 7.45400 24.48000
C  -0.81900 6.57200 23.50200
C  -0.62700 7.11300 22.08500
C  -0.67200 8.67000 22.38600
C  -0.27900 8.72000 23.87900
C  0.75600 6.67400 21.45900
C  -2.15300 9.32000 22.23700
C  -2.31400 10.07600 20.95000
N  0.15600 8.95000 26.82400
C  0.32000 10.01700 25.92800
C  0.70500 11.23200 26.59200
C  0.96500 10.87600 27.90100
C  0.51900 9.52700 28.00300
C  0.89300 12.62400 26.00800
C  1.26300 11.39900 29.22200
O  1.71200 12.46900 29.63700
C  0.96600 10.19800 30.23900
C  2.19000 9.95700 31.05800
O  3.25200 9.47800 30.67300
O  2.09700 10.47100 32.25300
C  3.30200 10.39700 33.07300
H  -0.80900 3.48000 29.24400
H  -1.22600 4.64200 22.92900
H  0.06400 10.79800 23.97900
H  1.05600 7.17000 31.71900
H  -1.15200 5.34500 31.32900
H  0.31300 3.89300 32.31700
H  1.75000 4.88900 31.84500
H  1.15800 3.75900 30.77000
H  -1.96900 7.16800 32.05400
H  -1.21700 8.55300 31.25500
H  -1.68500 8.30500 33.83900
H  -0.46100 9.36800 33.06300
H  -1.35500 1.55200 28.40800
H  -1.28200 0.75500 27.00400
H  -2.86600 1.65900 27.59300
H  -2.72200 0.32900 25.03300
H  -1.15700 0.06100 24.56000
H  -2.35200 0.29300 23.22500
H  -1.57000 6.95000 21.56300
H  -0.00800 9.40700 21.93300
H  0.98300 5.82100 22.09900
H  1.59200 7.37100 21.40300
H  0.60900 6.35400 20.42700
H  -2.41900 10.00400 23.04300
H  -2.86800 8.51300 22.07100
H  -1.56900 9.70000 20.24800
H  -2.15800 11.12300 21.20800
H  -3.36900 10.04200 20.67600
H  -0.07100 12.89000 25.57200
H  1.56000 12.52800 25.15200
H  1.25600 13.38800 26.69500
H  0.21500 10.54000 30.95100
H  2.88300 10.50400 34.07300
H  4.06900 11.11300 32.77700
H  3.79000 9.42200 33.06200
Mg 46.74300 17.21600 28.05600
C  44.85400 16.56000 30.96800
C  49.00900 18.87600 29.94600
C  48.34000 18.14700 25.24000
C  44.21000 15.74900 26.06200
N  46.93400 17.71100 30.19100
C  46.09700 17.21600 31.19700
C  46.46500 17.76100 32.55000
C  47.82400 18.58900 32.22300
C  47.91000 18.40600 30.72700
C  47.79100 20.06500 32.82000
C  46.64800 16.65800 33.65200
C  45.98600 16.92400 34.98800
H  45.88500 18.31500 35.57900
N  48.37600 18.41500 27.66900
C  49.23700 18.86000 28.59400
C  50.37600 19.46700 27.91300
C  50.17300 19.40400 26.53400
C  48.95600 18.63300 26.42000
C  51.57400 19.98500 28.72400
C  50.93400 20.02500 25.35800
O  50.67900 19.78300 24.17500
C  51.97300 21.05300 25.71400
N  46.26000 17.06700 25.99300
C  47.21400 17.43500 25.08200
C  46.66400 17.16500 23.62800
C  45.57600 16.19100 23.92100
C  45.37700 16.28600 25.43500
C  46.34300 18.38000 22.78000
C  45.73500 14.72500 23.52500
C  44.86000 14.14400 22.43900
N  44.92200 16.21500 28.39500
C  43.94400 15.75700 27.50800
C  42.87000 15.22100 28.26100
C  43.16500 15.49900 29.64400
C  44.39000 16.10600 29.64300
C  41.76300 14.41400 27.72300
C  42.70800 15.33000 31.02100
O  41.71400 14.77300 31.42700
C  43.75100 16.04500 31.87900
C  42.97800 17.19700 32.48500
O  42.37400 18.08800 31.82700
O  42.94200 17.09600 33.80800
C  42.10000 18.12000 34.51500
H  49.69000 19.44600 30.58100
H  48.71200 18.46900 24.26500
H  43.34400 15.39400 25.50000
H  45.76500 18.45100 33.02200
H  48.73300 18.11500 32.59200
H  48.56200 20.18800 33.58100
H  46.81300 20.28500 33.24800
H  48.10200 20.71800 32.00400
H  47.71600 16.50800 33.81000
H  46.10600 15.74500 33.40700
H  46.55700 16.24200 35.61900
H  44.98200 16.49800 35.00700
H  51.38100 20.95900 29.17400
H  52.51100 20.07300 28.17500
H  51.76400 19.35200 29.59100
H  52.15800 21.77100 24.91500
H  52.90300 20.52500 25.92600
H  51.70300 21.67900 26.56400
H  47.56200 16.77000 23.15200
H  44.59400 16.44700 23.52400
H  47.28900 18.60500 22.28800
H  45.91400 19.17000 23.39700
H  45.71600 18.21100 21.90500
H  45.60100 13.98200 24.31200
H  46.77400 14.57500 23.23000
H  44.39500 13.25200 22.86000
H  45.48600 13.81800 21.60900
H  43.99900 14.77100 22.20500
H  40.97300 14.98500 27.23400
H  41.19700 13.92500 28.51600
H  42.14900 13.73500 26.96300
H  44.02800 15.34400 32.66600
H  42.54000 19.05800 34.17600
H  42.27900 18.02700 35.58600
H  41.09200 17.85600 34.19400

