158

Mg 35.65500 3.00300 30.41400
C  33.08700 3.92700 32.76700
C  37.77400 2.81700 33.20000
C  38.09000 2.45900 28.29800
C  33.31400 3.21700 27.74700
N  35.41000 3.42900 32.80300
C  34.28700 3.58800 33.46700
C  34.46900 3.65400 34.99200
C  36.02000 3.47700 35.11800
C  36.44200 3.19500 33.65900
C  36.75600 4.75100 35.79000
C  33.58500 2.61900 35.76100
C  33.97900 2.26500 37.16800
H  34.55700 3.40600 38.04400
N  37.68900 2.77900 30.67200
C  38.33200 2.55200 31.86800
C  39.68500 2.17400 31.56100
C  39.81400 2.06100 30.14800
C  38.56200 2.44200 29.64400
C  40.85300 1.84600 32.52700
C  41.00600 1.65300 29.26100
O  41.03000 1.84000 28.02000
C  42.18900 1.00800 29.97700
N  35.66000 2.98100 28.26400
C  36.86700 2.74600 27.70600
C  36.74400 2.82100 26.15000
C  35.13100 2.81700 26.01500
C  34.67100 2.98900 27.44300
C  37.43200 4.04900 25.51200
C  34.66900 1.51400 25.29400
C  33.75400 1.76100 24.06800
N  33.67200 3.50600 30.26300
C  32.89500 3.51000 29.06600
C  31.53400 3.84100 29.51800
C  31.58100 4.04100 30.89500
C  32.91200 3.87300 31.34500
C  30.37400 3.80500 28.55300
C  30.79100 4.38500 32.03100
O  29.58900 4.69800 32.13500
C  31.71900 4.24100 33.24900
C  31.69400 5.44600 34.07800
O  32.35900 6.46300 33.78900
O  30.99600 5.35700 35.23500
C  31.19000 6.45000 36.25700
H  38.46400 2.69300 34.03800
H  38.84300 2.26100 27.53200
H  32.54700 3.16800 26.97100
H  34.15600 4.66800 35.23800
H  36.42600 2.67500 35.73500
H  37.46900 4.47100 36.56600
H  36.01900 5.47600 36.13500
H  37.39600 5.21400 35.03900
H  33.83900 1.72600 35.19000
H  32.51400 2.80600 35.68600
H  34.66500 1.42100 37.24700
H  33.01300 1.98700 37.58700
H  41.77300 2.41500 32.39100
H  40.91400 0.76800 32.67400
H  40.50300 2.26200 33.47200
H  41.97600 0.30100 30.77900
H  42.77300 1.84100 30.37000
H  42.87100 0.55000 29.26100
H  37.25600 1.96300 25.71500
H  34.66600 3.64900 25.48700
H  36.68000 4.73900 25.13000
H  38.05500 3.77700 24.66000
H  37.99900 4.68500 26.19200
H  34.03100 0.99400 26.00900
H  35.47100 0.82200 25.03600
H  34.33100 1.39700 23.21800
H  33.42700 2.79500 23.96300
H  32.84100 1.17900 24.19700
H  30.63000 4.52200 27.77300
H  29.38300 3.86700 29.00300
H  30.44100 2.88700 27.97000
H  31.28300 3.45100 33.85900
H  31.56600 7.39000 35.85500
H  31.79700 6.19400 37.12500
H  30.19300 6.61400 36.66700
Mg -2.20100 35.33700 26.37500
C  -3.89800 33.99100 29.08400
C  -1.16200 37.91000 28.48100
C  -0.55400 36.63700 23.68800
C  -3.88100 33.06400 24.26000
N  -2.46700 35.83200 28.59800
C  -3.12600 35.06600 29.49400
C  -2.91900 35.45700 30.98100
C  -2.08100 36.79200 30.74600
C  -1.91300 36.92200 29.17800
C  -2.46700 38.14700 31.43300
C  -2.18900 34.33700 31.88400
C  -1.56100 34.79700 33.18700
H  -2.25200 34.26500 34.43600
N  -0.98900 36.95100 26.08100
C  -0.75800 37.94100 27.07900
C  0.17000 38.89900 26.54000
C  0.47900 38.53800 25.19600
C  -0.39200 37.35700 24.88200
C  0.91300 40.00500 27.36000
C  1.39200 39.22800 24.18100
O  1.53400 38.85600 23.00100
C  2.16900 40.40000 24.56300
N  -2.06300 34.73200 24.25500
C  -1.30600 35.42800 23.38900
C  -1.18000 34.60900 22.12700
C  -2.39300 33.54500 22.18800
C  -2.93100 33.84100 23.64200
C  -1.14200 35.61000 20.88500
C  -2.08000 31.97100 22.00700
C  -2.81800 31.23600 20.88300
N  -3.58600 33.87500 26.53900
C  -4.23200 33.05800 25.59200
C  -5.21300 32.20800 26.26400
C  -5.07100 32.60900 27.61500
C  -4.17200 33.63300 27.73200
C  -6.17200 31.34300 25.58600
C  -5.62300 32.18800 28.98200
O  -6.34000 31.22500 29.21900
C  -4.74000 32.97900 29.93700
C  -5.77800 33.51800 30.90500
O  -6.47400 34.42500 30.74200
O  -5.76800 32.73700 32.02800
C  -6.81200 33.11500 33.03400
H  -0.84300 38.76100 29.08700
H  -0.05100 37.07000 22.82100
H  -4.31200 32.42800 23.48400
H  -3.83100 35.72400 31.51500
H  -1.13200 36.65300 31.26400
H  -1.58600 38.65000 31.83000
H  -3.16900 38.01000 32.25500
H  -3.04200 38.65500 30.65900
H  -1.49100 33.78900 31.25100
H  -2.97400 33.65900 32.22000
H  -1.71300 35.87400 33.11000
H  -0.50000 34.59600 33.33600
H  1.97500 39.81900 27.19800
H  0.86200 39.80500 28.43100
H  0.70100 41.04600 27.11600
H  2.98400 39.94600 25.12800
H  1.67900 41.14400 25.19100
H  2.84700 40.79200 23.80500
H  -0.23600 34.09600 22.30600
H  -3.22200 33.82700 21.54000
H  -1.76900 36.49900 20.95200
H  -1.52800 35.02400 20.05100
H  -0.09900 35.87700 20.71100
H  -2.19500 31.46300 22.96500
H  -1.06000 31.81100 21.65900
H  -3.73900 30.67500 21.04900
H  -2.15000 30.50900 20.42100
H  -3.01800 31.99700 20.12900
H  -6.49700 31.93600 24.73100
H  -6.90700 31.31200 26.38900
H  -5.63300 30.43400 25.31600
H  -4.05900 32.35900 30.52100
H  -6.66900 34.12900 33.40900
H  -6.83000 32.41800 33.87100
H  -7.79700 32.98100 32.58600

