158

Mg 1.91100 -1.63000 45.15600
C  5.25700 -0.73100 44.62500
C  0.95200 1.28500 43.51500
C  -1.23200 -2.84800 45.22700
C  3.13200 -4.79000 46.42800
N  3.03300 0.03600 44.10900
C  4.37400 0.25400 44.14300
C  4.74700 1.68300 43.46200
C  3.34400 2.29900 43.36700
C  2.34300 1.19000 43.74700
C  3.12900 3.65400 44.08600
C  5.40100 1.55500 42.11100
C  6.03400 2.93800 41.55300
H  5.79200 3.31200 40.03900
N  0.17300 -0.90500 44.33900
C  -0.04600 0.34200 43.75700
C  -1.44800 0.43100 43.51900
C  -2.14900 -0.72400 43.98300
C  -1.06600 -1.58400 44.48800
C  -2.04200 1.77000 42.97900
C  -3.59300 -0.94800 43.85600
O  -4.23400 -0.01200 43.40400
C  -4.28900 -2.20000 44.37900
N  1.10500 -3.54100 45.66600
C  -0.23400 -3.65500 45.78600
C  -0.67000 -4.94700 46.46100
C  0.69700 -5.64800 46.81100
C  1.75100 -4.67900 46.22300
C  -1.64700 -4.85400 47.62100
C  0.77100 -7.06200 46.18200
C  1.40500 -8.14400 47.03600
N  3.77900 -2.56700 45.56100
C  4.08900 -3.80800 46.07600
C  5.49900 -4.03300 46.02000
C  6.00600 -2.80300 45.50900
C  4.90500 -1.92700 45.20000
C  6.19300 -5.24100 46.48200
C  7.22500 -2.08200 45.15400
O  8.42400 -2.44600 45.35100
C  6.80900 -0.75200 44.47900
C  7.46700 0.41700 45.13400
O  7.73300 0.52200 46.32400
O  7.91700 1.25800 44.14100
C  8.65300 2.37200 44.74100
H  0.68700 2.33900 43.41000
H  -2.26000 -3.16100 45.42300
H  3.45900 -5.76500 46.79500
H  5.30700 2.33300 44.13500
H  3.11800 2.60800 42.34700
H  2.43000 4.35600 43.63200
H  4.09400 4.16000 44.10000
H  2.89500 3.51100 45.14100
H  4.66400 1.04900 41.48700
H  6.21800 0.84200 42.22100
H  7.07100 2.60300 41.54800
H  5.85300 3.76000 42.24500
H  -2.49500 1.58700 42.00500
H  -1.26400 2.51800 42.82800
H  -2.81200 2.28600 43.55400
H  -4.09000 -2.37700 45.43600
H  -3.82500 -3.02800 43.84200
H  -5.36900 -2.10500 44.27200
H  -1.23200 -5.52200 45.72500
H  0.75500 -5.72800 47.89600
H  -1.69200 -3.81100 47.93600
H  -1.33100 -5.54200 48.40600
H  -2.65800 -5.16400 47.35400
H  1.38200 -7.00700 45.28000
H  -0.25700 -7.34900 45.96400
H  1.81000 -7.73700 47.96200
H  2.23300 -8.69300 46.58800
H  0.58000 -8.81600 47.27200
H  7.16600 -4.81100 46.71800
H  6.26400 -5.91500 45.62900
H  5.70500 -5.71800 47.33200
H  7.09400 -0.85700 43.43200
H  7.92700 3.05000 45.19100
H  9.26300 2.92300 44.02600
H  9.34300 2.00300 45.49900
Mg 40.82900 9.76800 29.02000
C  42.60500 10.72800 31.79700
C  38.43500 8.15800 31.19900
C  39.26100 8.33100 26.38400
C  43.36900 10.95300 27.00900
N  40.68000 9.31500 31.20800
C  41.43700 10.02100 32.10100
C  40.88500 9.95400 33.51300
C  39.60100 8.96100 33.36200
C  39.54100 8.74100 31.84000
C  39.69800 7.68300 34.15500
C  40.37700 11.34700 34.12100
C  40.03900 11.41500 35.67500
H  41.03600 12.06000 36.63200
N  39.15200 8.50200 28.83400
C  38.21500 8.09200 29.80100
C  37.08100 7.43100 29.20400
C  37.37400 7.31700 27.84000
C  38.63700 8.05900 27.61900
C  35.91900 6.95500 30.07100
C  36.63100 6.63800 26.75100
O  37.05800 6.49800 25.64000
C  35.22700 6.17800 27.05900
N  41.27900 9.57100 27.01900
C  40.42200 9.03500 26.06100
C  40.91600 9.37400 24.61900
C  42.36200 10.01500 24.90800
C  42.34100 10.23200 26.40700
C  40.98600 8.20900 23.59700
C  42.57100 11.28100 24.01700
C  41.78600 12.58900 24.39000
N  42.61400 10.82600 29.25200
C  43.58700 11.15200 28.35800
C  44.68500 11.80700 29.05100
C  44.27200 11.80500 30.41900
C  43.08400 11.09200 30.44000
C  45.79200 12.60500 28.43100
C  44.66100 12.05200 31.79500
O  45.68500 12.59400 32.17700
C  43.56300 11.45200 32.77100
C  44.28900 10.46400 33.56400
O  45.20500 9.78800 33.20400
O  43.77100 10.50100 34.87300
C  44.23000 9.42200 35.70300
H  37.67200 7.81200 31.90000
H  38.83700 7.96500 25.44600
H  44.12500 11.33700 26.32100
H  41.65300 9.57900 34.18800
H  38.76800 9.54400 33.75400
H  39.43800 6.82000 33.54300
H  39.12400 7.59500 35.07700
H  40.74100 7.48700 34.40400
H  39.52900 11.64000 33.50100
H  41.09600 12.10700 33.81600
H  39.98400 10.37400 35.99300
H  38.99800 11.73300 35.73900
H  34.95200 7.06300 29.57900
H  35.82900 7.51700 31.00000
H  36.02400 5.93000 30.42600
H  34.81900 5.55600 26.26200
H  34.47200 6.90900 27.35100
H  35.46000 5.44600 27.83200
H  40.12000 10.06700 24.34400
H  43.08900 9.26800 24.58800
H  41.05200 7.28100 24.16600
H  41.85200 8.38400 22.96000
H  40.07500 8.28600 23.00300
H  42.17400 11.11400 23.01600
H  43.63000 11.52000 23.91000
H  41.12900 12.86500 23.56500
H  42.57200 13.28400 24.68700
H  41.17900 12.48200 25.28900
H  46.31500 13.13000 29.23100
H  45.34000 13.39700 27.83400
H  46.47100 12.01000 27.82200
H  43.28100 12.27900 33.42200
H  44.03300 9.76200 36.72000
H  45.26800 9.20300 35.45100
H  43.54500 8.60100 35.49300

