158

Mg 5.75000 54.25700 40.60700
C  5.77400 50.72000 40.60800
C  9.04400 54.18400 39.66000
C  5.57000 57.51600 39.87700
C  2.17500 54.00800 41.01100
N  7.24500 52.54100 39.99900
C  7.05600 51.22700 40.28800
C  8.44100 50.44600 40.21900
C  9.47700 51.63400 40.10400
C  8.57500 52.87500 39.92000
C  10.34500 51.78200 41.34200
C  8.46500 49.46800 38.99700
C  8.29200 50.17500 37.58900
H  6.99300 49.84900 36.85600
N  7.16300 55.66700 39.97800
C  8.45500 55.43200 39.64800
C  9.09700 56.71400 39.42200
C  8.08000 57.70600 39.57600
C  6.89400 56.99800 39.83200
C  10.56700 57.04800 39.19800
C  8.28100 59.24000 39.46700
O  9.32300 59.78500 39.20400
C  7.13500 60.07800 39.86700
N  4.11200 55.54100 40.50300
C  4.32900 56.87600 40.06300
C  2.92000 57.58900 40.01500
C  1.86700 56.59500 40.44200
C  2.72200 55.24400 40.66300
C  2.86300 58.87500 40.90300
C  0.67700 56.57100 39.45800
C  -0.46000 57.41000 39.84700
N  4.23500 52.81000 40.91300
C  2.90700 52.81200 41.14500
C  2.41400 51.42300 41.45400
C  3.55800 50.68300 41.36300
C  4.56300 51.48700 40.84400
C  1.00200 50.98000 41.91800
C  3.99100 49.34900 41.64800
O  3.48500 48.39000 42.15600
C  5.40800 49.30300 40.98900
C  5.21200 48.34200 39.82100
O  4.73500 48.58100 38.73200
O  5.58800 47.11000 40.19900
C  5.16600 46.05600 39.22600
H  10.13000 54.22100 39.54700
H  5.35000 58.56100 39.64800
H  1.12000 53.94400 41.28700
H  8.60400 49.93100 41.16600
H  10.12900 51.42600 39.25500
H  11.38700 51.80700 41.02300
H  10.28100 50.87500 41.94400
H  10.06100 52.65000 41.93600
H  7.71800 48.67800 38.90600
H  9.48700 49.09500 39.04800
H  9.11200 49.91300 36.92000
H  8.35500 51.25500 37.72000
H  11.04800 57.37100 40.12100
H  10.69500 57.80400 38.42300
H  11.11700 56.15700 38.89700
H  6.41400 60.21300 39.06200
H  7.43800 61.08800 40.14600
H  6.59200 59.79300 40.76800
H  2.77400 57.99600 39.01400
H  1.33800 56.84000 41.36300
H  3.84600 59.31400 41.07300
H  2.44300 58.60400 41.87200
H  2.23500 59.64700 40.45900
H  0.44500 55.50700 39.41900
H  1.01400 56.91900 38.48100
H  -0.15300 58.25100 40.46800
H  -1.08700 56.79700 40.49600
H  -1.04100 57.76400 38.99500
H  1.15900 50.34400 42.78900
H  0.50500 50.54500 41.05100
H  0.27700 51.72700 42.24000
H  6.07500 48.85200 41.72300
H  6.02500 45.58900 38.74300
H  4.45800 46.30100 38.43500
H  4.65000 45.26800 39.77400
Mg 16.44800 51.93900 25.49300
C  18.07700 50.78000 28.48300
C  13.77500 52.69300 27.47400
C  14.85800 52.62300 22.85100
C  19.27300 50.63300 23.72100
N  16.12100 52.08700 27.73500
C  16.97600 51.62300 28.70200
C  16.39100 51.95600 30.06100
C  14.90400 52.37900 29.80500
C  14.90400 52.38300 28.27600
C  13.74700 51.50500 30.45700
C  17.28900 53.00000 30.82200
C  17.67800 52.63200 32.27000
H  16.82000 51.68000 33.18500
N  14.55900 52.55500 25.18100
C  13.57300 52.81700 26.09700
C  12.33900 53.18500 25.47100
C  12.63700 53.27500 24.03300
C  14.04300 52.83800 23.96400
C  11.06900 53.53100 26.33200
C  11.66300 53.49400 22.84000
O  12.03300 53.37100 21.71100
C  10.37200 54.12800 23.13800
N  16.98600 51.55800 23.58000
C  16.09200 52.06200 22.65400
C  16.69000 51.87000 21.23900
C  18.18000 51.46700 21.59600
C  18.16100 51.18900 23.08500
C  15.96100 50.81600 20.37800
C  19.25400 52.44900 20.96000
C  19.67200 52.25400 19.50400
N  18.34200 50.85200 25.95000
C  19.32300 50.36800 25.10800
C  20.43200 49.74000 25.85800
C  19.92000 49.82000 27.21000
C  18.69500 50.55100 27.23100
C  21.67300 49.20900 25.32700
C  20.23200 49.55100 28.58800
O  21.20900 48.93600 29.07300
C  19.03200 50.16000 29.50500
C  18.54200 49.12600 30.45000
O  17.89600 48.07200 30.08900
O  19.06400 49.31200 31.70900
C  18.82000 48.15300 32.61800
H  12.91200 52.97000 28.08400
H  14.42200 53.05000 21.94500
H  20.15400 50.43800 23.10700
H  16.44500 51.05400 30.67100
H  14.78600 53.38400 30.21000
H  13.15400 51.13900 29.61800
H  13.18500 52.15000 31.13300
H  14.12500 50.70600 31.09400
H  16.84400 53.99400 30.87000
H  18.21000 53.10100 30.24900
H  17.71000 53.60400 32.76400
H  18.73100 52.35500 32.33100
H  11.09500 54.50900 26.81300
H  10.90200 52.74300 27.06700
H  10.19000 53.59400 25.69100
H  9.66700 53.45200 23.62300
H  9.75400 54.56300 22.35200
H  10.46400 54.97700 23.81500
H  16.71700 52.79000 20.65500
H  18.45400 50.48100 21.22000
H  15.04400 50.51700 20.88500
H  16.59700 49.99100 20.05500
H  15.68700 51.29500 19.43800
H  20.18500 52.45500 21.52700
H  18.79700 53.43800 20.95600
H  18.88600 51.67900 19.01400
H  20.57600 51.69800 19.25300
H  19.69200 53.22900 19.01800
H  21.56000 48.12800 25.23700
H  22.43700 49.47700 26.05700
H  21.84700 49.69900 24.36900
H  19.51100 50.96600 30.06100
H  19.61400 47.42600 32.45200
H  17.79700 47.79300 32.51400
H  19.03300 48.50300 33.62800

