158

Mg 50.07200 45.35500 41.11300
C  46.85400 46.07900 40.10500
C  49.70100 42.11400 39.98700
C  53.54100 44.82900 41.22400
C  50.71900 48.77900 41.63200
N  48.39600 44.18000 40.23600
C  47.08900 44.67700 39.95500
C  46.23500 43.51100 39.38500
C  47.17200 42.23300 39.50400
C  48.49800 42.88100 39.92700
C  46.55900 41.17900 40.53100
C  45.71100 43.68400 37.96900
C  44.61500 42.70600 37.48000
H  44.91900 41.88500 36.21900
N  51.34600 43.67700 40.82900
C  51.00800 42.41700 40.31400
C  52.19100 41.57600 40.27800
C  53.29300 42.41400 40.72500
C  52.74600 43.72900 40.95800
C  52.24000 40.11200 39.87400
C  54.65500 41.87600 40.96800
O  54.85800 40.66100 40.86900
C  55.88500 42.60600 41.56200
N  51.85800 46.61100 41.33500
C  53.15300 46.13400 41.36500
C  54.15600 47.26800 41.66000
C  53.19500 48.44300 41.99700
C  51.83700 47.87900 41.68300
C  55.31300 46.98700 42.72700
C  53.48600 49.76400 41.26900
C  53.27900 51.06400 42.07500
N  49.06200 47.08400 41.02700
C  49.41800 48.39500 41.24300
C  48.28000 49.31400 41.13400
C  47.25900 48.39500 40.59500
C  47.76800 47.07200 40.59100
C  48.28200 50.75600 41.31300
C  45.88100 48.37400 40.05500
O  45.09400 49.29800 39.76800
C  45.60600 46.91100 39.83000
C  44.45900 46.50300 40.80500
O  44.48000 46.55200 41.99900
O  43.43400 46.12700 40.02400
C  42.13500 45.84700 40.69000
H  49.56900 41.06400 39.72000
H  54.62400 44.70100 41.27700
H  50.84900 49.79300 42.01600
H  45.29800 43.43200 39.93600
H  47.17400 41.71700 38.54400
H  46.27800 40.26600 40.00600
H  45.63900 41.51800 41.00700
H  47.28700 41.02200 41.32700
H  46.52800 43.46900 37.28000
H  45.28100 44.68300 37.90300
H  43.75600 43.32100 37.21100
H  44.31200 42.01500 38.26700
H  51.38100 39.87000 39.24800
H  52.12800 39.49300 40.76400
H  53.19800 39.92800 39.38900
H  55.54500 43.28500 42.34400
H  56.32400 43.23400 40.78700
H  56.59300 41.90200 41.99800
H  54.76100 47.55100 40.79900
H  53.25700 48.62500 43.07000
H  55.44800 47.86700 43.35400
H  56.21000 46.67000 42.19600
H  55.01000 46.20000 43.41800
H  52.79300 49.79000 40.42800
H  54.54500 49.78900 41.01300
H  52.85700 50.86900 43.06100
H  52.47300 51.55600 41.53000
H  54.16400 51.70000 42.08200
H  47.38100 51.01900 41.86700
H  48.10100 51.09500 40.29300
H  49.18300 51.26300 41.65900
H  45.40000 46.78800 38.76600
H  41.74700 44.96800 40.17700
H  41.48000 46.67700 40.42500
H  42.17900 45.65800 41.76300
Mg -3.13500 35.31600 27.27100
C  -4.95700 33.50800 29.69700
C  -2.16400 37.38900 29.84400
C  -1.56300 37.07300 24.98300
C  -4.24400 33.11400 24.88400
N  -3.46100 35.40800 29.51000
C  -4.20900 34.53100 30.24500
C  -3.93600 34.72200 31.73700
C  -3.22700 36.12100 31.72600
C  -2.99700 36.38300 30.27100
C  -4.18400 37.21300 32.24800
C  -3.27100 33.54400 32.53600
C  -4.17600 32.98600 33.67800
H  -3.83100 33.58700 35.07000
N  -2.05700 36.98700 27.39700
C  -1.65400 37.63000 28.54500
C  -0.58700 38.60600 28.15400
C  -0.44300 38.52400 26.77200
C  -1.34600 37.45700 26.34300
C  0.06300 39.47600 29.16200
C  0.44200 39.35000 25.81700
O  0.55300 39.12500 24.63100
C  1.14800 40.55200 26.25800
N  -3.11500 35.19800 25.17400
C  -2.31800 36.04200 24.46100
C  -2.31000 35.62100 22.97400
C  -2.96200 34.25900 22.97600
C  -3.44400 34.15500 24.43200
C  -3.06200 36.70000 22.08500
C  -2.16600 33.02100 22.44900
C  -2.94000 31.87300 21.96000
N  -4.41300 33.66900 27.27000
C  -4.76300 32.85000 26.19500
C  -5.73000 31.91700 26.57800
C  -5.82800 32.11300 28.02000
C  -4.99400 33.20300 28.33000
C  -6.44000 30.85500 25.74500
C  -6.48500 31.61100 29.17000
O  -7.20500 30.64100 29.26200
C  -5.90900 32.47200 30.35400
C  -7.00700 33.08400 31.09700
O  -7.50300 34.15900 30.80600
O  -7.54400 32.10700 31.95000
C  -8.72200 32.58400 32.69100
H  -1.80900 38.11500 30.57900
H  -1.01500 37.42000 24.10400
H  -4.50700 32.31900 24.18200
H  -4.89700 34.95600 32.19600
H  -2.25700 36.07800 32.22100
H  -5.13400 37.13700 31.71800
H  -3.81100 38.19200 31.94600
H  -4.30700 37.18400 33.33100
H  -2.41000 33.95100 33.06500
H  -2.90000 32.74700 31.89200
H  -4.21200 31.89800 33.74300
H  -5.24700 33.04900 33.48700
H  1.14400 39.59600 29.22700
H  -0.31000 39.49400 30.18600
H  -0.39800 40.38100 28.76600
H  0.49300 41.27000 26.75100
H  1.69700 40.93500 25.39700
H  1.88900 40.34400 27.02900
H  -1.30000 35.46600 22.59400
H  -3.84100 34.39900 22.34600
H  -2.93200 37.67800 22.54700
H  -4.12300 36.55600 21.87600
H  -2.58500 36.63700 21.10700
H  -1.66800 32.73300 23.37500
H  -1.35000 33.36900 21.81500
H  -2.82700 30.96900 22.55900
H  -2.62400 31.55600 20.96600
H  -3.99500 32.13800 22.02700
H  -6.69400 29.94700 26.29100
H  -5.73300 30.70800 24.92800
H  -7.32900 31.25800 25.25900
H  -5.45000 31.78300 31.06300
H  -9.28000 31.70100 33.00300
H  -9.43200 33.17600 32.11500
H  -8.47100 33.20100 33.55400

