158

Mg 0.80100 7.48600 25.11100
C  1.24800 8.69200 28.38100
C  1.39500 4.25900 26.38900
C  0.67500 6.04800 21.94400
C  0.99800 10.60000 23.82300
N  1.26000 6.57500 27.10700
C  1.26500 7.28800 28.32200
C  1.52800 6.28200 29.47400
C  1.70200 4.94100 28.77400
C  1.54300 5.26000 27.33300
C  3.10400 4.26400 28.98400
C  0.46900 6.32900 30.58300
C  1.01300 6.32600 31.96400
H  2.07200 5.31500 32.37800
N  0.84900 5.49200 24.29200
C  1.04500 4.34700 24.99000
C  0.91400 3.20200 24.14400
C  0.66000 3.72300 22.86400
C  0.72500 5.17400 23.00600
C  0.84100 1.82700 24.61600
C  0.46000 2.88400 21.61500
O  0.29100 3.32300 20.46200
C  0.37300 1.31600 21.52900
N  0.93500 8.17500 23.15500
C  0.65800 7.47600 22.07200
C  0.31500 8.40700 20.86700
C  0.43400 9.78800 21.51600
C  0.80900 9.52100 22.90600
C  1.29700 8.17400 19.63300
C  -0.90600 10.62900 21.49300
C  -0.91300 11.96500 20.69800
N  1.16700 9.25800 25.88700
C  1.23700 10.51100 25.24000
C  1.43300 11.50600 26.21400
C  1.41400 10.87400 27.49400
C  1.23000 9.51800 27.22000
C  1.52000 13.02100 25.90700
C  1.41700 11.09000 28.91100
O  1.58500 12.09300 29.67700
C  1.34400 9.62900 29.48900
C  2.59600 9.47700 30.29000
O  3.61700 8.97300 29.93400
O  2.42300 9.99400 31.58700
C  3.56100 9.82200 32.52600
H  1.63300 3.23300 26.67500
H  0.58900 5.63000 20.93900
H  0.84800 11.58300 23.37000
H  2.47500 6.63100 29.88700
H  0.97800 4.21700 29.14800
H  3.57800 4.83900 29.77900
H  3.82200 4.38600 28.17300
H  3.07600 3.24000 29.35700
H  -0.18300 5.45700 30.53400
H  -0.11800 7.24500 30.51500
H  0.23100 6.24900 32.72000
H  1.35400 7.34600 32.13700
H  -0.09200 1.35800 24.30500
H  0.94100 1.61900 25.68100
H  1.70100 1.30300 24.19800
H  1.05500 0.77400 22.18400
H  0.47200 0.96600 20.50100
H  -0.65200 1.19400 21.87800
H  -0.67800 8.12200 20.52200
H  1.24900 10.32700 21.03100
H  2.09100 7.43600 19.74500
H  1.67600 9.14900 19.32500
H  0.73200 7.93100 18.73300
H  -1.11600 10.84500 22.54000
H  -1.70500 9.96500 21.16500
H  -1.38600 11.94600 19.71600
H  0.12800 12.25600 20.56100
H  -1.37900 12.73900 21.30700
H  1.25000 13.71000 26.70700
H  0.73000 13.17600 25.17200
H  2.48100 13.35700 25.51800
H  0.54200 9.58600 30.22600
H  3.50300 10.51700 33.36300
H  4.52100 9.94900 32.02500
H  3.54000 8.83600 32.99100
Mg 26.75300 51.13400 27.00600
C  24.40000 52.11300 29.36700
C  28.86600 50.19900 29.46300
C  28.80700 50.14600 24.58100
C  24.58300 52.50100 24.38200
N  26.54100 51.23900 29.16600
C  25.44200 51.44500 29.94100
C  25.74600 51.15600 31.41500
C  27.35000 50.88400 31.41500
C  27.61700 50.68600 29.89800
C  28.13200 52.11300 32.01300
C  24.82900 50.02400 31.95000
C  24.08100 50.37900 33.22600
H  24.80000 51.10500 34.36100
N  28.56700 50.28300 26.98500
C  29.28700 49.96400 28.15200
C  30.53900 49.29000 27.70300
C  30.54800 49.31100 26.32400
C  29.30200 49.94900 25.87100
C  31.68200 48.77000 28.61100
C  31.67500 48.86600 25.43300
O  31.66400 49.15900 24.23300
C  32.83700 48.02500 25.86200
N  26.62200 51.22500 24.69500
C  27.59900 50.73400 24.00800
C  27.25300 50.75000 22.54100
C  25.87700 51.48800 22.41800
C  25.64100 51.74400 23.89400
C  28.43300 51.33500 21.62800
C  24.73700 50.61600 21.77800
C  24.42100 51.10500 20.37200
N  24.93300 52.17900 26.83100
C  24.12400 52.60900 25.77800
C  22.89700 53.24600 26.27300
C  23.02600 53.07100 27.68600
C  24.27400 52.48900 27.98200
C  21.89100 53.93700 25.47600
C  22.27300 53.25500 28.92200
O  21.15700 53.69500 29.14200
C  23.22000 52.65300 30.08200
C  23.61500 53.89000 30.89900
O  24.44400 54.75500 30.60200
O  22.90500 53.86300 32.04200
C  23.22400 54.86300 33.04500
H  29.50200 49.80300 30.25700
H  29.50400 49.73600 23.84700
H  23.99600 52.91300 23.55800
H  25.65000 52.09500 31.96000
H  27.49700 49.98300 32.01000
H  27.70400 52.69000 32.83200
H  28.39000 52.68400 31.12100
H  29.02300 51.72900 32.51100
H  25.27600 49.04900 32.14800
H  24.02000 49.78600 31.25900
H  23.73700 49.41300 33.59500
H  23.25400 51.01800 32.91600
H  31.80400 47.70200 28.42700
H  31.56900 48.98200 29.67400
H  32.57000 49.36000 28.38900
H  33.31000 47.71500 24.93000
H  32.52200 47.18100 26.47600
H  33.53500 48.64300 26.42800
H  27.21000 49.71600 22.20000
H  26.05100 52.49800 22.04700
H  27.93500 51.92900 20.86100
H  28.97800 50.55900 21.09000
H  29.08400 51.87200 22.31800
H  23.86700 50.83800 22.39600
H  24.94800 49.54800 21.72000
H  24.92200 52.03000 20.09000
H  23.37300 51.38100 20.25100
H  24.73400 50.30200 19.70400
H  21.63700 53.33100 24.60700
H  22.13400 54.94000 25.12400
H  21.02700 54.02900 26.13400
H  22.80500 51.83800 30.67400
H  22.81900 55.79000 32.63900
H  24.30000 55.03500 33.06600
H  22.82600 54.57100 34.01700

