158

Mg 1.57200 -1.25100 44.18200
C  5.10300 -0.60200 43.56800
C  0.86600 1.64000 42.48000
C  -1.59000 -2.12700 44.27200
C  2.64500 -4.42900 45.40100
N  2.82600 0.22200 43.04800
C  4.20600 0.35000 42.99700
C  4.64200 1.58700 42.13800
C  3.34600 2.36500 42.03000
C  2.28900 1.37300 42.53400
C  3.23600 3.76200 42.80700
C  5.34900 1.20200 40.78300
C  6.77600 1.81900 40.48500
H  6.72300 2.66600 39.24800
N  -0.11500 -0.34400 43.53100
C  -0.22300 0.81800 42.78600
C  -1.65200 1.06500 42.54000
C  -2.33500 -0.02300 43.11100
C  -1.34900 -0.91600 43.64300
C  -2.22000 2.28800 41.76100
C  -3.84800 -0.22100 43.11400
O  -4.46000 0.77400 42.72000
C  -4.58900 -1.30300 43.84700
N  0.68700 -3.05200 44.69500
C  -0.66300 -3.03000 44.83300
C  -1.19600 -4.38800 45.34100
C  0.17600 -5.12300 45.75500
C  1.26700 -4.16400 45.21400
C  -2.35400 -4.32700 46.32400
C  0.43800 -6.49000 45.21600
C  -0.75500 -7.49200 45.03000
N  3.44600 -2.28300 44.51700
C  3.70200 -3.58600 45.06700
C  5.14700 -3.81500 45.11600
C  5.71800 -2.64700 44.56000
C  4.67100 -1.75400 44.20100
C  5.87300 -5.09600 45.47800
C  6.95600 -2.06200 44.11200
O  8.05900 -2.53600 44.08900
C  6.62300 -0.67600 43.46400
C  7.25500 0.34400 44.27700
O  7.00600 0.68400 45.39800
O  8.38100 0.81200 43.66700
C  9.21800 1.84300 44.26800
H  0.50700 2.60400 42.11400
H  -2.58800 -2.57100 44.29600
H  2.90500 -5.32400 45.97100
H  5.24200 2.25400 42.75700
H  3.17000 2.76700 41.03300
H  3.92700 3.56400 43.62600
H  2.37900 4.02600 43.42600
H  3.52100 4.63100 42.21400
H  4.68900 1.57400 39.99900
H  5.44300 0.11900 40.71000
H  7.45500 0.97000 40.41200
H  7.02000 2.43000 41.35400
H  -2.88900 1.90300 40.99200
H  -1.45800 2.97200 41.38700
H  -2.86000 2.81600 42.46800
H  -5.65200 -1.06200 43.85200
H  -4.13900 -1.32800 44.84000
H  -4.42600 -2.26200 43.35500
H  -1.49000 -4.85900 44.40300
H  0.29100 -5.13300 46.83900
H  -1.99600 -4.51200 47.33600
H  -3.09800 -5.08300 46.07100
H  -2.79000 -3.32900 46.29600
H  1.17300 -7.04500 45.79900
H  0.84600 -6.32100 44.22000
H  -1.57600 -7.31600 45.72600
H  -0.46000 -8.53900 45.09100
H  -1.09800 -7.47900 43.99600
H  5.97700 -5.86800 44.71600
H  5.33400 -5.42900 46.36500
H  6.82900 -4.80700 45.91600
H  6.94200 -0.67800 42.42200
H  9.89800 2.39600 43.62000
H  9.82700 1.36400 45.03500
H  8.68300 2.68400 44.70900
Mg 25.94800 -0.76900 29.14700
C  28.04700 -1.05300 31.94100
C  23.24900 -0.77200 31.29000
C  23.96700 -0.74200 26.53400
C  28.74700 -1.26700 27.07000
N  25.70600 -1.00500 31.43900
C  26.69200 -1.07800 32.31800
C  26.10300 -1.07400 33.79800
C  24.52800 -1.01700 33.50400
C  24.43800 -0.95400 31.96100
C  23.62700 -2.19900 34.04800
C  26.75100 -0.04100 34.78300
C  25.81800 0.64600 35.86400
H  26.49800 1.22900 37.14900
N  23.98600 -0.68800 28.97100
C  23.01100 -0.54100 29.92600
C  21.73200 -0.29600 29.34000
C  21.87500 -0.30100 27.91400
C  23.29400 -0.59600 27.76000
C  20.46900 -0.43500 30.13700
C  20.86600 -0.12200 26.79600
O  21.07700 -0.17600 25.59300
C  19.46700 0.11900 27.17100
N  26.33100 -0.77800 27.04700
C  25.30500 -0.91400 26.25000
C  25.80300 -0.88600 24.80100
C  27.36000 -1.08200 24.91100
C  27.54800 -1.16000 26.41100
C  25.15000 -2.07500 23.87800
C  28.13100 0.11100 24.34300
C  28.53300 -0.02500 22.85200
N  28.01200 -0.98000 29.47000
C  28.98200 -1.19700 28.49100
C  30.29000 -1.27400 29.18700
C  29.98100 -1.21100 30.54400
C  28.59200 -1.08600 30.65700
C  31.57100 -1.63600 28.46400
C  30.47500 -1.21700 31.86500
O  31.58700 -1.35300 32.27100
C  29.26800 -1.11500 32.87100
C  29.26800 -2.27500 33.92000
O  28.87600 -3.37600 33.67600
O  29.68100 -1.84200 35.09800
C  29.42100 -2.60500 36.31500
H  22.49800 -0.68400 32.07800
H  23.41300 -0.66500 25.59600
H  29.60000 -1.45900 26.41700
H  26.31700 -2.10400 34.08500
H  24.17200 -0.03800 33.82600
H  24.16200 -3.03400 34.50000
H  22.98500 -2.68800 33.31500
H  22.98600 -1.84600 34.85500
H  27.10000 0.80900 34.19700
H  27.55000 -0.44700 35.40300
H  25.02000 -0.03800 36.15300
H  25.28300 1.37200 35.25200
H  19.55800 -0.28700 29.55600
H  20.34000 0.38600 30.84200
H  20.48500 -1.24100 30.87000
H  19.09800 -0.79500 27.63500
H  18.95200 0.21600 26.21500
H  19.38200 1.04200 27.74400
H  25.60300 0.13100 24.46300
H  27.64900 -2.06300 24.53300
H  24.95100 -1.60600 22.91500
H  24.31000 -2.58500 24.34900
H  25.79500 -2.91000 23.60200
H  29.01100 0.30100 24.95800
H  27.59100 1.05700 24.36700
H  28.11300 0.66600 22.12100
H  28.31400 -1.02500 22.47900
H  29.59800 0.18200 22.74600
H  31.29300 -1.89100 27.44200
H  31.84400 -2.59200 28.91100
H  32.43200 -0.98300 28.60700
H  29.56400 -0.14100 33.26000
H  30.27100 -3.20600 36.64000
H  28.56700 -3.25900 36.14000
H  29.11900 -1.88700 37.07700

