158

Mg 0.50200 8.22200 27.24000
C  1.10100 10.34900 29.97500
C  0.64900 5.57900 29.33500
C  0.50000 6.27800 24.53900
C  0.72500 11.04400 25.11500
N  0.91000 7.97500 29.41600
C  1.01900 8.99700 30.34800
C  0.74700 8.45400 31.76300
C  1.03000 6.99600 31.54200
C  0.77700 6.76600 30.00000
C  2.43700 6.49800 31.94300
C  -0.68900 8.79200 32.27100
C  -1.04700 9.19000 33.79200
H  -0.02700 8.94100 34.92300
N  0.56800 6.15700 26.98500
C  0.63500 5.19000 27.95600
C  0.65500 3.86200 27.38900
C  0.54400 4.01200 25.99600
C  0.55500 5.57300 25.77400
C  0.81500 2.57000 28.13700
C  0.43500 2.98000 24.88500
O  0.36000 3.34900 23.70800
C  0.36300 1.53000 25.18200
N  0.56300 8.64700 25.15500
C  0.52500 7.66900 24.26100
C  0.33300 8.18100 22.84200
C  -0.04500 9.70500 23.10500
C  0.41200 9.79800 24.52600
C  1.60800 8.09700 22.00600
C  -1.50300 10.03000 22.93400
C  -1.77100 11.28600 22.14000
N  0.77600 10.33000 27.48200
C  0.99500 11.30600 26.50600
C  1.27400 12.54800 27.15400
C  1.35600 12.26300 28.50700
C  1.09000 10.87000 28.61700
C  1.40500 13.86000 26.56800
C  1.57400 12.80400 29.86100
O  1.78400 13.91500 30.23600
C  1.26100 11.58200 30.83000
C  2.39200 11.48400 31.85600
O  3.42300 10.89400 31.67300
O  1.97400 12.10100 33.04300
C  2.98800 12.35500 33.98100
H  0.80400 4.82700 30.11200
H  0.38600 5.76400 23.58200
H  0.59400 11.79300 24.33200
H  1.46200 8.90200 32.45200
H  0.32700 6.39500 32.12000
H  2.94400 7.34300 32.40800
H  3.14500 6.09700 31.21800
H  2.20300 5.63800 32.57000
H  -1.30800 7.94500 31.97500
H  -0.93100 9.68600 31.69700
H  -2.03400 8.76900 33.98300
H  -1.26900 10.25500 33.84300
H  0.85700 2.69000 29.21900
H  1.68100 1.94400 27.92200
H  -0.09400 1.97800 28.03300
H  1.22100 1.09400 25.69400
H  0.32000 1.04600 24.20700
H  -0.51400 1.30200 25.78800
H  -0.53900 7.66400 22.44300
H  0.52100 10.38200 22.46500
H  1.59700 7.06400 21.65800
H  2.49700 8.14100 22.63500
H  1.70600 8.85800 21.23100
H  -2.01400 10.01500 23.89600
H  -2.10700 9.24700 22.47600
H  -0.92500 11.58900 21.52200
H  -2.04100 12.05200 22.86600
H  -2.59000 11.13900 21.43500
H  1.69900 14.55000 27.35900
H  0.44800 14.28800 26.27000
H  2.08800 13.84300 25.71800
H  0.33600 11.96400 31.26300
H  2.60100 12.79300 34.90100
H  3.73600 13.06000 33.61900
H  3.62300 11.49200 34.17700
Mg 50.72300 45.58700 41.58900
C  47.67000 46.91800 40.31200
C  49.79200 42.70200 40.01200
C  53.88900 44.74100 41.49000
C  51.66400 48.91900 42.47200
N  48.96500 44.95200 40.22600
C  47.84400 45.64700 39.87300
C  46.73000 44.74500 39.20900
C  47.34700 43.34700 39.44600
C  48.78800 43.68500 39.93800
C  46.51600 42.35400 40.35300
C  46.65200 45.25600 37.69600
C  45.16900 45.19100 37.21200
H  44.91300 44.09700 36.15900
N  51.62800 43.86000 41.14600
C  51.08500 42.76100 40.49000
C  52.12900 41.72800 40.39100
C  53.37100 42.29300 40.86400
C  52.97100 43.71600 41.24700
C  51.87600 40.30800 40.08000
C  54.67900 41.53800 40.89900
O  54.68300 40.32900 40.65400
C  55.79900 42.20700 41.49600
N  52.54100 46.62400 42.00300
C  53.76700 46.10400 41.75100
C  54.85500 47.08600 41.91700
C  54.13900 48.36200 42.46400
C  52.68800 47.92000 42.38700
C  56.13400 46.60900 42.77300
C  54.46500 49.78300 41.76200
C  54.78100 50.89300 42.82900
N  49.81900 47.53900 41.63900
C  50.28800 48.77300 41.98500
C  49.32300 49.80000 41.82800
C  48.25200 49.03900 41.19900
C  48.60700 47.68400 41.05700
C  49.33300 51.29700 42.15500
C  46.99600 49.31500 40.59700
O  46.39700 50.41000 40.46200
C  46.47900 47.83800 40.08200
C  45.32200 47.50900 40.90800
O  45.26300 46.59800 41.66500
O  44.29400 48.45200 40.70800
C  43.11600 48.22700 41.58600
H  49.44700 41.72300 39.67300
H  54.97100 44.62300 41.40500
H  51.93800 49.97400 42.55000
H  45.73900 44.78700 39.66000
H  47.37400 42.75000 38.53500
H  45.52000 42.79400 40.40000
H  46.91500 42.34600 41.36700
H  46.50200 41.36200 39.90200
H  47.19900 44.55300 37.06800
H  46.94400 46.28800 37.50200
H  44.97500 46.21400 36.89300
H  44.46600 44.92200 38.00000
H  52.31500 40.08000 39.10900
H  50.81600 40.11100 39.92000
H  52.18100 39.69300 40.92700
H  55.55300 42.57500 42.49200
H  56.05400 42.99800 40.79100
H  56.65100 41.52700 41.49200
H  55.23400 47.21300 40.90300
H  54.46600 48.47100 43.49800
H  56.09100 45.54200 42.99100
H  56.14500 47.16800 43.70900
H  57.09600 46.63900 42.26200
H  53.67400 50.09300 41.07900
H  55.32400 49.68000 41.09800
H  55.80700 51.25300 42.76000
H  54.55500 50.54800 43.83800
H  54.17900 51.78200 42.64000
H  49.99000 51.33600 43.02300
H  48.30900 51.54700 42.43600
H  49.78000 51.85700 41.33300
H  46.35800 47.78600 39.00000
H  42.37800 49.02900 41.54400
H  43.59100 48.38700 42.55400
H  42.69800 47.26900 41.27500

