158

Mg 47.20000 24.60200 27.17400
C  48.48500 26.85300 29.64000
C  46.27200 22.49800 29.72800
C  46.46000 22.24600 24.88200
C  48.48600 26.73700 24.63500
N  47.52000 24.66600 29.46600
C  47.83900 25.72900 30.20800
C  47.55900 25.45800 31.67800
C  47.23100 23.91100 31.61800
C  46.87700 23.75100 30.13900
C  48.48300 22.98700 32.03700
C  46.38600 26.36300 32.21800
C  45.88100 25.85100 33.63700
H  46.03300 26.84200 34.75000
N  46.38400 22.70800 27.24300
C  46.06600 22.05000 28.40300
C  45.51000 20.76200 28.09000
C  45.43900 20.70100 26.69200
C  46.17000 21.89500 26.16700
C  45.01000 19.74200 29.12400
C  44.90500 19.59200 25.76400
O  45.02800 19.75100 24.55700
C  44.31300 18.29400 26.32900
N  47.24800 24.60300 25.03700
C  46.99600 23.42400 24.39000
C  47.14500 23.71100 22.85700
C  47.64100 25.16700 22.79900
C  47.86200 25.52500 24.26500
C  47.91600 22.64800 22.15000
C  46.65600 26.14300 22.08700
C  47.29700 27.10200 21.09400
N  48.27100 26.35700 27.10100
C  48.77500 27.09900 26.00200
C  49.55600 28.30000 26.48900
C  49.40900 28.18800 27.86400
C  48.64100 27.03200 28.23900
C  50.21800 29.38800 25.71400
C  49.62900 28.94300 29.16900
O  50.23200 29.95200 29.35700
C  48.89500 28.17600 30.34200
C  49.84000 27.87700 31.44100
O  50.72100 27.06600 31.55200
O  49.29600 28.56500 32.51500
C  49.98200 28.42600 33.80700
H  46.02500 21.84000 30.56400
H  46.30400 21.67500 23.96400
H  48.69700 27.48200 23.86400
H  48.43400 25.65300 32.29800
H  46.35600 23.64400 32.21200
H  48.91100 22.51400 31.15300
H  48.21400 22.14300 32.67300
H  49.24600 23.56700 32.55600
H  45.52700 26.13900 31.58600
H  46.52800 27.44200 32.26600
H  46.51800 25.07200 34.05500
H  44.87600 25.42900 33.65100
H  45.00400 20.05900 30.16700
H  45.48300 18.77300 28.97100
H  43.95800 19.50900 28.95700
H  43.44600 18.48400 26.96200
H  45.08900 17.81800 26.92900
H  43.91300 17.70400 25.50400
H  46.16300 23.66200 22.38600
H  48.57100 25.25300 22.23600
H  47.28400 21.89600 21.67600
H  48.46100 22.12500 22.93600
H  48.63500 23.07700 21.45200
H  46.08700 26.80600 22.73900
H  45.81700 25.71200 21.54100
H  47.18400 28.11400 21.48100
H  46.95900 27.14900 20.05900
H  48.36300 26.90900 20.96900
H  50.33400 29.10100 24.66900
H  51.19600 29.51900 26.17600
H  49.78600 30.38700 25.78700
H  48.13300 28.91700 30.58600
H  51.06300 28.28600 33.80100
H  49.49800 27.66900 34.42300
H  49.92800 29.34300 34.39400
Mg 29.67400 57.56700 39.93800
C  27.08700 55.37000 38.82100
C  31.92100 55.10800 38.83900
C  32.20900 59.88700 40.12600
C  27.33000 60.15700 40.26600
N  29.46000 55.42200 39.05900
C  28.35500 54.74300 38.72000
C  28.62100 53.27900 38.25900
C  30.14300 53.21900 38.48900
C  30.56200 54.61100 38.94300
C  30.59100 52.21400 39.50800
C  28.16900 53.04100 36.77100
C  28.75300 53.97300 35.61600
H  27.74700 54.77200 34.69700
N  31.77200 57.48900 39.70600
C  32.48600 56.36500 39.15500
C  33.87100 56.69600 39.15900
C  33.98300 58.02100 39.73200
C  32.64800 58.52900 39.95200
C  34.98900 55.70500 38.73300
C  35.32600 58.81600 39.91600
O  36.35900 58.35300 39.48100
C  35.41700 60.25900 40.54400
N  29.74000 59.79200 40.08500
C  30.91900 60.46200 40.25400
C  30.61000 62.02000 40.31000
C  28.98400 62.00300 40.37400
C  28.65500 60.58700 40.29300
C  31.29700 62.86500 41.31100
C  28.22000 62.91800 39.44300
C  26.92200 63.65300 39.92600
N  27.57800 57.73900 39.81500
C  26.83500 58.86300 39.95300
C  25.48600 58.50500 39.77300
C  25.53000 57.15200 39.35200
C  26.86500 56.70100 39.34000
C  24.34100 59.52300 39.94300
C  24.70800 56.00500 38.86200
O  23.51900 55.88200 38.66900
C  25.69100 54.90600 38.46500
C  25.44600 53.67900 39.24000
O  25.67100 53.48900 40.42400
O  24.78400 52.78100 38.44200
C  24.30300 51.51400 39.02700
H  32.56300 54.24300 38.66500
H  33.00100 60.63900 40.11600
H  26.61700 60.95800 40.47200
H  28.03400 52.69600 38.96800
H  30.62500 52.95700 37.54700
H  31.11100 51.51800 38.85000
H  29.73800 51.79500 40.04200
H  31.33200 52.67300 40.16300
H  27.09100 52.90700 36.86100
H  28.69700 52.10200 36.60800
H  29.38900 53.40600 34.93600
H  29.54500 54.65800 35.91900
H  35.53300 56.04400 37.85100
H  34.52000 54.72600 38.64300
H  35.67900 55.45700 39.53900
H  36.36200 60.56000 40.99500
H  34.68200 60.46100 41.32300
H  35.11900 60.90000 39.71300
H  30.83200 62.45900 39.33700
H  28.84900 62.36700 41.39200
H  31.99100 63.43700 40.69500
H  31.74200 62.28100 42.11600
H  30.63900 63.59800 41.78000
H  28.02800 62.33100 38.54500
H  28.90000 63.74000 39.22300
H  26.07100 63.48800 39.26500
H  27.00600 64.73800 39.98300
H  26.58200 63.29600 40.89900
H  24.24200 59.75200 41.00400
H  23.37400 59.16700 39.58700
H  24.45800 60.49400 39.46300
H  25.50800 54.77100 37.39900
H  24.64500 51.30800 40.04100
H  24.53100 50.63800 38.42000
H  23.22400 51.64800 39.10200

