158

Mg 1.82700 -2.64100 44.34800
C  5.39700 -2.47000 43.82800
C  1.60000 0.19900 42.33900
C  -1.33500 -3.32700 44.05200
C  2.38600 -5.86900 45.71600
N  3.44100 -1.26700 43.26100
C  4.83900 -1.42700 43.14000
C  5.41000 -0.36800 42.15700
C  4.17400 0.50900 41.75200
C  2.94200 -0.19400 42.50100
C  4.31800 2.03700 42.05300
C  6.27600 -1.02900 40.94100
C  7.62900 -0.43000 40.58500
H  7.68800 0.86600 39.83000
N  0.22800 -1.61600 43.51300
C  0.38400 -0.43300 42.78000
C  -0.94000 0.03000 42.43800
C  -1.91000 -0.94100 42.83400
C  -1.03100 -1.97500 43.54000
C  -1.03500 1.44200 41.87300
C  -3.39900 -0.87700 42.66300
O  -3.96800 0.04200 42.10000
C  -4.30500 -1.79900 43.30000
N  0.75100 -4.35900 44.84000
C  -0.58100 -4.34600 44.67600
C  -1.16100 -5.67200 45.16600
C  0.04700 -6.57900 45.46600
C  1.11400 -5.57400 45.34000
C  -2.28700 -5.45100 46.32800
C  0.23900 -7.79300 44.52700
C  0.65800 -9.15000 45.28900
N  3.48200 -3.83600 44.93600
C  3.57400 -5.13000 45.35800
C  4.97000 -5.49900 45.59400
C  5.65800 -4.42700 45.13500
C  4.74900 -3.49300 44.55000
C  5.44400 -6.81200 46.15600
C  7.04500 -4.03800 44.91500
O  8.02000 -4.56500 45.23000
C  6.92500 -2.78200 43.85800
C  7.68900 -1.59100 44.31700
O  7.30600 -0.64300 44.97000
O  8.98200 -1.63100 43.80300
C  9.77700 -0.43700 43.91200
H  1.51400 1.04500 41.65500
H  -2.35700 -3.67900 43.89700
H  2.55200 -6.87600 46.10300
H  6.09300 0.28400 42.70200
H  3.84600 0.48700 40.71300
H  5.33800 2.29600 42.33700
H  3.61700 2.28000 42.85100
H  3.99800 2.63200 41.19800
H  5.64200 -1.02900 40.05400
H  6.46600 -2.07800 41.16700
H  8.12200 -1.18300 39.97000
H  8.27600 -0.30100 41.45200
H  -2.07100 1.64100 41.59800
H  -0.46300 1.42000 40.94600
H  -0.54100 2.18100 42.50500
H  -5.37900 -1.65200 43.19000
H  -3.91800 -1.98400 44.30300
H  -4.13500 -2.70700 42.72100
H  -1.64800 -6.04800 44.26600
H  0.00400 -6.90800 46.50400
H  -2.67100 -4.44000 46.19000
H  -1.86300 -5.35400 47.32700
H  -3.01600 -6.25100 46.19800
H  1.05500 -7.58700 43.83400
H  -0.69900 -8.01200 44.01700
H  -0.11800 -9.91500 45.24700
H  0.84600 -9.14300 46.36200
H  1.60500 -9.44200 44.83500
H  5.57700 -6.75400 47.23600
H  6.44800 -7.02400 45.78800
H  4.71200 -7.58000 45.90900
H  7.26000 -3.07700 42.86300
H  10.32900 -0.44900 44.85200
H  9.15800 0.45500 43.82500
H  10.61300 -0.46900 43.21200
Mg -2.64900 35.59900 26.69700
C  -4.16700 33.75200 29.21800
C  -1.17600 37.52400 29.18900
C  -1.35800 37.52900 24.31700
C  -4.46900 33.90300 24.27700
N  -2.77900 35.66600 28.99700
C  -3.40100 34.77900 29.81100
C  -3.00500 34.98500 31.35200
C  -2.39100 36.41200 31.34400
C  -2.05200 36.53700 29.74300
C  -3.14700 37.64400 31.74600
C  -2.17400 33.84200 31.87300
C  -2.82600 32.91500 32.85400
H  -2.06200 32.62800 34.22300
N  -1.33400 37.20000 26.75800
C  -0.81700 37.82900 27.87300
C  0.24900 38.77500 27.44400
C  0.11300 38.87700 26.00900
C  -0.92900 37.81400 25.60100
C  1.24400 39.40500 28.42700
C  0.79800 39.79900 25.02200
O  0.70700 39.72500 23.81000
C  1.89400 40.81300 25.53800
N  -2.89000 35.73000 24.54600
C  -2.31200 36.62700 23.78400
C  -2.58800 36.35400 22.30600
C  -3.36600 35.03900 22.33700
C  -3.60300 34.86000 23.79100
C  -3.26000 37.50100 21.55400
C  -2.64800 33.85300 21.63100
C  -1.45300 33.23400 22.32800
N  -3.98700 34.11200 26.70500
C  -4.69900 33.53600 25.62800
C  -5.52800 32.47200 26.18100
C  -5.40400 32.50600 27.58500
C  -4.42300 33.48000 27.87400
C  -6.43000 31.56900 25.40900
C  -5.77000 31.83300 28.79600
O  -6.53000 30.97400 29.01200
C  -4.87600 32.61000 29.92400
C  -5.81300 33.08600 30.99400
O  -6.61900 34.01700 30.91000
O  -5.71600 32.25400 32.08000
C  -6.79300 32.30200 33.11100
H  -0.65200 38.08800 29.96300
H  -0.85100 38.04900 23.50200
H  -4.94500 33.34200 23.47000
H  -3.90300 35.15400 31.94600
H  -1.49700 36.28700 31.95400
H  -4.07700 37.33900 32.22500
H  -3.27600 38.44200 31.01400
H  -2.62400 37.95800 32.65000
H  -1.26200 34.19700 32.35300
H  -1.82800 33.18900 31.07100
H  -3.09800 31.95700 32.40900
H  -3.65100 33.55200 33.17400
H  1.28000 38.84700 29.36300
H  1.03800 40.45300 28.64400
H  2.21600 39.37400 27.93500
H  2.78100 40.31100 25.92400
H  1.39500 41.43200 26.28400
H  2.30900 41.35400 24.68700
H  -1.56500 36.30200 21.93400
H  -4.31400 35.20300 21.82500
H  -3.71600 38.02200 22.39600
H  -3.94600 37.23100 20.75100
H  -2.50900 38.15700 21.11500
H  -2.33000 34.21400 20.65300
H  -3.37900 33.04500 21.63700
H  -1.17300 33.69600 23.27400
H  -0.52600 33.31300 21.76000
H  -1.63900 32.17300 22.49500
H  -5.87800 30.99600 24.66400
H  -7.21000 32.11500 24.87700
H  -6.83600 30.86100 26.13100
H  -4.11700 31.96500 30.36600
H  -7.77900 32.70400 32.87700
H  -6.40400 32.75900 34.02100
H  -6.91900 31.23300 33.28200

