158

Mg -2.07800 16.93300 27.41200
C  -2.31700 14.95000 30.37000
C  -2.34800 19.74400 29.31200
C  -1.78000 18.72100 24.60500
C  -1.41200 14.06200 25.65500
N  -2.41300 17.30700 29.61300
C  -2.30700 16.36100 30.56100
C  -2.47400 17.05000 31.94100
C  -2.45900 18.54700 31.62800
C  -2.31900 18.55100 30.11500
C  -3.62100 19.40000 32.25000
C  -1.45500 16.61600 33.00400
C  -1.08600 17.53800 34.16300
H  -0.67700 16.98800 35.49000
N  -2.23000 18.87900 26.95400
C  -2.30400 19.88600 27.88300
C  -2.24300 21.20400 27.23800
C  -2.10900 20.87100 25.83400
C  -2.05500 19.44800 25.72000
C  -2.22700 22.48500 27.97200
C  -2.05400 21.82300 24.58500
O  -2.14800 21.51200 23.34600
C  -1.76100 23.33400 24.89200
N  -1.66100 16.48800 25.41600
C  -1.62800 17.40900 24.40500
C  -1.35300 16.73300 23.06800
C  -0.95500 15.27300 23.49800
C  -1.38500 15.22900 24.93100
C  -2.65000 16.76900 22.13700
C  0.55200 14.85400 23.23100
C  1.62500 15.86600 23.62300
N  -1.99800 14.90800 27.88000
C  -1.75700 13.84500 27.01400
C  -1.82000 12.60400 27.74500
C  -2.02300 12.97300 29.08500
C  -2.09900 14.39500 29.08700
C  -1.96000 11.23700 27.17600
C  -2.35500 12.48400 30.40400
O  -2.46800 11.28400 30.72100
C  -2.28600 13.75400 31.30900
C  -0.92600 13.59700 31.98200
O  0.17300 13.74000 31.53500
O  -1.28800 13.20000 33.22600
C  -0.29200 13.50900 34.22800
H  -2.30700 20.62500 29.95700
H  -1.68600 19.30000 23.68400
H  -1.21900 13.10600 25.16500
H  -3.44600 16.74200 32.32500
H  -1.51600 18.96700 31.97700
H  -4.38000 18.67100 32.53300
H  -4.15400 19.95500 31.47800
H  -3.37500 20.08300 33.06300
H  -0.48900 16.30500 32.60800
H  -1.98200 15.81700 33.52600
H  -2.01800 18.08800 34.29700
H  -0.25100 18.18900 33.90400
H  -2.08400 22.46800 29.05200
H  -3.14300 23.04400 27.78200
H  -1.42500 23.12800 27.60800
H  -2.02500 23.97900 24.05400
H  -0.67300 23.30100 24.94800
H  -2.21400 23.76900 25.78200
H  -0.46400 17.14800 22.59200
H  -1.53400 14.50700 22.98200
H  -3.35400 17.36400 22.71900
H  -3.04500 15.77800 21.91100
H  -2.50100 17.32800 21.21400
H  0.69400 14.50900 22.20700
H  0.56900 13.92500 23.80100
H  2.13800 16.12000 22.69600
H  2.27500 15.41300 24.37200
H  1.21200 16.79000 24.02700
H  -3.03000 11.02900 27.16300
H  -1.48900 10.55600 27.88400
H  -1.47400 11.17000 26.20300
H  -3.05800 13.80400 32.07700
H  0.29500 14.36900 33.90700
H  0.41300 12.72300 34.49900
H  -0.85300 13.79700 35.11700
Mg 29.82100 58.09900 40.15500
C  27.18200 56.29700 38.94300
C  32.00800 56.09800 38.38600
C  32.46100 60.20900 40.94700
C  27.62800 60.65700 41.04800
N  29.64000 56.49300 38.77200
C  28.41400 55.89500 38.45300
C  28.65000 54.56900 37.71100
C  30.15700 54.46400 37.52800
C  30.63600 55.77500 38.26400
C  30.93000 53.27100 38.27800
C  27.87700 54.32000 36.38900
C  27.65300 55.52200 35.45900
H  28.09800 55.42700 34.03000
N  32.00600 57.97800 39.90100
C  32.62200 57.10800 39.09500
C  34.05000 57.32800 39.14000
C  34.26000 58.52000 39.95200
C  32.86000 58.97600 40.27600
C  35.15100 56.48000 38.51300
C  35.54300 59.06900 40.44100
O  36.60300 58.43200 40.25200
C  35.62600 60.29700 41.29100
N  30.03000 60.20400 40.80200
C  31.22100 60.79200 41.12700
C  30.98700 62.10200 41.84100
C  29.43900 62.19000 42.07900
C  28.95700 60.98700 41.25800
C  31.92600 62.47600 43.03500
C  28.83000 63.50100 41.49700
C  27.54600 63.89100 42.16600
N  27.78800 58.49400 39.94600
C  27.02800 59.51100 40.53200
C  25.62800 59.20400 40.25800
C  25.65400 57.92700 39.72100
C  27.01100 57.53000 39.54900
C  24.43200 59.96600 40.56000
C  24.87200 56.75200 39.32900
O  23.68700 56.48900 39.37500
C  25.80500 55.70100 38.64500
C  25.63200 54.33300 39.18800
O  26.23500 53.78700 40.12400
O  24.67300 53.70800 38.45700
C  24.24000 52.38500 39.02400
H  32.71300 55.42800 37.88900
H  33.28200 60.83000 41.31100
H  26.80600 61.34700 41.25200
H  28.33000 53.73500 38.33500
H  30.51600 54.47100 36.49900
H  31.39900 52.59800 37.56100
H  30.17100 52.69500 38.80800
H  31.76800 53.57000 38.90800
H  26.91500 53.92300 36.71300
H  28.44200 53.57800 35.82600
H  28.06900 56.43600 35.88100
H  26.58000 55.68100 35.34400
H  36.09200 57.01100 38.37200
H  34.82900 56.28100 37.49000
H  35.35100 55.60500 39.13100
H  36.67900 60.22600 41.56600
H  34.97000 60.27800 42.16200
H  35.49500 61.14000 40.61300
H  31.19100 62.87600 41.10000
H  29.20800 61.92300 43.11000
H  32.56000 61.64400 43.34400
H  31.29000 62.83900 43.84300
H  32.59700 63.23500 42.63400
H  28.72900 63.32800 40.42500
H  29.52800 64.32800 41.62700
H  27.52000 64.95800 42.38300
H  27.46400 63.64100 43.22400
H  26.68200 63.70900 41.52800
H  24.45900 60.52600 41.49500
H  23.56800 59.30400 40.61800
H  24.22500 60.64900 39.73600
H  25.54200 55.68800 37.58700
H  23.69000 51.98400 38.17300
H  23.71900 52.31900 39.97900
H  25.15100 51.80300 39.16300

