158

Mg -1.80500 17.18600 27.15400
C  -2.13800 14.99100 29.78800
C  -2.44200 19.77300 29.36000
C  -1.83500 19.33600 24.47400
C  -1.71400 14.56300 24.93800
N  -2.49300 17.28600 29.29600
C  -2.29300 16.27000 30.21100
C  -2.42200 16.76100 31.69500
C  -2.54200 18.31500 31.52700
C  -2.46900 18.49200 29.95000
C  -3.80400 18.97400 32.28200
C  -1.28900 16.30600 32.72400
C  -0.86800 17.10700 33.92100
H  -0.49900 16.30200 35.12700
N  -2.03500 19.30400 26.99200
C  -2.24900 20.17300 28.03200
C  -2.32500 21.46200 27.46200
C  -2.06900 21.43200 26.06900
C  -1.97300 19.94300 25.74800
C  -2.49300 22.63800 28.28300
C  -1.98900 22.51800 24.96500
O  -2.00600 22.15900 23.77600
C  -2.07900 23.95000 25.36400
N  -2.02900 16.96600 25.03600
C  -1.88600 18.00300 24.17700
C  -1.70300 17.52300 22.77100
C  -1.35100 16.00500 22.95600
C  -1.79900 15.80100 24.36700
C  -2.93800 17.81300 21.89100
C  0.13800 15.54000 22.57800
C  1.37500 16.23500 23.37700
N  -1.81400 15.16300 27.25000
C  -1.80700 14.18000 26.28000
C  -1.83900 12.85300 26.86800
C  -1.94100 13.13300 28.25400
C  -1.93600 14.51500 28.42400
C  -1.82900 11.61100 26.17200
C  -2.03700 12.52600 29.59200
O  -1.88200 11.35800 29.91800
C  -2.11500 13.67800 30.59100
C  -0.83500 13.58800 31.38300
O  0.28000 13.99600 31.05600
O  -1.12000 13.10900 32.64200
C  0.02500 13.20800 33.58600
H  -2.48600 20.60600 30.06400
H  -1.72300 19.88700 23.53800
H  -1.58400 13.83000 24.13900
H  -3.32800 16.19800 31.91700
H  -1.65800 18.76200 31.98100
H  -3.54000 19.89400 32.80300
H  -4.32200 18.24100 32.90100
H  -4.60300 19.27900 31.60500
H  -0.45200 16.02800 32.08300
H  -1.70600 15.36900 33.09500
H  -1.71700 17.69200 34.27300
H  0.07600 17.61200 33.71500
H  -2.74200 22.29900 29.28800
H  -3.38400 23.14700 27.91400
H  -1.70900 23.39400 28.28500
H  -3.03800 24.02100 25.87900
H  -2.02500 24.58000 24.47600
H  -1.34100 24.28900 26.09100
H  -0.80500 17.99200 22.36700
H  -1.97700 15.29200 22.42000
H  -3.54900 18.58200 22.36400
H  -3.40800 16.83300 21.80100
H  -2.61500 18.15000 20.90600
H  0.34200 15.78000 21.53500
H  0.22300 14.45300 22.55100
H  1.85000 17.00400 22.76800
H  2.15000 15.51000 23.62400
H  0.92600 16.57800 24.31000
H  -1.38300 11.76300 25.18900
H  -2.87700 11.44900 25.92000
H  -1.42200 10.77000 26.73400
H  -2.84000 13.76200 31.40100
H  0.65600 14.06400 33.34800
H  0.70600 12.38000 33.38600
H  -0.21600 13.23900 34.64900
Mg 1.98800 -1.44400 44.89100
C  5.31500 -0.44600 44.41300
C  0.96500 1.22500 42.94400
C  -1.25800 -2.61500 45.20800
C  3.16400 -4.38100 46.31700
N  3.10700 0.16300 43.80300
C  4.41600 0.37100 43.74600
C  4.68200 1.56000 42.81500
C  3.31700 2.16100 42.58300
C  2.39000 1.10300 43.11200
C  3.07700 3.57500 43.18000
C  5.39800 1.15600 41.42900
C  6.30400 2.25600 40.81700
H  7.51200 1.75000 40.03200
N  0.01900 -0.76100 44.27300
C  -0.13600 0.33400 43.46500
C  -1.55000 0.53600 43.22300
C  -2.27600 -0.55100 43.89500
C  -1.20400 -1.36100 44.50300
C  -2.14700 1.59200 42.32200
C  -3.73100 -0.82800 43.84100
O  -4.50100 -0.18800 43.15300
C  -4.31300 -1.98500 44.51900
N  1.04800 -3.28300 45.55900
C  -0.24800 -3.53200 45.62400
C  -0.50600 -4.95100 46.11700
C  0.87900 -5.46400 46.55200
C  1.78500 -4.34000 46.06000
C  -1.50100 -4.97300 47.25200
C  1.18200 -6.88600 46.14300
C  1.40900 -7.82900 47.38700
N  3.90900 -2.27400 45.23700
C  4.16400 -3.46100 45.90200
C  5.58600 -3.51900 46.17600
C  6.11300 -2.31700 45.58900
C  5.04900 -1.59500 45.08200
C  6.37700 -4.55700 46.83600
C  7.32700 -1.57700 45.32300
O  8.47600 -1.79500 45.63300
C  6.83100 -0.38800 44.41300
C  7.31700 0.88100 45.01800
O  7.23500 1.28500 46.20300
O  7.99900 1.55800 44.04200
C  8.54500 2.89300 44.38000
H  0.64100 2.10000 42.37600
H  -2.23000 -3.02300 45.49300
H  3.40400 -5.32400 46.81300
H  5.34600 2.22700 43.36400
H  3.12800 2.29300 41.51700
H  2.32000 3.53200 43.96300
H  2.74700 4.23600 42.37900
H  4.06600 3.84300 43.55000
H  4.65500 0.89500 40.67400
H  5.99200 0.25300 41.57100
H  6.55300 2.88900 41.66800
H  5.66600 2.84700 40.15900
H  -2.20200 1.45200 41.24300
H  -1.52000 2.46800 42.48900
H  -3.07700 1.94600 42.76800
H  -4.25900 -2.92200 43.96500
H  -5.35800 -1.67500 44.50700
H  -4.17900 -2.09000 45.59600
H  -0.79600 -5.46700 45.20100
H  0.91300 -5.33600 47.63400
H  -2.07900 -5.83500 46.92000
H  -1.96800 -4.01600 47.48800
H  -1.07300 -5.26900 48.21000
H  2.17000 -6.90000 45.68100
H  0.42500 -7.26400 45.45600
H  2.39300 -8.29100 47.30500
H  0.61300 -8.55700 47.23700
H  1.30000 -7.32300 48.34600
H  5.63900 -5.09100 47.43400
H  7.22200 -4.21900 47.43400
H  6.67000 -5.16500 45.98000
H  7.22400 -0.55300 43.41000
H  7.79200 3.48600 44.89900
H  8.64000 3.44100 43.44200
H  9.48400 2.84300 44.93000

