158

Mg 8.18000 3.03100 27.06200
C  9.36200 1.50300 30.13500
C  6.31700 5.04600 28.99700
C  6.52600 3.82700 24.36200
C  9.89700 0.53900 25.37300
N  7.72000 3.07600 29.37100
C  8.54600 2.59800 30.34200
C  8.13000 3.17100 31.70000
C  7.08900 4.28100 31.29000
C  6.95200 4.07200 29.77500
C  5.67200 4.32000 32.05600
C  9.39200 3.82200 32.45700
C  9.69800 3.36700 33.95100
H  10.11900 4.43300 35.01600
N  6.81000 4.47500 26.64600
C  6.17000 5.27100 27.57200
C  5.17400 6.07800 26.86000
C  5.18700 5.73300 25.53300
C  6.21100 4.72500 25.42200
C  4.34200 7.11600 27.53700
C  4.39200 6.23400 24.32000
O  4.51100 5.86100 23.17500
C  3.33600 7.27200 24.51600
N  8.34700 2.43300 25.10200
C  7.49100 2.86200 24.18100
C  7.70700 2.07600 22.82400
C  8.98600 1.21700 23.12500
C  9.08600 1.38000 24.64300
C  6.40400 1.24900 22.48900
C  10.28500 1.55500 22.25300
C  11.17100 0.35700 21.87600
N  9.28000 1.35100 27.54900
C  10.00200 0.46900 26.78900
C  10.88200 -0.39500 27.51900
C  10.59500 -0.05200 28.87900
C  9.64600 0.99700 28.85900
C  11.83300 -1.42500 26.98900
C  10.88300 -0.43000 30.22000
O  11.56300 -1.29700 30.71000
C  10.15100 0.66500 31.14600
C  9.30100 -0.09500 32.05200
O  8.20100 -0.57700 31.73700
O  9.75200 -0.05400 33.31600
C  8.81400 -0.53300 34.36300
H  5.72000 5.68800 29.64800
H  5.93400 4.13000 23.49600
H  10.41200 -0.24600 24.81600
H  7.56600 2.41900 32.25300
H  7.60900 5.23500 31.38000
H  4.88600 3.93700 31.40500
H  5.56000 5.36900 32.33200
H  5.68500 3.68200 32.93900
H  9.15700 4.87200 32.63500
H  10.29600 3.89300 31.85200
H  10.57700 2.72500 34.00000
H  8.91600 2.66000 34.22900
H  4.43000 7.13000 28.62300
H  3.34000 6.77300 27.27800
H  4.54600 8.08900 27.08900
H  2.79800 7.46600 23.58800
H  3.71500 8.24600 24.82600
H  2.52200 6.91600 25.14900
H  7.95900 2.79400 22.04400
H  8.76500 0.15100 23.16500
H  5.73500 1.32800 23.34500
H  6.81600 0.24100 22.43800
H  5.98700 1.56200 21.53200
H  10.90900 2.14000 22.92800
H  9.92300 2.15200 21.41500
H  11.14300 0.16400 20.80400
H  10.70000 -0.50600 22.34900
H  12.08500 0.39000 22.46800
H  12.68200 -0.80000 26.71100
H  11.41100 -1.97800 26.15000
H  12.10500 -2.11600 27.78600
H  10.90900 1.24400 31.67200
H  8.43900 -1.54800 34.23300
H  7.95000 0.13200 34.39900
H  9.38300 -0.53300 35.29300
Mg 17.51100 50.69800 26.57500
C  19.65600 49.42300 29.07600
C  15.23300 51.52900 28.93700
C  15.81800 51.98000 24.09500
C  19.99700 49.59100 24.19800
N  17.35600 50.20500 28.71000
C  18.35700 49.87500 29.56300
C  18.04600 50.16700 31.07400
C  16.53800 50.55500 30.90800
C  16.39500 50.85400 29.40200
C  15.50600 49.54400 31.50500
C  18.87200 51.39300 31.65600
C  19.04600 51.49700 33.18600
H  18.11800 50.77200 34.10500
N  15.70800 51.53700 26.53800
C  14.95200 51.85600 27.59400
C  13.88600 52.64000 27.09600
C  14.09700 52.93800 25.76800
C  15.31000 52.13700 25.41800
C  12.79000 53.08800 27.96600
C  13.35800 53.85300 24.83100
O  13.72300 54.02300 23.67700
C  12.14200 54.53900 25.29800
N  17.92400 50.72400 24.39200
C  16.93400 51.27100 23.61100
C  17.28000 51.08500 22.14300
C  18.59700 50.27800 22.14200
C  18.84900 50.16600 23.67700
C  16.14500 50.50100 21.25700
C  19.82900 50.92600 21.44900
C  20.51600 50.15800 20.26200
N  19.35200 49.60100 26.59900
C  20.28500 49.31500 25.58500
C  21.55800 48.87400 26.13200
C  21.31600 48.88200 27.53400
C  20.01400 49.34600 27.75600
C  22.74000 48.62700 25.34800
C  21.90700 48.46100 28.80500
O  23.00600 47.93100 28.99200
C  20.87500 48.88400 29.94700
C  20.55300 47.62100 30.60100
O  19.85500 46.72100 30.09500
O  21.02300 47.62100 31.89800
C  20.23600 46.79200 32.80200
H  14.59600 51.90100 29.74300
H  15.21200 52.34100 23.26100
H  20.69000 49.29300 23.40800
H  18.20600 49.29100 31.70300
H  16.31200 51.47600 31.44500
H  15.97000 48.82000 32.17400
H  14.97200 49.12200 30.65300
H  14.77700 50.08200 32.11100
H  18.37500 52.30800 31.33700
H  19.88600 51.31700 31.26400
H  19.06400 52.50900 33.58900
H  19.98600 51.03500 33.49000
H  11.82400 52.72200 27.61900
H  12.99700 54.15000 28.09300
H  12.84200 52.61100 28.94500
H  11.51700 53.75900 25.73200
H  11.63500 55.01600 24.45900
H  12.28700 55.29500 26.07000
H  17.45000 52.09400 21.76900
H  18.47700 49.32200 21.63200
H  16.00200 51.18500 20.42000
H  15.17100 50.54400 21.74400
H  16.44200 49.52800 20.86500
H  20.58500 51.20200 22.18500
H  19.52200 51.89200 21.04800
H  20.83800 49.14400 20.49900
H  21.37800 50.72500 19.91100
H  19.85900 50.24200 19.39600
H  22.69000 49.35400 24.53700
H  22.62400 47.66300 24.85200
H  23.66100 48.66900 25.93000
H  21.33500 49.61200 30.61500
H  20.72400 45.84900 33.04800
H  19.28300 46.47500 32.37800
H  20.11900 47.43200 33.67600

