158

Mg 26.36400 49.89600 27.11600
C  24.29500 51.18200 29.62700
C  28.59800 49.29700 29.66800
C  28.55100 48.82200 24.84700
C  24.30200 51.08300 24.62500
N  26.37800 50.09600 29.38600
C  25.43500 50.63400 30.17000
C  25.68500 50.36000 31.65300
C  27.21100 50.12600 31.56800
C  27.41300 49.68700 30.09400
C  28.06900 51.34400 32.02300
C  24.99100 49.25100 32.41000
C  24.42100 49.41200 33.82600
H  25.45000 49.89300 34.91600
N  28.32300 49.25600 27.19900
C  29.02100 48.94000 28.35000
C  30.35900 48.55000 27.99000
C  30.38700 48.36300 26.58300
C  29.06600 48.79400 26.11700
C  31.45900 48.38600 28.97500
C  31.52100 47.82200 25.69400
O  31.44100 47.76000 24.45900
C  32.85300 47.39600 26.28900
N  26.45200 50.06600 25.01700
C  27.35500 49.31700 24.32200
C  27.02200 49.20400 22.82300
C  25.52300 49.70900 22.81100
C  25.34200 50.25000 24.28700
C  27.88800 50.15700 22.00800
C  24.38200 48.57800 22.56000
C  23.20400 48.97500 21.68000
N  24.57500 50.98100 27.04700
C  23.81000 51.44100 25.94800
C  22.62500 52.16700 26.49000
C  22.84600 52.12000 27.90200
C  23.99100 51.37500 28.23100
C  21.54800 52.90400 25.65200
C  22.24600 52.46300 29.20600
O  21.21700 53.09000 29.42900
C  23.15300 51.86100 30.40700
C  23.68400 53.02000 31.20200
O  24.70900 53.65400 30.90100
O  22.97100 53.18000 32.33300
C  23.51700 54.13900 33.33000
H  29.41100 49.19600 30.38900
H  29.17300 48.58400 23.98200
H  23.57600 51.46500 23.90400
H  25.50800 51.24700 32.26100
H  27.53100 49.24400 32.12300
H  27.40100 52.07900 32.47300
H  28.48600 51.82100 31.13600
H  28.84600 51.09800 32.74700
H  25.68100 48.40800 32.42900
H  24.10800 48.96700 31.83900
H  23.99500 48.47800 34.19100
H  23.84900 50.33500 33.91700
H  31.78900 47.35700 29.11800
H  31.27500 48.73900 29.99000
H  32.29800 48.95300 28.57300
H  33.39300 48.21000 26.77200
H  33.53400 47.09500 25.49200
H  32.67600 46.47500 26.84400
H  27.03800 48.20400 22.39000
H  25.38700 50.44900 22.02300
H  28.78300 50.47200 22.54600
H  27.44200 51.10900 21.72200
H  28.17100 49.69500 21.06300
H  24.04400 48.26000 23.54700
H  24.82600 47.71400 22.06600
H  23.37500 49.91800 21.16100
H  22.33700 49.05000 22.33700
H  23.13700 48.10000 21.03400
H  21.79100 53.08300 24.60400
H  21.64900 53.89500 26.09500
H  20.64100 52.30500 25.57900
H  22.68100 51.08200 31.00600
H  24.39900 53.62100 33.70800
H  22.66700 54.35300 33.97700
H  23.90400 55.02300 32.82200
Mg -2.02600 34.76000 26.27300
C  -4.01100 33.10600 28.74800
C  -1.13100 36.95800 28.66700
C  -0.44200 36.37900 23.86000
C  -3.64400 32.76200 23.78100
N  -2.68600 35.01400 28.47600
C  -3.38300 34.20900 29.28200
C  -3.23700 34.62000 30.76200
C  -2.45500 36.00100 30.68900
C  -2.12300 36.06800 29.17000
C  -3.14100 37.33100 31.27100
C  -2.70400 33.45900 31.55900
C  -2.25200 33.91000 32.98500
H  -2.44700 33.02900 34.22700
N  -0.78500 36.32700 26.27800
C  -0.62700 37.14500 27.35800
C  0.34700 38.07300 26.96900
C  0.63600 37.92700 25.58000
C  -0.20000 36.83700 25.15400
C  0.98500 39.02100 28.06300
C  1.61200 38.71100 24.62600
O  1.86700 38.41600 23.45200
C  2.27600 39.89400 25.18700
N  -2.20300 34.70500 24.12700
C  -1.32500 35.44100 23.36700
C  -1.43300 35.13000 21.84100
C  -2.19700 33.75800 21.88400
C  -2.71200 33.68300 23.35400
C  -2.15600 36.24800 21.08000
C  -1.39200 32.47600 21.35100
C  -0.15600 32.09500 22.26400
N  -3.38900 33.20800 26.26600
C  -3.99600 32.53000 25.18200
C  -4.82300 31.40400 25.66600
C  -4.78800 31.56800 27.10200
C  -4.01100 32.73800 27.35200
C  -5.51600 30.36800 24.82700
C  -5.30800 31.08300 28.31300
O  -5.97800 30.13300 28.61000
C  -4.69100 31.93900 29.41400
C  -5.71000 32.33100 30.37700
O  -6.29000 33.42100 30.30300
O  -5.89600 31.39800 31.39600
C  -6.69000 31.86600 32.47800
H  -0.75100 37.48300 29.54600
H  0.23600 36.82000 23.12500
H  -4.08900 32.04000 23.09300
H  -4.24500 34.73500 31.16100
H  -1.53500 35.73400 31.20900
H  -4.03700 37.05900 31.82900
H  -3.37500 38.08100 30.51500
H  -2.50300 37.73200 32.05900
H  -1.95400 32.91800 30.98300
H  -3.53800 32.77500 31.71200
H  -2.58700 34.91000 33.25700
H  -1.18000 33.93700 32.78800
H  2.05400 39.05400 28.27300
H  0.45200 38.96600 29.01100
H  0.72000 40.03300 27.75900
H  1.44600 40.53500 25.48500
H  2.85000 40.27000 24.34100
H  3.00100 39.60100 25.94700
H  -0.53300 34.98800 21.24300
H  -3.07500 33.89100 21.25200
H  -1.67500 36.50600 20.13700
H  -2.12600 37.18700 21.63400
H  -3.16100 35.98900 20.74600
H  -1.21800 32.73600 20.30700
H  -2.09900 31.64700 21.31600
H  -0.08700 32.69200 23.17400
H  0.72600 32.27600 21.64900
H  -0.15900 31.09000 22.68700
H  -6.02400 30.79000 23.95900
H  -6.26600 29.82400 25.40200
H  -4.89000 29.51200 24.57800
H  -3.91800 31.35900 29.91800
H  -6.72700 31.04100 33.18900
H  -7.69700 32.16900 32.19100
H  -6.18500 32.67600 33.00500

