158

Mg 47.92100 25.28600 27.81200
C  48.74600 27.76800 30.14500
C  46.92200 23.22500 30.14800
C  47.47500 22.93700 25.32600
C  49.17000 27.54100 25.32800
N  47.97100 25.43900 29.97600
C  48.17200 26.56000 30.73600
C  47.81600 26.29300 32.21100
C  47.44300 24.71100 32.19800
C  47.39600 24.42700 30.67800
C  48.44700 23.75200 32.91000
C  46.80700 27.23900 32.80600
C  46.12700 26.87600 34.17600
H  45.93500 27.90100 35.33400
N  47.24500 23.32900 27.74600
C  46.76500 22.63600 28.82600
C  46.01500 21.40200 28.47500
C  46.16400 21.39700 27.04700
C  46.96500 22.55100 26.57400
C  45.42300 20.50300 29.43000
C  45.46400 20.42800 26.03300
O  45.46300 20.66800 24.82600
C  44.57700 19.40600 26.57400
N  48.37400 25.20200 25.58200
C  48.00100 24.14200 24.86300
C  48.30500 24.47900 23.42900
C  48.57500 26.01000 23.36200
C  48.72800 26.31400 24.77000
C  49.33100 23.57800 22.60500
C  47.45600 26.84900 22.80600
C  47.84700 27.93400 21.78700
N  48.83300 27.19400 27.67100
C  49.34900 27.92300 26.65000
C  50.00500 29.08400 27.11300
C  49.84300 29.09400 28.46200
C  49.08700 27.92700 28.80200
C  50.70000 30.14100 26.37300
C  50.13700 29.81500 29.69600
O  50.77600 30.84500 29.85300
C  49.35800 29.04900 30.86700
C  50.26900 28.59100 31.94500
O  51.08200 27.67100 31.89600
O  50.20500 29.45100 33.05000
C  51.10600 29.24900 34.18000
H  46.46100 22.71000 30.99300
H  47.24700 22.19900 24.55500
H  49.49900 28.22700 24.54400
H  48.75500 26.33400 32.76200
H  46.47400 24.45600 32.62600
H  48.90400 23.07900 32.18400
H  47.88700 23.03900 33.51500
H  49.20800 24.29000 33.47500
H  45.91500 27.13300 32.18700
H  47.21600 28.24400 32.90900
H  46.80100 26.16200 34.65000
H  45.11400 26.53000 33.97400
H  46.05700 19.67300 29.74500
H  44.47200 20.21500 28.98300
H  45.17200 21.03900 30.34500
H  44.38700 18.85000 25.65600
H  43.69200 20.01700 26.75100
H  44.96700 18.84100 27.42000
H  47.32900 24.33000 22.96700
H  49.54800 26.21800 22.91500
H  48.78500 23.23900 21.72400
H  49.60300 22.67900 23.15700
H  50.23200 24.11100 22.30200
H  46.85200 27.39900 23.52700
H  46.71600 26.27300 22.25000
H  47.39700 27.71900 20.81700
H  48.92400 28.02800 21.64900
H  47.50000 28.89500 22.16700
H  51.02900 29.76500 25.40400
H  51.49400 30.62100 26.94400
H  49.97900 30.88300 26.02800
H  48.55500 29.71000 31.19300
H  50.87300 28.38000 34.79600
H  51.05100 30.14400 34.79900
H  52.14100 29.07000 33.89200
Mg 35.94500 49.47800 25.17100
C  36.39200 47.78400 28.30900
C  34.15600 51.79400 26.86600
C  35.20400 50.73600 22.22000
C  37.39400 46.72000 23.58500
N  35.24400 49.66900 27.31300
C  35.73700 48.98600 28.42200
C  35.42100 49.71700 29.70500
C  34.59200 50.97400 29.23600
C  34.67200 50.82000 27.72300
C  33.08600 50.98000 29.83500
C  36.73000 50.10200 30.39900
C  36.80400 49.84600 31.90600
H  35.52300 49.95400 32.78400
N  34.77100 50.96400 24.60700
C  34.11400 51.92400 25.48200
C  33.40300 52.88300 24.73400
C  33.67700 52.57100 23.35700
C  34.60500 51.40200 23.33900
C  32.35800 53.75200 25.32000
C  33.08400 53.14700 22.07600
O  33.43000 52.74000 20.94500
C  32.25000 54.42900 22.09600
N  36.14600 48.72100 23.18300
C  35.91500 49.48800 22.18000
C  36.38500 48.94500 20.82300
C  37.34500 47.78000 21.27000
C  36.89900 47.69300 22.74600
C  35.11800 48.50400 19.98700
C  38.81100 48.10700 20.96500
C  39.61300 47.07100 20.15000
N  36.61200 47.57900 25.74500
C  37.21900 46.60400 24.93500
C  37.70400 45.52800 25.78400
C  37.34500 45.92900 27.12500
C  36.72400 47.23400 27.02300
C  38.32000 44.24100 25.30700
C  37.50700 45.58400 28.52300
O  37.97900 44.61400 29.07600
C  36.87900 46.76000 29.29300
C  35.74200 46.19000 30.18000
O  34.62800 45.92100 29.82400
O  36.17900 46.07500 31.46500
C  35.06300 45.82400 32.39000
H  33.79700 52.63100 27.46900
H  35.01500 51.11800 21.21500
H  37.92200 45.87300 23.14300
H  34.74400 49.09200 30.28700
H  35.00900 51.95800 29.44600
H  32.43600 50.25100 29.35200
H  32.64200 51.97400 29.79000
H  33.12700 50.65000 30.87300
H  37.00400 51.15500 30.34100
H  37.58200 49.54700 30.00700
H  37.43900 50.66000 32.25700
H  37.22700 48.87700 32.17000
H  32.33800 54.73500 24.85100
H  32.59000 53.91300 26.37300
H  31.38100 53.30800 25.13000
H  32.71100 55.21100 22.70000
H  31.23700 54.19500 22.42400
H  32.14000 54.81200 21.08200
H  36.90900 49.62500 20.15200
H  37.09400 46.85800 20.74600
H  34.20600 48.63300 20.57000
H  35.15500 47.48600 19.59800
H  35.12600 49.02900 19.03300
H  39.35900 48.22900 21.90000
H  38.84200 49.12800 20.58300
H  39.06600 46.12800 20.17300
H  40.63600 46.95800 20.50800
H  39.57100 47.41200 19.11600
H  38.67600 44.31300 24.27900
H  37.55000 43.47200 25.35800
H  39.12200 43.95600 25.98800
H  37.55900 47.27300 29.97300
H  34.47300 44.94800 32.12100
H  34.27100 46.56000 32.25200
H  35.27200 45.63200 33.44300

