158

Mg 35.80300 48.62700 25.22400
C  35.89400 47.06600 28.26300
C  34.32800 51.27800 26.64700
C  35.20800 49.73400 22.14300
C  37.11200 45.61800 23.76000
N  35.35300 49.17800 27.20700
C  35.56700 48.41200 28.33300
C  35.22600 49.14500 29.72300
C  34.61700 50.40900 29.06100
C  34.84400 50.36300 27.57700
C  33.24900 50.96000 29.59500
C  36.54700 49.18300 30.63600
C  36.27200 48.92300 32.12500
H  35.89500 50.15600 32.96600
N  34.92400 50.37700 24.51000
C  34.38600 51.33600 25.23500
C  34.06000 52.49500 24.34100
C  34.27500 52.01100 23.00500
C  34.84200 50.64100 23.15700
C  33.52300 53.75100 24.88900
C  33.86400 52.55100 21.60100
O  34.02000 52.01800 20.51200
C  33.16100 53.85900 21.52400
N  36.18200 47.76300 23.21300
C  35.69000 48.43200 22.15900
C  35.75000 47.54700 20.89300
C  36.76800 46.46500 21.28100
C  36.76800 46.56900 22.83900
C  34.34500 46.95300 20.53800
C  38.26200 46.61300 20.76600
C  38.46600 46.05800 19.36800
N  36.43300 46.73500 25.83600
C  36.94900 45.61300 25.14400
C  37.09300 44.47600 25.99200
C  36.61300 44.94000 27.27800
C  36.25100 46.33100 27.13100
C  37.53400 43.06100 25.58100
C  36.34500 44.60400 28.71100
O  36.50500 43.56000 29.38100
C  35.96000 46.00400 29.36500
C  34.65400 45.78300 30.09000
O  33.58000 45.93500 29.60300
O  34.97100 45.47700 31.43000
C  33.69700 45.13300 32.16900
H  33.90000 52.18100 27.08600
H  34.96800 50.19500 21.18300
H  37.45600 44.67100 23.33800
H  34.44400 48.54000 30.18200
H  35.37100 51.10300 29.43000
H  32.43100 50.93000 28.87500
H  33.31200 52.02100 29.83600
H  32.93900 50.42000 30.49000
H  36.96200 50.18800 30.56800
H  37.33100 48.56200 30.20400
H  37.25700 48.63800 32.49600
H  35.65700 48.05400 32.36000
H  33.44700 54.49300 24.09400
H  34.30500 54.18900 25.50800
H  32.61800 53.54300 25.46100
H  32.23500 53.78100 22.09300
H  33.07900 54.25100 20.51000
H  33.71200 54.66800 22.00300
H  36.11100 48.11600 20.03600
H  36.42900 45.46100 21.02400
H  33.89400 47.38000 19.64200
H  33.68700 47.20000 21.37100
H  34.38500 45.86500 20.49400
H  38.95300 46.10300 21.43700
H  38.59200 47.64800 20.85100
H  38.47300 46.80600 18.57500
H  37.63600 45.37800 19.18000
H  39.37200 45.45400 19.40100
H  37.71600 43.12300 24.50800
H  36.90300 42.19000 25.76000
H  38.47400 42.88700 26.10400
H  36.68100 46.21200 30.15600
H  33.87500 44.95000 33.22900
H  33.10100 44.28600 31.82800
H  33.08300 46.03200 32.13200
Mg -2.57200 34.82200 27.13500
C  -3.64600 33.34300 30.07300
C  -1.25800 37.53500 29.02200
C  -2.07500 36.58500 24.25800
C  -4.05000 32.37900 25.33500
N  -2.53100 35.35500 29.26200
C  -2.98300 34.51300 30.29200
C  -2.52600 35.02600 31.63100
C  -1.70400 36.33100 31.24500
C  -1.89300 36.47900 29.72500
C  -2.06800 37.56700 31.99300
C  -1.79400 33.94200 32.48000
C  -2.46800 33.67200 33.85200
H  -1.50300 33.65700 35.09700
N  -1.68200 36.72100 26.68200
C  -1.17400 37.63300 27.61800
C  -0.47600 38.69000 26.89400
C  -0.69600 38.39900 25.43800
C  -1.55900 37.22700 25.40300
C  0.24400 39.78700 27.52400
C  -0.15200 39.16900 24.18500
O  -0.46100 38.93400 23.06900
C  0.55300 40.50500 24.41800
N  -3.22800 34.67300 25.14000
C  -2.88500 35.46000 24.09200
C  -3.49400 34.97500 22.77100
C  -3.51600 33.47900 23.07400
C  -3.65900 33.47000 24.64700
C  -4.76800 35.71500 22.42800
C  -2.30300 32.68500 22.63500
C  -1.06500 32.67000 23.49100
N  -3.60100 33.13400 27.53700
C  -4.20100 32.22800 26.69500
C  -4.86500 31.16700 27.50900
C  -4.70100 31.59100 28.80900
C  -3.93500 32.79200 28.76100
C  -5.59900 29.95000 27.01600
C  -5.02000 31.31400 30.19700
O  -5.71500 30.39700 30.67000
C  -4.37700 32.40300 31.08000
C  -5.49500 33.02100 31.79400
O  -5.98900 34.07900 31.45700
O  -5.91400 32.20800 32.83500
C  -6.95100 32.82600 33.67400
H  -0.76800 38.30400 29.62300
H  -2.00400 37.02400 23.26100
H  -4.46500 31.72200 24.56800
H  -3.41000 35.24900 32.22800
H  -0.65700 36.11000 31.45500
H  -1.15500 38.03200 32.36400
H  -2.74300 37.31000 32.81000
H  -2.57200 38.34700 31.42200
H  -0.81200 34.32200 32.76500
H  -1.68500 33.02200 31.90600
H  -3.19100 32.85600 33.87900
H  -2.99500 34.60100 34.07000
H  0.17200 39.71000 28.60800
H  -0.27300 40.68000 27.17100
H  1.24500 39.80300 27.09200
H  1.50400 40.13800 24.80500
H  0.03700 41.24000 25.03600
H  0.65400 41.02000 23.46200
H  -2.71900 35.03500 22.00700
H  -4.46200 33.05000 22.74300
H  -5.06900 36.37800 23.23900
H  -5.58600 35.00000 22.34900
H  -4.65500 36.21600 21.46600
H  -2.09600 33.09200 21.64500
H  -2.68300 31.66400 22.58900
H  -0.33600 33.05000 22.77500
H  -0.79200 31.67400 23.84000
H  -1.02900 33.31700 24.36800
H  -6.57800 30.31600 26.70700
H  -5.75500 29.24100 27.82900
H  -5.09200 29.55600 26.13500
H  -3.70300 31.98000 31.82500
H  -6.31800 33.41100 34.34100
H  -7.43600 31.97600 34.15400
H  -7.71800 33.36800 33.12200

