158

Mg 36.40500 49.05900 25.18000
C  36.53000 47.00800 28.16100
C  35.17400 51.57100 27.06500
C  35.77000 50.60900 22.34500
C  37.64100 46.20700 23.46600
N  35.53800 49.14200 27.30600
C  35.96100 48.30100 28.35700
C  35.83200 48.97800 29.72000
C  35.20200 50.32800 29.32700
C  35.28300 50.37100 27.82800
C  33.65300 50.48900 29.66200
C  37.16100 49.11800 30.59100
C  37.07200 48.54900 32.04800
H  36.67600 49.40800 33.12800
N  35.62300 50.90500 24.72100
C  35.19700 51.83400 25.63700
C  35.00300 53.07600 25.02900
C  35.25200 52.82900 23.63000
C  35.51900 51.38300 23.51300
C  34.75200 54.42700 25.77000
C  35.11000 53.82800 22.48900
O  35.28400 53.60300 21.27300
C  34.84800 55.17300 22.87100
N  36.77600 48.51700 23.23500
C  36.37800 49.34200 22.24700
C  36.65300 48.62000 20.88100
C  37.63100 47.38600 21.25700
C  37.41300 47.39600 22.80900
C  35.25700 48.26000 20.27600
C  39.11500 47.36700 20.84400
C  39.50400 46.57800 19.56800
N  36.92600 46.95600 25.61000
C  37.43300 45.91800 24.83600
C  37.62700 44.73700 25.63000
C  37.36700 45.18900 26.93400
C  36.93100 46.48700 26.88000
C  38.05900 43.43500 25.05800
C  37.51700 44.79500 28.31600
O  37.99600 43.80000 28.87200
C  36.89400 45.95700 29.15100
C  35.69200 45.47900 30.03600
O  34.55200 45.51900 29.64200
O  36.13500 45.04000 31.26400
C  35.03800 44.75800 32.29200
H  34.89400 52.41000 27.70500
H  35.35500 50.99100 21.41000
H  37.88100 45.38100 22.79400
H  35.06400 48.34600 30.16600
H  35.68100 51.21200 29.74600
H  33.14500 51.06500 28.88900
H  33.54100 50.94900 30.64300
H  33.01900 49.60200 29.66100
H  37.38600 50.17100 30.75700
H  38.00500 48.61500 30.11800
H  38.00200 48.04700 32.31600
H  36.35600 47.72800 32.06800
H  35.38400 55.26300 25.47000
H  35.15800 54.31300 26.77500
H  33.70700 54.70100 25.91000
H  35.70600 55.55900 23.42200
H  33.86800 55.37400 23.30500
H  34.90900 55.76100 21.95500
H  37.11400 49.36400 20.23200
H  37.11800 46.49500 20.89600
H  34.46700 48.79200 20.80700
H  34.96600 47.21100 20.33600
H  35.13000 48.59100 19.24600
H  39.76100 47.21300 21.70800
H  39.24600 48.41000 20.55600
H  39.24900 47.20200 18.71100
H  38.96200 45.65500 19.36300
H  40.57100 46.37000 19.65100
H  37.22400 42.89300 24.61600
H  38.58300 42.89300 25.84500
H  38.75300 43.68100 24.25300
H  37.62600 46.40700 29.82300
H  34.00100 44.76700 31.95600
H  35.05700 45.55100 33.03900
H  35.33000 43.91100 32.91200
Mg 17.18700 52.63800 26.58400
C  19.40700 51.13200 28.75100
C  15.11000 53.20000 29.14800
C  15.20800 54.19600 24.42200
C  19.54600 52.03100 23.97500
N  17.17000 52.05100 28.68300
C  18.18500 51.42500 29.41000
C  17.97900 51.48800 30.92800
C  16.44500 51.78600 30.93300
C  16.17400 52.38300 29.49600
C  15.56300 50.54800 31.21700
C  18.84400 52.68000 31.53700
C  18.98600 52.52900 33.03600
H  17.89400 51.91500 33.79800
N  15.34700 53.56400 26.77400
C  14.69900 53.74600 27.92700
C  13.55900 54.63000 27.67900
C  13.55600 54.89100 26.27000
C  14.73000 54.22500 25.73800
C  12.58800 55.05300 28.76700
C  12.55800 55.69500 25.46900
O  12.54000 55.71200 24.28300
C  11.62300 56.51300 26.18800
N  17.29900 52.91100 24.45600
C  16.33900 53.64800 23.82300
C  16.75700 53.89000 22.36900
C  18.20900 53.33000 22.29700
C  18.35700 52.70400 23.62500
C  15.78300 53.11400 21.42000
C  19.35500 54.28600 21.89600
C  20.00000 54.17600 20.51400
N  18.96200 51.50200 26.34800
C  19.86200 51.51600 25.26100
C  20.99200 50.78100 25.63700
C  20.89400 50.61100 26.98500
C  19.64900 51.11300 27.36600
C  22.26300 50.49000 24.79700
C  21.56200 50.23500 28.14200
O  22.67400 49.74600 28.32700
C  20.66700 50.55500 29.30300
C  20.35400 49.33900 30.19700
O  19.93400 48.32600 29.72800
O  20.64400 49.70300 31.49800
C  20.24700 48.72400 32.49500
H  14.58500 53.63900 29.99900
H  14.59700 54.82800 23.77400
H  20.40600 51.94100 23.30800
H  18.24400 50.53500 31.38500
H  16.17600 52.49700 31.71400
H  14.91900 50.37000 30.35600
H  15.01600 50.69400 32.14900
H  16.17200 49.64400 31.19600
H  18.31200 53.63200 31.53700
H  19.83400 52.84900 31.11300
H  19.17600 53.45300 33.58300
H  19.92900 52.00600 33.19200
H  11.56900 54.80000 28.47300
H  12.66600 56.13300 28.88900
H  12.84200 54.60400 29.72700
H  10.79800 55.94200 26.61500
H  11.20200 57.26200 25.51700
H  12.19300 57.04200 26.95300
H  16.64700 54.95600 22.17200
H  18.11800 52.54700 21.54300
H  16.27900 52.90800 20.47100
H  15.01700 53.86400 21.22400
H  15.46100 52.17200 21.86400
H  20.22000 54.22400 22.55500
H  19.11500 55.33300 22.08400
H  21.08900 54.19900 20.56500
H  19.63700 54.98500 19.87900
H  19.58300 53.28400 20.04700
H  23.05600 50.32100 25.52500
H  22.55700 51.33400 24.17300
H  22.28900 49.57000 24.21300
H  21.15700 51.26800 29.96700
H  19.70400 47.84200 32.15500
H  19.76900 49.19500 33.35400
H  21.21800 48.38600 32.85600

