158

Mg 23.22200 -5.36200 44.58700
C  24.71600 -2.37700 43.45400
C  20.19600 -4.22000 43.33100
C  21.99200 -8.42600 44.96100
C  26.37100 -6.47800 45.67600
N  22.53100 -3.49800 43.47600
C  23.28400 -2.37700 43.11400
C  22.43100 -1.21900 42.60700
C  21.00000 -1.80300 42.81200
C  21.17100 -3.24300 43.27000
C  20.20200 -0.86700 43.77500
C  22.83000 -0.82300 41.16100
C  23.73700 0.41900 40.87900
H  24.74800 0.32300 39.69400
N  21.33500 -6.18400 44.24600
C  20.19000 -5.58600 43.66200
C  19.11000 -6.52500 43.59100
C  19.57200 -7.78100 44.07100
C  21.05400 -7.52700 44.45900
C  17.66700 -6.11000 43.05000
C  18.68100 -9.02800 44.23100
O  17.49500 -8.92500 44.04000
C  19.28800 -10.22700 44.83700
N  24.11100 -7.22000 45.26800
C  23.36300 -8.35600 45.35900
C  24.21100 -9.51300 45.96000
C  25.62200 -8.80000 46.20300
C  25.34300 -7.38700 45.69100
C  23.64300 -10.26700 47.20600
C  26.85600 -9.42700 45.50700
C  28.09600 -9.45800 46.47500
N  25.15100 -4.62900 44.63400
C  26.33000 -5.17800 45.07900
C  27.41800 -4.22800 44.94700
C  26.84000 -3.11400 44.33000
C  25.43000 -3.42000 44.13700
C  28.87600 -4.46200 45.17900
C  27.11000 -1.87800 43.71000
O  28.24200 -1.38400 43.47700
C  25.81500 -1.30800 43.23900
C  25.59600 0.04000 43.90200
O  24.99700 0.24000 44.94800
O  26.26400 1.02900 43.17400
C  26.25300 2.41500 43.60300
H  19.23500 -3.84000 42.97900
H  21.61100 -9.41900 45.21000
H  27.35400 -6.83800 45.98900
H  22.60200 -0.32500 43.20700
H  20.37900 -1.89100 41.92000
H  20.80600 -0.00700 44.06200
H  20.15500 -1.51800 44.64900
H  19.20600 -0.51600 43.50500
H  21.90600 -0.48800 40.68800
H  23.24600 -1.66300 40.60400
H  24.27200 0.66500 41.79600
H  23.04300 1.24700 40.73700
H  17.29100 -6.87400 42.37000
H  17.71600 -5.20600 42.44400
H  16.93300 -6.00100 43.84700
H  18.51300 -10.99000 44.90200
H  19.77100 -10.08800 45.80400
H  20.05400 -10.63300 44.17500
H  24.39900 -10.27500 45.20400
H  25.72900 -8.58900 47.26700
H  24.21100 -9.98800 48.09400
H  23.54400 -11.33200 46.99700
H  22.63000 -9.93300 47.43000
H  27.09100 -8.72100 44.71100
H  26.63400 -10.35400 44.98000
H  28.75700 -10.26600 46.16400
H  27.93300 -9.58800 47.54500
H  28.69100 -8.58300 46.21400
H  29.16900 -5.13600 44.37500
H  29.09100 -5.00000 46.10300
H  29.39200 -3.52600 44.96700
H  25.75500 -1.06000 42.18000
H  25.59400 2.64400 44.44100
H  26.07900 3.07100 42.75000
H  27.29100 2.67300 43.81000
Mg -12.27900 16.00600 41.69000
C  -9.46000 14.04700 40.96000
C  -10.48200 18.74600 40.39900
C  -15.12600 17.55200 41.20500
C  -13.93000 13.07900 42.69300
N  -10.19000 16.30000 40.69900
C  -9.20100 15.39000 40.57200
C  -7.89900 15.99300 39.89000
C  -8.24500 17.45900 39.82600
C  -9.71800 17.53100 40.33400
C  -7.29900 18.38500 40.69000
C  -7.66100 15.34700 38.51000
C  -6.23000 14.93300 38.13900
H  -5.51800 15.67100 37.04900
N  -12.77000 17.95000 41.10600
C  -11.88800 18.86400 40.59100
C  -12.66300 20.05500 40.38200
C  -14.00900 19.70300 40.45900
C  -14.05300 18.35700 40.93800
C  -12.00300 21.33100 40.03200
C  -15.26500 20.62700 40.12400
O  -15.05800 21.77900 39.72300
C  -16.74600 20.08200 40.16300
N  -14.19500 15.43300 42.04500
C  -15.23500 16.24800 41.74400
C  -16.59800 15.53100 41.80600
C  -16.25400 14.07300 42.39400
C  -14.71500 14.18500 42.41600
C  -17.84700 16.26800 42.61000
C  -16.87600 12.99600 41.59600
C  -17.57500 11.91500 42.54800
N  -11.80500 13.97600 41.92700
C  -12.59000 12.93800 42.43300
C  -11.75800 11.73200 42.52900
C  -10.55400 12.10500 41.88900
C  -10.65100 13.48100 41.47100
C  -12.11000 10.35300 43.00200
C  -9.28500 11.61700 41.51600
O  -8.87500 10.50600 41.61100
C  -8.55700 12.83100 40.84100
C  -7.27900 13.05800 41.50200
O  -7.11300 13.13600 42.72100
O  -6.25500 13.05800 40.64000
C  -4.86300 13.33300 41.06500
H  -9.99500 19.66900 40.07700
H  -16.14400 17.94000 41.13200
H  -14.52500 12.27800 43.13600
H  -7.05300 15.90800 40.57200
H  -8.05600 17.81600 38.81400
H  -6.69600 18.89700 39.94000
H  -6.75000 17.91700 41.50700
H  -7.96200 19.15200 41.09100
H  -7.96500 16.00300 37.69500
H  -8.22200 14.42300 38.37100
H  -6.27900 13.87300 37.89000
H  -5.61100 15.10500 39.01900
H  -11.71000 21.38000 38.98300
H  -11.11000 21.43700 40.64800
H  -12.62300 22.20000 40.24900
H  -17.53700 20.66300 39.68800
H  -16.96600 19.98700 41.22600
H  -16.75900 19.13000 39.63400
H  -17.01900 15.41700 40.80700
H  -16.43600 13.96500 43.46400
H  -17.83000 15.87100 43.62500
H  -18.70100 15.94900 42.01300
H  -17.70800 17.34600 42.52600
H  -16.04200 12.57900 41.03300
H  -17.54300 13.33000 40.80100
H  -16.90400 11.45500 43.27300
H  -17.96300 11.15700 41.86700
H  -18.42800 12.37900 43.04400
H  -12.74100 10.44200 43.88600
H  -11.24400 9.77300 43.32300
H  -12.69400 9.99200 42.15500
H  -8.44100 12.66500 39.77100
H  -4.52600 12.52000 41.70800
H  -4.81000 14.25700 41.64100
H  -4.24600 13.50300 40.18200

