158

Mg -1.41700 17.21800 27.28900
C  -1.97600 14.90500 29.85800
C  -2.14900 19.71300 29.51400
C  -1.13100 19.39000 24.67300
C  -1.46300 14.58900 24.99700
N  -1.98200 17.26800 29.46300
C  -1.99400 16.23500 30.37300
C  -2.30200 16.74900 31.81500
C  -2.47900 18.30200 31.59700
C  -2.21600 18.49500 30.10400
C  -3.88900 18.86800 32.15500
C  -1.27700 16.30800 32.88900
C  -1.01400 17.27600 34.06000
H  -0.36200 16.72100 35.32900
N  -1.55100 19.26600 27.15100
C  -1.83700 20.11300 28.17300
C  -1.94500 21.51900 27.63400
C  -1.53700 21.41400 26.27600
C  -1.36000 19.97500 25.95100
C  -2.15900 22.71900 28.47900
C  -1.44000 22.47700 25.27200
O  -0.97800 22.34200 24.13700
C  -1.94700 23.79900 25.58800
N  -1.27100 16.99500 25.11100
C  -1.09300 18.06000 24.31400
C  -0.76800 17.58000 22.83000
C  -0.70200 16.05900 22.97700
C  -1.13800 15.83900 24.43400
C  -1.90900 17.96000 21.80800
C  0.67600 15.46600 22.51500
C  1.93200 15.96400 23.32400
N  -1.68700 15.20800 27.31500
C  -1.63600 14.26400 26.36300
C  -1.84800 12.98800 26.92400
C  -1.91800 13.23100 28.29500
C  -1.79600 14.55000 28.49900
C  -2.06000 11.62800 26.23400
C  -2.13600 12.47000 29.52100
O  -2.33300 11.28600 29.76600
C  -2.14000 13.58300 30.64300
C  -1.04600 13.26300 31.53900
O  0.14500 13.37300 31.28800
O  -1.58200 12.92300 32.74000
C  -0.61600 12.75900 33.81400
H  -2.36200 20.53800 30.19700
H  -1.03800 20.06600 23.82000
H  -1.33200 13.74900 24.31100
H  -3.27400 16.37500 32.13800
H  -1.67600 18.84200 32.10000
H  -4.27700 18.23300 32.95200
H  -4.53100 18.97200 31.28000
H  -3.82100 19.88700 32.53600
H  -0.30300 16.11500 32.43900
H  -1.72600 15.49200 33.45600
H  -1.96400 17.76400 34.27500
H  -0.32200 18.00300 33.63500
H  -3.23600 22.72800 28.64400
H  -1.79500 23.65100 28.04500
H  -1.74800 22.48200 29.46000
H  -2.23000 24.24100 24.63200
H  -1.13400 24.38600 26.01400
H  -2.81100 23.58400 26.21700
H  0.25800 17.81700 22.54900
H  -1.44700 15.63500 22.30400
H  -1.71900 17.65000 20.78000
H  -2.16100 19.01700 21.89800
H  -2.74700 17.40500 22.22900
H  0.72900 15.49500 21.42600
H  0.55000 14.39900 22.69500
H  1.62800 16.71900 24.04900
H  2.55300 16.44300 22.56700
H  2.43500 15.11000 23.77800
H  -1.26800 11.51300 25.49400
H  -3.04600 11.63400 25.76900
H  -1.95300 10.84300 26.98200
H  -3.10100 13.70600 31.14200
H  -1.29800 12.32900 34.54700
H  -0.21000 13.73100 34.09400
H  0.16000 12.00800 33.66000
Mg 17.50100 -1.97700 28.44300
C  16.35200 0.06900 31.07000
C  19.06300 -4.03300 30.80600
C  19.01800 -3.50200 25.90200
C  16.17000 0.34900 26.23100
N  17.67800 -2.02100 30.66800
C  17.23600 -0.98200 31.53300
C  17.50900 -1.31000 32.93100
C  18.40900 -2.57100 32.86600
C  18.49000 -2.87300 31.36200
C  19.73000 -2.43500 33.69100
C  16.26800 -1.55200 33.86700
C  16.27500 -0.80000 35.22000
H  17.69100 -0.55200 35.78700
N  18.81700 -3.59300 28.34600
C  19.32700 -4.31500 29.42100
C  20.20500 -5.32000 28.93000
C  20.13500 -5.19600 27.48800
C  19.29400 -4.08100 27.15500
C  20.97300 -6.29300 29.80200
C  20.87500 -6.06300 26.37200
O  20.60300 -5.95800 25.15300
C  22.02700 -7.09200 26.87200
N  17.23800 -1.85700 26.32400
C  18.14800 -2.48600 25.53700
C  18.29100 -1.85700 24.15500
C  17.14600 -0.79400 24.13200
C  16.74300 -0.77200 25.64700
C  19.69300 -1.42900 23.84900
C  15.88400 -0.94900 23.33400
C  15.65600 -0.04600 22.10700
N  16.32400 -0.27500 28.56200
C  15.82300 0.61200 27.54200
C  14.99500 1.67300 28.17300
C  15.27300 1.54400 29.54900
C  16.05300 0.37800 29.73500
C  14.15300 2.66500 27.54800
C  14.96600 2.09200 30.83400
O  14.24600 3.08400 31.10900
C  15.67000 1.16900 31.86700
C  16.54700 2.03700 32.66300
O  17.77300 2.07100 32.60200
O  15.69000 2.73700 33.54600
C  16.39500 3.77300 34.34400
H  19.52300 -4.70900 31.53000
H  19.66300 -3.84700 25.09100
H  16.02100 1.16900 25.52500
H  17.99400 -0.39300 33.26600
H  17.87700 -3.37200 33.38000
H  20.63200 -2.51800 33.08300
H  19.84000 -3.13700 34.51700
H  19.75200 -1.46200 34.18200
H  15.98500 -2.57900 34.09900
H  15.43500 -1.26500 33.22500
H  15.80700 -1.33600 36.04500
H  15.78900 0.14700 34.98500
H  22.02200 -6.09900 29.57700
H  20.66400 -7.33700 29.74600
H  20.88300 -5.96200 30.83700
H  22.65900 -7.39400 26.03600
H  21.42000 -7.94900 27.16400
H  22.60400 -6.50900 27.59000
H  18.01200 -2.60200 23.41000
H  17.53700 0.18500 23.85500
H  19.83500 -0.35100 23.92100
H  19.99400 -1.90000 22.91300
H  20.39000 -1.88700 24.55100
H  14.98300 -0.82500 23.93500
H  15.73400 -2.01300 23.15000
H  16.41100 0.73800 22.04400
H  14.67800 0.42200 22.22000
H  15.45200 -0.52400 21.14900
H  14.11600 2.53600 26.46600
H  14.42100 3.68100 27.83900
H  13.18700 2.43700 27.99800
H  14.80200 0.78500 32.40300
H  17.24700 3.40600 34.91600
H  15.77700 4.18300 35.14300
H  16.67400 4.63700 33.74000

