158

Mg 1.15500 41.44000 26.61600
C  2.93400 41.93800 29.52700
C  -1.53300 40.42300 28.37600
C  -0.41600 40.66000 23.71400
C  4.03600 42.25700 24.80600
N  0.64200 41.31900 28.84200
C  1.52000 41.58900 29.80200
C  0.77600 41.66700 31.16000
C  -0.58000 40.97200 30.80200
C  -0.54200 40.86600 29.30800
C  -1.05800 39.66800 31.54400
C  0.66300 43.15000 31.63000
C  0.78200 43.39000 33.14100
H  0.54500 42.24300 34.10100
N  -0.67400 40.66600 26.14100
C  -1.58700 40.17800 27.00800
C  -2.63800 39.47400 26.33100
C  -2.42100 39.73900 24.96100
C  -1.13000 40.35500 24.89100
C  -3.81500 38.75700 27.02500
C  -3.34300 39.34800 23.77200
O  -2.98600 39.45000 22.64500
C  -4.63600 38.81500 24.06300
N  1.68000 41.54100 24.59100
C  0.88800 41.13500 23.54600
C  1.45000 41.45100 22.08900
C  2.90300 41.89900 22.53900
C  2.86500 41.98000 24.09900
C  1.41200 40.24800 21.10500
C  3.46700 43.20500 21.91700
C  2.99000 44.48200 22.58100
N  3.01400 42.09400 27.00600
C  4.07200 42.40200 26.21600
C  5.20900 42.65700 26.96600
C  4.80000 42.37700 28.24000
C  3.47400 42.11300 28.19600
C  6.52900 43.14400 26.50400
C  5.32500 42.34600 29.62000
O  6.45700 42.52200 30.05900
C  4.02900 42.21000 30.51900
C  4.29100 41.15400 31.62900
O  4.06200 39.95900 31.52200
O  4.91400 41.67700 32.70600
C  5.50800 40.79600 33.74400
H  -2.47500 40.10200 28.82500
H  -0.82300 40.34800 22.75000
H  4.96400 42.43900 24.26000
H  1.44900 41.07000 31.77500
H  -1.39500 41.67500 30.97600
H  -0.53200 39.45200 32.47400
H  -0.96700 38.79000 30.90300
H  -2.12300 39.69200 31.77500
H  -0.29700 43.57500 31.33400
H  1.41800 43.78400 31.16500
H  0.07900 44.21100 33.27800
H  1.83600 43.65900 33.22000
H  -3.92900 37.75300 26.61500
H  -4.61500 39.47300 26.83500
H  -3.88200 38.61100 28.10300
H  -4.60100 37.75700 24.32100
H  -5.26900 38.96700 23.18900
H  -5.01400 39.43000 24.88100
H  0.96600 42.30400 21.61300
H  3.57000 41.05300 22.37400
H  2.44200 40.12000 20.77200
H  0.81200 40.37300 20.20300
H  0.97500 39.38800 21.61200
H  3.15000 43.13100 20.87700
H  4.55300 43.17500 22.00200
H  3.82300 44.92000 23.13200
H  2.12600 44.31100 23.22300
H  2.66700 45.28900 21.92300
H  7.04300 43.63000 27.33300
H  6.49700 43.78300 25.62200
H  7.11500 42.26500 26.23300
H  3.84100 43.21700 30.89200
H  6.20500 40.01800 33.43300
H  4.71800 40.24700 34.25600
H  5.91600 41.44200 34.52100
Mg -2.31900 34.29900 25.94900
C  -4.04200 32.76000 28.53000
C  -0.73500 36.23900 28.40300
C  -0.70200 35.95900 23.61100
C  -4.05400 32.37500 23.64200
N  -2.57400 34.57600 28.13000
C  -3.21300 33.80200 29.00600
C  -2.82700 33.97900 30.41700
C  -2.23900 35.43300 30.26100
C  -1.84500 35.44100 28.77700
C  -3.28000 36.51700 30.65600
C  -1.82400 32.88100 30.97200
C  -1.10900 33.15000 32.27000
H  -1.80300 32.56000 33.49800
N  -0.88300 35.92200 26.00200
C  -0.25900 36.52000 27.09000
C  0.82200 37.40000 26.63800
C  0.91700 37.17700 25.25700
C  -0.22600 36.36400 24.86900
C  1.72800 38.13700 27.57800
C  1.87500 37.68700 24.19800
O  1.71500 37.41100 23.02000
C  2.98600 38.53400 24.76100
N  -2.55200 34.28600 23.98500
C  -1.75300 35.10100 23.25900
C  -2.04200 34.98700 21.79400
C  -2.95000 33.69500 21.76300
C  -3.18800 33.38400 23.22100
C  -2.66100 36.26700 21.10800
C  -2.37000 32.45600 21.04600
C  -1.36200 31.56400 21.76400
N  -3.78200 32.85100 25.96600
C  -4.32700 32.09000 24.96600
C  -5.23300 31.08800 25.57800
C  -5.13500 31.29800 26.94100
C  -4.21500 32.37600 27.16000
C  -6.11800 30.12400 24.85500
C  -5.52700 30.78900 28.20500
O  -6.20800 29.80100 28.57700
C  -4.81700 31.73000 29.28900
C  -5.89900 32.31500 30.17700
O  -6.65500 33.23700 29.85300
O  -5.92300 31.71300 31.38100
C  -6.92800 32.23400 32.39500
H  -0.25200 36.73100 29.25000
H  -0.21300 36.34600 22.71500
H  -4.74800 31.95000 22.91300
H  -3.77700 33.97700 30.95100
H  -1.32500 35.66900 30.80600
H  -2.99500 37.10600 31.52800
H  -4.27400 36.13400 30.88700
H  -3.11800 37.16600 29.79600
H  -1.15500 32.45900 30.22200
H  -2.44600 32.00200 31.14100
H  -1.01700 34.22200 32.44400
H  -0.08300 32.78300 32.22800
H  1.31200 38.23100 28.58000
H  1.83400 39.17100 27.25000
H  2.68700 37.62100 27.63800
H  3.53200 38.71300 23.83400
H  3.57400 37.86200 25.38700
H  2.54700 39.37500 25.29700
H  -1.15100 34.67900 21.24700
H  -3.93100 33.82900 21.30700
H  -2.03400 36.74000 20.35300
H  -2.91000 37.04900 21.82500
H  -3.59600 35.90200 20.68100
H  -1.82700 32.68000 20.12700
H  -3.18100 31.87400 20.60900
H  -0.47400 31.48500 21.13700
H  -1.56900 30.52400 22.01500
H  -1.01600 32.09100 22.65300
H  -6.95400 29.64600 25.36500
H  -5.46200 29.29200 24.59500
H  -6.64900 30.57000 24.01400
H  -4.10200 31.10600 29.82700
H  -6.47200 32.93000 33.10000
H  -7.38000 31.36000 32.86400
H  -7.75300 32.78900 31.94700

