158

Mg 44.13000 4.33700 47.36900
C  42.13900 7.08400 47.05000
C  41.47100 2.36000 47.04600
C  46.24000 1.73400 46.89800
C  46.82000 6.57800 47.77400
N  42.02300 4.73900 46.88700
C  41.48200 5.91700 46.85900
C  39.94600 5.78200 46.69500
C  39.71000 4.28500 46.96600
C  41.13900 3.76700 46.98300
C  39.03100 3.81700 48.33100
C  39.39100 6.23800 45.32100
C  40.37500 6.36700 44.21400
H  39.95700 6.26400 42.74200
N  43.87900 2.30500 47.09400
C  42.63800 1.71400 46.92200
C  42.90200 0.30800 46.68700
C  44.30500 0.08600 46.69900
C  44.92600 1.38000 46.88500
C  41.76600 -0.70500 46.72700
C  44.95600 -1.24700 46.62500
O  44.40600 -2.28900 46.35900
C  46.48400 -1.34300 46.83000
N  46.22800 4.18600 47.30000
C  46.84000 2.97200 47.21200
C  48.35200 3.16600 47.23700
C  48.52600 4.64300 47.80100
C  47.12500 5.19600 47.62900
C  48.98700 2.13000 48.14600
C  49.67600 5.43300 47.14700
C  51.03400 4.80500 46.73000
N  44.50600 6.39500 47.29600
C  45.57500 7.15800 47.58500
C  45.25800 8.57200 47.71000
C  43.90000 8.57300 47.52700
C  43.51600 7.25600 47.23200
C  46.12900 9.70400 48.18400
C  42.70100 9.49100 47.32600
O  42.63200 10.73600 47.30900
C  41.57000 8.53900 47.03500
C  40.59000 8.72000 48.12000
O  40.81700 8.30000 49.26200
O  39.41900 9.30700 47.70800
C  38.36200 9.23100 48.62700
H  40.54300 1.79900 46.91900
H  46.99700 0.99900 46.61700
H  47.59100 7.31000 48.02300
H  39.45300 6.36100 47.47600
H  39.24000 3.82700 46.09600
H  38.74500 4.81300 48.66900
H  39.75200 3.44800 49.06000
H  38.15200 3.17500 48.28600
H  38.87900 7.19900 45.36200
H  38.63700 5.56200 44.91600
H  41.08100 5.54900 44.35400
H  40.89900 7.32100 44.27600
H  41.91600 -1.44000 45.93600
H  40.76400 -0.27700 46.75600
H  41.84900 -1.09500 47.74100
H  47.05700 -0.89200 46.02000
H  46.76700 -2.39600 46.86200
H  46.64600 -0.88900 47.80700
H  48.69500 3.02200 46.21300
H  48.57400 4.64800 48.89000
H  48.18800 1.48700 48.51700
H  49.45300 2.69700 48.95200
H  49.69500 1.57100 47.53500
H  49.84900 6.28800 47.80000
H  49.27100 5.85200 46.22600
H  51.35500 5.21900 45.77400
H  50.76400 3.77400 46.50500
H  51.93400 5.00100 47.31400
H  46.73800 9.99500 47.32900
H  46.69800 9.43600 49.07400
H  45.52900 10.58000 48.42900
H  41.11400 8.75100 46.06800
H  37.38400 9.03900 48.18500
H  38.26800 10.23200 49.04800
H  38.55400 8.51600 49.42700
Mg 31.23600 58.78400 41.29700
C  28.22100 57.41500 40.01000
C  32.88000 56.10600 39.97000
C  33.99400 60.50800 41.82800
C  29.25100 61.73900 42.02400
N  30.63100 57.06900 39.94300
C  29.31800 56.64900 39.63100
C  29.37600 55.23500 39.00800
C  30.86700 54.75700 39.33200
C  31.55400 56.06700 39.79000
C  30.98200 53.62200 40.37500
C  28.96800 55.38900 37.49900
C  27.63900 54.74400 36.98900
H  27.50400 54.48900 35.49900
N  33.15300 58.33500 41.05100
C  33.59400 57.17600 40.43800
C  35.02100 57.23700 40.46400
C  35.44100 58.50000 40.97400
C  34.14800 59.17500 41.25800
C  35.80800 56.08600 39.83300
C  36.87000 59.00800 41.16700
O  37.76100 58.19200 40.95000
C  37.20100 60.28000 41.74600
N  31.59800 60.85700 41.91400
C  32.86500 61.29100 42.13200
C  32.84100 62.81200 42.37800
C  31.32600 63.18100 42.63000
C  30.67300 61.84500 42.19100
C  33.74200 63.36000 43.44600
C  30.80800 64.36600 41.79900
C  29.87800 65.33500 42.55200
N  29.18100 59.53000 41.17300
C  28.51400 60.66800 41.52800
C  27.09800 60.54700 41.33900
C  26.94800 59.28700 40.85200
C  28.22300 58.66100 40.70400
C  26.00700 61.49200 41.78100
C  25.95500 58.42100 40.39400
O  24.73400 58.55600 40.31100
C  26.69000 57.10400 39.85800
C  26.29500 55.88800 40.53300
O  26.87600 55.30900 41.48300
O  25.16300 55.32500 40.01100
C  24.61000 54.01200 40.54300
H  33.45100 55.29500 39.51500
H  34.88400 61.13800 41.89200
H  28.67400 62.59400 42.38400
H  28.62200 54.67100 39.55700
H  31.31500 54.37900 38.41300
H  30.07300 53.36500 40.91900
H  31.82600 53.82500 41.03400
H  31.31100 52.78200 39.76300
H  29.81300 55.35700 36.81100
H  28.74900 56.45000 37.37900
H  26.95400 55.57000 37.17500
H  27.20000 53.92400 37.55800
H  35.62200 56.00300 38.76200
H  35.44200 55.18300 40.32100
H  36.83900 56.21800 40.16100
H  36.70600 60.48000 42.69600
H  36.84600 61.05900 41.07100
H  38.24400 60.39400 42.04100
H  33.12700 63.33000 41.46300
H  30.99100 63.32700 43.65700
H  34.11700 62.61400 44.14600
H  33.22200 64.08800 44.06800
H  34.56400 63.82400 42.90000
H  30.25900 64.01200 40.92700
H  31.66600 64.89900 41.38900
H  28.91500 64.82400 42.56400
H  29.72300 66.30400 42.07800
H  30.32800 65.53400 43.52500
H  25.83400 62.19800 40.96900
H  26.32900 61.93400 42.72400
H  25.08900 60.96800 42.04600
H  26.47400 56.90800 38.80800
H  23.91300 54.13700 41.37200
H  25.36500 53.28700 40.84700
H  24.08200 53.54600 39.71100

