158

Mg 17.28000 -1.74200 29.52700
C  15.82400 0.75500 31.45500
C  18.83600 -3.05400 32.24900
C  18.66500 -4.13700 27.52900
C  15.71700 -0.19100 26.77300
N  17.28900 -1.21300 31.55600
C  16.60600 -0.19700 32.15100
C  16.77300 -0.25000 33.71700
C  17.96800 -1.22200 33.92100
C  18.08200 -1.88400 32.52900
C  19.28700 -0.45600 34.38100
C  15.46300 -0.83400 34.35700
C  15.32300 -0.62800 35.94000
H  16.49400 0.07300 36.75100
N  18.49300 -3.37800 29.88300
C  19.02300 -3.76100 31.09700
C  19.83400 -4.96000 30.94500
C  19.81000 -5.27200 29.55300
C  19.03500 -4.25900 28.93000
C  20.54400 -5.66000 32.22500
C  20.41400 -6.47900 28.87800
O  20.29300 -6.76500 27.69100
C  21.23100 -7.40400 29.73300
N  17.15600 -2.11100 27.45400
C  17.79500 -3.24700 26.86500
C  17.50100 -3.29200 25.38400
C  16.36100 -2.17100 25.26900
C  16.47800 -1.40200 26.58000
C  18.74000 -3.12700 24.43800
C  14.99600 -2.64400 24.96000
C  14.30800 -1.69700 23.91300
N  16.05300 -0.02900 29.09400
C  15.52900 0.49200 27.97500
C  14.70700 1.62700 28.19400
C  14.82300 1.81600 29.60200
C  15.63000 0.76400 30.07800
C  13.97100 2.48000 27.22400
C  14.37700 2.58300 30.71300
O  13.69500 3.60400 30.80000
C  14.95500 1.82700 31.98800
C  15.75000 2.91000 32.75000
O  16.62900 3.54800 32.25200
O  15.26800 3.07300 34.00100
C  15.90600 4.06300 34.90100
H  19.08800 -3.47500 33.22500
H  19.13200 -4.82000 26.81700
H  15.37800 0.20400 25.81300
H  17.06900 0.73900 34.06800
H  17.60100 -1.95900 34.63600
H  19.12200 0.62200 34.36300
H  20.07400 -0.72600 33.67700
H  19.51900 -0.83100 35.37800
H  15.50000 -1.90700 34.16700
H  14.52600 -0.39500 34.01400
H  15.15500 -1.63000 36.33700
H  14.51100 0.07200 36.13600
H  20.27000 -6.71300 32.28700
H  20.28400 -5.20400 33.18100
H  21.60900 -5.43400 32.17000
H  22.08200 -6.94700 30.23900
H  21.73500 -8.10000 29.06300
H  20.65100 -7.95200 30.47500
H  17.00100 -4.24600 25.21100
H  16.76700 -1.49900 24.51200
H  19.57700 -3.14000 25.13500
H  18.70300 -2.17400 23.91100
H  18.73700 -3.91500 23.68500
H  14.30400 -2.71900 25.79800
H  14.95000 -3.64100 24.52100
H  13.67900 -0.91600 24.34100
H  13.68500 -2.20200 23.17500
H  15.10300 -1.16100 23.39400
H  13.75100 1.92200 26.31400
H  14.63400 3.34300 27.15400
H  13.05400 2.78900 27.72400
H  14.14100 1.40100 32.57400
H  15.47400 5.06300 34.93900
H  16.99200 4.10800 34.83000
H  15.69800 3.70700 35.91000
Mg 42.48700 41.63500 26.35500
C  42.08900 43.84800 29.08500
C  43.47400 39.29400 28.67600
C  43.91500 39.77900 23.82600
C  42.10200 44.29000 24.16400
N  42.68200 41.55100 28.71000
C  42.47300 42.55500 29.57700
C  42.44000 42.06700 31.04600
C  42.91200 40.59600 30.82500
C  43.08700 40.42300 29.33000
C  44.17800 40.11100 31.61500
C  40.98400 42.30500 31.65200
C  40.65800 41.34200 32.79500
H  39.83700 41.77600 34.06800
N  43.39700 39.78300 26.21000
C  43.62300 38.92500 27.32500
C  43.97900 37.60900 26.79500
C  44.16800 37.76400 25.40300
C  43.78500 39.15200 25.07900
C  44.14100 36.41200 27.69100
C  44.62500 36.76500 24.40800
O  45.00700 37.05900 23.28500
C  44.61200 35.32800 24.77400
N  42.92300 42.04900 24.22600
C  43.45500 41.03800 23.44100
C  43.34100 41.44900 21.92100
C  42.56600 42.85500 22.01200
C  42.47200 43.08600 23.54100
C  44.61500 41.44700 20.98500
C  41.17700 42.94500 21.37700
C  40.28700 41.74000 21.71400
N  42.06300 43.56600 26.54900
C  41.81900 44.51100 25.59300
C  41.40500 45.73300 26.22600
C  41.50400 45.48000 27.55700
C  41.92300 44.17400 27.72700
C  41.09200 46.97300 25.46100
C  41.39700 46.21700 28.83500
O  41.14800 47.33700 29.11800
C  41.65900 45.05300 29.93100
C  42.78200 45.51000 30.80000
O  43.95600 45.63900 30.40400
O  42.46200 45.67100 32.12500
C  43.45900 46.31500 32.95600
H  43.56500 38.45300 29.36600
H  44.26600 39.12500 23.02600
H  41.94700 45.18100 23.55200
H  43.16000 42.63500 31.63500
H  42.12600 39.85500 30.97400
H  45.08000 40.19300 31.00900
H  44.10300 39.05300 31.86400
H  44.24200 40.73800 32.50500
H  40.18200 42.52800 30.94800
H  41.09000 43.23800 32.20500
H  41.54700 40.73300 32.95700
H  39.90100 40.70700 32.33400
H  43.33900 35.68100 27.58800
H  44.03700 36.66100 28.74700
H  45.11700 35.95500 27.52700
H  43.75500 35.02900 25.37800
H  45.48300 35.21400 25.41900
H  44.76100 34.72800 23.87600
H  42.67500 40.80000 21.35300
H  43.30100 43.50500 21.53700
H  44.38100 41.10200 19.97700
H  45.43000 40.80200 21.31500
H  45.07000 42.40300 20.72700
H  41.29900 43.08900 20.30300
H  40.82400 43.82800 21.90900
H  40.24600 40.97300 20.94100
H  39.34800 42.22900 21.97600
H  40.70300 41.12200 22.51000
H  40.83100 47.76100 26.16700
H  40.23800 46.84100 24.79600
H  41.99300 47.33900 24.96900
H  40.85100 44.83800 30.63000
H  44.31400 45.64800 33.07300
H  42.87000 46.51000 33.85200
H  43.83500 47.26300 32.57200

