158

Mg 43.26700 41.72000 26.30100
C  42.29500 43.70200 29.07100
C  44.50100 39.50700 28.76800
C  44.51000 39.92700 23.87600
C  42.60800 44.34200 24.14400
N  43.21400 41.63500 28.71400
C  42.78400 42.52000 29.49300
C  43.01400 42.15400 30.93800
C  43.88300 40.83700 30.85400
C  43.92900 40.65900 29.36000
C  45.38100 40.94500 31.45400
C  41.71700 41.86900 31.70900
C  41.66600 41.67500 33.26400
H  40.96400 42.81900 34.15900
N  44.31000 39.92700 26.26400
C  44.72700 39.17700 27.37900
C  45.28200 37.92400 26.84900
C  45.19800 38.04800 25.43400
C  44.64300 39.36000 25.12200
C  45.92000 36.86300 27.78700
C  45.55400 36.96200 24.34300
O  45.49600 37.09100 23.12000
C  45.99300 35.63000 24.83900
N  43.73300 42.18300 24.29400
C  44.17400 41.15000 23.48200
C  43.93200 41.57600 21.98900
C  43.35900 43.02500 22.05400
C  43.24600 43.21000 23.57400
C  45.19100 41.47000 21.02400
C  42.07500 43.26500 21.18500
C  41.95300 42.70200 19.76500
N  42.58800 43.58300 26.49900
C  42.32400 44.52600 25.52200
C  41.53300 45.58500 26.14800
C  41.56300 45.28600 27.51500
C  42.24600 44.10000 27.71900
C  40.85900 46.68200 25.46700
C  41.03800 45.77600 28.75800
O  40.44900 46.76900 29.11600
C  41.58400 44.78900 29.84100
C  42.54300 45.60400 30.63900
O  43.75100 45.84800 30.32700
O  41.92400 45.89100 31.78400
C  42.57100 46.92800 32.64800
H  44.91700 38.79800 29.48800
H  44.54200 39.30400 22.98000
H  42.37600 45.12300 23.41700
H  43.55300 43.02400 31.31300
H  43.25900 40.08500 31.33700
H  45.54600 41.87800 31.99300
H  46.10800 40.95300 30.64300
H  45.60800 40.08100 32.08000
H  41.24900 40.97100 31.30600
H  41.03600 42.68700 31.47400
H  42.64500 41.55400 33.72800
H  41.11500 40.76200 33.49200
H  45.88500 35.81000 27.50700
H  45.30000 36.79900 28.68100
H  46.89900 37.24800 28.07300
H  46.79400 35.81000 25.55600
H  46.36600 34.94100 24.08100
H  45.10300 35.24500 25.33500
H  43.19700 40.93000 21.50800
H  44.09800 43.80500 21.86900
H  44.97400 40.70600 20.27700
H  46.04600 41.16800 21.63000
H  45.38700 42.45400 20.60000
H  41.78200 44.31400 21.15400
H  41.31300 42.81400 21.82100
H  42.89800 42.29200 19.41000
H  41.60800 43.49600 19.10200
H  41.25800 41.87500 19.61700
H  41.58000 47.31100 24.94300
H  40.44100 47.29400 26.26600
H  40.04000 46.29000 24.86400
H  40.64900 44.47600 30.30800
H  41.80000 47.64800 32.91800
H  43.47200 47.33700 32.18900
H  42.83800 46.36200 33.54100
Mg 17.37000 51.43600 26.30000
C  19.44300 49.85200 28.92400
C  15.40900 52.55800 28.70500
C  15.57800 52.57500 23.81900
C  19.61800 49.75800 23.94900
N  17.47000 51.26700 28.63400
C  18.42300 50.68400 29.46200
C  18.15000 50.98100 30.93900
C  16.68200 51.45300 30.82400
C  16.47400 51.83000 29.30600
C  15.63400 50.48000 31.31800
C  19.20800 51.97900 31.73600
C  19.43900 51.69800 33.25400
H  18.42300 50.87000 34.06300
N  15.87900 52.53500 26.25100
C  15.16400 52.99400 27.34000
C  14.12600 53.90900 26.87800
C  14.20400 54.05600 25.50500
C  15.26700 53.06700 25.09900
C  13.14400 54.53800 27.82800
C  13.39400 54.83700 24.46200
O  13.57000 54.70700 23.26000
C  12.35100 55.74400 24.96600
N  17.54300 51.13400 24.14400
C  16.54900 51.67200 23.39800
C  16.84200 51.42000 21.88900
C  18.26100 50.58300 21.87100
C  18.57400 50.55500 23.40200
C  15.74600 50.76500 21.07100
C  19.49800 51.27600 21.14100
C  20.21200 50.49500 19.99700
N  18.96100 49.88700 26.39200
C  19.84400 49.50200 25.32900
C  20.95800 48.83100 25.89500
C  20.82000 48.89300 27.30300
C  19.61700 49.63300 27.55300
C  22.10200 48.19600 25.03500
C  21.55500 48.62900 28.51800
O  22.53200 47.95100 28.75300
C  20.58100 49.28500 29.63800
C  20.36400 48.22600 30.69200
O  19.49000 47.35600 30.62700
O  21.27600 48.41300 31.67600
C  20.85800 48.02400 33.02900
H  14.86700 53.05200 29.51400
H  15.01100 53.08100 23.03500
H  20.31600 49.46500 23.16200
H  18.09900 49.99400 31.39700
H  16.57200 52.37100 31.40200
H  14.82400 50.94900 31.87700
H  16.10300 49.86200 32.08300
H  15.17500 49.90700 30.51300
H  18.85300 53.00900 31.69900
H  20.21000 51.94200 31.30900
H  19.48500 52.66700 33.75200
H  20.38200 51.15500 33.32100
H  12.18100 54.64700 27.33000
H  13.42800 55.44800 28.35600
H  12.88600 53.83500 28.62000
H  11.42100 55.21800 25.18100
H  12.16200 56.41000 24.12400
H  12.64900 56.26700 25.87400
H  16.92900 52.44000 21.51300
H  18.09100 49.55100 21.56600
H  15.36300 51.46700 20.33100
H  14.94000 50.32200 21.65600
H  16.20700 50.05000 20.38900
H  20.17800 51.85400 21.76600
H  19.06100 52.08800 20.55900
H  21.29800 50.43200 20.06800
H  20.08400 50.89000 18.99000
H  19.73100 49.52100 19.91700
H  23.07400 48.66600 25.18600
H  21.78100 47.97600 24.01700
H  22.17000 47.17100 25.40000
H  21.00300 50.19800 30.05900
H  19.82500 48.27100 33.27200
H  21.49900 48.46600 33.79100
H  20.92000 46.93600 33.07700

