158

Mg 26.65600 49.43300 26.02900
C  24.89000 50.87600 28.77000
C  29.21400 48.87200 28.38700
C  28.65000 48.65700 23.49500
C  24.34100 50.83500 23.88800
N  26.99700 49.90000 28.23600
C  26.07200 50.33400 29.23500
C  26.62200 50.19400 30.67400
C  28.10000 49.95100 30.42200
C  28.12700 49.50700 28.89800
C  28.92900 51.25600 30.68200
C  25.97700 49.04200 31.42900
C  25.30800 49.34100 32.76500
H  26.20800 49.79800 33.94000
N  28.55400 48.69500 25.96100
C  29.43100 48.45800 27.03600
C  30.65000 47.87100 26.47800
C  30.60300 47.97900 25.05000
C  29.22700 48.45700 24.81800
C  31.84000 47.43200 27.29300
C  31.61500 47.81300 23.98500
O  31.47200 48.18800 22.83900
C  32.99600 47.46600 24.46200
N  26.56900 49.84000 24.00600
C  27.45600 49.28800 23.13400
C  26.98900 49.35300 21.63800
C  25.55200 50.00200 21.81800
C  25.44300 50.23600 23.31600
C  27.80900 50.26900 20.76700
C  24.37900 48.93300 21.44100
C  23.03800 49.57800 20.93900
N  24.94700 50.62100 26.28000
C  24.07000 51.03300 25.29300
C  23.00300 51.79900 25.88000
C  23.24200 51.71500 27.25300
C  24.42100 50.97100 27.42600
C  21.90600 52.57000 25.22900
C  22.71300 52.04700 28.57200
O  21.67800 52.56900 28.91900
C  23.79200 51.56600 29.58700
C  24.34400 52.66200 30.34200
O  25.01000 53.53500 29.82900
O  23.96700 52.56400 31.65100
C  24.64300 53.29600 32.66900
H  30.02000 48.68800 29.09900
H  29.15400 48.21000 22.63600
H  23.67500 51.29400 23.15400
H  26.41500 51.12500 31.20100
H  28.57900 49.26100 31.11600
H  29.51100 51.44600 29.78000
H  29.64000 50.97400 31.45900
H  28.37700 52.10800 31.07900
H  26.67600 48.22400 31.60500
H  25.20300 48.63200 30.77900
H  24.74200 48.46900 33.09300
H  24.68000 50.18200 32.47000
H  32.65800 48.14600 27.19300
H  32.04800 46.39800 27.01900
H  31.59200 47.63100 28.33600
H  32.93600 46.55800 25.06100
H  33.45900 48.29100 25.00400
H  33.57900 47.24600 23.56800
H  26.81800 48.36500 21.21100
H  25.34800 50.91700 21.26200
H  28.83000 50.30000 21.14700
H  27.37400 51.26400 20.67500
H  27.77800 49.65900 19.86400
H  24.36200 48.38000 22.37900
H  24.77500 48.27800 20.66500
H  22.30500 49.59800 21.74500
H  22.53800 49.03300 20.13900
H  23.15500 50.53000 20.42100
H  22.23100 53.59900 25.38400
H  20.98600 52.53300 25.81300
H  21.77600 52.29400 24.18300
H  23.36700 50.79700 30.23200
H  23.88900 53.99300 33.03300
H  25.55400 53.77400 32.30900
H  24.85400 52.59400 33.47700
Mg -1.38400 34.90900 28.06500
C  -3.13500 33.05400 30.35500
C  0.24300 36.54800 30.84900
C  -0.16300 37.02800 25.94600
C  -3.31900 33.35500 25.51400
N  -1.60400 34.91100 30.36400
C  -2.32900 33.99000 31.06100
C  -1.88500 33.91400 32.51200
C  -1.04500 35.21200 32.70000
C  -0.74900 35.58500 31.22100
C  -1.79100 36.33300 33.45700
C  -1.18300 32.55400 32.82700
C  -1.79400 31.56000 33.90400
H  -1.13700 31.44800 35.25200
N  -0.01200 36.46000 28.35500
C  0.57400 36.92600 29.50800
C  1.51000 37.95400 29.13100
C  1.36200 38.20500 27.68600
C  0.30900 37.26100 27.26600
C  2.53500 38.54000 30.11200
C  2.04300 39.22200 26.76800
O  1.77100 39.36100 25.59500
C  3.14900 40.10500 27.31500
N  -1.82100 35.26800 26.06800
C  -1.16900 36.20400 25.43600
C  -1.58900 36.20800 23.91200
C  -2.32700 34.92500 23.66800
C  -2.54100 34.51900 25.16400
C  -2.29800 37.43200 23.41100
C  -1.58300 33.82000 22.82300
C  -1.22600 34.25900 21.41200
N  -2.82000 33.46500 27.90500
C  -3.50800 32.88900 26.80000
C  -4.29600 31.76000 27.17800
C  -4.14400 31.83100 28.55800
C  -3.32000 32.86700 28.94700
C  -5.09400 30.84900 26.29800
C  -4.61800 31.15500 29.77400
O  -5.42700 30.22900 29.96600
C  -4.07400 32.00400 30.95500
C  -5.32200 32.40100 31.68500
O  -6.25900 33.09700 31.22400
O  -5.23000 31.98600 32.95500
C  -6.31100 32.42100 33.95400
H  0.79300 36.93600 31.70900
H  0.26500 37.55800 25.09300
H  -3.89000 32.83200 24.74400
H  -2.82700 33.98000 33.05600
H  -0.06900 35.03800 33.15400
H  -1.69400 36.21600 34.53600
H  -2.86200 36.29600 33.26000
H  -1.42900 37.30900 33.13300
H  -0.14900 32.66500 33.15400
H  -1.04300 31.99000 31.90500
H  -1.83800 30.53800 33.52600
H  -2.85000 31.74900 34.09600
H  3.52900 38.42800 29.67700
H  2.45700 38.10400 31.10800
H  2.46500 39.62300 30.21300
H  2.83000 40.74400 28.13800
H  3.55300 40.66900 26.47400
H  3.96400 39.52900 27.75400
H  -0.69300 36.06400 23.30900
H  -3.29500 35.02200 23.17700
H  -2.08600 38.32900 23.99200
H  -3.36100 37.28200 23.22400
H  -1.93500 37.71100 22.42200
H  -1.89800 32.78200 22.92700
H  -0.63900 33.74000 23.36400
H  -1.98100 33.68100 20.87900
H  -0.20600 34.03700 21.09800
H  -1.49300 35.31500 21.37900
H  -6.02400 31.23100 25.87600
H  -5.32100 29.89700 26.77800
H  -4.50700 30.67300 25.39600
H  -3.56400 31.25500 31.56000
H  -5.75900 32.89600 34.76500
H  -6.79200 31.46300 34.15300
H  -7.07000 33.07200 33.52000

