158

Mg 35.48700 -0.26700 29.83700
C  33.48300 1.22600 32.24200
C  37.85600 -1.02800 32.30900
C  37.77500 -1.13600 27.42300
C  33.23800 0.81600 27.39000
N  35.59300 0.16400 32.07700
C  34.63500 0.79100 32.83500
C  34.89400 0.58500 34.33300
C  36.49300 0.08700 34.23200
C  36.62900 -0.32300 32.75200
C  37.59700 1.14100 34.61000
C  33.95500 -0.39100 35.02500
C  33.64700 -0.11200 36.46800
H  34.22800 1.09400 37.20800
N  37.50300 -1.05400 29.90800
C  38.27800 -1.36600 31.00400
C  39.48500 -2.10000 30.62500
C  39.47800 -2.08400 29.22100
C  38.18800 -1.41900 28.77900
C  40.43100 -2.78800 31.61800
C  40.47300 -2.63200 28.21900
O  40.27700 -2.76700 27.01800
C  41.81900 -3.07900 28.72000
N  35.49000 -0.21000 27.74600
C  36.54700 -0.60900 26.95600
C  36.29800 -0.23600 25.46100
C  34.74800 0.18800 25.43200
C  34.45900 0.25000 26.95800
C  37.33800 0.76100 24.94200
C  33.75500 -0.79100 24.66100
C  32.39600 -0.17700 24.19100
N  33.64400 0.70600 29.75000
C  32.84700 1.08300 28.70500
C  31.66300 1.69800 29.19000
C  31.83800 1.84500 30.59600
C  33.13200 1.27700 30.84100
C  30.56100 2.13100 28.31400
C  31.29300 2.40500 31.84800
O  30.35800 3.16000 32.12800
C  32.27400 1.90100 32.93900
C  32.69000 3.11100 33.60100
O  33.61100 3.86400 33.34000
O  31.83500 3.22700 34.71700
C  32.01000 4.45000 35.53500
H  38.61700 -1.31000 33.04000
H  38.58300 -1.23100 26.69400
H  32.51500 1.23200 26.68600
H  34.88800 1.51200 34.90600
H  36.72800 -0.69500 34.95400
H  37.07700 2.02500 34.97800
H  38.16500 1.38400 33.71200
H  38.13700 0.77400 35.48300
H  34.57000 -1.28500 34.92100
H  33.05100 -0.49600 34.42400
H  33.95900 -0.97900 37.05000
H  32.56600 -0.00700 36.56200
H  40.32500 -3.85100 31.39900
H  40.09800 -2.51500 32.62000
H  41.45600 -2.42300 31.56600
H  42.32500 -3.42700 27.82000
H  41.79500 -3.85000 29.49100
H  42.27000 -2.18200 29.14300
H  36.43500 -1.11700 24.83500
H  34.71700 1.22700 25.10400
H  37.91400 1.14500 25.78400
H  36.75400 1.56800 24.50100
H  37.90100 0.40800 24.07700
H  33.47100 -1.68900 25.20900
H  34.31700 -1.16800 23.80700
H  32.34700 -0.63900 23.20400
H  32.57800 0.89200 24.29700
H  31.69600 -0.57400 24.92600
H  29.96000 1.24900 28.09600
H  30.97800 2.47500 27.36800
H  30.10100 3.01800 28.75000
H  31.83200 1.23200 33.67800
H  31.02200 4.85400 35.75400
H  32.46800 5.26000 34.96600
H  32.49000 4.29900 36.50200
Mg 42.08300 7.06800 30.54800
C  43.88700 9.23500 32.60300
C  39.87900 6.40900 33.10200
C  40.25600 5.34400 28.41900
C  44.32600 7.89200 27.94500
N  41.88400 7.88500 32.58900
C  42.71200 8.73900 33.22600
C  42.30200 8.82100 34.72700
C  41.05600 7.93400 34.81800
C  40.94600 7.25200 33.42500
C  40.97100 6.90000 35.92000
C  42.09500 10.25400 35.27100
C  41.05900 10.53300 36.42700
H  41.67100 11.34900 37.59100
N  40.41200 5.89000 30.73900
C  39.55100 5.84300 31.82700
C  38.43400 4.92300 31.51900
C  38.56600 4.55900 30.19000
C  39.76200 5.29400 29.69100
C  37.38400 4.49000 32.57000
C  37.76800 3.61400 29.35800
O  38.05400 3.36300 28.15600
C  36.72900 2.77700 29.90200
N  42.34500 6.65700 28.54900
C  41.40200 5.91000 27.86100
C  41.68000 5.78700 26.41200
C  42.77500 6.93900 26.28300
C  43.31500 7.04400 27.64500
C  42.14400 4.31800 25.96000
C  42.11200 8.29600 25.87300
C  42.12400 8.68100 24.36700
N  43.90400 8.19300 30.27500
C  44.64900 8.44900 29.13600
C  45.72900 9.35900 29.46800
C  45.44400 9.70500 30.85100
C  44.36200 8.97200 31.25600
C  46.82100 9.95000 28.59600
C  45.92000 10.47200 31.96200
O  46.80100 11.34400 32.05300
C  45.04000 10.06700 33.18300
C  45.78700 9.41000 34.27800
O  46.21200 8.28800 34.17100
O  45.78200 10.22700 35.36700
C  45.79900 9.41500 36.60000
H  39.15700 6.23000 33.90100
H  39.58400 4.87100 27.69900
H  45.04500 8.27400 27.21600
H  43.13700 8.31500 35.21100
H  40.14200 8.52200 34.90300
H  41.77200 7.09600 36.63300
H  40.96300 5.84800 35.63500
H  40.03600 7.15800 36.41800
H  41.83300 10.82200 34.37800
H  43.07500 10.64800 35.54100
H  40.59800 9.63700 36.84200
H  40.22200 10.95500 35.87100
H  36.59300 5.21100 32.36300
H  37.74400 4.68200 33.58100
H  37.06400 3.45800 32.42000
H  37.18700 1.92200 30.40000
H  36.07600 2.39900 29.11500
H  36.00800 3.28800 30.54100
H  40.78200 6.01300 25.83700
H  43.56600 6.70500 25.57100
H  42.58700 3.82200 26.82400
H  42.97500 4.38300 25.25900
H  41.27000 3.76800 25.61200
H  42.58700 9.11900 26.40700
H  41.04600 8.22000 26.08700
H  42.99200 8.27100 23.85100
H  42.22300 9.76300 24.27500
H  41.31000 8.29800 23.75200
H  47.72800 9.99400 29.19900
H  46.66200 10.96800 28.24000
H  46.96600 9.32400 27.71600
H  44.80200 11.07300 33.52900
H  45.37000 8.41400 36.60700
H  45.15600 10.08500 37.17100
H  46.77100 9.39100 37.09200

