158

Mg 9.25000 48.08700 24.69800
C  7.00900 48.88600 27.43600
C  11.79800 49.28900 26.78200
C  11.46700 47.48800 22.24900
C  6.52700 47.57500 22.67800
N  9.35000 48.79900 26.86400
C  8.33900 48.99900 27.77400
C  8.80100 49.54000 29.11700
C  10.13500 50.16600 28.58600
C  10.48700 49.31300 27.36300
C  10.05700 51.65100 28.23800
C  8.98000 48.42900 30.20200
C  8.84300 48.84300 31.65900
H  8.14400 47.86000 32.62500
N  11.33100 48.28100 24.57200
C  12.20800 48.78400 25.54000
C  13.60600 48.61100 25.11700
C  13.46000 48.04400 23.78200
C  12.06600 47.92000 23.47800
C  14.75600 48.93600 25.94800
C  14.57800 47.68900 22.83900
O  14.38600 47.22300 21.74100
C  15.92800 47.95700 23.31800
N  9.02600 47.71600 22.74500
C  10.12700 47.52400 21.90000
C  9.69300 47.00500 20.58200
C  8.10400 46.99200 20.57600
C  7.83600 47.46300 22.09100
C  10.14600 47.87800 19.38000
C  7.47100 45.64200 20.14800
C  7.32400 45.55400 18.57900
N  7.23200 48.17200 24.91900
C  6.23900 48.06700 23.99900
C  4.96800 48.38600 24.48700
C  5.16800 48.59200 25.84900
C  6.54700 48.51100 26.13900
C  3.69900 48.19800 23.74900
C  4.50900 48.85000 27.16300
O  3.29700 48.83200 27.45500
C  5.73300 49.18900 28.15400
C  5.50100 48.46900 29.38500
O  5.74900 47.32400 29.63900
O  4.84300 49.35500 30.23900
C  4.58100 48.84100 31.58800
H  12.59400 49.80300 27.32500
H  12.10100 47.24900 21.39200
H  5.64700 47.32800 22.08000
H  8.10900 50.29100 29.49900
H  10.89000 49.95900 29.34400
H  9.18400 52.19400 28.60100
H  9.87300 51.77900 27.17100
H  10.87400 52.24700 28.64400
H  10.00300 48.08900 30.04700
H  8.38400 47.52000 30.12000
H  8.56000 49.86200 31.92300
H  9.86300 48.85200 32.04300
H  14.44400 48.89500 26.99200
H  15.15800 49.89300 25.61700
H  15.45700 48.10700 25.84600
H  16.04800 48.91900 23.81600
H  16.74300 47.97600 22.59400
H  16.06900 47.17200 24.06100
H  10.19400 46.05400 20.40500
H  7.71800 47.80800 19.96500
H  9.35800 48.37300 18.81300
H  10.79800 47.38400 18.65900
H  10.72900 48.73200 19.72500
H  6.49900 45.51400 20.62600
H  8.17000 44.93100 20.58800
H  7.78500 46.42700 18.11800
H  6.27000 45.40000 18.34700
H  7.83900 44.66100 18.22600
H  3.52800 47.14400 23.52900
H  3.73200 48.79800 22.83900
H  2.95000 48.68000 24.37800
H  5.56600 50.24900 28.34600
H  3.50400 48.93100 31.72900
H  4.87900 49.61800 32.29200
H  4.94300 47.89600 31.99300
Mg -10.69400 38.74000 40.62700
C  -9.06500 35.64000 39.80000
C  -8.02600 40.31500 39.12500
C  -12.56700 41.55000 40.40500
C  -13.47700 36.92100 41.27900
N  -8.76700 38.01000 39.68100
C  -8.33500 36.71800 39.36300
C  -6.91700 36.61800 38.70400
C  -6.59800 38.15200 38.61000
C  -7.84700 38.89600 39.22300
C  -5.18200 38.51900 39.29100
C  -6.92300 35.74700 37.42100
C  -6.45900 36.38900 36.11100
H  -7.45900 37.22300 35.28500
N  -10.27600 40.75900 40.12000
C  -9.11000 41.17200 39.49400
C  -9.11900 42.59200 39.32300
C  -10.39000 43.05500 39.75200
C  -11.16900 41.78500 40.14700
C  -7.94100 43.38700 38.79700
C  -10.81500 44.53100 39.81000
O  -10.09000 45.43900 39.43400
C  -12.12200 44.86300 40.36700
N  -12.73900 39.21700 40.57200
C  -13.22500 40.40200 40.76900
C  -14.77700 40.38000 41.03000
C  -15.04000 38.82800 41.27100
C  -13.67700 38.29300 41.02800
C  -15.16900 41.20500 42.24900
C  -16.10300 38.21800 40.29400
C  -17.48300 38.00100 40.89700
N  -11.20500 36.67600 40.71300
C  -12.42200 36.10200 41.08700
C  -12.23100 34.66100 41.27100
C  -10.94800 34.39400 40.72500
C  -10.36600 35.67100 40.41500
C  -13.23100 33.63300 41.79600
C  -10.01200 33.37300 40.39900
O  -10.01700 32.14700 40.50100
C  -8.72300 34.16600 39.81400
C  -7.44600 33.93200 40.67700
O  -7.39400 33.95000 41.89200
O  -6.32100 33.75500 39.86000
C  -5.01100 33.59500 40.57200
H  -7.17000 40.78500 38.63700
H  -13.26100 42.38500 40.51700
H  -14.28100 36.31100 41.69600
H  -6.34800 36.10700 39.48200
H  -6.41000 38.52000 37.60200
H  -4.79600 37.59900 39.73200
H  -5.21500 39.33100 40.01700
H  -4.55200 38.80100 38.44700
H  -7.97100 35.47600 37.29600
H  -6.32300 34.86700 37.65600
H  -6.12100 35.61800 35.42000
H  -5.60700 37.04700 36.28500
H  -8.23400 43.59300 37.76800
H  -7.04800 42.76800 38.71200
H  -7.65600 44.18500 39.48200
H  -12.22500 44.53800 41.40300
H  -12.86100 44.39400 39.71700
H  -12.30400 45.90800 40.11600
H  -15.29100 40.76600 40.15000
H  -15.37700 38.60500 42.28400
H  -15.81500 41.99000 41.85600
H  -14.31700 41.72000 42.69200
H  -15.65700 40.58000 42.99700
H  -15.64800 37.34600 39.82600
H  -16.28700 38.89500 39.46000
H  -18.20500 38.44200 40.21000
H  -17.60600 38.31100 41.93500
H  -17.54300 36.91600 40.80800
H  -14.22100 33.75200 41.35700
H  -13.25200 33.81300 42.87100
H  -12.94400 32.58300 41.73800
H  -8.68400 33.83200 38.77700
H  -4.87100 32.63200 41.06300
H  -4.85200 34.39200 41.29900
H  -4.29000 33.70600 39.76200

