158

Mg 1.25000 -2.60900 44.84400
C  4.39400 -1.47400 43.76300
C  -0.24300 -0.06900 43.02600
C  -1.75700 -4.02800 45.43800
C  2.77200 -5.32300 46.08900
N  2.04900 -1.03000 43.48700
C  3.39600 -0.71000 43.20600
C  3.49600 0.58900 42.41300
C  1.96400 1.03100 42.32600
C  1.18500 -0.11000 43.04400
C  1.72800 2.45700 42.79300
C  4.24900 0.37200 41.04700
C  5.48300 1.31800 40.85600
H  6.47200 1.21000 39.64400
N  -0.73300 -2.10300 44.28500
C  -1.13700 -1.01700 43.57800
C  -2.56100 -0.87800 43.56600
C  -2.99100 -2.01200 44.34000
C  -1.82800 -2.75900 44.72000
C  -3.36200 0.08900 42.78200
C  -4.47500 -2.34400 44.66800
O  -5.27600 -1.56500 44.20300
C  -4.95400 -3.57900 45.41900
N  0.55700 -4.43300 45.64500
C  -0.70600 -4.79700 45.85000
C  -0.87700 -6.28500 46.36500
C  0.58500 -6.61900 46.70100
C  1.35900 -5.40500 46.13000
C  -1.97800 -6.46300 47.50200
C  1.13700 -7.95000 46.06800
C  1.70100 -8.96000 47.15500
N  3.14200 -3.29100 45.00300
C  3.61700 -4.38500 45.56800
C  5.05900 -4.32400 45.61500
C  5.41200 -3.19400 44.93900
C  4.19700 -2.67000 44.51300
C  6.05600 -5.26200 46.34100
C  6.51500 -2.42500 44.48700
O  7.73500 -2.67000 44.74400
C  5.89900 -1.17400 43.69800
C  6.13000 0.11600 44.38000
O  5.27400 0.77900 44.96000
O  7.42800 0.41700 44.34900
C  7.89400 1.56200 45.16200
H  -0.72200 0.77000 42.51600
H  -2.71000 -4.52500 45.62900
H  3.26500 -6.23100 46.44100
H  4.05200 1.34600 42.96600
H  1.61000 1.07400 41.29600
H  2.65100 2.97700 43.04900
H  1.04600 2.40000 43.64200
H  1.22400 3.02400 42.01000
H  3.55600 0.62100 40.24300
H  4.53100 -0.68000 41.02000
H  6.12200 1.12400 41.71800
H  5.06300 2.31400 40.98900
H  -3.67800 -0.59600 41.99600
H  -2.74000 0.95400 42.54900
H  -4.25300 0.50600 43.25100
H  -4.75900 -4.53500 44.93300
H  -6.04200 -3.55600 45.46700
H  -4.66800 -3.62100 46.47000
H  -1.22800 -6.91800 45.55000
H  0.73200 -6.64400 47.78100
H  -2.13300 -5.51800 48.02200
H  -1.60000 -7.13700 48.27100
H  -2.88000 -6.92900 47.10400
H  1.97900 -7.84600 45.38400
H  0.30900 -8.42000 45.53700
H  2.76100 -9.08000 46.92900
H  1.20900 -9.92700 47.25200
H  1.65800 -8.63300 48.19400
H  5.66200 -6.26900 46.20300
H  6.01600 -5.02000 47.40300
H  7.03800 -5.28400 45.86800
H  6.24200 -1.18600 42.66400
H  8.93800 1.28500 45.30500
H  7.45000 1.57400 46.15800
H  7.90400 2.53100 44.66300
Mg 8.25000 2.88400 27.88100
C  9.66400 1.48400 30.73700
C  6.39000 4.94400 29.96300
C  6.71400 4.04900 25.18800
C  9.88400 0.40900 25.93700
N  7.93800 3.09600 30.18600
C  8.77100 2.52300 31.08000
C  8.49600 3.14200 32.49000
C  7.43600 4.24700 32.25100
C  7.23900 4.14500 30.70600
C  6.05900 4.21200 33.00800
C  9.71800 3.80000 33.16800
C  10.03600 3.29700 34.62600
H  10.56900 4.25100 35.67800
N  6.66300 4.20500 27.62400
C  6.08200 4.97900 28.61100
C  5.16000 5.81200 27.94800
C  5.16500 5.57600 26.54800
C  6.14800 4.56300 26.40200
C  4.39300 6.91400 28.68200
C  4.52600 6.39800 25.45300
O  4.78100 6.31600 24.27200
C  3.28300 7.26500 25.69300
N  8.22200 2.26600 25.85700
C  7.70800 3.08500 24.91700
C  8.15800 2.80500 23.51700
C  9.09100 1.58000 23.71100
C  8.99700 1.28800 25.25900
C  6.98500 2.67600 22.57100
C  10.51100 1.83300 23.23900
C  11.61300 2.32800 24.17100
N  9.41700 1.25100 28.22600
C  10.02200 0.34100 27.31800
C  10.71100 -0.64600 28.05700
C  10.63600 -0.24200 29.39700
C  9.93900 0.98000 29.42000
C  11.32800 -1.84000 27.47800
C  11.20500 -0.47800 30.74800
O  11.96500 -1.39800 31.10600
C  10.61700 0.73600 31.66000
C  9.97300 0.19500 32.90500
O  8.84800 -0.27600 32.93100
O  10.76600 0.27800 34.01500
C  10.21200 -0.40800 35.24700
H  5.90800 5.72700 30.55200
H  6.37700 4.54200 24.27400
H  10.35600 -0.22700 25.18500
H  7.95800 2.39100 33.07000
H  7.92300 5.22000 32.31600
H  5.17800 4.04400 32.38900
H  5.91900 5.17900 33.49100
H  6.08600 3.56300 33.88300
H  9.71400 4.88500 33.06400
H  10.58200 3.46600 32.59400
H  10.77600 2.50000 34.54200
H  9.08500 2.87800 34.95300
H  4.88500 7.84200 28.38900
H  4.41800 6.79600 29.76500
H  3.38300 6.77100 28.30000
H  2.67100 7.14600 24.79900
H  3.57100 8.31600 25.65900
H  2.60600 7.05400 26.52100
H  8.78100 3.61500 23.13700
H  8.71000 0.71000 23.17600
H  7.08600 3.40300 21.76500
H  5.95900 2.77500 22.92600
H  6.96000 1.71200 22.06200
H  10.41600 2.55700 22.43000
H  10.92900 0.87400 22.93100
H  11.27800 2.83800 25.07400
H  12.33100 3.01700 23.72700
H  12.24500 1.50900 24.51500
H  11.77900 -1.66300 26.50200
H  10.60600 -2.65700 27.45600
H  12.10700 -2.16100 28.17000
H  11.45600 1.41400 31.81900
H  11.02500 -0.82800 35.83700
H  9.52500 -1.23500 35.06700
H  9.68100 0.21500 35.96700

