158

Mg 26.20300 49.32200 26.56000
C  23.91100 50.48900 29.01200
C  28.44700 48.62900 28.92500
C  28.37700 48.39000 24.09700
C  24.17700 50.76100 23.98700
N  26.16700 49.56700 28.71200
C  25.12600 49.92600 29.56800
C  25.52500 49.65600 31.06200
C  27.03500 49.32700 30.90100
C  27.19800 49.12300 29.41400
C  28.01300 50.31200 31.49700
C  24.57900 48.57600 31.81400
C  24.03400 48.89100 33.23200
H  24.96000 49.32000 34.32600
N  28.18200 48.55500 26.46300
C  28.94500 48.27800 27.58300
C  30.12900 47.63600 27.13700
C  30.15400 47.66400 25.75100
C  28.84500 48.22100 25.36100
C  31.09300 47.09500 28.16800
C  31.29600 47.45500 24.76100
O  31.12800 47.45500 23.54300
C  32.54800 46.84900 25.17300
N  26.20200 49.60800 24.28600
C  27.19100 49.02500 23.55800
C  26.83800 49.07600 22.00600
C  25.45200 49.73300 21.98500
C  25.20100 50.01800 23.44700
C  27.90800 49.90800 21.15500
C  24.32000 48.74200 21.41300
C  23.30100 48.07100 22.29800
N  24.43500 50.39200 26.47300
C  23.69400 50.82100 25.38500
C  22.58000 51.58100 25.82600
C  22.59700 51.36800 27.21700
C  23.74500 50.64900 27.57700
C  21.60400 52.25900 25.01400
C  21.81900 51.62800 28.43200
O  20.69300 52.19800 28.53700
C  22.64900 51.04400 29.60600
C  22.94200 52.06000 30.68500
O  23.86700 52.86600 30.55900
O  22.22100 51.86200 31.78000
C  22.51200 52.64600 32.96000
H  29.18600 48.43600 29.70600
H  28.93900 47.95100 23.27000
H  23.47000 51.03900 23.20200
H  25.28100 50.62800 31.49200
H  27.14000 48.37000 31.41100
H  27.38300 51.14700 31.80400
H  28.65500 50.69200 30.70200
H  28.73000 49.89900 32.20700
H  25.14400 47.64500 31.86700
H  23.73000 48.35300 31.16700
H  23.40300 48.09400 33.62700
H  23.37300 49.74700 33.10200
H  31.19200 46.02600 27.98100
H  30.85900 47.14600 29.23100
H  32.12000 47.46000 28.17000
H  33.06800 47.70000 25.61300
H  33.04200 46.41500 24.30500
H  32.38700 46.06000 25.90700
H  26.79400 48.03900 21.67300
H  25.40500 50.60600 21.33400
H  27.54400 50.84900 20.74400
H  28.20900 49.36800 20.25700
H  28.83000 50.07300 21.71200
H  24.75100 48.01100 20.72900
H  23.67100 49.30900 20.74600
H  22.85000 47.16800 21.88800
H  22.54200 48.83100 22.48400
H  23.82400 47.91600 23.24200
H  20.65000 51.77900 25.23400
H  21.74200 52.22800 23.93300
H  21.55900 53.32900 25.21900
H  22.03100 50.30400 30.11400
H  23.01300 51.96400 33.64800
H  21.55600 52.93700 33.39500
H  23.14300 53.53100 32.88000
Mg -10.18600 40.49500 39.31500
C  -9.23200 37.05200 38.87000
C  -6.95100 41.26200 38.77200
C  -11.17800 43.60400 38.57600
C  -13.56100 39.38000 39.10100
N  -8.37300 39.25500 38.69400
C  -8.17700 37.89200 38.72200
C  -6.73800 37.53200 38.61100
C  -6.04300 38.91500 38.87100
C  -7.23000 39.92300 38.85200
C  -5.24900 38.98400 40.21600
C  -6.28400 36.93800 37.22400
C  -6.72100 37.56000 35.88300
H  -7.64600 36.77700 34.94500
N  -9.14700 42.26900 38.91000
C  -7.82000 42.39600 38.65900
C  -7.52100 43.76900 38.53100
C  -8.71400 44.45000 38.20100
C  -9.72900 43.41200 38.51400
C  -6.10300 44.28200 38.32000
C  -8.92300 45.90000 37.66700
O  -7.95500 46.58500 37.38100
C  -10.25000 46.54000 37.44800
N  -12.10600 41.36200 38.97700
C  -12.19800 42.68700 38.82400
C  -13.63300 43.11800 38.86900
C  -14.40700 41.80800 39.08000
C  -13.33300 40.76700 39.07600
C  -13.85900 44.26600 39.93900
C  -15.54800 41.52800 38.05500
C  -16.81600 42.49100 38.05600
N  -11.19500 38.67300 39.17900
C  -12.59200 38.37900 39.10100
C  -12.80800 36.92900 39.04600
C  -11.46300 36.40000 38.95700
C  -10.55000 37.46500 38.98500
C  -14.21700 36.25800 38.90400
C  -10.72900 35.21000 38.79600
O  -11.19700 34.07200 38.77000
C  -9.26900 35.60600 38.65700
C  -8.62400 34.81800 39.64200
O  -8.91000 34.82200 40.86300
O  -7.59500 34.01800 39.13400
C  -6.77400 33.17200 40.03500
H  -5.91500 41.60600 38.77700
H  -11.51500 44.63700 38.46600
H  -14.60000 39.04800 39.04900
H  -6.60000 36.88000 39.47400
H  -5.32100 39.16200 38.09300
H  -5.26700 40.00900 40.58500
H  -4.21100 38.77200 39.95700
H  -5.56000 38.31800 41.02100
H  -6.61500 35.90400 37.13300
H  -5.19400 36.95000 37.22000
H  -5.81200 37.63800 35.28800
H  -7.00600 38.60400 36.01200
H  -5.90100 45.15200 38.94400
H  -5.86600 44.51700 37.28200
H  -5.39900 43.47400 38.51900
H  -10.66700 46.70800 38.44000
H  -10.82300 45.85700 36.82100
H  -10.23500 47.46300 36.86800
H  -13.85700 43.41600 37.84500
H  -14.89200 41.74400 40.05400
H  -14.65800 44.02600 40.64000
H  -14.16800 45.17700 39.42500
H  -12.93100 44.45500 40.47800
H  -15.94100 40.53000 38.25100
H  -15.12800 41.38700 37.05900
H  -16.87200 42.93400 37.06100
H  -16.74500 43.24300 38.84200
H  -17.79200 42.01600 38.15700
H  -15.01900 36.58200 39.56800
H  -14.04400 35.19100 39.04300
H  -14.47800 36.43500 37.86000
H  -8.98300 35.26100 37.66300
H  -7.14400 33.38000 41.03900
H  -5.72300 33.38900 39.84400
H  -6.84200 32.09100 39.91000

