158

Mg 36.57500 49.54500 25.19000
C  36.54000 47.49400 27.99600
C  35.03100 51.94600 26.98100
C  36.11300 50.99400 22.27700
C  37.61300 46.50800 23.31900
N  35.73600 49.60300 27.20400
C  36.01300 48.76900 28.25000
C  35.77800 49.47300 29.52700
C  35.04100 50.85300 29.21200
C  35.28800 50.82400 27.70600
C  33.52800 50.81900 29.60500
C  37.05600 49.50300 30.45200
C  36.87100 49.09500 31.87900
H  35.48500 49.27300 32.50200
N  35.86100 51.29600 24.67800
C  35.31400 52.18200 25.56800
C  34.98800 53.38700 24.85400
C  35.28300 53.13100 23.43800
C  35.80900 51.74500 23.40800
C  34.34200 54.60500 25.52200
C  34.95500 54.02700 22.22700
O  35.27200 53.80900 21.03200
C  34.03600 55.25600 22.48900
N  37.10400 48.89600 23.12300
C  36.75400 49.74100 22.14000
C  36.90400 49.10400 20.73200
C  37.69500 47.80900 21.13200
C  37.46600 47.73400 22.63500
C  35.67200 48.81200 19.96200
C  39.17600 47.84300 20.66800
C  40.27800 48.31800 21.74000
N  36.91700 47.39500 25.48800
C  37.44800 46.36000 24.72900
C  37.69100 45.17000 25.52400
C  37.33500 45.59400 26.85200
C  36.88400 46.93800 26.73500
C  38.21700 43.92700 25.00400
C  37.42500 45.23700 28.17300
O  37.84200 44.18700 28.59900
C  36.94100 46.45600 29.05500
C  35.78100 45.99200 29.85800
O  34.61300 45.89300 29.40300
O  36.14500 45.53800 31.06200
C  35.02100 45.00300 31.77800
H  34.69700 52.86300 27.47200
H  35.88400 51.45300 21.31300
H  37.88500 45.65300 22.69800
H  35.07400 48.77000 29.97300
H  35.54300 51.64400 29.77000
H  33.43400 50.17100 30.47600
H  32.89400 50.42500 28.81000
H  33.23300 51.84100 29.84200
H  37.50900 50.49500 30.46700
H  37.85300 48.89000 30.03000
H  37.71000 49.49100 32.45200
H  37.04600 48.02600 32.00200
H  34.70300 55.51700 25.04600
H  34.49800 54.62800 26.60100
H  33.25800 54.71500 25.48900
H  33.06900 55.13000 22.97500
H  33.81600 55.55600 21.46500
H  34.52300 56.10200 22.97400
H  37.55700 49.80000 20.20400
H  37.26300 46.93500 20.64500
H  35.70800 49.51900 19.13400
H  34.77700 49.04500 20.53900
H  35.56900 47.78400 19.61300
H  39.23800 48.41900 19.74400
H  39.47500 46.86600 20.28800
H  40.67100 47.56300 22.42000
H  39.98600 49.24000 22.24300
H  41.14000 48.59400 21.13300
H  37.94600 43.83800 23.95200
H  37.79000 43.08800 25.55300
H  39.29800 44.06100 25.04300
H  37.67300 46.78900 29.79000
H  35.41900 44.72900 32.75500
H  34.65400 44.11600 31.26200
H  34.21700 45.69400 32.03300
Mg 7.27600 53.30800 40.35800
C  6.50700 49.79000 40.41300
C  10.48400 52.54000 39.71900
C  7.79700 56.65500 39.98500
C  3.79700 53.98400 40.79400
N  8.35000 51.41600 40.04300
C  7.84100 50.12200 40.21600
C  9.02300 49.15600 40.13300
C  10.24200 50.04100 40.22700
C  9.66600 51.40000 39.99900
C  11.13400 50.01700 41.43200
C  9.15200 48.21600 38.83900
C  8.83300 48.90000 37.50500
H  7.67600 48.38200 36.67500
N  8.95300 54.47900 39.83600
C  10.21200 53.90700 39.56000
C  11.08100 54.95100 39.23700
C  10.40300 56.17700 39.44700
C  8.96500 55.85400 39.70700
C  12.55200 54.71300 38.94800
C  11.06300 57.64100 39.30300
O  12.26800 57.78500 39.05400
C  10.26600 58.84100 39.41800
N  5.93800 55.08800 40.28900
C  6.46300 56.30900 40.23200
C  5.40000 57.37200 40.66600
C  4.06400 56.54300 40.86900
C  4.65200 55.12200 40.68700
C  5.84200 58.48100 41.72700
C  2.93200 56.86100 39.76400
C  1.56400 57.05300 40.42000
N  5.51200 52.21900 40.40800
C  4.20900 52.59700 40.70300
C  3.42900 51.39600 41.06400
C  4.35100 50.34800 40.93400
C  5.56200 50.86300 40.55600
C  1.95000 51.36800 41.29700
C  4.46200 48.90100 41.12500
O  3.57200 48.05400 41.47300
C  5.89600 48.48400 40.77800
C  5.66500 47.53800 39.67000
O  5.34200 47.83300 38.52500
O  5.80700 46.23900 40.14700
C  5.42500 45.17800 39.14200
H  11.51100 52.20700 39.55100
H  8.00200 57.72400 40.07100
H  2.75500 54.05700 41.11300
H  9.08400 48.60100 41.07000
H  10.94600 49.91800 39.40300
H  12.13500 50.32800 41.13200
H  11.21500 49.00000 41.81600
H  10.96900 50.70300 42.26300
H  8.45000 47.38200 38.85800
H  10.15500 47.80200 38.73800
H  9.68600 48.99200 36.83300
H  8.70300 49.96500 37.69700
H  12.80500 53.67100 38.75600
H  13.06900 54.92000 39.88400
H  12.84100 55.30600 38.07900
H  10.78900 59.74100 39.09500
H  10.01900 58.86400 40.47900
H  9.36500 58.60500 38.85200
H  5.37600 57.88900 39.70600
H  3.76500 56.72400 41.90100
H  6.85300 58.19900 42.02000
H  5.12600 58.53500 42.54700
H  5.78700 59.43800 41.20700
H  2.83500 56.04100 39.05300
H  3.17200 57.70300 39.11400
H  0.94100 57.68500 39.78800
H  1.65100 57.58400 41.36800
H  1.08500 56.08000 40.52900
H  1.51500 51.94700 40.48200
H  1.78500 51.78000 42.29200
H  1.48400 50.38300 41.32300
H  6.38200 47.96500 41.60400
H  6.10500 44.33800 39.28600
H  5.66300 45.48000 38.12200
H  4.35900 44.95700 39.20100

