158

Mg 48.03700 16.01500 28.51200
C  46.02700 15.64400 31.33900
C  50.16800 17.89700 30.37100
C  49.85100 16.47800 25.70500
C  45.54400 14.41700 26.62200
N  48.12200 16.65300 30.65800
C  47.24300 16.27700 31.64300
C  47.69100 16.75800 32.98000
C  48.90500 17.71100 32.61500
C  49.03500 17.48700 31.10600
C  48.65700 19.22100 32.92300
C  48.07700 15.62000 33.92000
C  48.00800 15.96800 35.43300
H  47.80300 17.42100 35.90900
N  49.81800 16.93100 28.13100
C  50.58900 17.62100 29.02400
C  51.87700 17.93700 28.38000
C  51.75100 17.67900 26.98900
C  50.40900 17.02300 26.89200
C  53.03400 18.57400 29.15200
C  52.71900 18.03200 25.90600
O  52.43800 17.84700 24.76100
C  54.00100 18.76700 26.15800
N  47.67800 15.67100 26.39900
C  48.60900 15.90500 25.44100
C  48.12800 15.33400 24.05300
C  46.90400 14.46900 24.43000
C  46.71100 14.86100 25.94700
C  47.82900 16.52000 23.12000
C  47.06700 12.83400 24.22800
C  47.40700 12.06100 25.48700
N  46.12000 15.31700 28.84800
C  45.19100 14.66300 27.99000
C  43.95900 14.34900 28.72500
C  44.25100 14.72300 30.03900
C  45.60300 15.20700 30.06600
C  42.68200 13.72700 28.22600
C  43.72100 14.87400 31.38200
O  42.64300 14.50100 31.89700
C  44.83100 15.41200 32.28600
C  44.35400 16.74700 32.88000
O  44.33500 17.83500 32.33700
O  43.92400 16.53300 34.15300
C  42.92200 17.48800 34.79600
H  50.83300 18.42700 31.05600
H  50.48200 16.47900 24.81400
H  44.89500 14.00200 25.84900
H  46.78500 17.30600 33.23800
H  49.83500 17.45100 33.12000
H  48.23600 19.77100 32.08100
H  49.60000 19.64700 33.26500
H  47.87300 19.41000 33.65700
H  49.09700 15.32800 33.67300
H  47.46500 14.75900 33.65200
H  48.96100 15.62500 35.83500
H  47.17500 15.33600 35.74200
H  53.96000 18.06100 28.89600
H  52.88200 18.63700 30.22900
H  53.16300 19.60900 28.83500
H  54.74500 18.34200 26.83100
H  53.55100 19.69000 26.52600
H  54.37900 19.03000 25.17000
H  48.93500 14.64900 23.78900
H  46.00200 14.68200 23.85700
H  48.18800 17.45500 23.55100
H  46.77700 16.58800 22.84300
H  48.44900 16.37800 22.23500
H  47.83400 12.42400 23.57100
H  46.10800 12.57300 23.78300
H  47.67200 12.70600 26.32500
H  48.24600 11.37100 25.40300
H  46.55700 11.45800 25.80800
H  42.70300 13.51200 27.15800
H  41.82900 14.32300 28.55000
H  42.55600 12.82200 28.82100
H  45.01700 14.79700 33.16700
H  41.87500 17.31800 34.54200
H  43.09000 18.51200 34.46200
H  43.06100 17.40200 35.87300
Mg -10.79600 17.60500 40.91900
C  -7.22100 17.46800 40.74400
C  -10.47700 20.95400 40.01000
C  -14.05900 17.78100 40.59700
C  -10.82800 14.16000 41.57100
N  -8.98200 18.88800 40.26300
C  -7.66300 18.71100 40.26800
C  -6.84900 19.93800 39.89900
C  -7.92600 21.05900 40.05400
C  -9.23000 20.22500 39.98600
C  -7.90800 21.86500 41.43400
C  -6.24600 19.87800 38.44100
C  -4.71200 19.52000 38.37700
H  -4.36200 18.29100 37.51600
N  -12.13100 19.18500 40.40000
C  -11.84700 20.46800 40.12800
C  -13.06300 21.17600 39.84400
C  -14.15500 20.28300 40.06000
C  -13.49600 18.99600 40.33600
C  -13.07000 22.57900 39.45400
C  -15.66500 20.55900 39.80700
O  -15.93200 21.72400 39.64500
C  -16.74600 19.52800 39.92000
N  -12.24800 16.16400 40.86600
C  -13.57800 16.49000 40.78300
C  -14.48400 15.30100 41.13900
C  -13.47200 14.25500 41.57400
C  -12.07900 14.79400 41.26300
C  -15.58400 15.53700 42.19200
C  -13.67700 12.74700 41.02500
C  -13.01500 12.48000 39.63000
N  -9.37500 16.04000 41.16500
C  -9.56400 14.74600 41.53200
C  -8.22800 14.21400 41.84600
C  -7.30300 15.18000 41.49500
C  -8.03000 16.32700 41.07100
C  -8.09200 12.86000 42.53500
C  -5.92600 15.50000 41.39700
O  -4.88400 14.84800 41.61900
C  -5.85300 17.02400 41.04200
C  -5.05900 17.72400 42.17000
O  -3.82900 17.62300 42.27600
O  -5.87500 18.51500 42.92100
C  -5.20300 19.44600 43.74600
H  -10.45400 22.02900 39.81800
H  -15.13800 17.76800 40.76300
H  -10.90200 13.10400 41.84100
H  -6.12500 19.94800 40.71400
H  -7.92100 21.80300 39.25700
H  -7.15900 21.37200 42.05400
H  -8.85500 21.72600 41.95700
H  -7.65900 22.92500 41.39200
H  -6.34600 20.80700 37.87800
H  -6.86300 19.08000 38.02900
H  -4.48700 19.36100 39.43200
H  -4.10000 20.39100 38.14200
H  -12.84100 22.78500 38.40800
H  -12.33500 22.97300 40.15500
H  -13.94500 23.08700 39.85800
H  -17.63800 20.06500 39.59700
H  -16.62600 19.54400 41.00300
H  -16.53500 18.59900 39.39000
H  -14.86700 14.94200 40.18300
H  -13.44500 13.93600 42.61500
H  -16.58700 15.56000 41.76600
H  -15.34900 16.46300 42.71700
H  -15.60200 14.83300 43.02300
H  -14.70700 12.55500 40.72300
H  -13.32400 12.08900 41.82000
H  -11.94000 12.44100 39.80600
H  -13.22400 13.30000 38.94300
H  -13.31400 11.49600 39.26900
H  -8.56500 12.09500 41.92000
H  -8.52200 12.89600 43.53600
H  -7.08400 12.47600 42.69300
H  -5.24500 17.00200 40.13700
H  -4.51000 18.89600 44.38400
H  -5.97300 19.81000 44.42700
H  -4.75600 20.26900 43.18900

