158

Mg 29.89200 57.58300 39.33500
C  27.13200 55.50100 38.54000
C  31.94500 55.09200 38.27100
C  32.35100 59.84500 39.25800
C  27.61200 60.30700 40.00000
N  29.44300 55.51400 38.43100
C  28.31400 54.81900 38.33200
C  28.59500 53.33500 38.11300
C  30.18000 53.25000 38.20200
C  30.58500 54.71100 38.31400
C  30.70300 52.33200 39.39800
C  27.99900 52.81700 36.85600
C  28.60900 53.28500 35.52000
H  27.70100 54.03700 34.51600
N  31.97100 57.44600 38.86500
C  32.65100 56.30300 38.54800
C  34.08000 56.54300 38.40000
C  34.21900 57.94100 38.68700
C  32.82600 58.55700 38.98200
C  35.03800 55.56500 37.90300
C  35.63200 58.67400 38.67500
O  36.70300 58.16000 38.34000
C  35.76300 60.12500 39.01900
N  29.99800 59.74500 39.79400
C  31.15800 60.38800 39.63600
C  30.95200 61.96500 39.72500
C  29.47900 61.98700 40.34300
C  28.98800 60.60000 39.99300
C  32.01500 62.69200 40.65000
C  28.58400 63.08400 39.78600
C  29.03900 64.58400 39.67000
N  27.77800 57.91500 39.32800
C  27.01000 59.05900 39.62900
C  25.61600 58.64900 39.50100
C  25.64900 57.26100 39.04600
C  26.95700 56.90000 38.95900
C  24.45300 59.49100 39.91300
C  24.74300 56.14900 38.72700
O  23.50100 56.08300 38.74600
C  25.65800 54.95900 38.34300
C  25.23500 53.75200 39.11700
O  25.63300 53.38900 40.23200
O  24.31200 53.04100 38.33800
C  23.54400 51.98300 39.03800
H  32.60200 54.23900 38.08800
H  33.16800 60.55900 39.13600
H  26.83500 60.99200 40.34700
H  28.26500 52.72900 38.95700
H  30.50800 52.76700 37.28200
H  29.96600 51.61800 39.76500
H  31.21900 53.00000 40.08700
H  31.55000 51.84200 38.91900
H  26.92700 53.01200 36.80600
H  28.08700 51.73400 36.93600
H  29.17400 52.48100 35.04800
H  29.35600 54.04400 35.75000
H  36.11100 55.75900 37.90300
H  34.85700 55.29800 36.86200
H  34.89900 54.58800 38.36600
H  36.72700 60.40300 39.44500
H  35.03900 60.03500 39.82900
H  35.44400 60.72300 38.16600
H  30.97900 62.42900 38.73900
H  29.44500 62.07200 41.42900
H  32.78200 62.14700 41.20000
H  31.33400 63.20200 41.33200
H  32.47700 63.52700 40.12400
H  27.68200 63.12200 40.39700
H  28.29700 62.76900 38.78300
H  29.81200 64.85100 40.39100
H  28.24700 65.32500 39.77400
H  29.53500 64.79700 38.72400
H  23.69300 58.94500 40.47200
H  24.01000 59.78500 38.96200
H  24.70900 60.31200 40.58300
H  25.52400 54.63000 37.31200
H  24.21600 51.12500 39.03300
H  22.62000 51.73700 38.51600
H  23.34800 52.18900 40.09100
Mg 0.99700 42.29200 25.68300
C  2.49900 42.17800 28.95700
C  -1.85600 41.10800 27.02500
C  -0.11900 41.69100 22.56400
C  4.24700 43.13100 24.47300
N  0.38300 41.81700 27.72700
C  1.16200 41.87400 28.92400
C  0.31000 41.46800 30.11800
C  -1.05600 40.94800 29.44800
C  -0.86000 41.36400 27.99700
C  -1.21000 39.35600 29.38600
C  0.13000 42.69800 31.02700
C  -0.18500 42.41400 32.53200
H  -0.56600 40.97000 32.94700
N  -0.78800 41.65800 24.87200
C  -1.89700 41.23400 25.65100
C  -3.03500 40.99300 24.72200
C  -2.50800 41.33400 23.40900
C  -1.06000 41.51800 23.57100
C  -4.34800 40.49400 25.11900
C  -3.23300 41.26000 22.07500
O  -2.67700 41.31100 20.99500
C  -4.79500 41.25100 22.04100
N  1.95000 42.42500 23.82300
C  1.20300 42.21400 22.66900
C  2.09600 42.46400 21.35500
C  3.28000 43.34800 21.97000
C  3.23300 42.92100 23.51900
C  2.56100 41.13400 20.63900
C  3.16800 44.87700 21.61800
C  3.38100 45.27100 20.16700
N  2.99400 42.49800 26.50200
C  4.21700 42.92400 25.83800
C  5.22500 43.15000 26.87200
C  4.58900 42.81300 28.09500
C  3.24000 42.45400 27.78700
C  6.59000 43.67000 26.64300
C  4.79400 42.79600 29.55900
O  5.76600 43.03100 30.26100
C  3.44600 42.14100 30.15900
C  3.73600 40.85500 30.69200
O  4.19500 39.89600 30.04800
O  3.33300 40.80400 31.97300
C  3.09800 39.43200 32.51000
H  -2.82900 40.72200 27.33800
H  -0.44900 41.70100 21.52300
H  5.18700 43.56000 24.11800
H  0.81400 40.60200 30.54600
H  -1.90700 41.47500 29.88000
H  -0.98500 39.07300 28.35800
H  -2.24800 39.02600 29.39400
H  -0.61100 38.80000 30.10800
H  -0.67500 43.13600 30.43800
H  0.95900 43.34900 30.74900
H  -0.90100 43.22500 32.67100
H  0.75400 42.60700 33.05000
H  -4.54900 39.66900 24.43600
H  -5.08800 41.26500 24.90300
H  -4.39800 40.22900 26.17500
H  -5.15300 40.22600 22.13900
H  -4.99100 41.61100 21.03100
H  -5.15800 41.93400 22.80800
H  1.52000 43.01800 20.61300
H  4.21900 43.05200 21.50300
H  3.64000 40.98200 20.67000
H  2.19200 41.30900 19.62900
H  1.94400 40.32300 21.02800
H  3.82900 45.44500 22.27300
H  2.15900 45.16100 21.91800
H  3.24900 44.37800 19.55700
H  4.29200 45.85900 20.05500
H  2.63400 45.93700 19.73500
H  6.62100 44.51600 25.95600
H  7.23500 42.86300 26.29500
H  7.05400 44.13600 27.51100
H  3.17100 42.92300 30.86700
H  2.13000 39.05500 32.18200
H  3.01100 39.71400 33.55900
H  3.97300 38.81300 32.31000

