158

Mg 54.07200 24.54400 44.88300
C  51.43600 26.77100 44.37600
C  51.96100 21.93500 44.20200
C  56.86100 22.53800 44.61100
C  56.15700 27.13300 45.62000
N  51.95100 24.41500 44.20700
C  51.01800 25.43500 44.17500
C  49.54400 24.84900 44.06700
C  49.79500 23.35500 44.45900
C  51.35700 23.21200 44.27400
C  49.43400 23.00200 45.90700
C  48.73700 25.03500 42.71200
C  49.45300 25.03400 41.33800
H  49.72000 23.57100 40.87300
N  54.38100 22.50600 44.41700
C  53.34500 21.59300 44.24200
C  54.02500 20.28800 44.08000
C  55.44600 20.47000 44.07400
C  55.64500 21.90200 44.38200
C  53.24200 19.01700 43.87000
C  56.46200 19.31900 43.83200
O  56.08800 18.18700 43.75300
C  57.91800 19.58800 43.62500
N  56.22700 24.86400 44.92100
C  57.15000 23.88400 44.88900
C  58.60800 24.39200 45.07300
C  58.37500 25.93200 45.41700
C  56.84400 26.00400 45.20500
C  59.30700 23.53900 46.21700
C  59.23400 26.91600 44.53300
C  58.61200 27.48100 43.18100
N  53.88800 26.56000 44.96900
C  54.79700 27.50500 45.41800
C  54.21300 28.78400 45.56900
C  52.93100 28.62300 45.03400
C  52.77800 27.21700 44.70400
C  54.78200 29.98800 46.23400
C  51.60800 29.14200 44.70900
O  51.22900 30.29100 44.86000
C  50.61500 27.97700 44.27200
C  50.09000 28.39200 42.93100
O  50.73900 28.64800 41.91800
O  48.73100 28.61300 43.09000
C  47.95800 28.75200 41.83100
H  51.28000 21.14300 43.88600
H  57.79000 21.96700 44.54700
H  56.81700 27.92400 45.98200
H  48.83100 25.28600 44.76600
H  49.36800 22.71700 43.68500
H  49.69600 21.94500 45.93400
H  48.37400 23.20300 46.06500
H  50.08100 23.60600 46.54300
H  48.11100 25.92600 42.74200
H  48.06900 24.18000 42.60100
H  50.44000 25.49700 41.32700
H  48.78800 25.50700 40.61500
H  53.01800 18.93400 42.80700
H  52.33100 19.06200 44.46600
H  53.80500 18.10400 44.06300
H  57.98800 20.51000 43.04900
H  58.19500 18.70600 43.04800
H  58.50000 19.66800 44.54300
H  59.07600 24.36200 44.09000
H  58.46700 26.03500 46.49800
H  59.57300 24.20100 47.04200
H  60.20000 23.06600 45.80900
H  58.61100 22.86200 46.71300
H  60.22200 26.46900 44.41900
H  59.38500 27.77100 45.19200
H  59.13300 27.15700 42.28000
H  58.65800 28.57000 43.13700
H  57.57400 27.17200 43.05800
H  55.71100 30.37600 45.81700
H  54.92900 29.78800 47.29500
H  53.99700 30.74300 46.17300
H  49.83800 28.02300 45.03600
H  48.52600 29.22300 41.02900
H  46.96900 29.18100 41.99300
H  47.81200 27.77100 41.38000
Mg 46.64700 25.10000 28.84600
C  47.55700 27.34400 31.49200
C  45.52400 23.00600 31.30100
C  46.02900 22.85900 26.45500
C  47.97700 27.34300 26.64900
N  46.71400 25.10500 31.04600
C  46.97700 26.16700 31.84600
C  46.87500 25.83300 33.31700
C  46.51900 24.25500 33.29500
C  46.15800 24.10500 31.78000
C  47.69800 23.35100 33.87400
C  45.82400 26.76800 34.06500
C  46.29200 27.47700 35.34300
H  45.52900 27.30400 36.58300
N  45.80100 23.20400 28.84700
C  45.38800 22.55100 29.92000
C  44.73300 21.38400 29.45500
C  44.81000 21.28100 28.07100
C  45.58900 22.47300 27.73200
C  44.14700 20.32400 30.46600
C  44.56300 20.11600 27.08800
O  44.80900 20.14600 25.92600
C  43.90000 18.90100 27.61900
N  47.21900 24.95600 26.90000
C  46.76300 23.96700 26.08800
C  47.08700 24.32800 24.67600
C  47.30000 25.85800 24.69000
C  47.46100 26.08400 26.13400
C  48.21000 23.44800 23.95900
C  46.00500 26.61200 24.16900
C  44.61300 26.18900 24.60900
N  47.53300 26.98600 28.97600
C  48.14300 27.71500 27.99600
C  48.71200 28.92100 28.54400
C  48.46100 28.89500 29.96100
C  47.88400 27.60900 30.17400
C  49.56600 29.92400 27.74700
C  48.67400 29.53200 31.26900
O  49.17000 30.59900 31.57300
C  48.14500 28.49800 32.39000
C  49.34600 28.20000 33.16100
O  50.15300 27.29700 32.84600
O  49.36400 28.90000 34.39400
C  50.39500 28.42200 35.32400
H  45.12600 22.35900 32.08500
H  45.85600 22.25200 25.56400
H  48.39900 27.97300 25.86300
H  47.86500 25.86400 33.77300
H  45.66500 24.10800 33.95600
H  47.83500 22.40500 33.35000
H  47.47900 23.28500 34.94000
H  48.63300 23.90700 33.80500
H  45.00000 26.10300 34.32100
H  45.55600 27.49900 33.30200
H  46.31900 28.54700 35.13900
H  47.28400 27.08200 35.56400
H  44.43700 19.31600 30.16900
H  43.06000 20.34500 30.53700
H  44.48700 20.41500 31.49800
H  44.45800 18.24300 28.28500
H  43.52900 18.31000 26.78200
H  42.99800 19.17000 28.17000
H  46.12800 24.10600 24.20700
H  48.24000 26.14700 24.22000
H  48.58200 22.68000 24.63700
H  49.06600 24.00600 23.57900
H  47.87700 22.89800 23.07900
H  45.92300 26.74800 23.09100
H  46.19300 27.60600 24.57500
H  44.48700 25.41600 25.36700
H  43.86400 26.15000 23.81900
H  44.26400 26.97700 25.27700
H  49.84000 29.55400 26.75900
H  50.52600 30.12500 28.22000
H  49.10300 30.90400 27.63100
H  47.37600 29.00200 32.97500
H  51.36900 28.23300 34.87200
H  50.08300 27.48100 35.77800
H  50.50300 29.25500 36.01800

