158

Mg -1.35800 17.78700 27.40700
C  -1.88000 15.59000 29.92100
C  -2.25200 20.39400 29.50200
C  -1.61100 20.00400 24.80700
C  -1.18000 15.14200 25.14600
N  -1.92400 17.89000 29.47400
C  -2.09400 16.88300 30.32500
C  -2.32500 17.36400 31.75700
C  -2.94500 18.84500 31.43800
C  -2.34200 19.05200 30.04800
C  -4.44400 19.01100 31.51100
C  -1.03500 17.32100 32.61800
C  -1.23700 16.67100 33.95300
H  -0.06100 16.41600 34.96300
N  -1.51000 19.94100 27.26100
C  -1.92300 20.83700 28.20400
C  -2.05900 22.17600 27.60900
C  -1.68000 22.06100 26.27000
C  -1.60300 20.62200 26.04900
C  -2.35900 23.47700 28.39400
C  -1.38800 23.12600 25.34000
O  -0.89100 22.94900 24.26900
C  -1.61500 24.61700 25.66800
N  -1.45000 17.60500 25.40500
C  -1.65100 18.65700 24.51200
C  -1.99400 18.08700 23.03000
C  -1.22300 16.68800 23.13800
C  -1.39800 16.44800 24.65800
C  -3.49800 18.00500 22.72800
C  0.27200 16.78600 22.56900
C  1.52100 16.51100 23.47300
N  -1.22900 15.74000 27.53300
C  -1.16100 14.80500 26.51300
C  -1.19300 13.46000 27.11100
C  -1.47800 13.73600 28.45000
C  -1.50600 15.11300 28.61400
C  -1.28600 12.10700 26.42200
C  -1.79900 13.11900 29.73300
O  -1.87100 11.92400 29.99700
C  -1.87300 14.33000 30.75200
C  -0.67300 14.06900 31.61500
O  0.39200 14.54400 31.35300
O  -0.91100 13.27000 32.68000
C  0.21200 12.94600 33.53500
H  -2.67100 21.20200 30.10400
H  -1.76900 20.69000 23.97200
H  -1.08300 14.35500 24.39500
H  -3.07500 16.68500 32.16200
H  -2.54700 19.50400 32.20900
H  -4.75200 19.11500 32.55200
H  -4.90600 18.07700 31.19100
H  -4.80000 19.71800 30.76200
H  -0.78700 18.38100 32.65500
H  -0.29600 16.68100 32.13600
H  -1.70000 15.70500 33.75500
H  -1.94000 17.34600 34.44000
H  -2.74600 23.27800 29.39400
H  -3.20400 24.03000 27.98500
H  -1.48800 24.09800 28.60300
H  -1.02300 24.83800 26.55600
H  -2.68200 24.53200 25.87300
H  -1.35300 25.29900 24.85900
H  -1.60400 18.75300 22.26000
H  -1.74500 15.93600 22.54600
H  -3.76300 18.53800 21.81400
H  -4.07000 18.33200 23.59500
H  -3.82900 16.98300 22.54500
H  0.49000 17.76100 22.13200
H  0.43700 16.09200 21.74500
H  2.19000 17.36400 23.35900
H  2.04900 15.64300 23.07800
H  1.22600 16.36400 24.51200
H  -0.44900 11.53600 26.82400
H  -1.22700 12.22200 25.33900
H  -2.24100 11.61200 26.59600
H  -2.73000 14.32800 31.42500
H  -0.16100 13.28200 34.50200
H  1.03400 13.64900 33.40100
H  0.50200 11.89500 33.54400
Mg 6.01100 54.56600 40.44900
C  5.90800 51.04900 40.65100
C  9.29700 54.09600 39.34200
C  5.97800 57.75200 39.89000
C  2.63400 54.52900 41.61700
N  7.38400 52.70200 39.85500
C  7.14100 51.44100 40.15900
C  8.38700 50.55700 39.86500
C  9.54200 51.57500 39.66700
C  8.69100 52.90200 39.55800
C  10.46900 51.67800 40.85300
C  8.29400 49.73200 38.53400
C  7.35000 50.17600 37.39400
H  7.92800 50.42300 36.04700
N  7.36900 55.77900 39.65700
C  8.72500 55.44300 39.36300
C  9.44200 56.61700 39.01600
C  8.51800 57.77600 39.13300
C  7.22400 57.15100 39.57900
C  10.85500 56.61900 38.50500
C  8.79900 59.21700 38.78200
O  9.85300 59.58700 38.35100
C  7.76300 60.31200 38.87400
N  4.44900 55.88400 40.54100
C  4.82400 57.23900 40.37500
C  3.60800 58.12800 40.62300
C  2.59900 57.13300 41.29000
C  3.21400 55.76800 41.08600
C  3.90400 59.42100 41.40600
C  1.25300 57.23200 40.62900
C  0.17900 57.53700 41.68700
N  4.52700 53.12200 40.90300
C  3.24100 53.22700 41.46300
C  2.78700 51.94500 42.03800
C  3.81000 51.04700 41.73300
C  4.74600 51.79300 40.95800
C  1.56800 51.66800 42.94000
C  4.32000 49.70400 41.93500
O  3.93300 48.68400 42.49200
C  5.58300 49.64200 41.10200
C  5.24900 48.64300 40.00100
O  4.88000 48.96200 38.87900
O  5.56400 47.39200 40.39300
C  5.14400 46.30100 39.43100
H  10.36700 53.95900 39.17700
H  5.88600 58.81000 39.63300
H  1.61500 54.56200 42.00600
H  8.54300 49.88100 40.70600
H  10.18500 51.49800 38.79000
H  10.20800 52.30500 41.70500
H  11.44200 51.89800 40.41300
H  10.45000 50.69100 41.31500
H  7.83100 48.80400 38.87100
H  9.26400 49.48300 38.10400
H  6.85700 51.11800 37.63600
H  6.61000 49.38300 37.29100
H  10.84000 57.12300 37.53900
H  11.18800 55.60300 38.29400
H  11.58700 57.17300 39.09200
H  8.27200 61.26400 38.72200
H  7.52800 60.29800 39.93800
H  6.92100 60.23700 38.18600
H  3.23500 58.44400 39.64900
H  2.56900 57.28700 42.36800
H  3.21500 59.38200 42.25000
H  3.52000 60.24600 40.80700
H  4.98100 59.51600 41.54600
H  1.05300 56.36500 39.99900
H  1.10100 58.08600 39.96900
H  -0.56900 56.75900 41.53200
H  -0.25400 58.53000 41.57100
H  0.48800 57.35400 42.71700
H  1.48400 50.59300 43.09900
H  0.64900 51.91800 42.41000
H  1.59200 52.41700 43.73200
H  6.35000 49.12900 41.68200
H  5.04700 45.36900 39.98800
H  5.82900 46.14900 38.59700
H  4.16500 46.58800 39.04700

