158

Mg 8.13500 3.03300 28.46000
C  9.44300 1.36500 31.29800
C  5.92500 4.57600 30.19500
C  6.65200 3.97400 25.48500
C  10.06500 0.60100 26.53500
N  7.73000 2.83900 30.44800
C  8.34400 2.16500 31.50900
C  7.71500 2.54200 32.86700
C  6.54300 3.52100 32.41100
C  6.71300 3.65500 30.91300
C  5.07400 3.09800 32.89500
C  8.76400 3.19300 33.88000
C  8.10900 3.70000 35.15600
H  8.67100 3.30400 36.48500
N  6.66700 4.29000 27.91900
C  5.86400 4.91400 28.84800
C  4.99200 5.81100 28.18000
C  5.22600 5.64000 26.79800
C  6.20700 4.60800 26.64300
C  4.09400 6.70600 28.91300
C  4.59200 6.35900 25.62400
O  4.83400 5.98300 24.48900
C  3.47500 7.37800 25.84700
N  8.27500 2.38900 26.31400
C  7.62800 2.97500 25.30500
C  7.98300 2.44800 23.93800
C  9.25400 1.57000 24.32400
C  9.13700 1.46600 25.86600
C  6.92700 1.67600 23.15200
C  10.67200 1.91300 23.71300
C  11.60500 2.76100 24.60700
N  9.55600 1.49600 28.79600
C  10.34500 0.67200 27.94700
C  11.23500 -0.20500 28.64000
C  10.89400 0.04100 29.98200
C  9.92500 1.09300 29.99900
C  12.16900 -1.20300 28.14600
C  11.19800 -0.28200 31.37600
O  12.05500 -1.05300 31.84600
C  10.25700 0.56600 32.28900
C  9.40900 -0.40100 33.05200
O  8.59800 -1.23800 32.64500
O  9.60300 -0.07800 34.33800
C  8.71700 -0.83200 35.21300
H  5.45900 5.24200 30.92400
H  6.16000 4.20500 24.53800
H  10.75900 0.10300 25.85400
H  7.28200 1.61800 33.25000
H  6.65300 4.50900 32.85900
H  4.75000 3.88400 33.57800
H  5.12300 2.22600 33.54700
H  4.29400 2.98600 32.14300
H  9.18400 4.08600 33.41800
H  9.58700 2.49900 34.05600
H  7.06400 3.39200 35.11900
H  8.22500 4.78400 35.17100
H  4.33000 7.75100 28.71200
H  4.26100 6.72600 29.99000
H  3.05800 6.40500 28.75600
H  3.43000 7.94700 24.91800
H  3.85100 8.04600 26.62100
H  2.47300 6.95400 25.92400
H  8.32800 3.28400 23.33000
H  9.13900 0.54800 23.96400
H  5.98600 1.83100 23.67900
H  7.11300 0.60900 23.27500
H  6.82000 2.21500 22.21100
H  10.46400 2.53400 22.84300
H  11.16700 1.05900 23.24900
H  11.33200 3.07200 25.61500
H  11.83400 3.68700 24.07800
H  12.60600 2.33100 24.63700
H  12.68600 -0.85600 27.25200
H  11.61400 -2.12600 27.97500
H  12.83400 -1.42200 28.98200
H  10.84400 1.11000 33.02900
H  7.85600 -0.17600 35.34700
H  9.17500 -0.97500 36.19200
H  8.39400 -1.82800 34.90900
Mg 9.69600 48.65300 25.59600
C  8.01400 48.79400 28.50400
C  12.55000 50.03600 27.15900
C  11.37300 48.50000 22.73800
C  6.75000 47.99600 23.89000
N  10.08700 49.47100 27.54000
C  9.32400 49.21200 28.66900
C  10.01900 49.62000 29.93700
C  11.22300 50.50400 29.34000
C  11.32800 49.98000 27.88100
C  11.13100 52.05000 29.38400
C  10.44500 48.48600 30.85700
C  9.85600 48.43700 32.28500
H  10.77700 48.98100 33.34900
N  11.71000 49.19400 25.01500
C  12.70900 49.56400 25.88200
C  13.94800 49.61300 25.18800
C  13.69400 49.21800 23.80300
C  12.22900 48.88200 23.76500
C  15.40500 49.97200 25.84300
C  14.59900 49.02300 22.65100
O  14.27100 48.55900 21.56100
C  15.95600 49.48300 22.86800
N  9.04700 48.39300 23.48800
C  10.01400 48.23800 22.56500
C  9.35200 48.07800 21.12900
C  7.80400 47.98500 21.50200
C  7.85600 48.14100 23.01600
C  9.60500 49.25400 20.14800
C  7.22400 46.65700 21.09900
C  6.21100 46.77700 19.90800
N  7.76100 48.34500 26.08000
C  6.65300 48.13800 25.28600
C  5.51300 47.90300 26.11800
C  6.00300 48.13200 27.43700
C  7.36500 48.42500 27.34800
C  4.16200 47.67600 25.57400
C  5.69600 48.10300 28.83000
O  4.67000 47.86000 29.39900
C  6.93200 48.56400 29.61100
C  7.18800 47.43800 30.48900
O  7.86000 46.46900 30.23200
O  6.52600 47.68300 31.63400
C  6.50800 46.62600 32.64900
H  13.41800 50.42800 27.69200
H  11.86500 48.32700 21.77800
H  5.79700 47.86500 23.37300
H  9.42900 50.27900 30.57300
H  12.20900 50.28800 29.75200
H  11.84800 52.44900 30.10200
H  10.18100 52.53700 29.60600
H  11.47600 52.44300 28.42800
H  11.51900 48.64200 30.95100
H  10.33000 47.56200 30.29000
H  9.64000 47.39700 32.53000
H  8.94000 49.01700 32.40200
H  15.38100 50.27400 26.89000
H  15.86100 50.79400 25.29200
H  16.08000 49.11800 25.77900
H  16.42600 49.03700 23.74400
H  15.88000 50.55300 23.05600
H  16.52300 49.22800 21.97200
H  9.78300 47.17000 20.70800
H  7.23200 48.80800 21.07400
H  9.03300 49.18500 19.22200
H  10.65900 49.43000 19.93600
H  9.31800 50.15900 20.68200
H  6.83100 46.00200 21.87700
H  7.96700 46.08900 20.53900
H  6.54500 46.13600 19.09300
H  6.18100 47.76500 19.44800
H  5.18600 46.57600 20.22000
H  3.85900 48.64000 25.16600
H  3.38400 47.48500 26.31300
H  4.21000 46.82500 24.89400
H  6.79700 49.51200 30.13200
H  6.90500 45.69200 32.25000
H  5.48100 46.59400 33.01200
H  7.18200 46.98000 33.42800

