158

Mg 24.29400 -6.11600 46.44600
C  26.26600 -3.57900 44.77800
C  21.61200 -5.21300 44.39100
C  22.96700 -9.19000 46.87800
C  27.32000 -7.15400 47.86100
N  23.99400 -4.53600 44.85000
C  24.94100 -3.65300 44.30200
C  24.36300 -2.61500 43.31000
C  22.84600 -3.04600 43.40600
C  22.70600 -4.35900 44.31200
C  21.91700 -1.86700 43.82900
C  24.85900 -2.66700 41.83100
C  25.40100 -1.34900 41.17500
H  25.25800 -1.28700 39.65800
N  22.45800 -7.06400 45.75500
C  21.53800 -6.48200 44.97700
C  20.35300 -7.47700 44.89600
C  20.72300 -8.67200 45.53600
C  22.12400 -8.38800 46.07500
C  19.13900 -7.09200 44.15700
C  19.86300 -9.89400 45.57800
O  18.72100 -9.94200 45.07200
C  20.45700 -11.05600 46.31700
N  24.95900 -7.82300 47.31600
C  24.14800 -8.93000 47.48800
C  24.89700 -10.04300 48.19200
C  26.26600 -9.44000 48.59300
C  26.19600 -8.04300 47.92300
C  24.07100 -10.77400 49.35600
C  27.54100 -10.21600 48.24100
C  28.45500 -10.60000 49.41800
N  26.30600 -5.29900 46.56100
C  27.37800 -5.88500 47.17600
C  28.57100 -5.09900 46.90300
C  28.20600 -4.17100 45.92400
C  26.82000 -4.33800 45.77400
C  29.94400 -5.39300 47.49000
C  28.66300 -3.22800 45.01100
O  29.76600 -2.73900 44.77600
C  27.42300 -2.70600 44.20600
C  27.17800 -1.26100 44.55900
O  26.64400 -0.80600 45.57400
O  27.78900 -0.38400 43.67200
C  27.71300 1.06700 43.94700
H  20.74200 -4.97100 43.77800
H  22.57700 -10.16100 47.18900
H  28.24500 -7.56900 48.26700
H  24.47000 -1.67300 43.84700
H  22.59200 -3.28200 42.37200
H  22.32400 -0.86200 43.72200
H  21.58800 -2.08100 44.84700
H  21.04500 -1.97700 43.18400
H  24.26200 -3.18000 41.07800
H  25.75100 -3.29300 41.80000
H  26.45000 -1.33100 41.46800
H  25.05400 -0.38600 41.54800
H  18.44600 -7.91200 43.97000
H  19.46800 -6.54900 43.27100
H  18.59700 -6.28400 44.64900
H  20.70100 -10.64400 47.29600
H  21.32600 -11.49600 45.82600
H  19.71000 -11.84900 46.31200
H  25.10000 -10.76100 47.39800
H  26.18100 -9.27700 49.66700
H  24.11100 -11.84900 49.18300
H  23.02400 -10.48700 49.26200
H  24.41800 -10.53400 50.36100
H  28.17400 -9.69700 47.52100
H  27.19800 -11.14400 47.78400
H  28.62800 -11.67500 49.46800
H  27.93800 -10.47600 50.37000
H  29.35900 -10.00100 49.30700
H  30.55400 -4.49100 47.55800
H  30.43500 -5.95000 46.69300
H  29.91800 -5.87500 48.46700
H  27.63700 -2.80200 43.14100
H  27.56100 1.27300 45.00700
H  27.02100 1.64100 43.33000
H  28.69600 1.46800 43.70200
Mg 34.48500 3.31700 30.14500
C  32.20900 3.78800 32.69500
C  36.99700 2.97800 32.51000
C  36.70100 2.60100 27.69100
C  31.96300 3.73100 27.66500
N  34.49500 3.28300 32.37400
C  33.44900 3.51900 33.20000
C  33.88900 3.27800 34.62200
C  35.45400 3.52400 34.50800
C  35.74300 3.18400 33.06800
C  36.09800 4.85100 34.88400
C  33.25400 1.98000 35.14800
C  32.86000 1.95300 36.59100
H  33.33400 3.00500 37.57400
N  36.61900 3.00700 30.07300
C  37.47900 2.88000 31.13700
C  38.87100 2.70500 30.68700
C  38.70400 2.39300 29.30500
C  37.25600 2.65900 28.93900
C  40.09800 2.50700 31.68400
C  39.78900 1.90500 28.36600
O  39.60300 1.51200 27.21000
C  41.18900 1.71100 28.91900
N  34.33900 3.32600 27.92900
C  35.43500 2.98200 27.20900
C  35.11800 2.84400 25.66100
C  33.54900 2.98500 25.68300
C  33.23500 3.45600 27.14000
C  35.91200 3.80900 24.74800
C  32.82900 1.72100 25.24700
C  32.24300 1.70800 23.80600
N  32.55600 3.77300 30.07000
C  31.63500 3.88600 29.06400
C  30.27800 4.13100 29.64500
C  30.50700 4.10700 31.06900
C  31.85500 3.90900 31.29100
C  29.07500 4.36000 28.88800
C  29.90100 4.18600 32.27900
O  28.76500 4.36500 32.58300
C  30.98800 4.16100 33.35400
C  31.12000 5.46200 33.97400
O  31.51100 6.48100 33.40800
O  30.82700 5.30900 35.33000
C  30.95000 6.57900 36.10500
H  37.80400 2.92000 33.24300
H  37.37700 2.35300 26.87000
H  31.16500 3.77000 26.92100
H  33.40300 4.06100 35.20300
H  35.85200 2.78700 35.20500
H  36.74900 4.58000 35.71600
H  35.33600 5.55500 35.21900
H  36.75700 5.21800 34.09700
H  34.13100 1.33400 35.11200
H  32.55800 1.52000 34.44700
H  33.28200 1.00500 36.92500
H  31.79300 1.84700 36.78500
H  39.76400 2.62100 32.71500
H  40.87800 3.26600 31.61500
H  40.57000 1.52800 31.60100
H  41.82600 1.68900 28.03600
H  41.26600 0.78700 29.49200
H  41.44700 2.53500 29.58500
H  35.38000 1.80000 25.49100
H  33.33100 3.85700 25.06700
H  35.28500 4.33100 24.02500
H  36.64700 3.28000 24.14000
H  36.40000 4.55500 25.37500
H  31.98500 1.55000 25.91600
H  33.42200 0.80800 25.19300
H  31.26700 1.22300 23.84100
H  32.92200 1.12100 23.18700
H  32.22900 2.66300 23.28100
H  29.10800 3.79200 27.95800
H  28.71800 5.37300 28.70000
H  28.27300 3.87800 29.44600
H  30.85200 3.36300 34.08400
H  30.12200 7.24600 35.86300
H  31.86000 7.12100 35.84800
H  31.03200 6.42000 37.18000

