158

Mg 17.41600 -2.36300 27.57900
C  16.38100 -0.58800 30.28400
C  19.55700 -4.03900 29.79000
C  18.64700 -3.96800 24.93400
C  15.59100 -0.23500 25.48300
N  17.94800 -2.17200 29.79800
C  17.34700 -1.46700 30.67600
C  17.65500 -1.80600 32.16500
C  18.93100 -2.72600 31.92700
C  18.84600 -2.98500 30.39100
C  20.27300 -2.19800 32.56000
C  16.49700 -2.47900 32.98200
C  16.32000 -1.92800 34.46900
H  17.62700 -1.49900 35.19800
N  18.93500 -3.78400 27.36600
C  19.62700 -4.36600 28.43400
C  20.36000 -5.49000 27.88500
C  20.10600 -5.50900 26.45200
C  19.15300 -4.44300 26.19500
C  21.30200 -6.43100 28.73800
C  20.71700 -6.43200 25.42300
O  20.37400 -6.35000 24.24400
C  21.78400 -7.37000 25.73100
N  17.20200 -2.10300 25.49300
C  17.75100 -2.94000 24.61800
C  17.40900 -2.55000 23.18500
C  16.21700 -1.49100 23.38100
C  16.32500 -1.22800 24.88800
C  18.64700 -2.05700 22.47100
C  14.74100 -1.95500 23.07500
C  13.78300 -0.89800 22.45100
N  16.25100 -0.77500 27.76200
C  15.54100 -0.02700 26.86400
C  14.76500 0.92800 27.55600
C  15.10000 0.74700 28.87800
C  16.01700 -0.28300 28.98600
C  13.89900 2.00700 26.95700
C  14.73000 1.29400 30.23100
O  14.00800 2.19100 30.58700
C  15.58900 0.44200 31.17300
C  16.34800 1.40900 32.03100
O  17.39200 1.96200 31.76100
O  15.65700 1.65100 33.12700
C  16.01900 2.89400 33.88300
H  20.08700 -4.66400 30.51200
H  18.97000 -4.44500 24.00700
H  14.92000 0.41500 24.91800
H  17.90800 -0.88700 32.69400
H  18.68200 -3.72500 32.28700
H  20.18900 -1.19500 32.97800
H  21.03100 -2.07600 31.78600
H  20.62200 -2.92000 33.29800
H  16.50600 -3.56800 32.96500
H  15.61500 -2.09300 32.47100
H  15.69400 -2.72100 34.87900
H  15.70500 -1.03100 34.40200
H  21.63300 -6.09300 29.72000
H  22.25800 -6.61200 28.24700
H  20.84100 -7.41900 28.76500
H  21.91200 -8.01900 24.86400
H  21.46800 -7.99700 26.56400
H  22.73200 -6.92400 26.03100
H  17.06400 -3.34900 22.53000
H  16.51700 -0.55800 22.90400
H  18.59900 -2.37200 21.42900
H  19.62700 -2.25600 22.90400
H  18.61800 -0.97000 22.38400
H  14.22400 -2.21000 24.00000
H  14.57300 -2.79700 22.40300
H  14.27200 0.06800 22.32700
H  12.83500 -0.73000 22.96100
H  13.49500 -1.27600 21.47000
H  13.14300 1.50200 26.35600
H  14.58600 2.52500 26.28800
H  13.50800 2.63600 27.75700
H  14.91600 -0.13100 31.81100
H  16.85100 2.78600 34.57900
H  15.15300 3.30000 34.40600
H  16.24000 3.54200 33.03400
Mg -1.56600 34.03500 27.41800
C  -3.25600 32.25600 29.95700
C  -0.44000 36.19700 29.78900
C  -0.42900 36.11500 24.99000
C  -3.55300 32.35000 25.03000
N  -2.03400 34.25800 29.55500
C  -2.58000 33.36200 30.47200
C  -2.36300 33.84800 31.90500
C  -1.74100 35.26300 31.79700
C  -1.33700 35.28700 30.23300
C  -2.64900 36.46400 32.16700
C  -1.57700 32.76400 32.73900
C  -2.09800 32.37200 34.16800
H  -1.23200 32.06800 35.37200
N  -0.41200 35.72800 27.42100
C  0.07700 36.41600 28.53000
C  0.92800 37.47700 28.09100
C  0.99300 37.38500 26.61300
C  -0.01200 36.41000 26.26400
C  1.76200 38.34500 29.08500
C  1.77200 38.26700 25.66100
O  1.67800 38.16500 24.41900
C  2.69300 39.41500 26.10900
N  -2.15600 34.32400 25.33000
C  -1.38400 35.22400 24.57400
C  -1.75900 34.97700 23.08600
C  -2.47700 33.59400 23.07000
C  -2.75400 33.41200 24.52200
C  -2.53200 36.22000 22.47100
C  -1.77700 32.33300 22.47700
C  -0.54900 31.83100 23.35100
N  -3.17500 32.62300 27.43700
C  -3.74600 31.94200 26.44000
C  -4.57000 30.86100 26.94400
C  -4.39700 30.94200 28.29700
C  -3.50200 32.04600 28.58500
C  -5.37800 29.98600 26.01900
C  -4.82400 30.42100 29.56700
O  -5.55400 29.44800 29.70300
C  -3.93900 31.16000 30.74500
C  -4.94800 31.72600 31.73900
O  -5.55100 32.80400 31.59900
O  -4.99700 30.96100 32.87700
C  -5.77100 31.63000 33.98000
H  -0.24400 36.95100 30.55400
H  -0.01100 36.65500 24.13800
H  -4.08900 31.82300 24.23800
H  -3.35600 33.97200 32.33800
H  -0.83700 35.21400 32.40400
H  -2.54800 37.23600 31.40400
H  -2.27700 36.77200 33.14400
H  -3.66000 36.06700 32.25700
H  -0.57300 33.16400 32.88300
H  -1.55000 31.83000 32.17700
H  -2.66400 31.46700 33.95100
H  -2.75000 33.19600 34.45800
H  1.43800 39.38400 29.01800
H  2.83000 38.35800 28.86500
H  1.56600 38.10900 30.13100
H  3.60500 38.92800 26.45400
H  2.14800 39.85000 26.94700
H  2.82100 40.12400 25.29100
H  -0.82200 34.87000 22.54000
H  -3.45200 33.58000 22.58300
H  -2.94500 36.80000 23.29700
H  -3.31500 35.85100 21.80900
H  -1.85000 36.72800 21.78900
H  -1.32500 32.59400 21.52000
H  -2.49500 31.53800 22.27600
H  -0.57400 32.12400 24.40000
H  0.37800 32.29500 23.01300
H  -0.49700 30.74300 23.37800
H  -5.76900 29.09700 26.51200
H  -4.71500 29.77200 25.18100
H  -6.15400 30.67900 25.69600
H  -3.30400 30.45300 31.27900
H  -6.65500 32.18500 33.66600
H  -5.15600 32.34400 34.52800
H  -5.99500 30.83300 34.68900

