158

Mg 48.29700 35.14400 28.18400
C  46.50100 33.54500 30.83000
C  48.31100 37.95000 29.99700
C  49.51700 36.52500 25.50500
C  47.95600 32.07900 26.29100
N  47.65900 35.57600 30.23300
C  47.06800 34.76900 31.15800
C  47.16700 35.35600 32.56200
C  47.41400 36.84800 32.30300
C  47.84400 36.83100 30.74200
C  46.31400 37.84400 32.62800
C  48.24900 34.62300 33.41000
C  48.14300 34.50100 34.98700
H  47.10100 35.40600 35.58600
N  48.90500 36.92900 27.78700
C  48.82100 38.08800 28.65200
C  49.37900 39.24700 28.06100
C  49.91600 38.74200 26.82200
C  49.44000 37.39400 26.62900
C  49.57200 40.57800 28.82500
C  50.80700 39.52900 25.81600
O  51.04400 39.05200 24.73700
C  51.40100 40.89800 26.16200
N  48.78000 34.34900 26.15400
C  49.14600 35.17500 25.21500
C  49.48200 34.62400 23.81700
C  49.38400 33.10100 24.25200
C  48.57700 33.19400 25.61100
C  48.38000 35.04100 22.71100
C  50.68900 32.33800 24.52300
C  51.29900 31.64900 23.32200
N  47.46900 33.18900 28.46300
C  47.34800 32.07500 27.58100
C  46.62100 31.00500 28.23800
C  46.25200 31.56800 29.49300
C  46.76500 32.86100 29.57700
C  46.44600 29.57800 27.84700
C  45.57100 31.18400 30.68300
O  45.06700 30.12100 31.08200
C  45.52900 32.58800 31.52200
C  45.59200 32.39100 33.00600
O  46.53600 31.94400 33.64400
O  44.37800 32.66400 33.53500
C  44.13200 32.21400 34.88700
H  48.41300 38.93700 30.45200
H  50.02500 37.02000 24.67600
H  48.03400 31.11900 25.77600
H  46.23000 35.24600 33.10800
H  48.26000 37.14400 32.92300
H  45.79300 38.21400 31.74500
H  46.63400 38.79900 33.04300
H  45.61700 37.38200 33.32700
H  49.25600 34.97800 33.19000
H  48.35400 33.63300 32.96700
H  49.12400 34.78600 35.36900
H  47.81500 33.47500 35.15100
H  50.59800 40.46500 29.17500
H  48.96000 40.73300 29.71300
H  49.67200 41.50400 28.25800
H  50.59600 41.63400 26.18200
H  52.04500 41.16200 25.32300
H  51.93600 40.86900 27.11200
H  50.50100 34.78200 23.46300
H  48.78900 32.56400 23.51300
H  47.95300 36.01100 22.96300
H  47.52500 34.36800 22.64600
H  48.87900 35.15700 21.74800
H  50.51800 31.67600 25.37300
H  51.39300 33.07200 24.91500
H  50.97700 32.18300 22.42900
H  50.96900 30.61200 23.25500
H  52.37600 31.80000 23.25900
H  46.92800 29.20400 26.94400
H  45.42200 29.23600 27.69700
H  46.94900 29.06100 28.66400
H  44.52500 32.80100 31.15700
H  44.37000 31.17300 35.10400
H  43.10800 32.40700 35.20800
H  44.74600 32.83500 35.53900
Mg -1.73400 34.42700 27.72100
C  -3.29700 32.39300 30.07400
C  -0.26400 36.16100 30.40700
C  -0.53700 36.56900 25.50400
C  -3.66500 32.82500 25.20600
N  -1.89800 34.40000 30.01900
C  -2.55100 33.39100 30.73500
C  -2.36600 33.62800 32.26100
C  -1.55000 34.92500 32.29400
C  -1.10200 35.11800 30.84500
C  -2.39500 36.24600 32.74600
C  -1.65200 32.38800 32.88800
C  -2.36200 31.75700 34.08900
H  -1.71900 31.64500 35.47100
N  -0.46000 36.04500 27.92200
C  0.15500 36.51900 29.07500
C  1.04000 37.61400 28.69700
C  0.91300 37.77400 27.29700
C  -0.06600 36.75600 26.81800
C  1.91400 38.41000 29.72900
C  1.64500 38.82300 26.41600
O  1.46400 38.99900 25.24500
C  2.72400 39.67900 27.14700
N  -2.13400 34.66600 25.67200
C  -1.49200 35.65200 25.01300
C  -2.18900 35.83900 23.59300
C  -2.87200 34.39100 23.35800
C  -2.90700 33.91800 24.83000
C  -3.32400 36.96800 23.58300
C  -2.02500 33.44200 22.52700
C  -2.66000 33.09000 21.18200
N  -3.16900 32.87600 27.63900
C  -3.78600 32.33300 26.50200
C  -4.58300 31.18900 26.93000
C  -4.43000 31.20900 28.34700
C  -3.55000 32.27100 28.71400
C  -5.27600 30.26200 26.07800
C  -4.85100 30.47000 29.55500
O  -5.58500 29.50900 29.67000
C  -4.16900 31.26500 30.74200
C  -5.07600 31.65600 31.83500
O  -5.75800 32.68000 31.91400
O  -5.09400 30.56600 32.72200
C  -5.88900 30.77300 33.83100
H  0.12900 36.83600 31.17000
H  -0.12300 37.34000 24.85000
H  -4.36000 32.35300 24.51000
H  -3.39400 33.76500 32.59400
H  -0.65100 34.83600 32.90400
H  -3.43000 36.14400 33.07200
H  -2.45600 36.99200 31.95400
H  -1.94000 36.78400 33.57800
H  -0.67800 32.72000 33.24800
H  -1.33700 31.63100 32.16900
H  -2.49000 30.69700 33.86700
H  -3.32400 32.25100 34.22200
H  2.98300 38.24100 29.59900
H  1.58300 38.12800 30.72900
H  1.71000 39.47300 29.85700
H  3.20800 40.40100 26.49000
H  3.60000 39.05500 27.32800
H  2.45900 40.28400 28.01400
H  -1.51600 36.17500 22.80500
H  -3.81100 34.66500 22.87700
H  -4.35800 36.63100 23.51400
H  -3.14800 37.64800 22.75000
H  -3.27400 37.63300 24.44500
H  -1.89900 32.52000 23.09500
H  -1.07700 33.87100 22.20300
H  -1.91100 33.14300 20.39200
H  -3.53200 33.67700 20.89700
H  -2.92800 32.03300 21.19300
H  -6.31100 30.60100 26.02400
H  -5.50200 29.28300 26.49900
H  -4.92800 30.19500 25.04700
H  -3.50600 30.59500 31.29000
H  -6.91500 31.04200 33.57700
H  -5.49600 31.58100 34.44800
H  -5.82700 29.84900 34.40500

