158

Mg 34.87500 1.29200 29.38700
C  32.67400 3.02900 31.47800
C  37.32300 1.28700 31.87500
C  37.08900 0.18800 27.13700
C  32.57100 2.07100 26.82400
N  34.94100 2.04600 31.34100
C  33.90200 2.59800 32.05800
C  34.20300 2.58100 33.55500
C  35.66300 2.22900 33.61900
C  36.05800 1.82400 32.19300
C  36.61600 3.29300 34.13400
C  33.25200 1.52500 34.30400
C  32.77200 1.90400 35.74600
H  33.54400 2.92500 36.51600
N  37.00100 0.85900 29.45600
C  37.80600 0.85300 30.61200
C  39.05100 0.23100 30.25000
C  38.97500 -0.16900 28.88000
C  37.65200 0.31200 28.41800
C  40.14900 -0.02800 31.21500
C  39.85600 -0.95800 28.00100
O  39.49000 -1.43800 26.93300
C  41.24700 -1.33000 28.47200
N  34.83200 1.20300 27.35000
C  35.86500 0.66500 26.64300
C  35.40900 0.46000 25.14600
C  33.99600 1.08800 25.06400
C  33.77600 1.42500 26.49600
C  36.50900 1.09000 24.17600
C  32.93100 0.11000 24.46800
C  32.48900 0.35000 23.01800
N  32.93000 2.19300 29.15400
C  32.21100 2.42400 28.09100
C  30.90900 3.13500 28.43900
C  31.09700 3.48000 29.77800
C  32.35800 2.84000 30.14600
C  29.88500 3.70000 27.50900
C  30.59200 4.17000 30.94400
O  29.57400 4.83800 31.11000
C  31.46800 3.70100 32.14300
C  31.75600 4.90400 32.98300
O  32.49500 5.79600 32.66300
O  31.12600 4.92300 34.15800
C  31.27500 6.16500 34.85400
H  38.08800 1.33100 32.65200
H  37.69000 -0.20700 26.31500
H  31.84500 2.15700 26.01300
H  34.00000 3.59800 33.89100
H  35.81800 1.42600 34.33900
H  37.22200 3.61000 33.28600
H  37.26300 2.83100 34.88000
H  36.00100 4.09800 34.53800
H  33.79700 0.58300 34.36300
H  32.38300 1.41600 33.65500
H  32.68800 0.99900 36.34700
H  31.83000 2.43400 35.60300
H  40.50500 -1.05800 31.23300
H  39.92500 0.03100 32.27900
H  40.91500 0.67200 30.88000
H  41.31600 -2.10700 29.23400
H  41.70400 -0.44600 28.91700
H  41.90200 -1.61400 27.64900
H  35.37900 -0.59700 24.88300
H  34.01300 2.05800 24.56800
H  36.06000 1.76500 23.44800
H  36.81500 0.21300 23.60500
H  37.28800 1.61400 24.73100
H  32.03100 0.13900 25.08200
H  33.33300 -0.90000 24.54300
H  31.40200 0.37400 22.94000
H  32.94200 -0.24100 22.22200
H  32.94400 1.32000 22.81500
H  30.36700 4.34500 26.77400
H  29.22300 4.41100 28.00400
H  29.34000 2.89200 27.02100
H  30.79400 3.08500 32.73800
H  30.53500 6.89700 34.53100
H  32.23000 6.64500 35.06900
H  30.89700 5.85100 35.82700
Mg 48.41500 34.33500 27.34500
C  46.92000 33.03600 30.11300
C  49.01100 37.24200 29.14500
C  49.31700 35.78700 24.42000
C  47.53700 31.50700 25.55300
N  48.14500 35.00600 29.51800
C  47.52500 34.28300 30.46800
C  47.64000 35.01700 31.83800
C  47.91200 36.52800 31.29200
C  48.47600 36.24400 29.95200
C  46.65800 37.52300 31.30800
C  48.75100 34.47200 32.67500
C  48.58000 34.52000 34.21100
H  47.51600 35.37400 34.87400
N  49.02300 36.20900 26.82700
C  49.26900 37.25100 27.70900
C  49.98000 38.30700 27.09100
C  49.94800 38.03500 25.67800
C  49.41000 36.63000 25.59300
C  50.41000 39.54100 27.83100
C  50.47600 38.82200 24.49300
O  50.30200 38.43700 23.34400
C  51.06300 40.20800 24.65500
N  48.42300 33.72000 25.28100
C  48.87700 34.48800 24.28800
C  48.76200 33.77300 22.92300
C  48.18400 32.44200 23.31700
C  48.12600 32.51600 24.78300
C  47.96400 34.52200 21.77700
C  48.96900 31.24500 22.76300
C  50.16500 30.58200 23.47600
N  47.41700 32.62500 27.65100
C  47.11700 31.53300 26.89800
C  46.44100 30.56400 27.70300
C  46.21700 31.12300 28.92800
C  46.84500 32.38300 28.85600
C  45.95800 29.19000 27.28400
C  45.58600 30.86400 30.14800
O  44.90000 29.89300 30.60600
C  45.90000 32.18900 30.99600
C  46.20100 31.80300 32.40000
O  47.23300 31.23600 32.85300
O  45.06500 32.21900 33.09200
C  44.80900 31.75500 34.44100
H  49.26100 38.15600 29.68900
H  49.66900 36.26400 23.50300
H  47.43900 30.52100 25.09400
H  46.73000 34.78600 32.39100
H  48.71800 36.99100 31.86100
H  46.45000 37.78700 30.27100
H  47.03300 38.43000 31.78300
H  45.79500 37.14900 31.85900
H  49.67100 34.99700 32.41600
H  48.83300 33.41400 32.42700
H  49.63600 34.66100 34.43900
H  48.39700 33.47200 34.44700
H  50.72000 39.25100 28.83500
H  49.61700 40.27100 27.99800
H  51.28300 40.05900 27.43400
H  50.33200 40.92200 25.03500
H  51.61900 40.60200 23.80500
H  51.80300 40.15600 25.45400
H  49.77100 33.57800 22.56000
H  47.15800 32.40300 22.95200
H  48.65100 34.57500 20.93300
H  47.55700 35.50900 21.99600
H  47.08200 33.94500 21.49900
H  49.27700 31.47100 21.74300
H  48.20600 30.46700 22.73000
H  50.43400 31.14700 24.36800
H  50.98700 30.49800 22.76400
H  49.91500 29.54700 23.70800
H  46.35300 28.91000 26.30700
H  44.87900 29.13200 27.14100
H  46.27500 28.40900 27.97500
H  44.96700 32.74500 30.90600
H  44.70600 32.66700 35.02900
H  45.50800 31.04800 34.88900
H  43.87300 31.24700 34.20800

