158

Mg -2.19100 17.42800 26.10100
C  -2.54500 15.48900 28.92900
C  -3.26100 20.13100 27.94000
C  -2.36900 19.24400 23.24400
C  -1.90500 14.49600 24.19800
N  -2.72800 17.77100 28.24300
C  -2.83200 16.79700 29.20700
C  -3.22100 17.34400 30.59000
C  -3.72600 18.80200 30.13000
C  -3.27800 18.94500 28.67000
C  -5.29100 18.99100 30.28800
C  -2.02300 17.53600 31.59200
C  -2.47000 18.22600 32.88100
H  -2.40200 17.30300 34.20700
N  -2.42500 19.49800 25.68500
C  -2.76900 20.44700 26.58700
C  -2.53700 21.69800 25.89400
C  -2.39200 21.45600 24.52400
C  -2.48500 19.99600 24.45600
C  -2.77700 23.05400 26.54700
C  -2.09500 22.39700 23.32300
O  -2.09000 22.09300 22.13900
C  -1.70100 23.82100 23.62200
N  -2.10200 16.92100 23.98000
C  -2.21200 17.86800 22.98800
C  -2.23100 17.25700 21.58800
C  -2.06600 15.68400 21.97200
C  -1.97000 15.69000 23.45400
C  -3.42200 17.59100 20.63500
C  -0.90100 15.02400 21.27900
C  0.40600 14.96700 21.91800
N  -2.31800 15.47600 26.47000
C  -2.02700 14.40600 25.56800
C  -2.10800 13.19300 26.31900
C  -2.27100 13.51700 27.68200
C  -2.37600 14.93200 27.68200
C  -1.92400 11.74900 25.81900
C  -2.38900 12.99500 29.01300
O  -2.37500 11.87700 29.46500
C  -2.49300 14.25600 29.91600
C  -1.24100 14.21400 30.70000
O  -0.19900 14.62800 30.19000
O  -1.45000 13.86800 32.02000
C  -0.29400 13.98100 32.92100
H  -3.35900 21.01700 28.57100
H  -2.19500 19.82000 22.33300
H  -1.83500 13.56000 23.64000
H  -3.97800 16.66900 30.99000
H  -3.41100 19.70400 30.65600
H  -5.73600 19.36700 29.36700
H  -5.49200 19.60000 31.17000
H  -5.93600 18.12300 30.43100
H  -1.34800 18.18100 31.03000
H  -1.38200 16.67900 31.80100
H  -3.51500 18.53300 32.84100
H  -2.00700 19.21100 32.92600
H  -3.16700 23.05000 27.56500
H  -3.53500 23.60200 25.98800
H  -1.82900 23.59300 26.53300
H  -1.02500 23.83800 24.47700
H  -2.67900 24.25800 23.82200
H  -1.17600 24.26300 22.77500
H  -1.27700 17.58500 21.17500
H  -2.98700 15.16100 21.71400
H  -3.92100 18.44600 21.09200
H  -4.13700 16.77100 20.70300
H  -3.13000 17.73700 19.59500
H  -0.64000 15.49200 20.32900
H  -1.11900 13.96900 21.11100
H  0.57000 13.96500 22.31500
H  0.44000 15.71900 22.70600
H  1.24000 15.20500 21.25800
H  -2.88300 11.23600 25.89800
H  -1.20500 11.27200 26.48500
H  -1.58900 11.60300 24.79200
H  -3.32100 14.31600 30.62200
H  0.24200 14.89900 32.67600
H  0.31500 13.07900 32.86600
H  -0.63300 14.01100 33.95600
Mg 8.85100 47.68900 27.20700
C  7.29000 46.99300 30.13100
C  11.87100 47.99200 28.97000
C  10.45000 48.56400 24.29700
C  5.93400 47.74500 25.43700
N  9.61600 47.17400 29.34400
C  8.69200 47.07900 30.34800
C  9.42700 47.37000 31.74600
C  10.91500 47.62000 31.38900
C  10.84800 47.59300 29.85600
C  11.35900 48.99300 31.99500
C  9.36100 46.18100 32.73300
C  9.28000 46.59400 34.23800
H  9.96800 45.64700 35.26900
N  10.89900 48.11600 26.67400
C  11.97000 48.17700 27.57800
C  13.20500 48.60800 26.81200
C  12.82400 48.74500 25.48700
C  11.33600 48.40300 25.41500
C  14.47100 48.86700 27.46800
C  13.65800 49.16500 24.29300
O  13.15500 49.16400 23.16800
C  15.04900 49.79000 24.49900
N  8.24900 48.03300 25.17200
C  9.15300 48.36600 24.19900
C  8.46800 48.59000 22.80400
C  6.99700 48.21600 23.16700
C  7.02500 48.09800 24.70100
C  8.71900 50.01200 22.24800
C  6.55600 46.78800 22.51200
C  5.13100 46.66600 21.99800
N  6.92000 47.48700 27.66000
C  5.81400 47.44100 26.84300
C  4.69000 47.13200 27.71700
C  5.23400 47.02000 29.01700
C  6.58200 47.20600 28.90500
C  3.24200 47.06700 27.29700
C  4.78000 46.78900 30.38200
O  3.65300 46.65300 30.88300
C  6.16300 46.78000 31.18800
C  6.21400 45.43500 31.82700
O  6.36300 44.37400 31.23700
O  6.03300 45.55100 33.25100
C  6.50700 44.35100 33.96700
H  12.74800 48.24800 29.56800
H  10.85900 48.98000 23.37300
H  5.08100 47.67600 24.75800
H  8.90500 48.27400 32.05900
H  11.68500 46.93800 31.74800
H  12.39400 48.71400 32.19600
H  10.87300 49.17900 32.95300
H  11.19200 49.77300 31.25200
H  10.27700 45.59100 32.72300
H  8.49600 45.57100 32.47100
H  8.22200 46.58200 34.50300
H  9.56300 47.64500 34.28400
H  14.60000 49.94900 27.42100
H  15.23700 48.32300 26.91500
H  14.58300 48.69000 28.53700
H  14.90000 50.50100 25.31200
H  15.30600 50.29300 23.56700
H  15.81500 49.04000 24.69300
H  8.96900 47.92400 22.10100
H  6.32600 49.01300 22.84600
H  9.17100 50.50100 23.11100
H  7.82900 50.48000 21.82800
H  9.38900 50.01800 21.38900
H  6.56300 45.99300 23.25800
H  7.29300 46.62300 21.72600
H  5.05000 46.39300 20.94600
H  4.76200 47.69000 22.04500
H  4.41200 46.05600 22.54500
H  2.76800 46.20600 27.76800
H  3.12000 47.05800 26.21300
H  2.69000 47.86800 27.79000
H  6.22400 47.45700 32.04000
H  6.42700 44.55200 35.03500
H  7.55700 44.08300 33.85100
H  5.90800 43.50300 33.63300

