158

Mg -2.13700 17.17300 26.43300
C  -2.77300 15.16800 29.21800
C  -2.40900 20.03800 28.68500
C  -1.99500 19.28800 23.83400
C  -2.21000 14.54300 24.46500
N  -2.84000 17.53700 28.64000
C  -2.74100 16.57000 29.57500
C  -2.55700 17.15300 30.96800
C  -2.74100 18.66500 30.86000
C  -2.61200 18.81700 29.29800
C  -3.96000 19.20800 31.52000
C  -1.18700 16.85400 31.63200
C  -0.90500 17.62400 32.95200
H  -0.70600 16.69800 34.20200
N  -2.21100 19.35500 26.27100
C  -2.37800 20.35300 27.29200
C  -2.48300 21.63000 26.64800
C  -2.21800 21.49800 25.26100
C  -2.07300 20.01500 25.02800
C  -2.66400 22.86100 27.55000
C  -2.12500 22.58600 24.22300
O  -1.93300 22.38000 23.04700
C  -2.21300 24.02300 24.66400
N  -2.04800 16.96800 24.45600
C  -2.08000 17.93600 23.54600
C  -2.19300 17.41400 22.12800
C  -1.94900 15.90900 22.34800
C  -2.12200 15.75300 23.85500
C  -3.45700 17.90600 21.40700
C  -0.53300 15.36100 21.85200
C  -0.45500 14.39200 20.67500
N  -2.40500 15.22900 26.74100
C  -2.39500 14.23000 25.77300
C  -2.45000 12.95400 26.44600
C  -2.59800 13.24100 27.83600
C  -2.57900 14.65900 27.90500
C  -2.53200 11.60600 25.75600
C  -2.72600 12.64700 29.16300
O  -2.87800 11.47400 29.52000
C  -2.79100 13.92400 30.12900
C  -1.53100 13.64000 30.86000
O  -0.39800 13.97200 30.39900
O  -1.72500 13.00100 31.97200
C  -0.51500 12.86300 32.79800
H  -2.40000 20.80900 29.45800
H  -2.09600 19.93800 22.96200
H  -2.06800 13.63300 23.87800
H  -3.34100 16.68800 31.56500
H  -1.89400 19.25000 31.21900
H  -3.63900 20.19300 31.86000
H  -4.33900 18.58200 32.32800
H  -4.73600 19.42800 30.78700
H  -0.41200 17.05300 30.89100
H  -1.28900 15.78200 31.79600
H  -1.57000 18.39100 33.34900
H  0.03700 18.15600 32.82100
H  -3.36100 23.54200 27.06200
H  -1.72400 23.29100 27.89700
H  -3.09400 22.55800 28.50500
H  -3.19600 24.31300 25.03500
H  -2.08200 24.67800 23.80200
H  -1.46700 24.19000 25.44000
H  -1.30200 17.79200 21.62500
H  -2.80600 15.42500 21.87800
H  -3.23000 18.07200 20.35400
H  -3.75300 18.88000 21.79700
H  -4.22900 17.13700 21.45000
H  0.02700 14.93600 22.68500
H  0.07000 16.17200 21.44300
H  -0.05600 13.46500 21.08700
H  0.10100 14.92800 19.90600
H  -1.51200 14.27900 20.43400
H  -1.79900 10.96200 26.24200
H  -2.51000 11.58000 24.66600
H  -3.49000 11.16100 26.02700
H  -3.58900 13.88100 30.87100
H  -0.83700 12.77700 33.83600
H  0.13900 13.73200 32.86100
H  -0.02500 11.90300 32.63400
Mg 36.44300 50.16600 24.66700
C  36.71500 48.00500 27.37700
C  34.96200 52.44900 26.51200
C  35.51500 51.80800 21.84200
C  37.42300 47.44900 22.53800
N  35.94600 50.21900 26.76400
C  36.18700 49.29100 27.74600
C  35.74900 49.87100 29.10700
C  34.95500 51.19100 28.70800
C  35.27400 51.34200 27.20800
C  33.42500 51.25800 29.19300
C  37.05300 50.15100 29.90000
C  37.07300 49.83900 31.45900
H  35.66900 49.86000 32.13800
N  35.66300 51.99100 24.24500
C  35.12400 52.81800 25.13500
C  34.77200 54.09000 24.58000
C  34.99500 53.95400 23.15600
C  35.42300 52.51700 23.04100
C  34.31600 55.37300 25.38700
C  34.96300 54.99300 22.09400
O  35.21900 54.74500 20.87200
C  34.63100 56.44900 22.49600
N  36.25300 49.58800 22.48400
C  36.03000 50.58700 21.57500
C  36.32800 50.04700 20.18100
C  36.94600 48.59300 20.39100
C  36.91600 48.51800 21.90400
C  35.15100 50.05000 19.20500
C  38.36200 48.39500 19.76600
C  38.64000 47.03100 19.17000
N  37.03000 48.21700 24.90300
C  37.36400 47.19300 23.94600
C  37.79100 46.03800 24.65800
C  37.53200 46.32500 25.94100
C  37.07600 47.63100 26.08700
C  38.37500 44.83600 24.10800
C  37.59200 45.72400 27.30400
O  37.97400 44.64800 27.60400
C  37.15600 46.82900 28.24000
C  36.18000 46.24800 29.15500
O  35.04200 45.95700 28.85200
O  36.68200 46.07200 30.40300
C  35.75600 45.53800 31.40400
H  34.34500 53.17100 27.05100
H  35.43700 52.38300 20.91700
H  37.94000 46.65400 21.99600
H  35.07700 49.19700 29.63900
H  35.37100 51.99300 29.31800
H  32.80500 51.53300 28.34000
H  33.39300 52.10900 29.87400
H  33.12300 50.32600 29.67100
H  37.32500 51.20100 29.79600
H  37.90400 49.61600 29.47800
H  37.73800 50.61400 31.84000
H  37.63300 48.92100 31.63700
H  35.02400 56.16300 25.63700
H  33.93800 55.24500 26.40100
H  33.45900 55.85700 24.91800
H  33.62100 56.54300 22.89500
H  34.76800 57.00000 21.56600
H  35.33900 56.88500 23.20200
H  37.04200 50.73700 19.73300
H  36.29200 47.80500 20.01800
H  34.26500 50.37700 19.74900
H  34.87400 49.03800 18.91100
H  35.24000 50.72300 18.35300
H  39.04100 48.65600 20.57700
H  38.43200 49.18900 19.02200
H  37.84600 46.29200 19.27400
H  39.57200 46.70500 19.63200
H  38.64400 47.30300 18.11500
H  39.07100 44.95500 23.27700
H  37.61800 44.14000 23.74700
H  38.96300 44.28200 24.83900
H  38.06300 46.99700 28.82100
H  34.91600 46.17400 31.68300
H  36.39500 45.45700 32.28400
H  35.30800 44.60200 31.07200

