158

Mg 40.58100 9.38800 29.20100
C  42.39400 10.73100 31.92900
C  38.42900 7.92200 31.43000
C  39.06300 8.14900 26.57800
C  43.11100 10.51900 27.08000
N  40.58100 9.23400 31.42500
C  41.25500 10.05800 32.33700
C  40.68600 9.92200 33.78200
C  39.50500 8.91200 33.60600
C  39.48100 8.59800 32.05900
C  39.72100 7.62200 34.40100
C  40.41200 11.26200 34.41500
C  39.54200 11.23200 35.68000
H  40.40500 11.31300 36.92400
N  38.93500 8.16200 29.00700
C  38.19100 7.75000 30.04100
C  37.03600 7.03600 29.53100
C  37.10800 7.19500 28.12100
C  38.34800 7.90000 27.79600
C  36.00400 6.25100 30.43000
C  36.14900 6.84000 27.08300
O  36.38100 7.10200 25.89800
C  34.86500 6.24300 27.47700
N  41.09900 9.29500 27.20500
C  40.29500 8.72100 26.26400
C  40.82100 8.86800 24.75600
C  42.04900 9.61400 25.01500
C  42.10500 9.84300 26.52700
C  41.01900 7.51300 24.01400
C  42.03100 10.99600 24.28500
C  41.00400 12.11400 24.55600
N  42.39700 10.45600 29.37400
C  43.23300 10.85300 28.44700
C  44.39300 11.55700 29.06200
C  44.05400 11.63000 30.41600
C  42.81500 10.86700 30.53800
C  45.60400 12.14000 28.41700
C  44.47700 12.08500 31.71000
O  45.44700 12.75500 32.09600
C  43.40100 11.59200 32.71300
C  44.09500 10.94100 33.84000
O  44.31300 9.75300 33.87100
O  44.20100 11.75700 34.95300
C  44.84300 11.19400 36.20600
H  37.59100 7.50400 31.99300
H  38.57800 7.77200 25.67500
H  43.79800 10.90900 26.32600
H  41.44000 9.46700 34.42300
H  38.53600 9.37100 33.80300
H  39.85700 6.74700 33.76600
H  38.82900 7.60600 35.02700
H  40.51100 7.71000 35.14800
H  40.23900 12.02700 33.65800
H  41.42200 11.63300 34.59000
H  38.95900 10.31200 35.67700
H  38.81500 12.04400 35.65800
H  34.99800 6.66400 30.34700
H  36.24900 6.05000 31.47300
H  35.85900 5.31000 29.90000
H  34.01200 6.08500 26.81700
H  34.40500 6.89900 28.21600
H  35.02500 5.30300 28.00500
H  40.02300 9.47600 24.33000
H  42.92800 9.00800 24.79600
H  41.08300 6.63100 24.65100
H  41.88500 7.44800 23.35400
H  40.10900 7.30900 23.45000
H  41.96000 10.79200 23.21700
H  43.02600 11.42700 24.40400
H  40.62900 12.33000 23.55500
H  41.38100 13.03400 25.00300
H  40.21400 11.81600 25.24500
H  45.89000 11.66800 27.47700
H  46.36600 12.29200 29.18100
H  45.38800 13.18600 28.19900
H  42.83000 12.44800 33.07200
H  45.38200 10.27400 35.98200
H  43.97200 11.08500 36.85400
H  45.59100 11.85200 36.64800
Mg 26.45900 50.16700 26.55400
C  24.35100 51.02900 29.15300
C  29.04200 49.46400 28.79000
C  28.81200 50.00100 23.98700
C  24.17400 51.52100 24.21800
N  26.62100 50.17100 28.72200
C  25.55700 50.43900 29.61400
C  26.06600 50.37100 31.13900
C  27.53400 49.83100 30.90100
C  27.78900 49.84200 29.38200
C  28.65000 50.54600 31.67900
C  25.19500 49.45700 32.10900
C  24.88600 50.14000 33.52000
H  24.88100 49.16200 34.76700
N  28.63000 49.76200 26.42200
C  29.42300 49.44200 27.47100
C  30.71000 49.05600 27.02800
C  30.74600 49.32500 25.62000
C  29.39500 49.74900 25.25600
C  31.88000 48.52700 27.88900
C  31.86800 49.16700 24.55500
O  31.70800 49.31400 23.35800
C  33.17100 48.52300 24.90200
N  26.43400 50.55200 24.47200
C  27.50400 50.34300 23.56600
C  27.10300 50.63500 22.11600
C  25.59400 51.02400 22.23200
C  25.36700 51.00700 23.77500
C  28.06200 51.72100 21.55800
C  24.56500 50.05500 21.54600
C  23.63900 50.65200 20.48000
N  24.63700 51.05600 26.60700
C  23.84400 51.56600 25.58700
C  22.67400 52.21100 26.16500
C  22.88400 52.10100 27.60400
C  24.01200 51.33400 27.77000
C  21.61600 53.02800 25.50400
C  22.25600 52.33100 28.94400
O  21.20500 52.89500 29.15300
C  23.27400 51.65700 29.92600
C  23.69100 52.76800 30.82800
O  24.52700 53.58300 30.53000
O  22.90100 52.82300 31.96200
C  23.27200 53.73600 33.01000
H  29.81900 49.18200 29.50300
H  29.48300 49.95300 23.12700
H  23.53800 52.00900 23.47700
H  26.10900 51.37700 31.55600
H  27.71700 48.78400 31.14100
H  29.15400 49.80200 32.29600
H  28.25600 51.37500 32.26700
H  29.46600 51.00700 31.12300
H  25.81300 48.59100 32.34600
H  24.21900 49.35200 31.63500
H  23.97600 50.73400 33.44100
H  25.61200 50.94700 33.61200
H  31.57600 48.47600 28.93400
H  32.67400 49.25500 27.71700
H  32.14200 47.54600 27.49200
H  32.88900 47.48800 25.09700
H  33.59000 48.98100 25.79800
H  33.80900 48.58400 24.02100
H  27.20100 49.78900 21.43600
H  25.47200 52.06200 21.92200
H  28.91600 51.90700 22.21100
H  27.56800 52.68100 21.41000
H  28.49900 51.39700 20.61300
H  23.97500 49.53600 22.30100
H  25.19300 49.26400 21.13700
H  23.78800 50.05100 19.58300
H  23.80700 51.67300 20.13600
H  22.60900 50.41100 20.74000
H  20.77000 52.92000 26.18300
H  21.28700 52.59100 24.56100
H  21.97300 54.05200 25.39100
H  22.77500 50.85800 30.47400
H  23.64100 54.70900 32.68700
H  24.09700 53.21500 33.49800
H  22.63500 53.86700 33.88500

