158

Mg 42.03100 40.91300 26.96300
C  41.28900 43.10700 29.52200
C  43.26800 38.70600 29.33000
C  42.53000 38.55900 24.50000
C  41.10600 43.20400 24.61400
N  42.30100 40.99000 29.23700
C  41.82500 41.96200 30.07700
C  41.90000 41.57000 31.51800
C  42.74300 40.23600 31.51000
C  42.71200 39.91600 29.95400
C  44.15500 40.20900 32.10300
C  40.42500 41.46200 32.16800
C  40.29800 42.31300 33.43500
H  39.71100 41.57800 34.66300
N  42.81900 38.89400 26.87100
C  43.27200 38.17400 27.95000
C  43.51700 36.80800 27.53200
C  43.19000 36.71200 26.14600
C  42.78000 38.08600 25.78600
C  43.95500 35.74600 28.44600
C  43.16100 35.47800 25.07500
O  42.85600 35.60100 23.86100
C  43.68300 34.15900 25.55700
N  41.98900 40.92800 24.83900
C  42.10800 39.90000 23.98700
C  41.73400 40.17100 22.56000
C  41.39600 41.66600 22.63900
C  41.46800 41.98600 24.14700
C  42.73500 39.81100 21.48600
C  39.98700 42.00300 22.16500
C  39.92200 43.30000 21.42000
N  41.40500 42.85400 27.04100
C  41.01300 43.63400 26.00000
C  40.45900 44.88700 26.51500
C  40.51300 44.70500 27.91300
C  41.13900 43.45900 28.17900
C  39.99200 46.06500 25.77700
C  40.15000 45.29500 29.22000
O  39.56000 46.35700 29.47300
C  40.75300 44.31300 30.27400
C  41.75300 45.05000 31.13200
O  42.98600 45.14000 31.00100
O  41.15100 45.51600 32.27500
C  41.96400 46.06500 33.34300
H  43.54800 38.02200 30.13400
H  42.58900 37.94200 23.60100
H  40.63900 43.85100 23.86900
H  42.44600 42.34100 32.06100
H  42.18400 39.49500 32.08000
H  44.40400 41.06700 32.72800
H  44.77600 40.12900 31.21000
H  44.14700 39.23800 32.59700
H  40.26700 40.41100 32.40700
H  39.71000 41.75700 31.39900
H  39.64200 43.18300 33.39500
H  41.24700 42.78300 33.69700
H  44.92300 35.38400 28.10000
H  43.28100 34.89400 28.36500
H  44.02000 35.98800 29.50700
H  44.74100 34.11700 25.81400
H  43.57800 33.39800 24.78400
H  43.06600 33.77400 26.36900
H  40.84600 39.57000 22.36400
H  42.18400 42.16100 22.07200
H  42.94800 40.68700 20.87300
H  42.27600 38.99900 20.92200
H  43.64400 39.37900 21.90400
H  39.32800 41.98700 23.03200
H  39.58100 41.19200 21.56000
H  39.50100 43.03400 20.45100
H  40.93800 43.68700 21.33700
H  39.36800 44.11400 21.88900
H  40.74800 46.83900 25.64200
H  39.20700 46.56500 26.34300
H  39.60700 45.84900 24.78000
H  40.05400 43.76100 30.90300
H  42.56500 45.24300 33.73200
H  41.38000 46.57600 34.10800
H  42.59700 46.87000 32.96800
Mg 30.10200 57.88000 40.85600
C  27.44000 56.08300 39.54800
C  32.30900 55.51200 39.36000
C  32.70700 59.95800 41.37700
C  27.79000 60.24700 41.84900
N  29.84000 56.00400 39.63800
C  28.68900 55.46900 39.22900
C  28.86800 54.21400 38.37700
C  30.33200 53.80100 38.78400
C  30.89400 55.18900 39.27600
C  30.48600 52.80700 40.01900
C  28.69000 54.50200 36.96400
C  27.71100 53.53800 36.25900
H  26.92400 54.20200 35.11600
N  32.20800 57.67700 40.45900
C  32.86100 56.61900 39.89400
C  34.32600 56.90000 39.84100
C  34.42700 58.21600 40.44500
C  33.12200 58.70800 40.80500
C  35.32400 55.91600 39.24000
C  35.70600 58.97100 40.64600
O  36.75800 58.51900 40.20400
C  35.89000 60.22600 41.48200
N  30.24600 59.75500 41.68000
C  31.45700 60.46200 41.71100
C  31.20200 61.80200 42.48300
C  29.68200 61.88300 42.51600
C  29.14800 60.50000 42.00800
C  31.82200 61.85200 43.87900
C  29.09600 63.22900 41.99500
C  29.09900 64.31700 43.06100
N  28.01800 58.15500 40.85500
C  27.17000 59.13600 41.22200
C  25.78600 58.90500 40.98800
C  25.86400 57.64400 40.28300
C  27.26400 57.29900 40.27500
C  24.64200 59.65400 41.42200
C  25.07300 56.58700 39.59100
O  23.90400 56.58200 39.23600
C  26.03800 55.51800 39.10400
C  25.60900 54.31000 39.82200
O  25.68800 54.10600 41.04900
O  24.88600 53.48300 38.93700
C  24.48000 52.11100 39.49000
H  32.93300 54.70500 38.97000
H  33.43300 60.77200 41.44200
H  27.12300 61.05400 42.15700
H  28.23400 53.41000 38.75000
H  30.96600 53.47700 37.95900
H  30.60000 53.41100 40.92000
H  31.35600 52.22700 39.71300
H  29.61700 52.15700 40.11800
H  29.67900 54.52000 36.50700
H  28.33700 55.51200 36.75500
H  26.90100 53.27000 36.93700
H  28.34700 52.72800 35.90300
H  35.74300 56.34600 38.33100
H  34.92000 54.97500 38.86700
H  36.11500 55.76900 39.97600
H  35.50000 60.95800 40.77500
H  36.95400 60.39300 41.65200
H  35.26500 60.23000 42.37500
H  31.63300 62.66300 41.97100
H  29.37200 61.87700 43.56000
H  32.74400 61.27300 43.91900
H  31.13600 61.56600 44.67700
H  32.22900 62.85500 44.00700
H  28.11000 63.13600 41.54100
H  29.84500 63.58600 41.28800
H  29.48000 65.30000 42.78400
H  29.45400 64.07400 44.06300
H  28.04200 64.49500 43.26000
H  23.75600 59.06800 41.17700
H  24.63200 60.58600 40.85800
H  24.53700 59.82800 42.49200
H  25.74600 55.31700 38.07400
H  24.59300 51.37700 38.69300
H  23.40100 52.15800 39.63500
H  25.08900 51.65600 40.27200

