158

Mg 18.01000 -0.94400 27.90400
C  17.02300 1.07400 30.82000
C  19.77000 -2.86100 30.05200
C  18.63000 -2.74500 25.28300
C  16.01600 1.36500 25.98100
N  18.26000 -0.96400 30.12400
C  17.88800 -0.05500 31.07100
C  18.25800 -0.52000 32.52500
C  19.14800 -1.76000 32.27200
C  19.09500 -1.84600 30.71000
C  20.58600 -1.90300 32.80200
C  16.95200 -0.80200 33.39300
C  16.81500 -0.01800 34.71300
H  18.14500 0.55100 35.33500
N  19.21300 -2.45000 27.61000
C  19.87600 -3.16100 28.61400
C  20.65200 -4.20300 27.96700
C  20.27100 -4.19000 26.58700
C  19.24400 -3.11900 26.43100
C  21.44700 -5.19200 28.69300
C  20.76000 -5.11600 25.43400
O  20.45700 -4.98400 24.26000
C  21.75000 -6.17200 25.70500
N  17.54500 -0.64500 25.91600
C  17.81300 -1.64000 25.04100
C  17.23800 -1.33900 23.63400
C  16.37400 -0.05800 23.93800
C  16.68000 0.24800 25.33800
C  18.24400 -1.07600 22.45100
C  14.87600 -0.28500 23.66200
C  14.04300 -1.06300 24.68300
N  16.74300 0.81800 28.29700
C  15.96500 1.62400 27.34500
C  15.39500 2.74300 28.03300
C  15.74900 2.54500 29.34900
C  16.60600 1.46400 29.49000
C  14.48500 3.68500 27.44500
C  15.60700 3.10500 30.63700
O  14.98100 4.02900 31.05600
C  16.29600 2.07700 31.65400
C  17.27700 2.89000 32.48800
O  18.51100 3.04200 32.32600
O  16.50400 3.41700 33.50700
C  17.18500 4.49500 34.23000
H  20.43600 -3.43500 30.70000
H  18.67500 -3.45500 24.45400
H  15.36100 1.93700 25.32000
H  18.87400 0.28600 32.92400
H  18.65300 -2.63300 32.69700
H  20.60400 -1.40500 33.77100
H  21.19100 -1.36900 32.07000
H  20.97100 -2.92300 32.83800
H  16.80000 -1.84500 33.67100
H  16.21900 -0.45100 32.66800
H  16.31600 -0.66600 35.43400
H  16.23500 0.89200 34.55900
H  21.49200 -4.99400 29.76400
H  22.48100 -5.04700 28.38100
H  21.05500 -6.19000 28.49400
H  22.67400 -5.76200 26.11300
H  22.00900 -6.55400 24.71800
H  21.43500 -7.03400 26.29400
H  16.56300 -2.17500 23.45000
H  16.62900 0.83200 23.36100
H  18.56100 -1.89800 21.80900
H  19.16000 -0.65600 22.86700
H  17.90100 -0.21600 21.87700
H  14.76900 -0.80800 22.71200
H  14.38300 0.67900 23.53600
H  13.30700 -0.32300 25.00100
H  14.59500 -1.47400 25.52800
H  13.35000 -1.81600 24.30900
H  14.03800 3.25400 26.54900
H  14.98900 4.60400 27.14600
H  13.67300 4.02900 28.08500
H  15.43900 1.65900 32.18000
H  18.26500 4.34800 34.21800
H  16.76000 4.55100 35.23200
H  16.86200 5.41400 33.73900
Mg 41.49300 7.85900 29.10300
C  43.53300 9.32200 31.41500
C  39.59800 6.45200 31.64000
C  39.46400 6.41300 26.77100
C  43.70700 8.95300 26.50400
N  41.61000 7.86700 31.29000
C  42.47900 8.67900 32.02900
C  42.15600 8.63200 33.54500
C  40.90600 7.64900 33.59200
C  40.67200 7.27900 32.06900
C  41.00700 6.36500 34.49800
C  41.76200 10.11300 33.95800
C  40.82700 10.31300 35.24300
H  41.22000 11.47700 36.18300
N  39.70200 6.61300 29.22600
C  39.06600 6.15800 30.33800
C  37.87500 5.43400 29.93300
C  37.83400 5.48700 28.49000
C  39.04300 6.19500 28.09500
C  37.06900 4.67400 30.95200
C  36.72500 4.98300 27.53500
O  36.79000 5.12700 26.33700
C  35.54000 4.24700 28.07900
N  41.68900 7.60600 26.93800
C  40.64300 7.03400 26.23700
C  40.86200 7.23600 24.68500
C  42.14200 8.19800 24.62500
C  42.44000 8.38500 26.11300
C  41.11800 5.88200 23.92100
C  41.84700 9.48600 23.80500
C  41.18700 10.58600 24.49100
N  43.28300 8.98600 28.95700
C  44.11400 9.20100 27.85600
C  45.36000 9.80100 28.34500
C  45.10300 9.97800 29.75800
C  43.83200 9.42000 30.03100
C  46.65300 10.17700 27.61000
C  45.65700 10.45800 30.94400
O  46.74200 10.97100 31.27600
C  44.69100 10.10300 32.06200
C  45.36900 9.19500 33.06200
O  45.81500 8.06800 32.87600
O  45.42300 9.83500 34.30100
C  46.05400 9.03600 35.42000
H  39.03800 6.11800 32.51600
H  38.82400 6.14700 25.92600
H  44.47700 9.23800 25.78500
H  42.97200 8.24900 34.15800
H  39.97100 8.10000 33.92300
H  41.32600 5.51100 33.90200
H  40.01400 6.17900 34.90900
H  41.65100 6.47300 35.37100
H  41.25600 10.61400 33.13200
H  42.68400 10.63200 34.21800
H  40.86700 9.37800 35.80200
H  39.79100 10.36000 34.90800
H  37.43000 4.96100 31.94000
H  36.91300 3.60800 30.78300
H  36.04500 5.04400 30.92000
H  35.35400 4.63200 29.08200
H  35.80900 3.19400 28.15500
H  34.74700 4.22500 27.33200
H  39.95800 7.68900 24.27700
H  42.88100 7.70300 23.99400
H  40.45900 5.92900 23.05400
H  40.93000 5.01800 24.55800
H  42.12400 5.68300 23.55300
H  41.24100 9.18400 22.95100
H  42.81200 9.80800 23.41200
H  41.82600 11.46900 24.50700
H  40.99900 10.32900 25.53400
H  40.20200 10.77300 24.06300
H  46.55700 10.01600 26.53600
H  47.61300 9.74700 27.89600
H  46.76000 11.25600 27.72000
H  44.35700 11.00200 32.58000
H  47.12500 9.23900 35.39200
H  45.83200 7.97200 35.34500
H  45.83200 9.39900 36.42300

