158

Mg 45.33700 3.82700 47.62800
C  43.46500 6.80600 47.04200
C  42.39900 2.05400 46.94000
C  47.13400 1.04100 47.18800
C  48.17000 5.71600 48.07400
N  43.19300 4.37800 47.19100
C  42.69600 5.64300 46.96800
C  41.19500 5.57900 46.55400
C  40.82400 4.06300 46.83700
C  42.20800 3.44400 47.08300
C  39.83100 3.79600 48.02200
C  40.87100 6.01100 45.03900
C  39.88800 7.19500 44.91300
H  38.82900 7.09600 43.75600
N  44.85300 1.79100 47.07300
C  43.56200 1.27800 46.89200
C  43.69900 -0.03500 46.45400
C  45.02200 -0.40900 46.40900
C  45.74300 0.80500 46.92900
C  42.55100 -0.97600 46.12400
C  45.61300 -1.84800 46.13000
O  44.82600 -2.71200 45.69000
C  47.03400 -2.22000 46.40900
N  47.32300 3.44500 47.69700
C  47.82700 2.15500 47.60200
C  49.21700 2.10100 48.14100
C  49.69900 3.64300 48.30200
C  48.31600 4.30400 48.02200
C  49.34300 1.22900 49.41300
C  50.78500 3.93500 47.23300
C  52.24300 3.98700 47.76600
N  45.83600 5.80700 47.59100
C  47.00800 6.46500 47.80000
C  46.82400 7.90200 47.65600
C  45.47200 8.04900 47.44500
C  44.90300 6.77500 47.39400
C  47.88700 8.96600 47.64900
C  44.42300 9.04000 47.18900
O  44.56500 10.23200 47.16900
C  43.08100 8.22600 47.04300
C  42.27000 8.59300 48.23600
O  42.02600 7.84100 49.20800
O  41.63200 9.85600 48.02400
C  40.30300 10.01400 48.52900
H  41.50100 1.47100 46.72700
H  47.75400 0.14500 47.26300
H  49.04800 6.27900 48.39700
H  40.61500 6.15700 47.27300
H  40.37700 3.66600 45.92500
H  39.01800 3.14900 47.68900
H  39.28300 4.71900 48.21100
H  40.34000 3.42800 48.91300
H  40.48300 5.12800 44.53100
H  41.77400 6.37600 44.54900
H  40.42000 8.12600 44.71800
H  39.34700 7.36000 45.84500
H  42.69200 -1.37700 45.12000
H  41.61500 -0.42000 46.07400
H  42.59300 -1.80200 46.83400
H  47.57100 -1.44700 45.85900
H  47.35800 -3.18500 46.01900
H  47.33100 -2.00600 47.43600
H  49.81600 1.68900 47.32900
H  50.09300 3.89700 49.28500
H  49.94200 0.32000 49.46500
H  48.38000 0.90800 49.81100
H  49.68000 1.85700 50.23800
H  50.64900 4.98600 46.98000
H  50.69200 3.27600 46.37000
H  52.62900 5.00700 47.77800
H  52.95600 3.50300 47.09800
H  52.41800 3.61600 48.77500
H  48.62400 8.64200 48.38500
H  47.51000 9.94600 47.94000
H  48.34700 8.91800 46.66200
H  42.53600 8.42700 46.12000
H  39.80800 10.78700 47.94200
H  40.44400 10.36500 49.55200
H  39.87400 9.01300 48.55300
Mg -2.66600 34.87500 26.90100
C  -4.32700 33.14200 29.52900
C  -1.81200 37.30000 29.02700
C  -1.20100 36.39000 24.24800
C  -4.26900 32.66900 24.64700
N  -3.09400 35.25800 29.07500
C  -3.67200 34.30500 29.94900
C  -3.33700 34.77400 31.34000
C  -2.74600 36.20200 31.21100
C  -2.51700 36.31900 29.69100
C  -3.73300 37.39300 31.60700
C  -2.47400 33.76200 32.07900
C  -3.27400 33.06400 33.26800
H  -2.28100 32.99000 34.59100
N  -1.57400 36.57200 26.66400
C  -1.36000 37.48200 27.70600
C  -0.50900 38.53800 27.17100
C  -0.41100 38.36500 25.74100
C  -1.13900 37.05100 25.50600
C  0.14400 39.63100 28.00800
C  0.21000 39.27000 24.67700
O  0.11500 39.01100 23.50000
C  1.00000 40.46000 25.02500
N  -2.81100 34.63200 24.77400
C  -2.02100 35.32100 23.87700
C  -2.09900 34.73900 22.47800
C  -2.84800 33.36400 22.73800
C  -3.37100 33.55100 24.16200
C  -2.77400 35.76600 21.53000
C  -2.13800 31.96200 22.73000
C  -0.93900 31.65800 23.66200
N  -3.97300 33.21100 27.01300
C  -4.57900 32.47700 26.02900
C  -5.22100 31.38600 26.55400
C  -5.26700 31.56100 27.93700
C  -4.46000 32.75000 28.15700
C  -5.98400 30.33800 25.69700
C  -5.67000 31.13600 29.29800
O  -6.34700 30.21900 29.72600
C  -5.02800 32.10700 30.34200
C  -6.11700 32.66500 31.19300
O  -6.75000 33.71600 30.98400
O  -6.26300 31.89900 32.37200
C  -7.41700 32.29200 33.22600
H  -1.30700 38.01400 29.68000
H  -0.53600 36.73100 23.45200
H  -4.60700 31.87800 23.97500
H  -4.32300 35.01100 31.74000
H  -1.81900 36.37700 31.75800
H  -4.14600 37.91500 30.74400
H  -3.20000 38.16300 32.16400
H  -4.47700 37.08200 32.34100
H  -1.61000 34.28100 32.49500
H  -2.16200 32.92600 31.45300
H  -3.57100 32.07900 32.90900
H  -4.17500 33.65300 33.43500
H  0.11100 39.36800 29.06500
H  -0.39400 40.54700 27.76700
H  1.20800 39.70700 27.78300
H  1.79100 40.01800 25.63000
H  0.27500 40.97100 25.65900
H  1.41300 40.94900 24.14300
H  -1.07400 34.59600 22.13900
H  -3.71700 33.22600 22.09400
H  -2.82700 36.77100 21.94800
H  -3.80600 35.47600 21.33500
H  -2.21300 35.87400 20.60100
H  -1.70400 31.76200 21.75000
H  -2.85800 31.14500 22.77100
H  -1.35800 30.87600 24.29600
H  -0.68800 32.59100 24.16600
H  -0.07700 31.22700 23.15300
H  -5.54400 30.20400 24.70900
H  -7.03600 30.61700 25.63500
H  -5.92900 29.36300 26.18100
H  -4.27700 31.61800 30.96100
H  -8.25800 32.68400 32.65300
H  -7.15400 33.17800 33.80400
H  -7.64600 31.50600 33.94500

