158

Mg 27.29900 49.67400 26.92000
C  25.33800 50.70100 29.54400
C  29.82300 49.06300 29.13900
C  29.23200 48.89800 24.33100
C  24.74500 50.64500 24.69400
N  27.56400 50.01400 29.14100
C  26.60000 50.33400 30.03600
C  27.03200 50.06400 31.50300
C  28.56000 49.79100 31.29400
C  28.68200 49.67000 29.77600
C  29.59600 50.75400 31.93700
C  26.24100 48.86000 32.22300
C  25.49000 49.21100 33.44600
H  26.29400 49.49300 34.75900
N  29.29800 49.04800 26.73600
C  30.15200 48.82600 27.78500
C  31.42500 48.41200 27.24900
C  31.29900 48.58600 25.84900
C  29.91600 48.87200 25.55500
C  32.58300 47.94200 28.09000
C  32.40000 48.45100 24.75800
O  32.24600 48.58800 23.54300
C  33.71700 47.99800 25.16700
N  26.97200 49.84900 24.80700
C  27.97300 49.40200 23.97800
C  27.51600 49.33100 22.54000
C  26.00600 49.65300 22.68700
C  25.95100 50.20800 24.07200
C  28.21600 50.32800 21.60100
C  25.01300 48.49600 22.44400
C  25.14800 47.17100 23.29700
N  25.46100 50.48500 27.06000
C  24.47500 50.74100 26.07800
C  23.32700 51.36700 26.70700
C  23.61200 51.34900 28.08100
C  24.91300 50.79600 28.20600
C  22.03700 51.81800 26.00900
C  23.07900 51.69900 29.36600
O  22.11000 52.36700 29.63900
C  24.15300 51.13400 30.41100
C  24.36500 52.17700 31.50600
O  25.22000 53.06200 31.49400
O  23.61800 51.90500 32.61000
C  23.86500 52.77300 33.76600
H  30.66900 48.75900 29.76000
H  29.81400 48.50200 23.49600
H  24.04100 50.94800 23.91600
H  26.92000 50.98300 32.07900
H  28.87700 48.86500 31.77300
H  30.33300 50.24500 32.55800
H  29.00100 51.36400 32.61700
H  30.13100 51.34100 31.19100
H  26.99500 48.20200 32.65400
H  25.72000 48.10200 31.63700
H  24.70100 48.46400 33.54000
H  24.98900 50.15400 33.22800
H  33.44400 48.58500 27.90300
H  32.77200 46.90400 27.81800
H  32.34200 47.79900 29.14400
H  34.24500 48.69900 25.81300
H  34.30500 47.79200 24.27200
H  33.73600 47.07500 25.74700
H  27.69100 48.30300 22.22300
H  25.63800 50.42900 22.01500
H  27.41700 50.86200 21.08800
H  28.99600 49.91800 20.96000
H  28.66600 51.01400 22.31900
H  25.10100 48.28900 21.37800
H  24.00800 48.85200 22.66900
H  26.16900 46.81600 23.43700
H  24.52000 46.43200 22.79900
H  24.75000 47.39800 24.28700
H  22.03000 52.90500 25.93800
H  21.08300 51.61000 26.49300
H  21.91800 51.35100 25.03100
H  23.59300 50.32000 30.87100
H  23.00600 53.41500 33.95600
H  24.82200 53.29100 33.82300
H  23.96600 52.11900 34.63200
Mg -12.48000 16.70000 41.85900
C  -9.39400 14.97400 41.35400
C  -10.97100 19.49400 40.43200
C  -15.45400 18.10700 41.66300
C  -13.95600 13.71900 42.87500
N  -10.49200 17.09800 40.80500
C  -9.36600 16.21300 40.78300
C  -8.20600 16.93400 40.17900
C  -8.68000 18.45500 40.03300
C  -10.16100 18.39500 40.46400
C  -7.80500 19.54200 40.61900
C  -7.80700 16.30800 38.78500
C  -6.37800 15.78500 38.67600
H  -5.70400 16.34200 37.37200
N  -13.15500 18.58400 41.25700
C  -12.35700 19.59400 40.69900
C  -13.17700 20.76200 40.46500
C  -14.51500 20.37400 40.79700
C  -14.44300 18.97000 41.28000
C  -12.76400 22.12800 39.97500
C  -15.70500 21.30300 40.72100
O  -15.50700 22.47600 40.41100
C  -17.14800 20.86100 41.00100
N  -14.46100 15.94500 42.01800
C  -15.49200 16.73800 41.95800
C  -16.83300 16.03900 42.20400
C  -16.27100 14.75900 42.90300
C  -14.79500 14.78000 42.62600
C  -17.94400 16.73400 43.05800
C  -16.94100 13.47600 42.35400
C  -17.57800 12.56100 43.40000
N  -11.87400 14.64900 42.04800
C  -12.54200 13.60300 42.62100
C  -11.67400 12.46300 42.74800
C  -10.41600 12.95200 42.25600
C  -10.54400 14.31000 41.91400
C  -12.15200 11.12200 43.23600
C  -8.96200 12.59900 41.89400
O  -8.45100 11.48200 41.85800
C  -8.26700 13.89900 41.34200
C  -7.15700 14.19200 42.33800
O  -7.27900 14.14300 43.55300
O  -6.00200 14.64400 41.70000
C  -4.99000 15.13600 42.62600
H  -10.58500 20.33700 39.85600
H  -16.45000 18.55300 41.68500
H  -14.47100 12.81500 43.20700
H  -7.38600 16.90100 40.89600
H  -8.62500 18.77800 38.99300
H  -8.26500 19.88800 41.54500
H  -7.85000 20.36900 39.91000
H  -6.81000 19.16000 40.84500
H  -7.99700 17.00600 37.96900
H  -8.44000 15.43200 38.64400
H  -6.51900 14.70400 38.64100
H  -5.75600 16.21300 39.46100
H  -12.85100 22.22700 38.89300
H  -11.68000 22.19800 40.06800
H  -13.02500 22.99000 40.58800
H  -17.13900 20.43100 42.00300
H  -17.28100 20.06100 40.27300
H  -17.95700 21.57700 40.85700
H  -17.29000 15.90700 41.22300
H  -16.39600 14.76400 43.98600
H  -17.99800 16.29700 44.05500
H  -18.86500 16.39600 42.58400
H  -17.83400 17.81800 43.03500
H  -16.29400 12.91700 41.67700
H  -17.81800 13.76500 41.77500
H  -17.51700 11.53600 43.03300
H  -18.62600 12.82000 43.55200
H  -17.09500 12.54400 44.37700
H  -11.33500 10.41400 43.37400
H  -12.92600 10.69900 42.59600
H  -12.57700 11.33800 44.21600
H  -7.80300 13.62600 40.39500
H  -4.58400 14.28600 43.17600
H  -5.42100 15.83100 43.34600
H  -4.40300 15.83600 42.03200

