158

Mg 36.04300 2.31000 30.77800
C  33.32500 3.06900 33.03300
C  38.08800 2.19000 33.27000
C  38.30500 1.69000 28.45800
C  33.55800 2.35600 28.16600
N  35.69800 2.63900 32.88900
C  34.56300 2.87700 33.64700
C  34.95900 2.96300 35.12500
C  36.49200 2.88500 35.16100
C  36.79500 2.49300 33.65300
C  37.25200 4.21200 35.48500
C  34.20800 1.81000 36.02000
C  33.75300 2.17000 37.45500
H  34.57600 3.18000 38.20400
N  37.93500 1.89100 30.84400
C  38.64800 1.89900 32.01600
C  39.98800 1.33800 31.79000
C  40.02100 1.17200 30.38800
C  38.74600 1.66200 29.83200
C  41.01600 1.05400 32.89700
C  41.14300 0.61800 29.51100
O  40.90500 0.39200 28.36900
C  42.54600 0.35500 30.09100
N  35.91900 1.92300 28.58500
C  37.01000 1.81500 27.88300
C  36.69600 1.48100 26.45500
C  35.13300 1.49400 26.38000
C  34.77100 1.87600 27.79400
C  37.34700 2.20600 25.29000
C  34.57500 0.05200 26.10700
C  34.50000 -0.29000 24.61500
N  33.95400 2.80800 30.53700
C  33.11400 2.73800 29.44800
C  31.78900 3.02500 29.87200
C  31.88400 3.23400 31.26800
C  33.19000 3.02000 31.59100
C  30.57600 2.96300 28.97900
C  31.08800 3.50300 32.46800
O  29.92200 3.75200 32.63800
C  32.08300 3.37900 33.65100
C  32.10800 4.72000 34.32500
O  32.54000 5.76600 33.81400
O  31.52200 4.62400 35.55800
C  31.43300 5.81300 36.44600
H  38.82100 2.16400 34.07900
H  39.00800 1.42600 27.66500
H  32.93700 2.31300 27.27000
H  34.59800 3.93500 35.46300
H  36.97000 2.12900 35.78300
H  37.76100 4.66600 34.63500
H  37.99600 4.06700 36.26800
H  36.59100 5.02700 35.77900
H  34.86900 0.94400 36.04600
H  33.38900 1.46800 35.38700
H  33.78300 1.18000 37.91000
H  32.72900 2.53900 37.38900
H  41.98800 1.43900 32.58900
H  41.00300 -0.02400 33.05400
H  40.73800 1.37000 33.90300
H  43.16800 -0.06300 29.29900
H  42.39800 -0.29400 30.95400
H  43.04400 1.26600 30.42400
H  37.01500 0.45600 26.26600
H  34.77500 2.29200 25.73100
H  36.63200 2.08800 24.47600
H  38.18100 1.59800 24.94000
H  37.60200 3.26400 25.35200
H  33.61200 -0.04700 26.60900
H  35.28500 -0.64800 26.54700
H  33.66600 -0.95400 24.38600
H  35.42000 -0.71600 24.21500
H  34.35500 0.62700 24.04300
H  29.69500 2.95500 29.62100
H  30.67100 2.03300 28.41800
H  30.50800 3.79800 28.28300
H  31.75400 2.60400 34.34200
H  31.47300 5.63400 37.52100
H  30.49600 6.33300 36.24500
H  32.24100 6.51900 36.25400
Mg 16.58900 52.37500 25.81600
C  18.19500 50.80600 28.54100
C  14.01900 53.24600 27.83000
C  15.00300 53.47300 23.07000
C  18.87300 50.65400 23.71200
N  16.14800 52.03500 27.94800
C  17.04600 51.54100 28.88800
C  16.49500 51.83400 30.33500
C  14.99300 52.31600 30.04200
C  15.01000 52.49700 28.51400
C  13.96300 51.25900 30.52900
C  17.48000 52.79900 31.18800
C  17.65900 52.55000 32.71200
H  16.43500 51.93300 33.41300
N  14.84200 53.35700 25.49400
C  13.89600 53.54400 26.45800
C  12.74100 54.26100 25.93500
C  12.95300 54.40900 24.51900
C  14.27500 53.70600 24.27800
C  11.51200 54.57400 26.65000
C  12.09900 55.09100 23.45300
O  12.49200 55.14700 22.31100
C  10.73500 55.74000 23.78800
N  16.86400 51.93600 23.63300
C  16.09900 52.72500 22.78900
C  16.60800 52.49200 21.36600
C  17.85000 51.63000 21.57100
C  17.88600 51.33400 23.07500
C  15.44900 51.87600 20.49000
C  19.14100 52.26400 20.88400
C  20.13300 53.05400 21.72500
N  18.18400 50.97700 26.04300
C  19.04400 50.46300 25.08400
C  20.13100 49.72900 25.77800
C  19.78800 49.78700 27.13300
C  18.63500 50.58100 27.22800
C  21.19700 48.91300 25.17400
C  20.10500 49.30600 28.48900
O  20.98100 48.56100 28.82500
C  19.15800 50.08300 29.47100
C  18.71100 49.25300 30.58800
O  17.83500 48.39800 30.49600
O  19.37500 49.54100 31.76600
C  19.00700 48.76800 32.92100
H  13.19100 53.68600 28.39100
H  14.54800 53.92600 22.18600
H  19.59300 50.20800 23.02300
H  16.54900 50.96400 30.98800
H  14.73200 53.29000 30.45500
H  14.33000 50.23400 30.58800
H  13.11200 51.31800 29.85100
H  13.49300 51.60100 31.45200
H  17.11100 53.80900 31.01000
H  18.48600 52.88600 30.77800
H  17.80700 53.52500 33.17700
H  18.59300 52.09100 33.03500
H  11.03400 55.50300 26.34000
H  11.73100 54.78900 27.69600
H  10.99800 53.61300 26.64600
H  10.28000 56.16400 22.89300
H  10.71900 56.59500 24.46300
H  10.04900 54.99800 24.19600
H  16.91100 53.44100 20.92300
H  17.63600 50.66700 21.10800
H  14.51000 51.76800 21.03200
H  15.75100 50.87100 20.19500
H  15.32200 52.48300 19.59300
H  18.90500 52.95100 20.07100
H  19.72600 51.46100 20.43600
H  19.78600 53.24000 22.74100
H  20.15600 54.05100 21.28600
H  21.15500 52.67600 21.72600
H  20.59900 48.08300 24.80000
H  21.98900 48.65900 25.87900
H  21.52800 49.61500 24.40900
H  19.76400 50.81500 30.00600
H  17.93700 48.61300 33.05800
H  19.39900 49.32100 33.77500
H  19.36100 47.73800 32.97800

