158

Mg 47.71600 24.88400 28.60100
C  48.43200 27.11400 31.22900
C  47.27100 22.41800 31.09900
C  47.21200 22.59100 26.17500
C  49.04800 27.08200 26.33300
N  47.91200 24.70400 30.85400
C  48.01500 25.86100 31.70100
C  47.87800 25.46600 33.17700
C  47.58200 23.93500 33.12200
C  47.72000 23.60200 31.60000
C  48.59000 23.07700 33.97800
C  46.76600 26.31600 33.91500
C  47.23100 26.87800 35.26200
H  46.16300 26.89600 36.31800
N  47.12300 22.80000 28.64800
C  46.99100 21.96200 29.73200
C  46.55500 20.57800 29.24100
C  46.44200 20.65800 27.86000
C  46.97600 22.00700 27.49300
C  46.26200 19.47100 30.13100
C  45.92100 19.55400 26.93200
O  45.88800 19.72800 25.73100
C  45.31700 18.25000 27.41600
N  47.95200 24.90200 26.54500
C  47.74800 23.82400 25.78300
C  48.26600 24.04200 24.36500
C  48.53300 25.55100 24.33600
C  48.66800 25.83500 25.82500
C  49.55300 23.26400 23.90700
C  47.53600 26.48200 23.54800
C  47.39700 26.21100 22.09900
N  48.67600 26.70300 28.71900
C  49.16800 27.48500 27.72000
C  49.79700 28.68400 28.27500
C  49.58300 28.57800 29.66200
C  48.77900 27.41200 29.86400
C  50.69700 29.64200 27.60900
C  49.80000 29.14800 30.94700
O  50.53600 30.08500 31.23000
C  49.02500 28.33500 32.02400
C  50.08100 27.90300 33.02900
O  51.01800 27.20900 32.87000
O  49.85100 28.67400 34.15500
C  50.80600 28.48400 35.22500
H  47.13700 21.56300 31.76500
H  47.19300 21.90300 25.32700
H  49.36100 27.86600 25.64000
H  48.83700 25.56100 33.68600
H  46.56000 23.65700 33.37700
H  49.37200 22.60700 33.38200
H  48.07400 22.27100 34.49800
H  49.01800 23.74200 34.72900
H  45.77900 25.89200 34.10400
H  46.48300 27.19500 33.33700
H  47.63300 27.89100 35.28100
H  48.06300 26.28200 35.63700
H  46.37700 19.66800 31.19600
H  46.99400 18.70500 29.87100
H  45.25900 19.05800 30.02300
H  46.06300 17.69500 27.98500
H  45.11300 17.70600 26.49400
H  44.45400 18.23000 28.08300
H  47.38200 23.82900 23.76400
H  49.52500 25.68300 23.90300
H  49.69800 22.42400 24.58600
H  50.46000 23.86000 23.81200
H  49.37200 22.64800 23.02600
H  47.76600 27.53600 23.70400
H  46.50800 26.37400 23.89300
H  46.54100 25.58900 21.83800
H  48.33600 25.76000 21.77800
H  47.32500 27.23500 21.73400
H  50.68900 29.60700 26.51900
H  51.71300 29.37400 27.90100
H  50.42000 30.65900 27.88300
H  48.25900 28.96100 32.48100
H  50.66100 29.08100 36.12500
H  51.84000 28.72000 34.97500
H  50.72700 27.42400 35.46700
Mg -2.11200 34.99500 27.38400
C  -3.79300 33.59100 30.07500
C  -1.00500 37.44100 29.56300
C  -0.58000 36.33200 24.74500
C  -3.64700 32.58200 25.18200
N  -2.47500 35.51700 29.63700
C  -3.02800 34.67400 30.54400
C  -2.72700 35.15500 31.91000
C  -2.17800 36.64000 31.69200
C  -1.82500 36.52000 30.20900
C  -3.24700 37.72400 32.02000
C  -1.85800 34.24200 32.83300
C  -1.84900 34.71000 34.30900
H  -2.62700 33.88200 35.27200
N  -0.97500 36.71700 27.16500
C  -0.54300 37.58900 28.21100
C  0.22100 38.65000 27.53700
C  0.47600 38.26900 26.20300
C  -0.38300 37.07400 25.95100
C  0.84400 39.75200 28.42200
C  1.28800 38.94200 25.10500
O  1.25200 38.60000 23.89900
C  2.00300 40.16500 25.45200
N  -2.15800 34.53700 25.25300
C  -1.35200 35.28200 24.41300
C  -1.42400 34.68700 22.98600
C  -2.29100 33.42400 23.16500
C  -2.80400 33.51900 24.62500
C  -1.91200 35.70800 21.92700
C  -1.54400 32.16400 22.83800
C  -2.16700 31.23500 21.79600
N  -3.54000 33.53200 27.47700
C  -4.10400 32.71100 26.53700
C  -5.05000 31.80500 27.12100
C  -5.00700 32.09400 28.53900
C  -4.07100 33.20800 28.68300
C  -5.75700 30.78000 26.35900
C  -5.29400 31.64600 29.88900
O  -5.90500 30.64000 30.27200
C  -4.72400 32.67100 30.92000
C  -5.78400 33.36800 31.69500
O  -6.23700 34.51100 31.68700
O  -6.07300 32.38600 32.61500
C  -7.00500 32.75700 33.65200
H  -0.53200 38.09800 30.29600
H  -0.05700 36.82800 23.92400
H  -4.12300 31.90500 24.47000
H  -3.74100 35.19900 32.30600
H  -1.23500 36.82500 32.20800
H  -4.09900 37.32700 32.57200
H  -3.57400 38.26800 31.13400
H  -2.72200 38.44500 32.64600
H  -0.82900 34.17200 32.48000
H  -2.20600 33.21000 32.77400
H  -2.27000 35.71500 34.31200
H  -0.83700 34.80500 34.70300
H  0.28400 40.67700 28.28300
H  1.88100 39.90600 28.12200
H  0.87200 39.38400 29.44700
H  1.20200 40.87500 25.65800
H  2.49200 40.49200 24.53400
H  2.71600 39.96600 26.25200
H  -0.38500 34.45100 22.75500
H  -3.06500 33.51500 22.40400
H  -2.93800 35.48700 21.63300
H  -1.26000 35.67800 21.05300
H  -1.84000 36.71100 22.34600
H  -1.28100 31.73300 23.80300
H  -0.56500 32.38400 22.41100
H  -1.47600 31.15600 20.95700
H  -3.16400 31.55600 21.49400
H  -2.30200 30.22700 22.18900
H  -6.33200 31.32000 25.60700
H  -6.40700 30.37700 27.13500
H  -5.06300 30.08200 25.89000
H  -4.06100 32.09100 31.56100
H  -6.71200 33.44800 34.44200
H  -7.41800 31.86300 34.12000
H  -7.89900 33.16300 33.17900

