158

Mg 6.91100 56.87600 41.37800
C  6.45200 53.27900 41.27900
C  9.91100 56.34700 39.70300
C  6.83300 60.03600 40.55600
C  3.66800 57.13800 42.80300
N  8.08800 55.00300 40.53200
C  7.70500 53.67700 40.65200
C  8.80500 52.81600 40.03300
C  10.06300 53.73000 40.02700
C  9.37000 55.12600 40.13700
C  10.93800 53.56400 41.26700
C  8.41000 52.33200 38.62600
C  8.63100 50.77400 38.28300
H  7.45800 50.10800 37.49500
N  8.22800 58.05800 40.36000
C  9.41600 57.64100 39.75700
C  10.03100 58.86200 39.21000
C  9.27900 59.95100 39.48700
C  7.99100 59.37800 40.09200
C  11.36700 58.80800 38.58800
C  9.59200 61.39500 39.25300
O  10.65900 61.65000 38.67100
C  8.77800 62.63900 39.70200
N  5.42900 58.31500 41.55500
C  5.71900 59.58500 41.23300
C  4.60200 60.54500 41.61800
C  3.54900 59.63900 42.29800
C  4.28000 58.30600 42.25300
C  4.88600 61.81000 42.47000
C  2.12000 59.59200 41.67800
C  0.95700 60.17200 42.57200
N  5.40900 55.46400 42.08900
C  4.22900 55.80800 42.74300
C  3.67000 54.54800 43.24900
C  4.47900 53.51100 42.67700
C  5.43400 54.14200 41.90900
C  2.47100 54.38300 44.10800
C  4.69700 52.06200 42.55200
O  4.13400 51.12700 43.08100
C  5.91200 51.89800 41.57100
C  5.43700 51.28000 40.31100
O  5.16300 51.85900 39.24400
O  5.38200 49.98800 40.56900
C  4.49600 49.17600 39.63800
H  10.89000 56.17900 39.24700
H  6.79800 61.12400 40.46500
H  2.73800 57.17000 43.37500
H  9.04600 51.96100 40.66500
H  10.63400 53.57900 39.11100
H  10.75000 54.18200 42.14400
H  11.90400 53.93000 40.91800
H  10.96300 52.50900 41.53900
H  8.99300 52.91300 37.91100
H  7.36000 52.55400 38.43500
H  8.94800 50.26300 39.19200
H  9.50700 50.71800 37.63700
H  11.91100 57.86300 38.59600
H  12.04600 59.42000 39.18300
H  11.34700 59.13800 37.55000
H  8.57500 62.39000 40.74400
H  7.82900 62.67700 39.16700
H  9.38700 63.53200 39.56400
H  4.30600 60.73900 40.58700
H  3.51200 59.92700 43.34900
H  4.75400 62.67100 41.81500
H  5.91000 61.69500 42.82500
H  4.17700 61.93600 43.28800
H  1.95400 58.52900 41.50400
H  2.21900 60.14000 40.74000
H  0.33300 60.86200 42.00300
H  1.34300 60.68200 43.45500
H  0.39800 59.32900 42.97700
H  1.56100 54.50100 43.51900
H  2.46200 54.96700 45.02800
H  2.46300 53.40300 44.58500
H  6.77800 51.34800 41.94000
H  3.48100 49.06300 40.02000
H  4.82900 48.13900 39.68100
H  4.42400 49.67700 38.67200
Mg -0.29600 43.39500 25.22600
C  2.22500 42.79800 27.67000
C  -2.58800 42.30600 27.48300
C  -2.42700 43.19800 22.69100
C  2.39700 43.91900 22.92000
N  -0.10800 42.59900 27.33400
C  0.91000 42.64800 28.18500
C  0.38600 42.34400 29.62600
C  -1.12600 41.86500 29.44500
C  -1.32200 42.25600 27.97500
C  -1.37400 40.35200 29.72200
C  0.45400 43.55400 30.53600
C  -0.27600 43.56700 31.90900
H  -0.42400 42.34400 32.88700
N  -2.30400 42.99500 25.16100
C  -3.13300 42.55700 26.18000
C  -4.48100 42.47800 25.67800
C  -4.41700 42.62300 24.30700
C  -3.00500 42.96700 23.97400
C  -5.64900 42.15200 26.61800
C  -5.55200 42.63200 23.33000
O  -5.41500 42.92400 22.11400
C  -6.99200 42.13300 23.76200
N  -0.08400 43.56800 23.15800
C  -1.13900 43.45700 22.29400
C  -0.85000 43.66800 20.84300
C  0.69500 43.91400 20.96400
C  1.06100 43.83600 22.43800
C  -1.35300 42.50400 19.89100
C  1.20600 45.21200 20.28900
C  1.05900 46.49600 21.08200
N  1.87200 43.37700 25.21800
C  2.80300 43.77100 24.26300
C  4.18900 43.63100 24.79200
C  3.97400 43.25100 26.12700
C  2.54400 43.15900 26.34500
C  5.53600 43.87200 23.98200
C  4.65300 42.94500 27.42400
O  5.83400 42.71700 27.73000
C  3.48800 42.90900 28.47900
C  3.76300 41.78900 29.43700
O  3.70300 40.59300 29.26000
O  4.24300 42.32600 30.56600
C  4.60400 41.41900 31.69800
H  -3.25800 42.05900 28.31000
H  -3.11300 43.33300 21.85300
H  3.14000 44.15000 22.15400
H  0.96600 41.54600 30.09000
H  -1.81800 42.43100 30.06900
H  -2.01800 39.89000 28.97400
H  -1.87000 40.38800 30.69200
H  -0.44500 39.78600 29.79600
H  0.03100 44.33900 29.90800
H  1.47400 43.85900 30.77200
H  -1.28700 43.94300 31.75500
H  0.27400 44.34400 32.44000
H  -5.33700 42.48100 27.60900
H  -5.62800 41.06700 26.71500
H  -6.64900 42.49100 26.34800
H  -7.00200 41.14300 24.21700
H  -7.56600 41.99100 22.84600
H  -7.53900 42.82200 24.40500
H  -1.37600 44.58000 20.56200
H  1.25800 43.06700 20.57300
H  -1.83400 43.07600 19.09700
H  -2.01300 41.76700 20.34900
H  -0.47300 42.08100 19.40700
H  0.74200 45.30700 19.30800
H  2.26000 45.23200 20.01000
H  0.63600 46.39700 22.08200
H  0.39300 47.11700 20.48400
H  1.99500 47.05200 21.03500
H  6.32600 44.17700 24.66700
H  5.41000 44.61100 23.19100
H  5.75300 42.88600 23.56900
H  3.39900 43.86500 28.99500
H  4.56400 40.34700 31.50800
H  3.84100 41.56900 32.46200
H  5.64400 41.51400 32.01100

