158

Mg 44.17300 4.47900 48.17800
C  42.02500 7.14500 47.71600
C  41.65800 2.36200 47.62400
C  46.50400 2.08800 47.73600
C  46.87300 6.91800 48.00800
N  42.09500 4.77200 47.76700
C  41.44000 5.90800 47.67000
C  40.02600 5.65100 47.29400
C  39.87300 4.16500 47.59100
C  41.31400 3.69100 47.70300
C  39.23400 3.86100 49.01500
C  39.65300 6.00300 45.78400
C  38.30900 6.69500 45.53000
H  37.71200 6.71100 44.11200
N  44.08300 2.48100 47.75600
C  42.93500 1.73900 47.45400
C  43.29300 0.35200 47.22500
C  44.72900 0.28500 47.29700
C  45.19300 1.65500 47.57900
C  42.32800 -0.69500 46.96100
C  45.44800 -0.98200 47.11700
O  44.83000 -1.96200 46.61900
C  46.89000 -1.14300 47.19800
N  46.33500 4.48600 47.87800
C  47.03900 3.33600 47.79000
C  48.57200 3.50000 47.86100
C  48.72500 5.07400 47.96000
C  47.20000 5.55500 47.96500
C  49.41400 2.66700 48.79700
C  49.48900 5.82300 46.83400
C  50.81900 6.50900 47.16800
N  44.45600 6.61900 48.10800
C  45.56300 7.47200 47.97900
C  45.14600 8.86300 47.83100
C  43.74700 8.73400 47.80900
C  43.37700 7.42800 47.91400
C  45.97000 10.08900 47.67100
C  42.57800 9.52300 47.54000
O  42.34800 10.77200 47.35700
C  41.40900 8.48200 47.64600
C  40.50600 8.76300 48.79400
O  40.84800 8.92500 49.93100
O  39.20400 8.68700 48.38100
C  38.13900 8.77500 49.42200
H  40.83500 1.65100 47.72600
H  47.23900 1.28500 47.82700
H  47.83100 7.43400 48.10600
H  39.33100 6.28200 47.84900
H  39.34900 3.57800 46.83700
H  38.87200 4.77000 49.49400
H  40.09600 3.49400 49.57200
H  38.49000 3.06400 48.98500
H  39.73900 5.09900 45.18100
H  40.37100 6.70400 45.35900
H  38.30000 7.73800 45.84800
H  37.56000 6.18700 46.13600
H  42.45200 -1.26000 46.03700
H  41.28000 -0.39900 47.00700
H  42.44000 -1.45000 47.73900
H  47.12300 -0.80100 48.20700
H  47.35800 -0.54500 46.41600
H  47.14100 -2.19800 47.08400
H  48.92700 3.22300 46.86800
H  49.03500 5.25900 48.98900
H  50.10300 3.30500 49.35100
H  50.04100 2.08400 48.12300
H  48.87100 1.97200 49.43800
H  48.82800 6.64600 46.56100
H  49.58300 5.16300 45.97200
H  50.78400 6.73100 48.23500
H  51.03200 7.43000 46.62500
H  51.60100 5.77800 46.96500
H  46.25500 10.25000 48.71100
H  45.40000 10.94700 47.31300
H  46.76400 9.80000 46.98300
H  40.77000 8.64100 46.77700
H  38.18700 9.75100 49.90700
H  38.19900 8.01200 50.19800
H  37.16500 8.65200 48.95000
Mg -0.60100 44.62300 26.36900
C  1.67900 43.43500 28.86800
C  -3.14500 43.95500 28.51600
C  -2.70700 45.05700 23.80500
C  2.15800 44.47600 24.06600
N  -0.67500 43.74500 28.48200
C  0.36300 43.42300 29.32700
C  -0.11400 43.21000 30.76600
C  -1.69000 43.16300 30.54500
C  -1.87600 43.72200 29.08300
C  -2.42100 41.87000 30.80900
C  0.32600 44.48000 31.68600
C  0.67200 44.15500 33.19400
H  0.44700 42.76200 33.78100
N  -2.63600 44.60400 26.25100
C  -3.52600 44.38500 27.23600
C  -4.86800 44.61900 26.73700
C  -4.70900 45.10500 25.42600
C  -3.24300 44.94800 25.08700
C  -6.05600 44.46900 27.62300
C  -5.76700 45.61900 24.38200
O  -5.48300 45.99500 23.25800
C  -7.26000 45.55600 24.63300
N  -0.30800 44.72300 24.17300
C  -1.35800 45.00100 23.32300
C  -0.87300 45.08700 21.90000
C  0.66300 45.18100 22.06600
C  0.90200 44.83200 23.50000
C  -1.38900 43.97700 21.03700
C  1.27500 46.55200 21.64600
C  1.35300 47.66800 22.69500
N  1.51600 44.17300 26.40800
C  2.49800 44.14500 25.42000
C  3.78400 43.88400 26.05400
C  3.50600 43.56800 27.37600
C  2.13400 43.72600 27.53500
C  5.18100 43.71900 25.41100
C  4.15600 43.08900 28.60400
O  5.24700 42.61100 28.81300
C  2.91200 43.11400 29.62500
C  3.01000 41.89500 30.45600
O  2.54100 40.79600 30.13200
O  3.77000 42.22400 31.54900
C  4.05300 41.15700 32.50200
H  -3.98700 43.81100 29.19700
H  -3.35000 45.27200 22.94900
H  2.94300 44.64000 23.32400
H  0.10900 42.17200 31.01600
H  -2.13800 43.82500 31.28600
H  -1.76700 41.29600 31.46500
H  -2.70800 41.34200 29.89900
H  -3.32600 42.05200 31.38900
H  -0.35000 45.33500 31.68500
H  1.21400 44.87800 31.19500
H  0.06500 44.81900 33.81000
H  1.74400 44.23800 33.37000
H  -6.05100 43.44900 28.00800
H  -6.97500 44.63800 27.06100
H  -6.11000 45.22700 28.40400
H  -7.58600 45.89500 25.61700
H  -7.50300 44.49400 24.59200
H  -7.83400 46.22100 23.98700
H  -1.24500 46.06500 21.59700
H  1.15900 44.47100 21.40400
H  -1.84900 43.16200 21.59500
H  -0.61000 43.59500 20.37700
H  -2.24700 44.43000 20.54200
H  0.64900 46.92400 20.83500
H  2.25300 46.35300 21.20800
H  2.36800 47.92500 23.00000
H  0.61200 47.42600 23.45700
H  1.14700 48.62100 22.20700
H  5.50100 44.72700 25.14700
H  5.09900 43.29500 24.41000
H  5.68900 43.09800 26.14800
H  3.24100 44.00300 30.16200
H  4.12200 41.49700 33.53600
H  5.09200 40.85100 32.38600
H  3.31900 40.36100 32.38200

