158

Mg 29.83500 57.45200 40.95100
C  26.91700 55.87800 39.67500
C  31.62400 55.03500 39.24700
C  32.57700 59.46400 40.79700
C  27.79100 60.18000 41.74900
N  29.26900 55.55600 39.69800
C  28.07000 55.15900 39.29600
C  28.18300 53.91600 38.38900
C  29.63400 53.57000 38.51500
C  30.22700 54.84600 39.14700
C  29.92600 52.35500 39.43000
C  27.62700 54.05500 36.93600
C  27.88800 55.37900 36.17800
H  27.03300 55.55500 34.93900
N  31.87000 57.15600 40.45100
C  32.38200 56.11400 39.73100
C  33.83500 56.21300 39.70100
C  34.16500 57.52800 40.19200
C  32.86100 58.17300 40.46900
C  34.70900 55.26200 38.95100
C  35.58500 58.03100 40.30600
O  36.54900 57.38200 39.95600
C  35.85300 59.36000 40.96600
N  30.08400 59.43500 41.29600
C  31.33300 60.03000 41.22300
C  31.29300 61.59700 41.33800
C  29.83400 61.77800 42.00000
C  29.15100 60.38800 41.71400
C  32.36600 62.18700 42.27800
C  29.08900 63.01300 41.41700
C  28.88600 64.20900 42.43200
N  27.73800 57.94300 40.97200
C  27.07700 59.01900 41.44900
C  25.67400 58.79900 41.29100
C  25.55900 57.51200 40.75600
C  26.86800 57.11600 40.41600
C  24.56500 59.79200 41.63900
C  24.62500 56.46200 40.22700
O  23.42100 56.37700 40.30000
C  25.46300 55.48200 39.41100
C  25.27500 54.08100 39.92700
O  25.66600 53.65300 41.04100
O  24.51600 53.34100 39.04300
C  24.27200 51.91500 39.48800
H  32.28800 54.23300 38.91900
H  33.43300 60.10300 40.57000
H  27.21000 60.97100 42.22600
H  27.51000 53.15600 38.78700
H  30.15700 53.49800 37.56200
H  29.47800 51.49600 38.93000
H  29.36300 52.51200 40.35000
H  31.00000 52.28700 39.60500
H  26.62200 53.63600 36.89300
H  28.33100 53.39900 36.42400
H  28.95700 55.39600 35.96900
H  27.67500 56.16500 36.90400
H  35.37400 55.80300 38.27700
H  34.20000 54.52000 38.33600
H  35.37600 54.89100 39.73000
H  35.62900 60.08800 40.18700
H  36.88300 59.56900 41.25300
H  35.12800 59.52500 41.76400
H  31.24500 62.03300 40.34000
H  29.84800 61.76700 43.09000
H  33.04100 62.93300 41.85800
H  33.11100 61.42900 42.52100
H  31.88500 62.60200 43.16400
H  28.13800 62.77000 40.94300
H  29.66000 63.41600 40.58000
H  29.05500 65.15800 41.92400
H  29.68000 64.15600 43.17700
H  27.91800 64.29800 42.92500
H  24.39800 60.48800 40.81700
H  24.98700 60.45100 42.39800
H  23.58900 59.45700 41.99000
H  25.27500 55.47600 38.33800
H  25.29400 51.53500 39.50200
H  23.87500 51.36900 38.63200
H  23.77500 51.64300 40.42000
Mg 26.30600 50.61700 26.80000
C  24.17900 51.97300 29.32600
C  28.45300 49.65600 29.18700
C  28.36800 49.39500 24.29800
C  24.25500 52.16700 24.41100
N  26.22900 50.74200 28.96800
C  25.33800 51.41400 29.81000
C  25.56300 51.09200 31.31600
C  27.09800 50.56900 31.15700
C  27.28400 50.28600 29.69900
C  28.06400 51.51600 31.85100
C  24.58300 50.01000 31.95300
C  24.63400 49.58400 33.45700
H  25.57900 50.40100 34.38600
N  28.07200 49.61300 26.76200
C  28.83500 49.29800 27.88000
C  30.03100 48.64500 27.58000
C  30.02800 48.58300 26.20800
C  28.78400 49.20400 25.63200
C  31.08600 48.13900 28.55800
C  31.03800 47.94900 25.26800
O  30.90400 47.75300 24.05600
C  32.38200 47.64300 25.80800
N  26.25900 50.75800 24.64000
C  27.18100 50.11300 23.90400
C  26.76300 50.26900 22.43400
C  25.36100 51.00600 22.43100
C  25.27500 51.35600 23.89700
C  27.81400 51.03700 21.57200
C  24.21300 50.03100 22.06600
C  24.04400 49.46100 20.65100
N  24.60600 51.82900 26.82600
C  23.91700 52.44600 25.75200
C  22.71100 52.95700 26.21900
C  22.76500 52.83100 27.61800
C  23.95800 52.14000 27.88900
C  21.64600 53.56100 25.38100
C  22.03900 53.06800 28.82100
O  21.08100 53.75800 29.08700
C  22.91500 52.42900 30.01500
C  23.25600 53.45400 30.98500
O  24.13600 54.29500 30.88400
O  22.48500 53.29000 32.12700
C  22.79900 54.21200 33.25900
H  29.13700 49.46600 30.01700
H  29.02600 49.01900 23.51200
H  23.71300 52.48900 23.52000
H  25.42800 52.02900 31.85700
H  27.18700 49.58800 31.62200
H  27.55700 52.37300 32.29600
H  28.76700 51.79200 31.06500
H  28.60100 50.92700 32.59400
H  24.79000 49.10100 31.38800
H  23.57600 50.31900 31.67100
H  24.99200 48.55500 33.48900
H  23.63200 49.71200 33.86600
H  31.95400 48.79100 28.65600
H  31.45200 47.13600 28.33900
H  30.81600 48.03300 29.60800
H  32.86700 48.46900 26.33000
H  32.86800 47.67300 24.83200
H  32.35500 46.68400 26.32400
H  26.82300 49.28300 21.97400
H  25.33600 51.93800 21.86700
H  28.73800 50.82400 22.10900
H  27.61500 52.10800 21.61400
H  27.80400 50.75500 20.51900
H  23.21000 50.45000 22.14300
H  24.36800 49.11800 22.64100
H  23.16900 49.86900 20.14400
H  23.90100 48.39300 20.81700
H  24.97600 49.51300 20.08700
H  22.03200 53.62600 24.36400
H  21.40000 54.50300 25.87100
H  20.78400 52.89600 25.44100
H  22.35800 51.62100 30.48900
H  22.14400 53.76500 34.00700
H  22.33000 55.13800 32.92600
H  23.84100 54.40900 33.51000

