158

Mg 2.34900 -2.79900 44.46700
C  5.52000 -1.39200 44.13100
C  1.22800 0.02100 42.53200
C  -0.73500 -4.13200 44.33600
C  3.69200 -5.72500 45.43900
N  3.31200 -0.95100 43.48700
C  4.62500 -0.61900 43.48800
C  4.94300 0.67700 42.71300
C  3.48100 1.24400 42.45600
C  2.65400 0.01400 42.84800
C  3.05600 2.54300 43.17000
C  5.84500 0.41200 41.46000
C  6.78700 1.56800 41.00000
H  7.67900 1.30000 39.79600
N  0.44200 -2.09400 43.66900
C  0.25600 -0.99500 42.91800
C  -1.12200 -0.93700 42.49300
C  -1.74700 -2.07900 42.99700
C  -0.68800 -2.82900 43.69700
C  -1.82000 0.22800 41.76800
C  -3.24200 -2.45100 42.88200
O  -3.97400 -1.79100 42.16100
C  -3.85800 -3.75900 43.51100
N  1.58400 -4.67300 44.71000
C  0.30000 -4.91400 44.78100
C  0.08700 -6.46200 45.01400
C  1.48300 -6.88000 45.64300
C  2.34700 -5.72400 45.18700
C  -1.22200 -6.87500 45.81700
C  2.00300 -8.31000 45.43600
C  3.02700 -8.87400 46.55600
N  4.22000 -3.50200 44.76600
C  4.61700 -4.69500 45.21700
C  6.03800 -4.61200 45.42600
C  6.44700 -3.30400 45.15000
C  5.30400 -2.67800 44.61600
C  6.84900 -5.74100 45.99000
C  7.52700 -2.32800 45.14200
O  8.71400 -2.46800 45.41700
C  6.95800 -1.03000 44.48400
C  7.12400 0.15000 45.42500
O  6.61000 0.29300 46.50800
O  8.02900 1.08500 44.83500
C  8.35200 2.25000 45.64900
H  0.93900 0.92500 41.99200
H  -1.67300 -4.68600 44.26500
H  4.11500 -6.65100 45.83500
H  5.49400 1.40700 43.30600
H  3.33200 1.47400 41.40100
H  2.01400 2.57700 43.48700
H  3.27700 3.42000 42.56000
H  3.62400 2.76200 44.07400
H  5.12300 0.31700 40.65000
H  6.31900 -0.54200 41.69300
H  7.48000 1.69800 41.83100
H  6.25500 2.50700 40.84600
H  -1.21800 1.12700 41.63600
H  -2.60100 0.60600 42.42800
H  -2.17000 -0.05200 40.77500
H  -3.65300 -4.59000 42.83700
H  -4.91800 -3.51400 43.43700
H  -3.56900 -3.91400 44.55100
H  -0.06200 -6.99100 44.07200
H  1.40100 -6.76100 46.72300
H  -1.93800 -7.47600 45.25700
H  -1.68900 -5.91000 46.01200
H  -0.93000 -7.21700 46.81000
H  2.60500 -8.29400 44.52800
H  1.17400 -9.01000 45.33800
H  2.72000 -9.82700 46.98600
H  3.27100 -8.12100 47.30600
H  3.90300 -9.06600 45.93700
H  7.02900 -6.55000 45.28300
H  6.33400 -6.07600 46.89000
H  7.74200 -5.29300 46.42600
H  7.51600 -1.01500 43.54800
H  7.43500 2.82900 45.76300
H  9.22500 2.73500 45.21100
H  8.62400 1.80700 46.60600
Mg 46.50700 25.68800 28.64600
C  47.88300 27.78300 31.24200
C  45.57900 23.47100 31.21100
C  45.95500 23.49600 26.29800
C  48.09200 27.81300 26.34600
N  46.78900 25.65300 30.97900
C  47.16000 26.71600 31.74000
C  46.80300 26.43200 33.27100
C  46.40300 24.88700 33.18800
C  46.17100 24.67900 31.69500
C  47.41000 23.93300 33.84200
C  45.75200 27.49900 33.84000
C  46.21600 28.25900 35.13500
H  45.31200 28.02700 36.37100
N  45.75100 23.75300 28.74300
C  45.44000 23.00900 29.79900
C  44.89300 21.79100 29.29100
C  45.07600 21.72400 27.89200
C  45.66000 22.98500 27.59200
C  44.38800 20.60600 30.19400
C  44.56800 20.68400 26.87600
O  44.71500 20.96200 25.67700
C  43.85100 19.36400 27.28200
N  46.99700 25.68100 26.54600
C  46.61100 24.60900 25.81500
C  47.16700 24.81600 24.30600
C  47.52900 26.30100 24.31000
C  47.59900 26.65500 25.81800
C  48.27500 23.77600 23.84700
C  46.61700 27.17300 23.32400
C  47.33300 27.69100 22.04500
N  47.58700 27.47100 28.70200
C  48.14400 28.22600 27.72600
C  48.80500 29.41800 28.18800
C  48.79200 29.26400 29.61300
C  48.03400 28.09100 29.87100
C  49.47500 30.38200 27.22400
C  49.21100 29.91600 30.86700
O  49.88600 30.89300 31.05600
C  48.52000 28.92800 31.94900
C  49.51700 28.47500 33.04100
O  50.30800 27.56900 32.86100
O  49.30900 29.18500 34.21000
C  50.08700 28.64400 35.42700
H  45.25700 22.77800 31.99100
H  45.80900 22.89400 25.39900
H  48.39500 28.50700 25.56000
H  47.67900 26.52400 33.91200
H  45.46200 24.91600 33.73700
H  48.39700 24.28900 33.54600
H  47.29100 22.89600 33.53000
H  47.35600 24.03000 34.92600
H  44.84600 26.93000 34.04800
H  45.51500 28.26500 33.10200
H  46.27900 29.28800 34.78200
H  47.17000 27.95200 35.56200
H  43.41400 20.33500 29.78600
H  44.38100 20.86400 31.25300
H  44.97400 19.68900 30.12300
H  44.50700 18.81100 27.95400
H  43.84800 18.75100 26.38100
H  42.79200 19.46200 27.52400
H  46.40300 24.74200 23.53200
H  48.57800 26.46300 24.05900
H  47.71100 23.11700 23.18700
H  48.70000 23.30200 24.73200
H  49.09700 24.38600 23.47200
H  46.20300 27.98200 23.92700
H  45.81700 26.51100 22.99300
H  48.40300 27.49900 22.12300
H  47.21500 28.77200 22.11600
H  46.86500 27.40800 21.10200
H  49.68900 31.31900 27.73700
H  48.77000 30.57600 26.41600
H  50.28200 29.79800 26.78100
H  47.67600 29.41700 32.43400
H  50.64700 27.72600 35.24800
H  49.38900 28.38800 36.22500
H  50.73200 29.50000 35.62400

