158

Mg 2.39500 -1.09200 45.00600
C  5.65000 -0.25300 43.86800
C  1.18100 1.73700 43.58400
C  -0.73800 -2.43800 45.16600
C  3.65400 -4.26000 45.95200
N  3.35400 0.45800 43.67600
C  4.70300 0.71400 43.50800
C  4.86700 2.12500 42.76000
C  3.49300 2.81900 43.01900
C  2.57800 1.65300 43.46400
C  3.45100 4.02500 43.95900
C  5.25100 1.77000 41.23100
C  6.64000 2.35300 40.88700
H  6.72600 3.34900 39.73200
N  0.47100 -0.44100 44.50000
C  0.19500 0.69800 43.97600
C  -1.21300 0.84600 43.74000
C  -1.90100 -0.33700 44.11900
C  -0.67800 -1.18300 44.57300
C  -1.87800 2.02300 43.12700
C  -3.37100 -0.63700 44.04600
O  -4.07400 0.19500 43.56700
C  -3.90200 -1.89100 44.60400
N  1.52700 -3.15600 45.61200
C  0.19100 -3.38500 45.69100
C  -0.03500 -4.91400 45.81500
C  1.42200 -5.48800 46.20600
C  2.28500 -4.27000 45.88700
C  -1.08500 -5.24800 46.89600
C  1.76400 -6.78200 45.39300
C  2.62700 -7.77400 46.21100
N  4.23700 -2.03800 44.96800
C  4.55900 -3.27300 45.45800
C  5.98500 -3.43600 45.39700
C  6.49200 -2.23000 44.77700
C  5.35100 -1.45200 44.52500
C  6.74500 -4.62100 45.80700
C  7.73900 -1.48900 44.35300
O  8.88800 -1.81400 44.36800
C  7.16000 -0.21600 43.72200
C  7.77400 0.94700 44.39700
O  8.72500 1.53300 43.95400
O  7.02900 1.31900 45.55800
C  7.52900 2.51100 46.29900
H  0.80900 2.70100 43.23100
H  -1.69500 -2.88300 45.44500
H  4.08400 -5.10400 46.49400
H  5.65200 2.55600 43.38100
H  3.15300 3.13000 42.03100
H  4.22800 3.91300 44.71400
H  2.44000 3.97400 44.36400
H  3.48400 4.99700 43.46600
H  4.48600 2.21000 40.59000
H  5.20900 0.69900 41.03200
H  7.30600 1.52800 40.63500
H  7.07700 2.88600 41.73100
H  -2.72400 2.29700 43.75700
H  -2.18800 1.63100 42.15800
H  -1.16400 2.84400 43.05600
H  -4.98900 -1.87400 44.52600
H  -3.50400 -1.89900 45.61900
H  -3.53500 -2.82200 44.17200
H  -0.34900 -5.17300 44.80400
H  1.39900 -5.69700 47.27500
H  -1.94900 -5.66000 46.37500
H  -1.43300 -4.33300 47.37600
H  -0.83700 -5.93900 47.70100
H  2.31000 -6.60700 44.46600
H  0.82800 -7.29400 45.17200
H  1.97900 -8.53700 46.64200
H  3.09200 -7.30500 47.07800
H  3.40000 -8.30200 45.65300
H  6.50100 -4.95200 46.81600
H  7.82700 -4.48900 45.79800
H  6.51000 -5.36200 45.04300
H  7.38600 -0.19900 42.65600
H  6.54600 2.96900 46.18700
H  8.29900 3.13500 45.84400
H  7.73000 2.35100 47.35900
Mg 36.01500 2.00000 29.93900
C  33.86000 3.14500 32.35100
C  38.56500 1.95300 32.49300
C  38.32200 1.13900 27.61700
C  33.59200 2.47800 27.54500
N  36.16400 2.44800 32.14400
C  35.10700 2.92400 32.88900
C  35.53600 3.05800 34.35700
C  37.07100 3.00500 34.20600
C  37.28400 2.40500 32.87300
C  37.86500 4.37100 34.39100
C  34.86700 2.04700 35.26600
C  34.45200 2.48100 36.65600
H  35.01800 3.77500 37.32100
N  38.08400 1.51500 30.02300
C  38.92200 1.56000 31.14200
C  40.21600 1.12600 30.68600
C  40.21200 0.79700 29.29400
C  38.84800 1.23400 28.91500
C  41.44700 1.20300 31.63400
C  41.29600 0.31400 28.38000
O  41.09500 0.17400 27.20100
C  42.77300 0.12700 28.92400
N  36.00600 2.00300 27.83000
C  37.09200 1.44300 27.10700
C  36.68600 1.15900 25.63300
C  35.18400 1.67000 25.61700
C  34.87700 2.01000 27.10800
C  37.61100 1.75800 24.54600
C  34.14500 0.52700 25.03100
C  33.04500 1.13300 24.12500
N  34.13300 2.69500 29.93800
C  33.23600 2.77900 28.84600
C  31.92300 3.07900 29.31900
C  32.09400 3.28700 30.73700
C  33.44100 2.99700 31.02200
C  30.66400 3.35200 28.38500
C  31.47900 3.77900 32.02600
O  30.42400 4.24100 32.26100
C  32.66100 3.57500 33.08000
C  32.78900 4.81200 33.85400
O  33.24600 5.88600 33.42400
O  32.16500 4.71900 35.08300
C  31.72800 5.96000 35.75700
H  39.29700 1.89600 33.30100
H  38.98500 0.93400 26.77300
H  32.83000 2.66400 26.78500
H  35.31100 4.06700 34.70200
H  37.52300 2.47000 35.04200
H  38.55500 4.22400 35.22200
H  37.31700 5.27700 34.64700
H  38.48700 4.54500 33.51200
H  35.54700 1.19500 35.24900
H  34.01700 1.62100 34.73500
H  34.81900 1.64200 37.24700
H  33.36600 2.40400 36.60800
H  41.96800 0.24600 31.66900
H  41.07100 1.40300 32.63700
H  42.03500 2.05700 31.29700
H  43.49800 -0.11900 28.14800
H  42.84400 -0.82200 29.45600
H  43.11000 1.01400 29.46100
H  36.63100 0.07200 25.58200
H  35.07800 2.57700 25.02200
H  38.40700 1.02800 24.39500
H  38.05100 2.66800 24.95400
H  37.09800 1.92400 23.59900
H  33.67200 -0.03100 25.83900
H  34.74000 -0.10400 24.37100
H  33.17700 0.77300 23.10500
H  33.12400 2.22000 24.15000
H  32.08600 0.79400 24.51700
H  30.35900 2.44800 27.85700
H  30.99000 4.18000 27.75500
H  29.85400 3.73000 29.00900
H  32.44200 2.71400 33.71200
H  30.69800 5.85000 36.09900
H  31.72400 6.88600 35.18200
H  32.31500 6.14700 36.65600

