158

Mg 2.05900 -1.16300 43.67400
C  5.52100 -0.33600 43.04500
C  1.19700 1.74700 42.13400
C  -1.04200 -2.37000 43.41600
C  3.24300 -4.20500 44.83300
N  3.23000 0.51400 42.77000
C  4.57600 0.64000 42.55800
C  5.02600 1.96300 41.91300
C  3.63700 2.71500 41.93800
C  2.57900 1.55800 42.25600
C  3.52100 3.93100 42.92100
C  5.66500 1.87400 40.46100
C  6.91100 2.68700 40.11900
H  6.93100 3.61000 38.94400
N  0.27900 -0.35100 43.02000
C  0.11300 0.86300 42.40500
C  -1.23200 1.01400 42.05100
C  -1.94000 -0.10200 42.49800
C  -0.92900 -1.06500 43.01600
C  -1.81800 2.17300 41.43600
C  -3.46200 -0.30000 42.44700
O  -4.20400 0.49700 41.91200
C  -4.18200 -1.45100 43.06700
N  1.26200 -3.08000 43.96800
C  -0.04600 -3.29700 43.93800
C  -0.42400 -4.74600 44.43200
C  0.98600 -5.26000 44.96300
C  1.91500 -4.17400 44.48100
C  -1.67200 -4.83500 45.32800
C  1.34300 -6.64400 44.23400
C  2.00900 -7.70400 45.21600
N  4.00300 -2.12100 43.97900
C  4.28700 -3.28300 44.57900
C  5.69400 -3.34100 44.82500
C  6.23100 -2.25500 44.21600
C  5.16600 -1.55300 43.71500
C  6.45300 -4.36500 45.64600
C  7.48700 -1.53900 43.96100
O  8.65200 -1.72200 44.30500
C  7.03800 -0.42700 43.02100
C  7.75200 0.85300 43.34800
O  8.45400 1.42700 42.53500
O  7.48100 1.35100 44.57100
C  7.93000 2.72900 44.82900
H  0.94900 2.75200 41.78700
H  -2.10900 -2.60400 43.40400
H  3.49800 -5.15200 45.31300
H  5.61000 2.42400 42.71000
H  3.22300 3.06100 40.99100
H  4.51200 4.19000 43.29400
H  2.81900 3.71200 43.72600
H  3.18100 4.79700 42.35500
H  4.94500 2.14700 39.69000
H  5.92400 0.82200 40.34600
H  7.69700 1.96700 39.89400
H  7.11300 3.32600 40.97900
H  -2.53000 1.88800 40.66200
H  -1.14600 2.84600 40.90400
H  -2.22100 2.73700 42.27600
H  -5.21900 -1.16700 43.24500
H  -3.79400 -1.71000 44.05200
H  -4.04700 -2.28100 42.37400
H  -0.56700 -5.21900 43.46000
H  1.08700 -5.24400 46.04800
H  -1.38100 -5.43400 46.19100
H  -2.56100 -5.26000 44.86400
H  -1.92200 -3.85000 45.72100
H  2.04100 -6.45100 43.41900
H  0.48700 -7.08000 43.72000
H  1.45800 -8.64400 45.17900
H  2.15400 -7.34300 46.23400
H  2.98400 -7.95900 44.80200
H  5.95100 -5.32200 45.50700
H  6.31100 -3.98900 46.65900
H  7.52500 -4.45700 45.47100
H  7.41600 -0.71900 42.04000
H  7.36400 3.37600 44.16000
H  8.98100 2.87800 44.58000
H  7.65600 3.08400 45.82300
Mg 41.17900 8.64700 29.65700
C  43.04500 9.49300 32.40300
C  38.85700 7.31000 31.71100
C  39.60200 7.47500 26.98800
C  44.03900 9.08900 27.56300
N  41.02300 8.26900 31.86300
C  41.81800 8.92600 32.78700
C  41.16400 8.81400 34.21500
C  40.07200 7.70000 33.99300
C  39.98400 7.75500 32.41500
C  40.54700 6.29000 34.58200
C  40.63900 10.22600 34.69700
C  40.43700 10.47200 36.23300
H  41.48000 11.22000 37.04200
N  39.32800 7.64400 29.33300
C  38.50100 7.21400 30.34600
C  37.20500 6.84100 29.74000
C  37.37200 6.93600 28.30500
C  38.76500 7.35400 28.10400
C  35.98500 6.46600 30.56100
C  36.43300 6.61900 27.03100
O  36.87400 6.57200 25.87400
C  35.05600 6.42600 27.25800
N  41.91100 8.00700 27.72000
C  40.93400 7.69400 26.80700
C  41.47600 7.52000 25.35900
C  42.86900 8.18500 25.49600
C  42.94800 8.44400 27.00200
C  41.44200 6.03000 24.85000
C  43.03900 9.54200 24.67500
C  41.91100 10.59300 24.72100
N  43.24700 9.16500 29.84500
C  44.30100 9.33800 28.93700
C  45.36200 9.94000 29.76500
C  44.92100 10.09400 31.06200
C  43.64500 9.53800 31.06800
C  46.61300 10.50200 29.21200
C  45.26300 10.60200 32.37800
O  46.17600 11.29100 32.77700
C  44.10200 10.14700 33.30900
C  44.62500 9.22100 34.33000
O  44.50300 8.01000 34.30200
O  45.42100 9.96400 35.19600
C  46.29300 9.14700 36.15700
H  38.12400 7.05400 32.48000
H  39.08500 7.35900 26.03300
H  44.88900 9.37100 26.93700
H  41.96500 8.43900 34.85300
H  39.09200 7.95200 34.39900
H  41.61300 6.37800 34.78900
H  40.33700 5.53400 33.82500
H  39.87600 5.88500 35.34000
H  39.73100 10.40300 34.12100
H  41.43600 10.86700 34.32000
H  40.22900 9.51700 36.71700
H  39.51000 11.03500 36.33700
H  35.95300 5.37800 30.62100
H  35.03000 6.76000 30.12400
H  36.01300 6.81300 31.59400
H  34.64100 6.09300 26.30700
H  34.58100 7.33900 27.61900
H  34.85600 5.56700 27.89800
H  40.89700 8.07700 24.62200
H  43.67400 7.47700 25.29600
H  40.43400 5.67700 24.63500
H  41.93500 5.33800 25.53400
H  42.06800 6.01000 23.95800
H  43.34000 9.13200 23.71100
H  43.90800 10.06300 25.07700
H  41.63200 10.84700 23.69900
H  42.37300 11.48200 25.15000
H  41.03700 10.29300 25.29900
H  46.42100 11.23800 28.43100
H  47.05400 9.61900 28.75000
H  47.04800 11.04100 30.05300
H  43.71200 11.05000 33.77900
H  46.78600 8.38800 35.55000
H  45.65000 8.67100 36.89700
H  46.92600 9.83500 36.71800

