158

Mg -0.77800 7.81900 27.04500
C  0.74500 9.85100 29.54200
C  -0.92300 5.28800 29.33600
C  -1.70800 5.71000 24.56900
C  0.12600 10.16400 24.67000
N  0.19500 7.47000 29.20100
C  0.43800 8.58600 30.04400
C  0.26600 8.16100 31.55000
C  -0.03700 6.59700 31.42500
C  -0.34200 6.43500 29.90400
C  1.26400 5.69900 31.85500
C  -1.01300 8.91000 32.10000
C  -1.14700 8.89900 33.60900
H  -0.00400 8.50400 34.53900
N  -1.32000 5.79800 26.95800
C  -1.38200 4.95600 28.05700
C  -1.95400 3.66600 27.67100
C  -2.19000 3.79700 26.22600
C  -1.72300 5.11400 25.84800
C  -2.27500 2.61000 28.67000
C  -2.69000 2.72000 25.27000
O  -2.75700 2.89000 24.05700
C  -3.11200 1.45600 25.97300
N  -0.76200 7.94100 24.90300
C  -1.29000 6.96700 24.12800
C  -1.47500 7.44600 22.61500
C  -0.90000 8.88400 22.68500
C  -0.50500 9.00200 24.18900
C  -0.76700 6.50800 21.62200
C  -1.87300 9.88500 22.03500
C  -1.27200 11.01100 21.22900
N  0.11200 9.65500 27.09100
C  0.50200 10.46600 26.02100
C  1.21700 11.63500 26.52800
C  1.16300 11.44900 27.90600
C  0.60900 10.22700 28.18200
C  1.57000 12.95000 25.80300
C  1.47900 12.06300 29.09400
O  2.02900 13.13000 29.23100
C  1.21800 11.07100 30.28300
C  2.43100 10.93800 31.09400
O  3.52900 10.34300 30.86600
O  2.28400 11.82400 32.14400
C  3.17500 11.62900 33.29400
H  -1.11800 4.58800 30.15100
H  -2.07200 5.04200 23.78600
H  0.33200 10.98800 23.98300
H  1.14200 8.31400 32.17900
H  -0.96100 6.26000 31.89500
H  1.07700 5.00400 32.67300
H  2.12700 6.32100 32.09400
H  1.54500 5.15600 30.95300
H  -1.91100 8.36600 31.80800
H  -1.18000 9.91800 31.72000
H  -2.05800 8.39100 33.92500
H  -1.31100 9.89300 34.02600
H  -1.79700 1.64600 28.49400
H  -3.33100 2.38500 28.52100
H  -2.16200 2.80600 29.73600
H  -2.31700 0.86000 26.42000
H  -3.52600 0.78500 25.22000
H  -3.86100 1.85600 26.65600
H  -2.54900 7.35100 22.45400
H  0.09200 8.97400 22.24200
H  0.04500 7.00000 21.08600
H  -1.54800 6.30400 20.88900
H  -0.31900 5.65900 22.13800
H  -2.57300 10.17800 22.81800
H  -2.52800 9.34100 21.35400
H  -1.89600 11.84800 21.54000
H  -1.42500 10.77200 20.17700
H  -0.22200 11.21800 21.43500
H  0.71600 13.51200 25.42300
H  2.18600 12.79400 24.91700
H  2.07000 13.64000 26.48200
H  0.35100 11.58400 30.70000
H  2.69800 11.46800 34.26100
H  3.68400 12.59200 33.32900
H  3.85500 10.80900 33.06200
Mg 40.88700 8.83600 29.37600
C  42.59500 10.18800 32.18600
C  38.51300 7.72600 31.54900
C  39.27200 7.81200 26.64200
C  43.48700 10.06400 27.39500
N  40.59600 8.97100 31.62200
C  41.34600 9.66700 32.55000
C  40.70700 9.58200 33.90200
C  39.44100 8.67300 33.68400
C  39.51300 8.43900 32.21900
C  39.37900 7.45200 34.59500
C  40.36400 10.99500 34.49600
C  39.87800 10.97300 35.95900
H  40.69600 11.78000 37.05900
N  39.17800 7.80500 29.13700
C  38.33200 7.45000 30.16200
C  37.05600 6.87100 29.48500
C  37.14100 7.01600 28.06300
C  38.55800 7.52600 27.90600
C  36.14500 6.00100 30.26800
C  36.13300 6.68300 27.01800
O  36.39100 6.76400 25.81600
C  34.78800 6.30800 27.46300
N  41.41900 8.62100 27.36100
C  40.54000 8.22900 26.42000
C  41.12100 8.43200 25.00600
C  42.22200 9.46100 25.26800
C  42.43200 9.37500 26.72800
C  41.64400 7.13200 24.39200
C  41.71600 10.84600 24.90000
C  42.10600 11.36400 23.53900
N  42.75600 9.69200 29.70300
C  43.64500 10.20500 28.76500
C  44.81700 10.75800 29.43000
C  44.49900 10.66900 30.79700
C  43.17300 10.14300 30.89200
C  46.07000 11.32700 28.91500
C  44.88500 11.11000 32.12000
O  45.91500 11.64800 32.51700
C  43.63200 10.84800 33.03100
C  44.14600 9.94800 34.08300
O  44.83400 8.96000 33.92000
O  43.78100 10.41900 35.31300
C  44.21500 9.70200 36.47300
H  37.70300 7.47500 32.23800
H  38.69700 7.50700 25.76600
H  44.13900 10.67000 26.76200
H  41.43400 9.14200 34.58400
H  38.48000 9.16000 33.85100
H  38.40600 7.45400 35.08500
H  40.12600 7.38900 35.38600
H  39.41200 6.66600 33.84100
H  39.61300 11.33200 33.78100
H  41.35800 11.42000 34.35500
H  40.02500 9.92300 36.21000
H  38.83600 11.29000 36.01200
H  36.44100 6.09100 31.31400
H  36.12200 4.95400 29.96700
H  35.13000 6.38900 30.36100
H  34.79200 5.34100 27.96600
H  34.11600 6.30800 26.60400
H  34.47700 7.06400 28.18500
H  40.25100 8.74800 24.43000
H  43.17100 9.23900 24.78000
H  42.71600 6.94700 24.45400
H  41.36200 6.95300 23.35400
H  41.17800 6.29000 24.90500
H  42.00600 11.53700 25.69200
H  40.63500 10.92800 25.01600
H  41.17200 11.56900 23.01600
H  42.59800 10.48100 23.12900
H  42.76800 12.22500 23.63000
H  46.81900 11.18700 29.69500
H  45.97000 12.36700 28.60500
H  46.49200 10.69900 28.13100
H  43.23800 11.78900 33.41500
H  45.25100 10.01700 36.59600
H  44.16800 8.63100 36.27700
H  43.56800 10.15200 37.22600

