158

Mg 7.36100 3.21400 28.17600
C  8.80800 1.77600 31.12500
C  5.38500 5.07000 30.11800
C  6.02600 4.36300 25.33200
C  9.02000 0.75500 26.38000
N  7.08100 3.38500 30.40900
C  7.84000 2.76700 31.38500
C  7.55600 3.40100 32.76800
C  6.41300 4.43000 32.38700
C  6.25000 4.35900 30.91200
C  5.17100 4.28200 33.28500
C  8.84200 4.00200 33.27700
C  8.76200 5.08600 34.40900
H  9.36600 4.81200 35.76200
N  5.90700 4.61600 27.78200
C  5.17000 5.17200 28.72600
C  4.20700 6.03700 28.05100
C  4.47100 5.88900 26.61600
C  5.51400 4.94300 26.51400
C  3.25400 6.89500 28.78700
C  3.82400 6.56000 25.47100
O  4.11100 6.41300 24.31000
C  2.81500 7.70700 25.75700
N  7.35800 2.61400 26.22100
C  6.84800 3.32700 25.15700
C  7.22600 2.84000 23.80800
C  8.07800 1.62100 24.14600
C  8.10200 1.58100 25.71000
C  6.09000 2.67800 22.70500
C  9.56400 1.54900 23.55400
C  10.61200 2.32900 24.30800
N  8.72100 1.62200 28.59500
C  9.33100 0.77000 27.72400
C  10.24900 -0.10200 28.40000
C  10.09100 0.22400 29.79800
C  9.08700 1.32100 29.84500
C  11.12900 -1.14200 27.93700
C  10.48500 -0.07300 31.16300
O  11.35000 -0.79600 31.59100
C  9.72500 0.99400 32.05500
C  9.02900 0.28100 33.15300
O  7.95900 -0.32500 33.01300
O  9.79000 0.23900 34.31400
C  9.29300 -0.49200 35.53700
H  4.74500 5.66600 30.77200
H  5.73100 4.85400 24.40200
H  9.52500 -0.06100 25.85800
H  7.23800 2.66000 33.50100
H  6.71800 5.45300 32.61000
H  4.69500 5.22800 33.54100
H  5.46200 3.80700 34.22200
H  4.44600 3.59000 32.85600
H  9.36700 4.52400 32.47800
H  9.57100 3.30200 33.68600
H  7.69400 5.16800 34.60900
H  9.09400 6.05300 34.03200
H  3.10600 6.59300 29.82400
H  2.26800 6.77800 28.33800
H  3.47700 7.95900 28.70800
H  1.85200 7.20200 25.82700
H  2.91200 8.36700 24.89400
H  3.10100 8.30800 26.62100
H  7.88100 3.65400 23.49700
H  7.57800 0.76700 23.68900
H  5.14100 2.68100 23.24100
H  6.10200 1.70700 22.21000
H  6.17900 3.47800 21.97100
H  9.61600 1.81200 22.49800
H  9.93300 0.52700 23.63800
H  10.21400 3.08600 24.98300
H  11.23300 2.77200 23.52900
H  11.20700 1.68800 24.95900
H  11.70100 -0.81600 27.06900
H  10.53200 -2.04200 27.78900
H  11.83100 -1.33900 28.74800
H  10.40100 1.66600 32.58500
H  10.06900 -1.12500 35.96700
H  8.46200 -1.18700 35.41900
H  9.12400 0.33500 36.22700
Mg -13.50700 15.47000 41.81500
C  -10.51300 13.75100 41.54200
C  -12.08900 18.07200 40.07000
C  -16.57800 16.90700 41.32100
C  -14.86300 12.66500 43.42000
N  -11.56500 15.75600 40.84600
C  -10.47700 15.01400 40.91900
C  -9.29500 15.58000 40.09700
C  -9.70900 17.01100 39.89200
C  -11.24000 16.97000 40.26400
C  -8.86400 18.07500 40.51200
C  -8.99400 14.70700 38.82200
C  -7.54700 14.20900 38.58800
H  -6.75600 14.95800 37.47100
N  -14.20800 17.31600 40.87100
C  -13.45900 18.23900 40.22800
C  -14.31900 19.28600 39.71000
C  -15.63400 18.94000 40.03100
C  -15.53300 17.69500 40.82600
C  -13.75600 20.43400 38.85100
C  -16.88000 19.67500 39.56100
O  -16.85400 20.69600 38.90100
C  -18.30200 19.17500 39.81000
N  -15.43500 14.78000 42.19200
C  -16.53100 15.64100 41.95800
C  -17.82100 14.89600 42.41000
C  -17.24200 13.74300 43.33600
C  -15.76000 13.65700 42.93600
C  -18.94100 15.75500 43.09700
C  -18.04100 12.38300 43.29200
C  -17.74700 11.63100 42.00100
N  -12.86100 13.50000 42.41500
C  -13.51200 12.46700 43.05800
C  -12.64300 11.39100 43.24400
C  -11.39800 11.81800 42.69800
C  -11.58600 13.11200 42.22800
C  -12.93900 10.03200 43.85100
C  -9.98000 11.42600 42.45200
O  -9.34100 10.35400 42.61800
C  -9.34400 12.76800 41.75500
C  -8.20400 13.41000 42.61000
O  -8.29900 14.29700 43.45600
O  -6.96800 12.89100 42.18700
C  -5.81800 13.63700 42.64700
H  -11.58000 18.92100 39.61000
H  -17.54500 17.41400 41.30800
H  -15.29700 11.87400 44.03600
H  -8.49200 15.55700 40.83300
H  -9.61700 17.19700 38.82200
H  -8.62000 18.77700 39.71400
H  -7.89300 17.62300 40.71300
H  -9.31500 18.48100 41.41800
H  -9.36100 15.26200 37.95800
H  -9.68200 13.86200 38.80000
H  -7.49800 13.13300 38.42000
H  -6.85100 14.37900 39.40900
H  -14.11100 20.39300 37.82100
H  -12.67800 20.46100 38.69100
H  -14.02000 21.39700 39.28800
H  -18.40600 18.12800 39.52500
H  -18.98300 19.77100 39.20300
H  -18.56900 19.33900 40.85400
H  -18.13200 14.45200 41.46400
H  -17.31500 13.97000 44.39900
H  -19.23200 15.35600 44.06900
H  -19.86000 15.86900 42.52100
H  -18.54800 16.76300 43.22900
H  -19.06500 12.75700 43.27200
H  -17.70900 11.85100 44.18300
H  -18.70700 11.39800 41.54000
H  -17.35100 10.65200 42.27100
H  -17.31400 12.19700 41.17700
H  -13.35100 10.26900 44.83200
H  -12.01700 9.46300 43.73400
H  -13.71800 9.54300 43.26500
H  -8.93500 12.46500 40.79200
H  -6.04900 14.28300 43.49400
H  -5.47000 14.27500 41.83500
H  -5.06200 12.91800 42.96200

