158

Mg 35.38000 2.76400 29.38500
C  33.08400 3.96100 32.02300
C  37.82800 2.54200 31.97800
C  37.34400 1.73900 27.16600
C  32.64100 2.98900 27.24400
N  35.40800 3.19500 31.73600
C  34.33500 3.53600 32.54500
C  34.78100 3.59900 33.97200
C  36.30500 3.27400 33.96300
C  36.58200 3.04000 32.46900
C  37.25200 4.44600 34.54300
C  33.88800 2.62800 34.86700
C  33.98200 2.83600 36.38200
H  34.74000 4.01800 37.01400
N  37.29500 2.34600 29.52500
C  38.12200 2.21000 30.62800
C  39.42200 1.79500 30.16500
C  39.31500 1.36300 28.81500
C  37.97100 1.85700 28.43400
C  40.61200 1.59300 31.04500
C  40.31300 0.67500 27.98300
O  40.07600 0.36100 26.87500
C  41.56900 0.17700 28.53100
N  35.09000 2.57300 27.39800
C  36.08000 2.00500 26.74400
C  35.63300 1.86100 25.25500
C  34.05400 1.95400 25.30500
C  33.93400 2.57000 26.69000
C  36.34300 2.78000 24.23200
C  33.31900 0.56500 25.17600
C  32.18300 0.64300 24.18800
N  33.39800 3.39100 29.52200
C  32.39100 3.52800 28.51500
C  31.20700 4.14300 28.99600
C  31.44200 4.32500 30.32500
C  32.74700 3.81000 30.59700
C  29.98400 4.33600 28.22300
C  30.86600 4.94600 31.51900
O  29.90600 5.62600 31.74800
C  31.91800 4.65100 32.64800
C  32.21700 5.94800 33.37800
O  32.76500 6.90400 32.80200
O  31.56600 5.98100 34.58400
C  31.32000 7.34000 35.10600
H  38.55000 2.41400 32.78800
H  37.91500 1.24600 26.37700
H  31.81900 2.99400 26.52400
H  34.67600 4.60000 34.39100
H  36.40000 2.36400 34.55600
H  38.17400 4.40100 33.96400
H  37.64300 4.15800 35.51900
H  36.77800 5.42300 34.63900
H  34.35100 1.65800 34.68700
H  32.84700 2.63900 34.54400
H  34.25200 1.90700 36.88500
H  32.98900 3.05700 36.77300
H  40.34900 1.80000 32.08200
H  41.50700 2.18300 30.85000
H  40.98800 0.57400 30.94600
H  41.39400 -0.55300 29.32100
H  42.25500 1.00900 28.69100
H  41.92300 -0.44500 27.70900
H  35.88600 0.84800 24.94200
H  33.66300 2.66000 24.57200
H  35.71200 3.27300 23.49200
H  37.08600 2.20500 23.68100
H  36.67700 3.73600 24.63600
H  32.86600 0.32200 26.13700
H  34.02800 -0.23200 24.94900
H  32.29300 -0.08300 23.38200
H  32.06000 1.55500 23.60400
H  31.33600 0.27500 24.76700
H  29.09600 4.44500 28.84500
H  29.76000 3.34800 27.82100
H  30.03000 5.14300 27.49200
H  31.55500 3.88600 33.33500
H  32.17700 7.59400 35.72900
H  30.37200 7.24700 35.63600
H  31.27200 8.14300 34.37000
Mg -12.01400 37.69300 41.92500
C  -10.23900 34.70000 41.29600
C  -9.39800 39.44500 40.55800
C  -14.09700 40.31900 41.68300
C  -14.64100 35.77600 42.95900
N  -9.99100 37.12600 41.11600
C  -9.50500 35.84700 40.90900
C  -8.09700 35.98700 40.21600
C  -7.71300 37.48500 40.39800
C  -9.12500 38.09200 40.79200
C  -6.53700 37.81100 41.41700
C  -8.12800 35.44200 38.72000
C  -6.97200 34.49900 38.52200
H  -5.79200 35.10500 37.79700
N  -11.76400 39.59600 41.25500
C  -10.60800 40.15600 40.73800
C  -10.81500 41.58600 40.50400
C  -12.23000 41.74600 40.56300
C  -12.78500 40.52300 41.14100
C  -9.67800 42.55400 40.00300
C  -12.94000 43.00500 40.20100
O  -12.21500 43.92600 39.78700
C  -14.36100 43.29200 40.36600
N  -14.14800 38.04600 42.38700
C  -14.74700 39.24600 42.26800
C  -16.29400 39.22400 42.48500
C  -16.38300 37.69800 43.09300
C  -15.00500 37.12400 42.75100
C  -16.90900 40.20500 43.46600
C  -17.53900 36.80500 42.45400
C  -17.84400 36.95300 40.96000
N  -12.39500 35.71900 42.14600
C  -13.46200 35.06800 42.71200
C  -13.18900 33.64700 42.79700
C  -11.92800 33.44700 42.22600
C  -11.48500 34.73000 41.81800
C  -14.11300 32.67200 43.46400
C  -10.87000 32.42300 41.83500
O  -10.79600 31.21200 41.90500
C  -9.71200 33.29500 41.14900
C  -8.35200 33.01100 41.71100
O  -7.49800 32.35700 41.15500
O  -8.23600 33.52000 43.02200
C  -7.25600 32.90300 43.86800
H  -8.58900 40.00400 40.08300
H  -14.72300 41.21300 41.63900
H  -15.51200 35.17900 43.24000
H  -7.48400 35.40700 40.90600
H  -7.30600 37.81500 39.44300
H  -6.94200 37.85200 42.42800
H  -6.02600 38.76700 41.30300
H  -5.73900 37.09400 41.22400
H  -8.11200 36.23100 37.96900
H  -9.04900 34.86100 38.66900
H  -7.31300 33.60500 37.99800
H  -6.48200 34.16200 39.43500
H  -9.71300 42.69100 38.92200
H  -8.66600 42.15500 40.07700
H  -9.79700 43.53800 40.45800
H  -14.91700 42.42900 40.00000
H  -14.75600 44.09700 39.74700
H  -14.53300 43.52300 41.41800
H  -16.80000 39.28800 41.52200
H  -16.55400 37.66900 44.16900
H  -17.66200 40.82500 42.97900
H  -16.17500 40.72200 44.08300
H  -17.42400 39.64900 44.25000
H  -18.44400 37.01800 43.02400
H  -17.34800 35.73800 42.56700
H  -17.01600 37.51200 40.52400
H  -18.79000 37.48200 40.84200
H  -18.01400 35.98200 40.49500
H  -15.02300 32.38100 42.93800
H  -14.31700 33.17300 44.41000
H  -13.56600 31.77100 43.74100
H  -9.75700 32.99800 40.10100
H  -7.30200 31.82400 43.72100
H  -7.45300 33.21600 44.89400
H  -6.25000 33.23600 43.61200

