158

Mg 36.71600 2.48400 30.04000
C  34.27400 3.37300 32.49300
C  39.12800 2.58800 32.49400
C  38.93700 1.95900 27.71600
C  34.20000 2.89000 27.57700
N  36.71200 2.94100 32.24300
C  35.54700 3.19300 33.03600
C  35.90900 3.13500 34.57400
C  37.47000 3.04400 34.46600
C  37.79200 2.78200 33.01500
C  38.13800 4.31800 34.99000
C  35.30000 1.79200 35.23700
C  34.40900 2.00400 36.40400
H  35.02000 2.88800 37.50500
N  38.79500 2.19300 30.09000
C  39.62200 2.37100 31.14200
C  41.03900 2.14700 30.73000
C  41.01800 2.01400 29.34100
C  39.55100 2.02100 28.98400
C  42.12400 2.03200 31.75500
C  42.07200 1.98700 28.35900
O  41.93600 1.75400 27.19100
C  43.51700 1.98500 28.86000
N  36.56900 2.33600 27.95100
C  37.61900 2.10300 27.24400
C  37.24600 1.74700 25.77200
C  35.72400 2.21900 25.72700
C  35.43200 2.44900 27.16100
C  38.16200 2.33700 24.64900
C  34.72600 1.31200 25.02400
C  33.69500 2.06400 24.14800
N  34.69700 3.04300 29.98200
C  33.83600 3.12100 28.92100
C  32.52600 3.44600 29.48200
C  32.72000 3.55600 30.82100
C  34.07000 3.31000 31.10000
C  31.25400 3.59600 28.80100
C  32.02700 3.83000 32.07800
O  30.90500 4.08500 32.21600
C  33.08000 3.70000 33.23600
C  33.04000 4.88200 34.08100
O  33.73700 5.91100 33.92800
O  32.24800 4.60700 35.20400
C  32.21800 5.69800 36.19300
H  39.86900 2.64200 33.29400
H  39.62100 1.75800 26.89000
H  33.38700 3.10000 26.87800
H  35.59300 4.09700 34.97700
H  37.85900 2.20500 35.04300
H  37.55000 5.23200 34.90400
H  38.96900 4.64700 34.36600
H  38.47300 4.18900 36.02000
H  36.15400 1.24400 35.63500
H  34.82300 1.21800 34.44200
H  34.21200 1.02700 36.84700
H  33.48800 2.50300 36.10100
H  42.43100 3.02500 32.08300
H  43.02100 1.53200 31.39000
H  41.87200 1.35300 32.56900
H  44.14700 2.06200 27.97400
H  43.56500 1.04000 29.40200
H  43.74800 2.92900 29.35300
H  37.17600 0.65900 25.78400
H  35.61900 3.24600 25.37800
H  38.92200 1.59800 24.39600
H  38.73900 3.15900 25.07200
H  37.56600 2.58900 23.77100
H  34.23700 0.61600 25.70600
H  35.31000 0.88500 24.20800
H  34.15600 2.87100 23.58000
H  32.96700 2.49900 24.83400
H  33.25100 1.29000 23.52200
H  30.83000 2.62900 28.52900
H  31.30600 4.12900 27.85200
H  30.58500 4.18500 29.42900
H  32.72000 2.82600 33.77900
H  31.77300 6.52100 35.63500
H  33.21700 5.95900 36.54400
H  31.60900 5.48900 37.07200
Mg 48.10800 16.39000 28.87100
C  45.70400 16.07400 31.32100
C  49.99600 18.34800 31.29300
C  50.32000 16.91100 26.61900
C  45.86100 14.88100 26.59900
N  47.81000 17.25800 30.97200
C  46.79500 16.79800 31.77400
C  46.98300 17.22600 33.25700
C  48.09300 18.31300 33.08500
C  48.70900 17.92800 31.68800
C  47.68800 19.78700 33.21800
C  47.35200 16.10500 34.24600
C  47.11700 16.36300 35.77000
H  46.87300 17.89900 36.21300
N  49.97300 17.33900 28.96300
C  50.60400 18.14800 29.98400
C  51.89800 18.46800 29.53300
C  51.99700 18.16600 28.17000
C  50.74200 17.45900 27.85100
C  52.81800 19.23100 30.50000
C  53.21900 18.50700 27.16800
O  53.19600 18.13300 25.99200
C  54.33400 19.38000 27.53800
N  48.03400 15.98300 26.89400
C  49.12800 16.29300 26.16800
C  49.07800 15.56400 24.82600
C  47.71500 14.78200 24.83400
C  47.13800 15.28000 26.19200
C  49.24000 16.48400 23.61900
C  47.76700 13.27000 24.72900
C  47.92100 12.61900 23.32700
N  46.21900 15.57400 28.92100
C  45.40200 15.03900 27.89400
C  44.09200 14.71200 28.43400
C  44.18100 15.08000 29.79000
C  45.50300 15.55800 29.99300
C  42.99900 14.14800 27.69400
C  43.47700 15.06900 31.03300
O  42.35600 14.61100 31.36900
C  44.42400 15.67700 32.05300
C  43.62600 16.80900 32.60500
O  43.36900 17.83400 32.03400
O  43.00900 16.42900 33.80000
C  42.35100 17.49900 34.50600
H  50.54400 18.92000 32.04600
H  51.00400 16.85100 25.77000
H  45.27200 14.38200 25.82700
H  46.04900 17.66000 33.61500
H  48.92600 18.16300 33.77100
H  46.65400 20.05400 33.43500
H  48.18300 20.29100 32.38800
H  48.17200 20.21800 34.09400
H  48.40500 15.85500 34.11700
H  46.78000 15.18600 34.12200
H  47.87900 15.85300 36.35800
H  46.19200 15.81800 35.96100
H  52.78300 20.16700 29.94300
H  53.83700 18.88100 30.66700
H  52.41600 19.61800 31.43700
H  53.90500 20.36100 27.74100
H  55.02600 19.55600 26.71500
H  54.83600 18.91200 28.38500
H  49.84100 14.78700 24.87200
H  47.07500 15.02800 23.98600
H  48.73200 16.08100 22.74200
H  50.30900 16.42700 23.41800
H  48.97100 17.53200 23.75700
H  46.91900 12.73200 25.15200
H  48.66600 13.08300 25.31700
H  48.90600 12.15400 23.28800
H  48.02500 13.43700 22.61500
H  47.21200 11.84800 23.02600
H  42.39300 13.64500 28.44800
H  43.42700 13.41500 27.01000
H  42.37900 14.87100 27.16500
H  44.67500 14.92400 32.80000
H  41.50100 17.97700 34.01800
H  43.10800 18.27100 34.64000
H  42.22200 17.01400 35.47300

