158

Mg 46.63100 16.41700 28.73300
C  44.99500 16.51100 31.91000
C  49.16500 18.36000 30.17800
C  47.77700 17.18500 25.66900
C  43.71200 15.07000 27.37700
N  47.01100 17.33000 30.78500
C  46.23600 17.21000 31.92700
C  46.91100 17.79800 33.23400
C  48.19400 18.53300 32.61400
C  48.15500 18.06300 31.11100
C  48.11500 20.13800 32.68400
C  47.28200 16.65500 34.26000
C  46.65900 16.95600 35.67500
H  46.67500 18.35000 36.33800
N  48.35800 17.41800 28.05500
C  49.27300 18.12400 28.78400
C  50.33400 18.64400 27.96100
C  49.84300 18.37800 26.61200
C  48.61500 17.60800 26.69700
C  51.67500 19.25000 28.52100
C  50.45900 18.68200 25.29200
O  50.03200 18.31400 24.22100
C  51.77300 19.34600 25.28600
N  45.92100 16.11600 26.71400
C  46.56500 16.54900 25.65800
C  45.81300 16.20900 24.36300
C  44.54100 15.43700 24.94700
C  44.68800 15.53400 26.46400
C  45.55600 17.38600 23.39900
C  44.36200 13.94000 24.44500
C  45.33300 12.90700 25.07400
N  44.72000 15.82500 29.43600
C  43.68700 15.21400 28.79100
C  42.71700 14.83000 29.85500
C  43.24000 15.31100 31.04700
C  44.39200 15.89700 30.72700
C  41.45700 14.05900 29.70300
C  42.91500 15.50300 32.51300
O  41.91300 15.14900 33.11400
C  44.12100 16.21200 33.11200
C  43.55700 17.38900 33.70100
O  43.47100 18.51500 33.17400
O  43.20400 17.10500 35.00000
C  42.49700 18.14800 35.78700
H  49.87600 19.15000 30.42700
H  47.96600 17.56000 24.66100
H  42.76600 14.61600 27.07500
H  46.10800 18.39200 33.67100
H  49.13100 18.22000 33.07400
H  47.64400 20.48700 33.60300
H  47.64300 20.48500 31.76500
H  49.10000 20.60300 32.72900
H  48.33800 16.53900 34.50400
H  46.90300 15.70800 33.87600
H  47.19400 16.23700 36.29600
H  45.62800 16.61100 35.59800
H  52.52200 18.66300 28.16700
H  51.84400 19.31900 29.59500
H  51.82400 20.23600 28.07900
H  51.58500 20.27300 25.82700
H  52.06500 19.69000 24.29400
H  52.53700 18.82000 25.85800
H  46.38600 15.37900 23.94900
H  43.64400 15.98500 24.66000
H  45.83500 18.38400 23.73500
H  44.53100 17.43600 23.03200
H  46.05100 17.06400 22.48300
H  44.57100 13.97700 23.37600
H  43.32500 13.67000 24.64500
H  46.31000 13.31300 25.33700
H  45.45200 12.02100 24.45100
H  44.93600 12.51800 26.01100
H  41.61500 12.99900 29.90100
H  41.04700 14.20500 28.70300
H  40.70600 14.49700 30.36100
H  44.64600 15.56400 33.81500
H  42.64200 17.85400 36.82700
H  41.44500 18.37600 35.62000
H  42.90500 19.14900 35.64200
Mg 49.59400 45.54200 42.86500
C  46.20700 45.19000 42.09300
C  49.99700 42.23600 41.97300
C  52.93700 45.87600 43.20900
C  49.26300 49.03000 43.00200
N  48.24400 43.91500 42.00100
C  46.87200 43.98300 41.92500
C  46.25000 42.69000 41.53200
C  47.44600 41.72400 41.59100
C  48.68300 42.62600 41.87600
C  47.21200 40.60100 42.64000
C  45.50000 42.69500 40.13800
C  46.08200 43.58000 38.98300
H  46.09400 42.92600 37.56400
N  51.25000 44.24400 42.70200
C  51.18000 42.92700 42.36200
C  52.52700 42.34700 42.47700
C  53.42000 43.43900 42.75000
C  52.53200 44.60500 42.84900
C  52.72200 40.94500 42.10100
C  54.89500 43.41500 42.77000
O  55.45700 42.34700 42.90400
C  55.88200 44.65800 42.78200
N  50.91200 47.18700 43.08300
C  52.25900 47.04500 43.22300
C  53.01700 48.38500 43.46400
C  51.78300 49.48500 43.38500
C  50.62800 48.53300 43.05800
C  53.87200 48.56300 44.71000
C  51.98000 50.54500 42.25100
C  51.96700 50.04600 40.80200
N  48.08000 46.88200 42.64700
C  48.03200 48.22700 42.72500
C  46.68600 48.75100 42.54700
C  45.92100 47.58100 42.26200
C  46.80000 46.46900 42.29400
C  46.24900 50.18500 42.64300
C  44.63100 47.01500 42.08200
O  43.57200 47.55200 42.09700
C  44.74000 45.46000 41.94600
C  43.82700 44.89500 42.96800
O  42.62100 44.71200 42.79400
O  44.43600 44.67400 44.17300
C  43.69000 44.13100 45.32900
H  50.28000 41.19000 41.83900
H  53.98100 46.08800 43.45000
H  49.05600 50.10200 43.01700
H  45.44800 42.52200 42.25200
H  47.57000 41.21500 40.63500
H  46.32700 40.79100 43.24700
H  48.07600 40.42200 43.28000
H  46.96300 39.68500 42.10300
H  44.51500 43.11800 40.33600
H  45.41500 41.64300 39.86700
H  47.06100 44.02500 39.16000
H  45.49200 44.47800 38.79900
H  52.54900 40.74000 41.04500
H  52.18400 40.27100 42.76800
H  53.79200 40.75400 42.18700
H  55.95900 45.01700 43.80900
H  55.43500 45.48200 42.22700
H  56.86900 44.38000 42.41100
H  53.63100 48.41300 42.56400
H  51.51300 49.88900 44.36100
H  54.92800 48.37300 44.51900
H  53.55100 47.92600 45.53500
H  53.73300 49.59200 45.04100
H  52.83400 51.21700 42.33500
H  51.19000 51.28300 42.39000
H  52.27900 49.00500 40.72100
H  52.73000 50.57600 40.23300
H  51.02200 50.21700 40.28600
H  45.23200 50.31300 42.27400
H  46.90400 50.72700 41.96100
H  46.43900 50.57600 43.64300
H  44.32900 45.23400 40.96200
H  43.34500 43.10300 45.21500
H  42.83200 44.76100 45.56300
H  44.38600 44.09500 46.16700

