158

Mg 44.38700 3.33900 48.26500
C  41.82800 5.81500 47.79000
C  41.99800 0.95000 48.01900
C  46.94300 1.16000 48.44700
C  46.66300 6.11800 48.21700
N  42.15900 3.42800 47.86600
C  41.29400 4.50900 47.77800
C  39.91300 4.04900 47.34800
C  39.88900 2.52600 47.61300
C  41.43100 2.23700 47.85500
C  38.94000 2.13700 48.80400
C  39.70100 4.25700 45.81400
C  38.45900 5.05900 45.31400
H  38.75700 6.07900 44.14900
N  44.42100 1.30900 48.27100
C  43.31000 0.47500 48.12300
C  43.78700 -0.88800 48.09100
C  45.23800 -0.84600 48.06600
C  45.61100 0.57000 48.21400
C  42.88000 -2.10800 48.00800
C  46.12100 -2.06500 48.00100
O  45.59800 -3.11300 47.80900
C  47.63200 -1.98300 48.09800
N  46.59800 3.60400 48.21800
C  47.36300 2.51100 48.49300
C  48.68100 3.04800 49.18100
C  48.77300 4.53200 48.61900
C  47.23200 4.83800 48.38100
C  48.53200 3.09800 50.72500
C  49.68000 4.92500 47.36900
C  50.87800 5.86300 47.76300
N  44.34000 5.54600 48.07700
C  45.32900 6.47600 48.09500
C  44.79600 7.83500 48.06000
C  43.40700 7.60600 47.98900
C  43.16300 6.22100 47.99500
C  45.55300 9.12600 48.00800
C  42.06800 8.21600 47.98100
O  41.67800 9.42400 48.14200
C  41.08000 7.12600 47.64700
C  39.91300 7.23600 48.51300
O  39.77900 6.75400 49.63000
O  38.93100 7.94000 47.78900
C  37.62300 8.04700 48.43600
H  41.22000 0.19200 47.91000
H  47.81500 0.51500 48.57000
H  47.38500 6.90700 48.43800
H  39.12000 4.53300 47.91700
H  39.59400 1.89700 46.77300
H  38.53900 3.03800 49.26800
H  39.58500 1.76000 49.59700
H  38.25700 1.33000 48.54000
H  39.56400 3.29700 45.31700
H  40.61800 4.73500 45.46900
H  38.09800 5.75100 46.07500
H  37.66900 4.33600 45.11300
H  43.02800 -2.69500 47.10200
H  41.84400 -1.78000 47.92000
H  42.97000 -2.70400 48.91600
H  48.03900 -1.40000 47.27100
H  47.91200 -3.03600 48.10900
H  47.73000 -1.55900 49.09800
H  49.56400 2.45300 48.95000
H  49.23700 5.07700 49.44100
H  49.20700 2.39200 51.21100
H  47.50900 2.81200 50.96900
H  48.60100 4.07900 51.19400
H  49.20600 5.43300 46.53000
H  50.16800 4.04500 46.95000
H  50.60100 6.90700 47.61900
H  51.72800 5.74900 47.08900
H  51.06900 5.70600 48.82400
H  46.09300 9.36300 48.92600
H  44.86500 9.92700 47.73800
H  46.29000 9.07200 47.20700
H  40.70900 7.34000 46.64400
H  37.21400 7.23600 49.03800
H  36.87600 8.06800 47.64200
H  37.44700 8.98000 48.97200
Mg 36.51700 0.67800 29.58700
C  34.19700 1.83700 32.04400
C  39.00800 0.79600 31.90600
C  38.73000 -0.35800 27.21800
C  33.96300 0.76500 27.32300
N  36.59700 1.26800 31.69200
C  35.55400 1.75200 32.51800
C  36.06100 1.78300 33.99000
C  37.63800 1.67300 33.78300
C  37.75800 1.24000 32.31900
C  38.35900 2.99200 33.94400
C  35.47300 0.60800 34.85900
C  34.96800 0.95200 36.32900
H  35.54200 2.17000 37.05300
N  38.58900 0.22300 29.56500
C  39.41000 0.28700 30.62500
C  40.77300 -0.06200 30.22300
C  40.80100 -0.37100 28.86000
C  39.34900 -0.17700 28.50800
C  41.92100 -0.01500 31.20600
C  41.90200 -0.71000 27.86200
O  41.59300 -0.88300 26.66900
C  43.36200 -0.99800 28.25900
N  36.39300 0.49600 27.45300
C  37.40500 -0.15400 26.78000
C  36.89900 -0.44600 25.36800
C  35.31400 -0.35700 25.44900
C  35.23500 0.43300 26.83100
C  37.56400 0.50400 24.29200
C  34.50100 -1.71000 25.26900
C  33.67800 -1.84500 23.96400
N  34.47900 1.20500 29.58400
C  33.58900 1.15800 28.57600
C  32.33600 1.58800 29.07000
C  32.49200 1.89300 30.38200
C  33.86800 1.62200 30.68500
C  31.07300 1.55600 28.23200
C  31.87200 2.29100 31.57300
O  30.70300 2.68200 31.84100
C  32.91800 2.31400 32.73100
C  32.96800 3.64000 33.35400
O  33.40100 4.64100 32.88700
O  32.34100 3.49900 34.59800
C  32.47000 4.74700 35.40300
H  39.77300 0.64100 32.67000
H  39.30500 -0.86300 26.43900
H  33.22100 0.72800 26.52300
H  35.73300 2.70400 34.47100
H  38.24200 0.99900 34.39100
H  38.91600 2.86400 34.87300
H  37.64000 3.78900 34.13400
H  39.08000 3.30200 33.18800
H  36.13800 -0.24700 34.98100
H  34.56500 0.30800 34.33500
H  35.05400 0.05600 36.94400
H  33.90800 1.20000 36.39100
H  42.52900 -0.91900 31.21900
H  41.57900 0.06600 32.23800
H  42.59100 0.80600 30.94900
H  43.58800 -0.54000 29.22200
H  44.15300 -0.61600 27.61300
H  43.46400 -2.06000 28.48100
H  37.22100 -1.44200 25.06200
H  34.99100 0.31500 24.65400
H  36.75600 1.15600 23.95900
H  38.04700 -0.05200 23.48800
H  38.30300 1.12400 24.79900
H  33.76900 -1.72100 26.07600
H  35.17300 -2.55100 25.43700
H  34.04500 -1.00300 23.37700
H  32.60800 -1.74900 24.15200
H  33.91800 -2.71100 23.34600
H  30.27100 1.00300 28.72300
H  31.31100 1.10300 27.27000
H  30.73900 2.57200 28.02300
H  32.65400 1.62500 33.53300
H  31.85700 5.50800 34.92000
H  33.48600 5.05400 35.64900
H  31.85100 4.52100 36.27100

