158

Mg 0.21400 7.97200 26.27800
C  0.98100 9.73300 29.22100
C  0.20500 5.05300 28.19300
C  -0.20000 6.31500 23.48300
C  0.58900 10.94000 24.49700
N  0.46800 7.49100 28.33800
C  0.69400 8.37900 29.41800
C  0.57800 7.73700 30.77700
C  0.51000 6.20700 30.40400
C  0.47500 6.24000 28.87400
C  1.65900 5.36000 31.01400
C  -0.69600 8.28500 31.53000
C  -0.51900 8.42700 33.06600
H  0.71000 7.87200 33.87100
N  0.05800 6.00800 25.86000
C  0.01800 4.94600 26.81500
C  -0.33000 3.69800 26.11300
C  -0.31300 4.03800 24.72100
C  -0.15700 5.53600 24.64000
C  -0.51500 2.34000 26.85800
C  -0.60500 3.13200 23.51500
O  -0.56500 3.50500 22.36200
C  -1.06400 1.83800 23.78900
N  0.38400 8.53100 24.29100
C  -0.01400 7.66500 23.30500
C  -0.20300 8.27900 21.92500
C  -0.03700 9.81000 22.28100
C  0.30500 9.78200 23.77000
C  0.86600 7.75100 20.83500
C  -1.22900 10.69700 21.85000
C  -2.52200 10.61600 22.64000
N  0.80000 9.91700 26.70700
C  0.94600 10.98300 25.83800
C  1.36300 12.13800 26.57900
C  1.36500 11.70900 27.93700
C  1.04500 10.33600 27.95900
C  1.68400 13.50400 25.99100
C  1.55000 12.14000 29.27500
O  1.94700 13.18900 29.70000
C  1.26000 10.92600 30.14000
C  2.32400 10.76300 31.07300
O  3.24200 9.93600 30.99700
O  2.21200 11.70100 32.05900
C  3.19100 11.59600 33.15000
H  0.09900 4.14800 28.79400
H  -0.51600 5.77200 22.59000
H  0.82800 11.84900 23.94100
H  1.42200 8.06200 31.38500
H  -0.44600 5.75400 30.66900
H  1.28700 4.55500 31.64700
H  2.20600 5.89400 31.79100
H  2.39900 4.95400 30.32300
H  -1.34900 7.42900 31.35900
H  -1.08500 9.19700 31.07900
H  -1.38800 7.95000 33.51800
H  -0.56000 9.49400 33.28800
H  -1.26700 1.69900 26.39800
H  -0.84600 2.51600 27.88100
H  0.43800 1.82100 26.74900
H  -1.44000 1.32700 22.90200
H  -1.95400 2.10200 24.35900
H  -0.40400 1.19400 24.37100
H  -1.17900 7.99100 21.53500
H  0.83500 10.23900 21.78800
H  1.58500 7.03000 21.22600
H  1.52300 8.48000 20.36100
H  0.27400 7.13600 20.15700
H  -1.36400 10.54800 20.77900
H  -0.92100 11.73400 21.98200
H  -2.44700 9.80200 23.36000
H  -3.38100 10.44600 21.99100
H  -2.76300 11.52800 23.18700
H  0.67000 13.81800 25.74200
H  2.31200 13.36200 25.11100
H  2.04200 14.20500 26.74500
H  0.36200 11.06800 30.74200
H  4.05000 12.26500 33.09500
H  3.50200 10.57500 33.37300
H  2.59500 11.91600 34.00400
Mg 47.11300 16.55500 28.06900
C  45.08800 16.44400 30.90800
C  49.50900 18.30700 30.13700
C  48.89000 17.35900 25.28700
C  44.48300 15.36900 26.18700
N  47.27500 17.29000 30.29700
C  46.29700 17.04700 31.24100
C  46.78500 17.43300 32.64300
C  47.99100 18.38800 32.24700
C  48.27600 18.02600 30.77100
C  47.92100 19.93300 32.55600
C  47.15900 16.11400 33.39000
C  46.82500 16.26900 34.96800
H  46.82000 17.64700 35.63900
N  48.95900 17.46300 27.80600
C  49.85300 18.00000 28.80000
C  51.05200 18.41600 28.12500
C  50.93600 18.15900 26.74100
C  49.54100 17.67400 26.53600
C  52.25100 19.14100 28.85400
C  51.98100 18.28700 25.61600
O  51.67700 18.14400 24.41200
C  53.36500 18.60600 25.91700
N  46.85000 16.27200 26.04300
C  47.71300 16.66200 24.99300
C  47.07900 16.34900 23.64500
C  45.81000 15.48400 24.03000
C  45.63400 15.68400 25.52700
C  46.81400 17.62400 22.84400
C  45.96300 13.93100 23.78100
C  45.56600 13.59700 22.34700
N  45.22400 15.94200 28.42300
C  44.26000 15.39400 27.61800
C  43.11000 14.91800 28.36700
C  43.40300 15.34900 29.65800
C  44.65900 15.96800 29.65900
C  41.85900 14.18200 27.96600
C  42.83700 15.53100 30.94800
O  41.70800 15.25200 31.27600
C  44.03000 16.12600 31.91800
C  43.47900 17.22100 32.66300
O  43.43500 18.30900 32.15800
O  42.89200 16.86400 33.94100
C  42.36400 17.94800 34.73100
H  50.25800 18.82000 30.74500
H  49.26600 17.85200 24.38800
H  43.85400 14.66000 25.64500
H  46.00100 17.93600 33.21000
H  48.87200 17.97400 32.73700
H  47.87100 20.45300 31.60000
H  48.78100 20.33500 33.09100
H  47.08400 20.27300 33.16700
H  48.15800 15.71500 33.21700
H  46.47800 15.29400 33.16300
H  47.67300 15.72500 35.38600
H  45.92000 15.68900 35.14900
H  52.77300 18.49600 29.56100
H  51.82900 19.89100 29.52400
H  52.94200 19.56800 28.12800
H  53.57100 19.67500 25.88200
H  54.01300 18.03100 25.25500
H  53.69600 18.19200 26.86900
H  47.75900 15.64700 23.16100
H  44.93700 15.93200 23.55600
H  47.60900 17.93000 22.16400
H  46.85300 18.46000 23.54300
H  45.88500 17.62200 22.27500
H  45.41700 13.30000 24.48300
H  46.99100 13.63900 23.99400
H  46.43200 13.67000 21.69000
H  44.73600 14.25900 22.09700
H  45.19900 12.57700 22.45500
H  41.16500 14.05600 28.79700
H  42.14800 13.26200 27.45700
H  41.27800 14.84600 27.32800
H  44.32000 15.32200 32.59400
H  42.68000 18.90400 34.31300
H  42.61600 17.90100 35.79100
H  41.28200 18.01900 34.62300

