158

Mg 47.16700 25.48000 27.95300
C  48.04100 27.71800 30.65900
C  45.85700 23.37600 30.48900
C  46.65700 23.25500 25.60500
C  48.78600 27.62500 25.75200
N  47.10000 25.50000 30.31400
C  47.42100 26.56100 31.12400
C  46.89900 26.31000 32.58700
C  46.21600 24.84900 32.58000
C  46.47200 24.53200 31.06300
C  46.82500 23.76800 33.55800
C  45.86700 27.40700 33.19500
C  46.25000 28.05600 34.62300
H  45.24600 28.08500 35.67900
N  46.43900 23.61500 28.08600
C  45.86400 22.93700 29.15600
C  45.27200 21.71600 28.69700
C  45.52200 21.65700 27.27000
C  46.28900 22.87500 26.93800
C  44.75000 20.58900 29.58100
C  45.20100 20.48700 26.31000
O  45.25400 20.69900 25.10100
C  44.64000 19.16200 26.85200
N  47.94300 25.30100 26.03100
C  47.43500 24.37600 25.20100
C  47.70600 24.65900 23.71200
C  48.29900 26.08000 23.76800
C  48.30500 26.38100 25.27500
C  48.56500 23.63800 22.94500
C  47.52200 27.11600 22.88600
C  48.32800 28.16300 22.17100
N  48.13100 27.36000 28.12300
C  48.80300 28.07500 27.11500
C  49.48500 29.17500 27.67800
C  49.16200 29.15800 29.01400
C  48.33000 27.95100 29.25800
C  50.22400 30.29700 26.93100
C  49.23900 29.86900 30.22100
O  49.79500 30.94800 30.47300
C  48.50700 28.96400 31.37700
C  49.52500 28.73600 32.39900
O  50.61000 28.23500 32.17100
O  49.10900 29.14000 33.62400
C  50.26000 29.41900 34.50700
H  45.28000 22.81600 31.22800
H  46.38500 22.74000 24.68100
H  49.15800 28.23800 24.92800
H  47.72500 26.26400 33.29700
H  45.12800 24.85400 32.64600
H  46.03000 23.19000 34.03000
H  47.26600 24.34400 34.37200
H  47.60300 23.15700 33.10100
H  44.91500 26.90100 33.35900
H  45.75500 28.25100 32.51400
H  46.52100 29.10200 34.48300
H  47.16200 27.59200 34.99900
H  45.47500 19.77500 29.58200
H  43.75400 20.23500 29.31600
H  44.68000 20.97500 30.59800
H  45.31800 18.83100 27.63900
H  44.79800 18.47600 26.01900
H  43.60100 19.25700 27.16700
H  46.74500 24.68100 23.19800
H  49.38100 25.99900 23.66100
H  48.02300 23.15900 22.13000
H  48.72800 22.83400 23.66200
H  49.38400 24.22300 22.52700
H  46.80700 27.63000 23.52900
H  47.00200 26.58100 22.09100
H  48.41100 27.99400 21.09700
H  49.33300 28.14400 22.59100
H  47.90600 29.16700 22.19800
H  50.74300 29.82800 26.09500
H  50.75900 30.83300 27.71500
H  49.43500 30.90900 26.49400
H  47.70200 29.52600 31.85200
H  51.19100 29.72200 34.02700
H  50.48300 28.58200 35.16900
H  49.96500 30.28000 35.10700
Mg 1.18600 41.85300 25.29300
C  1.86500 42.11900 28.70400
C  -1.74900 40.31000 26.16400
C  0.77100 41.00200 22.03600
C  4.52500 42.59200 24.64700
N  0.16500 41.26000 27.21900
C  0.61900 41.59700 28.46700
C  -0.52800 41.47500 29.46300
C  -1.55700 40.63500 28.68600
C  -1.04100 40.72800 27.28500
C  -1.67300 39.14000 29.11000
C  -0.96800 42.88100 29.96700
C  -2.40400 42.81700 30.53400
H  -2.70000 41.81100 31.52800
N  -0.40700 40.92100 24.19200
C  -1.51900 40.34900 24.76500
C  -2.36100 39.94900 23.62100
C  -1.57500 40.04100 22.41900
C  -0.35500 40.67400 22.85100
C  -3.74400 39.36500 23.90000
C  -1.96500 39.66800 21.00600
O  -1.23500 39.86300 20.05900
C  -3.26400 39.08600 20.71800
N  2.45700 41.77700 23.65000
C  2.02700 41.40600 22.41700
C  3.12300 41.67700 21.28500
C  4.25300 42.35400 22.15100
C  3.70000 42.18600 23.59600
C  3.68400 40.41500 20.57500
C  4.50600 43.84100 21.64200
C  3.53300 44.88300 22.14800
N  2.86700 42.43500 26.41300
C  4.15800 42.70600 25.98900
C  4.92800 43.11100 27.18000
C  4.05000 42.90300 28.28000
C  2.85200 42.40300 27.72700
C  6.40600 43.47900 27.24600
C  3.89700 42.96300 29.76800
O  4.67500 43.26900 30.70600
C  2.46900 42.45200 30.06100
C  2.62400 41.30800 30.94400
O  3.34200 40.31700 30.66300
O  1.89800 41.42000 32.08600
C  1.82800 40.17100 32.86400
H  -2.71700 39.85800 26.38500
H  0.80000 40.76400 20.97100
H  5.55800 42.78700 24.35000
H  -0.30300 40.91000 30.36800
H  -2.57800 41.01600 28.69000
H  -0.77300 38.59100 28.83200
H  -2.54700 38.83800 28.53200
H  -1.90000 39.11500 30.17500
H  -0.92500 43.71700 29.26900
H  -0.44500 43.10700 30.89600
H  -3.16300 42.68200 29.76300
H  -2.58700 43.77100 31.02800
H  -4.56200 39.78200 23.31300
H  -4.02500 39.63000 24.91900
H  -3.70900 38.28000 23.80100
H  -3.50300 38.19500 21.29800
H  -3.35100 38.81400 19.66600
H  -4.00900 39.83400 20.98900
H  2.77800 42.42000 20.56700
H  5.17600 41.78000 22.06600
H  4.76000 40.49100 20.42000
H  3.22100 40.23800 19.60400
H  3.42400 39.57200 21.21500
H  4.50600 43.79600 20.55300
H  5.51900 44.03600 21.99400
H  2.76400 44.43500 22.77700
H  3.09400 45.29200 21.23900
H  4.04000 45.69500 22.66900
H  6.66800 43.81200 26.24100
H  6.97800 42.56500 27.40600
H  6.59500 44.21200 28.02900
H  1.87700 43.11000 30.69700
H  1.71600 39.30100 32.21600
H  0.89200 40.17100 33.42200
H  2.73600 40.08800 33.46100

