158

Mg 24.18700 -6.26700 45.15900
C  26.45300 -3.95300 43.80800
C  21.69500 -4.89700 43.23100
C  22.40000 -9.00000 45.87900
C  26.94100 -7.71700 46.98600
N  24.13500 -4.72900 43.63300
C  25.15100 -3.82100 43.28800
C  24.61400 -2.77800 42.29700
C  23.02600 -2.82900 42.49300
C  22.95600 -4.25200 43.08300
C  22.44900 -1.79500 43.52000
C  25.20300 -2.91600 40.84900
C  25.27300 -1.65200 39.93000
H  24.74400 -1.78900 38.49000
N  22.30700 -6.85500 44.63300
C  21.37600 -6.14200 43.91900
C  20.07700 -6.80700 44.01600
C  20.28100 -7.95400 44.73900
C  21.71900 -7.98100 45.10500
C  18.87100 -6.21000 43.34100
C  19.25900 -8.99800 44.97800
O  18.13200 -8.78000 44.55500
C  19.49100 -10.16800 45.80100
N  24.66800 -8.18700 46.13800
C  23.73500 -9.09500 46.37300
C  24.29800 -10.33100 47.30800
C  25.69100 -9.77500 47.69100
C  25.80300 -8.47400 46.89400
C  23.42100 -10.65800 48.45600
C  26.85700 -10.78300 47.26700
C  27.73500 -11.22200 48.46100
N  26.22100 -5.92000 45.42700
C  27.22400 -6.54900 46.23400
C  28.40900 -5.80000 46.11800
C  28.13500 -4.79500 45.18500
C  26.86100 -4.93100 44.77700
C  29.59600 -6.18900 46.96900
C  28.67100 -3.58500 44.58500
O  29.73000 -2.97100 44.83300
C  27.69200 -3.20800 43.45900
C  27.61000 -1.77000 43.41100
O  27.21700 -1.01500 44.28900
O  27.92400 -1.30400 42.09500
C  27.83600 0.11400 41.97100
H  20.81400 -4.39300 42.82900
H  21.85800 -9.81200 46.36700
H  27.75300 -8.05500 47.63300
H  24.87000 -1.78400 42.66300
H  22.36400 -2.76000 41.63000
H  21.77600 -1.10200 43.01500
H  23.24700 -1.17300 43.92400
H  22.02300 -2.17700 44.44800
H  24.48800 -3.55800 40.33400
H  26.16900 -3.40800 40.96800
H  26.30700 -1.31000 39.88400
H  24.71800 -0.85900 40.42900
H  19.24300 -5.87200 42.37400
H  18.57900 -5.32800 43.91100
H  18.00200 -6.84300 43.16100
H  18.54900 -10.57500 46.17000
H  19.91400 -9.87600 46.76200
H  20.13800 -10.89100 45.30400
H  24.43400 -11.10400 46.55200
H  25.67500 -9.48300 48.74100
H  22.64400 -9.89400 48.44200
H  23.90100 -10.85300 49.41500
H  22.97500 -11.59900 48.13400
H  27.55100 -10.35800 46.54200
H  26.52700 -11.75300 46.89400
H  28.21300 -12.18000 48.25400
H  27.21500 -11.20200 49.41900
H  28.60700 -10.57400 48.54400
H  29.34400 -6.79500 47.84000
H  30.14000 -5.28600 47.24800
H  30.31200 -6.74400 46.36400
H  28.21900 -3.50000 42.55000
H  26.76500 0.30600 42.03600
H  28.35900 0.46500 41.08100
H  28.15300 0.57700 42.90600
Mg 6.03100 54.34200 39.77500
C  5.35500 50.82900 39.95700
C  9.42400 53.39700 39.22800
C  6.84200 57.46700 39.22600
C  2.71000 55.06600 39.76900
N  7.16100 52.24400 39.45100
C  6.77400 50.99300 39.72200
C  7.88800 49.98300 39.59100
C  9.11100 50.91700 39.77400
C  8.56000 52.30100 39.38700
C  9.83400 50.92900 41.16900
C  7.88400 49.27200 38.24700
C  7.60600 49.96100 36.90900
H  6.27000 49.63600 36.21000
N  7.89000 55.34500 39.42800
C  9.10200 54.78700 39.18800
C  10.03000 55.87800 39.02600
C  9.36200 57.08200 39.10200
C  8.00000 56.64100 39.23800
C  11.52400 55.68800 38.83900
C  9.99900 58.48700 39.01000
O  11.22500 58.60400 38.87200
C  9.25500 59.75100 39.19200
N  4.89900 56.01900 39.28000
C  5.44700 57.21400 39.27300
C  4.40100 58.35600 39.50700
C  3.09200 57.52600 39.58900
C  3.55800 56.07200 39.45400
C  4.74000 59.32900 40.70000
C  1.99100 58.07800 38.60100
C  2.07400 57.41900 37.21400
N  4.33000 53.27700 39.77100
C  3.02300 53.69100 39.90600
C  2.20500 52.57400 40.28300
C  3.03600 51.42500 40.23700
C  4.37800 51.92500 39.95900
C  0.70300 52.56700 40.25600
C  3.02500 50.01500 40.44300
O  2.16300 49.14500 40.62500
C  4.55000 49.59000 40.35400
C  4.54100 48.57500 39.29600
O  4.12300 48.67900 38.17900
O  4.92300 47.35200 39.79200
C  4.69400 46.16500 38.94200
H  10.47900 53.11800 39.20700
H  6.91900 58.55400 39.29600
H  1.68600 55.43400 39.85000
H  7.65100 49.29200 40.40000
H  9.84600 50.63200 39.02100
H  10.83700 50.51200 41.08900
H  9.28200 50.34900 41.90900
H  9.81500 51.95800 41.52900
H  7.17400 48.45500 38.38000
H  8.86100 48.78800 38.25100
H  8.40900 49.55700 36.29300
H  7.82500 51.01200 37.09900
H  11.76700 55.52600 37.78900
H  11.94000 54.88200 39.44300
H  12.11000 56.52300 39.22400
H  10.05900 60.48400 39.11700
H  8.79900 59.74300 40.18100
H  8.52700 59.73500 38.38100
H  4.43200 59.01500 38.64000
H  2.63600 57.56300 40.57800
H  3.97000 59.29000 41.47000
H  4.78200 60.35700 40.34000
H  5.67700 59.04300 41.17900
H  2.07200 59.16200 38.52800
H  0.96600 57.97900 38.95900
H  1.07200 56.99600 37.13800
H  2.82800 56.66600 36.98400
H  2.24200 58.19900 36.47200
H  0.38600 53.40300 40.87900
H  0.37900 51.69300 40.82100
H  0.40200 52.58000 39.20800
H  4.87400 49.19400 41.31700
H  5.63500 46.13800 38.39300
H  3.84300 46.30400 38.27600
H  4.49000 45.30900 39.58500

