158

Mg 24.06100 -5.70100 44.83700
C  26.41900 -3.47000 43.59600
C  21.66600 -4.32400 42.85200
C  22.08800 -8.47400 45.31100
C  26.63300 -7.39100 46.44300
N  24.14800 -4.22400 43.30300
C  25.16900 -3.36600 42.95400
C  24.71900 -2.30000 41.92500
C  23.19100 -2.38200 42.12000
C  22.94700 -3.72800 42.82800
C  22.57600 -1.22200 42.91100
C  25.22900 -2.70700 40.50200
C  26.03400 -1.65600 39.68300
H  25.97600 -1.64900 38.13000
N  22.11500 -6.29300 44.21300
C  21.28100 -5.53600 43.48700
C  19.95900 -6.16900 43.44400
C  20.04200 -7.43200 44.11600
C  21.43500 -7.46000 44.58000
C  18.86600 -5.48200 42.68900
C  18.88900 -8.47800 44.37200
O  17.77600 -8.27700 43.93700
C  19.10300 -9.85200 45.10000
N  24.32800 -7.66700 45.63400
C  23.37200 -8.64900 45.70700
C  23.77000 -9.88800 46.50500
C  25.21500 -9.47000 46.99600
C  25.47800 -8.11300 46.25200
C  22.73000 -10.40600 47.59600
C  26.23000 -10.60300 46.58200
C  27.35100 -10.74600 47.65800
N  26.12900 -5.40700 45.17700
C  26.97400 -6.05800 45.97100
C  28.28500 -5.42100 45.94600
C  28.09400 -4.44700 44.99500
C  26.75600 -4.43900 44.59400
C  29.43200 -5.93400 46.77600
C  28.76900 -3.33600 44.18900
O  29.93600 -2.91300 44.18600
C  27.69100 -2.67500 43.30500
C  27.48000 -1.26600 43.54800
O  26.48600 -0.78600 44.09500
O  28.56100 -0.58100 43.03500
C  28.27600 0.82200 43.09100
H  20.95400 -3.72700 42.27800
H  21.43400 -9.34500 45.38300
H  27.38200 -7.90000 47.05400
H  25.14300 -1.33100 42.19100
H  22.70800 -2.31500 41.14500
H  23.35100 -0.51200 43.20000
H  22.00200 -1.48100 43.80100
H  21.99600 -0.65700 42.18100
H  24.36200 -2.89200 39.86800
H  25.76900 -3.65000 40.58400
H  27.08100 -1.78000 39.96200
H  25.71200 -0.67900 40.04200
H  17.96800 -5.79700 43.22000
H  18.71200 -5.71700 41.63600
H  18.90900 -4.39800 42.79800
H  18.20700 -10.47200 45.11800
H  19.38500 -9.65900 46.13600
H  19.88900 -10.45600 44.64600
H  23.85600 -10.59300 45.67800
H  25.32500 -9.23000 48.05400
H  22.46100 -11.43000 47.33700
H  21.79700 -9.85000 47.49900
H  23.24000 -10.26900 48.55000
H  26.74700 -10.36400 45.65300
H  25.67100 -11.53700 46.52400
H  26.98900 -11.32100 48.51000
H  27.62200 -9.78000 48.08400
H  28.25100 -11.12100 47.16900
H  29.86100 -6.82900 46.32600
H  29.07300 -6.30600 47.73600
H  30.15400 -5.12500 46.88400
H  28.00800 -2.80400 42.27000
H  28.25900 1.06500 44.15300
H  27.28000 1.03100 42.70100
H  29.08600 1.36100 42.60000
Mg 48.21400 46.24700 42.69900
C  44.98300 46.86000 41.51400
C  48.08800 43.13900 41.17100
C  51.53800 46.06100 42.96400
C  48.31000 49.83600 43.31800
N  46.77000 45.16800 41.31500
C  45.47400 45.61300 41.16900
C  44.63000 44.54100 40.49900
C  45.49500 43.29000 40.68500
C  46.87600 43.94200 41.02700
C  44.95700 42.21800 41.65100
C  44.32900 45.00200 39.00200
C  43.01100 44.40700 38.56200
H  43.11600 43.49700 37.21400
N  49.62100 44.81600 42.15700
C  49.35100 43.56400 41.60400
C  50.56700 42.75700 41.67800
C  51.55800 43.56100 42.10800
C  50.95100 44.92500 42.42800
C  50.56800 41.32300 41.23000
C  53.04300 43.06700 42.24300
O  53.48300 42.00600 41.82700
C  53.97500 43.91100 42.99700
N  49.70600 47.75000 42.92600
C  51.00900 47.36600 43.16700
C  51.89400 48.62100 43.51700
C  50.87400 49.78100 43.50200
C  49.56900 49.11900 43.22100
C  52.72200 48.52600 44.83800
C  51.30900 51.00500 42.56700
C  51.63000 52.31000 43.21500
N  46.89500 47.90900 42.77200
C  47.03900 49.25300 43.10900
C  45.83300 49.91700 43.09000
C  44.95000 48.98100 42.55400
C  45.63700 47.79400 42.25100
C  45.59500 51.35600 43.69800
C  43.62400 48.79400 42.08800
O  42.60600 49.46100 42.12600
C  43.54100 47.38900 41.40600
C  42.54800 46.61500 42.14500
O  42.71700 45.91900 43.15300
O  41.43700 46.71400 41.41200
C  40.35600 45.78700 41.85500
H  47.94800 42.06400 41.04200
H  52.57700 46.02200 43.29600
H  48.31000 50.90600 43.53300
H  43.70700 44.43500 41.06700
H  45.57200 42.80100 39.71400
H  44.76000 41.37500 40.98800
H  44.05800 42.61200 42.12400
H  45.75600 41.96800 42.34800
H  45.14800 44.70800 38.34500
H  44.25000 46.08600 39.09300
H  42.31100 45.23800 38.48100
H  42.62400 43.70600 39.30200
H  50.73100 41.31900 40.15200
H  49.68500 40.76800 41.54700
H  51.39000 40.74800 41.65700
H  54.22100 44.81900 42.44800
H  54.93000 43.39400 43.09500
H  53.53300 43.99300 43.99000
H  52.65800 48.74200 42.74900
H  50.75600 50.16600 44.51400
H  52.55500 47.47700 45.08100
H  52.29400 49.04900 45.69400
H  53.76900 48.78700 44.68400
H  50.54300 51.28300 41.84300
H  52.25200 50.77700 42.07100
H  51.46600 52.28400 44.29200
H  50.98800 53.08200 42.79000
H  52.66600 52.52900 42.95800
H  44.89900 51.74400 42.95500
H  46.46800 52.00600 43.76100
H  45.02500 51.23800 44.61900
H  43.15500 47.53300 40.39700
H  39.53700 45.72200 41.13800
H  39.92400 46.05500 42.81900
H  40.80300 44.79300 41.85200

