158

Mg 25.01600 -6.90900 46.87000
C  27.55100 -4.73900 46.10900
C  22.88100 -5.17600 44.70800
C  22.95700 -9.58600 46.89800
C  27.34200 -8.81800 48.73300
N  25.30500 -5.24300 45.52000
C  26.44400 -4.45300 45.30400
C  26.29200 -3.49100 44.20900
C  24.63600 -3.42300 43.97400
C  24.21100 -4.68700 44.83100
C  24.01900 -2.09200 44.41100
C  27.05300 -3.84300 42.94900
C  27.78400 -2.59400 42.34900
H  27.48800 -2.23600 40.86800
N  23.15100 -7.33200 45.93200
C  22.40200 -6.43200 45.27700
C  21.09700 -7.05900 44.96700
C  21.16300 -8.37700 45.43000
C  22.43200 -8.49800 46.14200
C  19.93700 -6.34700 44.28400
C  19.98100 -9.36300 45.29100
O  19.04400 -9.07400 44.50600
C  19.89300 -10.69300 45.97400
N  25.10100 -8.99300 47.72800
C  24.05100 -9.80100 47.72000
C  24.27600 -11.17400 48.37400
C  25.63000 -10.76300 49.11000
C  26.07000 -9.45500 48.48000
C  23.13600 -11.67700 49.25900
C  26.75200 -11.78700 49.05100
C  27.38900 -12.20800 50.38100
N  27.02300 -6.77800 47.47600
C  27.78300 -7.62500 48.24600
C  29.12400 -6.98700 48.44700
C  28.99600 -5.83000 47.64400
C  27.72100 -5.73100 47.09200
C  30.29300 -7.55500 49.28600
C  29.76100 -4.71800 47.17900
O  30.96900 -4.51000 47.39400
C  28.89200 -3.97300 46.11800
C  28.72300 -2.61800 46.53500
O  28.01100 -2.26900 47.48700
O  29.32400 -1.84000 45.63300
C  28.89600 -0.40200 45.57200
H  22.18800 -4.62600 44.06700
H  22.32800 -10.47900 46.89000
H  28.12800 -9.30800 49.31000
H  26.56000 -2.48900 44.54400
H  24.45400 -3.52100 42.90300
H  24.61400 -1.22300 44.69200
H  23.24400 -2.15600 45.17500
H  23.51000 -1.75900 43.50700
H  26.40600 -4.27400 42.18500
H  27.80000 -4.59800 43.19400
H  28.81400 -2.88500 42.55500
H  27.82100 -1.74900 43.03600
H  19.87200 -6.90400 43.34900
H  20.02000 -5.30400 43.97900
H  19.01900 -6.60000 44.81300
H  19.98100 -10.65600 47.06000
H  20.73900 -11.25900 45.58400
H  19.01900 -11.26300 45.66100
H  24.52700 -11.98200 47.68600
H  25.25700 -10.48400 50.09600
H  23.25600 -11.45900 50.32000
H  23.03300 -12.74900 49.09200
H  22.17100 -11.19800 49.09700
H  27.58100 -11.44900 48.43000
H  26.42700 -12.75000 48.65700
H  27.33900 -13.29000 50.50400
H  26.93300 -11.59900 51.16200
H  28.42600 -11.87600 50.41000
H  29.76400 -8.15500 50.02700
H  30.77900 -6.69000 49.73600
H  30.94100 -8.11300 48.60900
H  29.22900 -4.03600 45.08300
H  29.27300 0.00000 44.63200
H  29.24100 0.18600 46.42200
H  27.80800 -0.39200 45.51000
Mg 25.80700 0.01300 29.15500
C  27.87400 -0.05300 32.09000
C  23.09200 0.92500 31.08400
C  23.94000 0.01600 26.48100
C  28.59300 -1.01900 27.35300
N  25.51800 0.33100 31.35200
C  26.53900 0.34400 32.35900
C  25.91600 0.79100 33.69400
C  24.31600 0.92600 33.31100
C  24.30200 0.83100 31.80800
C  23.42600 -0.22500 33.95600
C  26.53800 2.01800 34.39900
C  27.31600 1.83900 35.69700
H  27.10800 2.92300 36.80700
N  23.86100 0.36700 28.77000
C  22.87600 0.74100 29.67500
C  21.56900 0.80700 29.02500
C  21.79900 0.60200 27.65200
C  23.21700 0.30100 27.58100
C  20.18500 1.16000 29.69000
C  20.79900 0.69000 26.41600
O  21.20600 0.60800 25.27100
C  19.30700 0.85000 26.58200
N  26.19400 -0.58800 27.19600
C  25.27600 -0.36800 26.26700
C  25.84200 -0.69600 24.84600
C  27.38900 -0.87600 25.14200
C  27.37900 -0.80400 26.69500
C  25.19700 -1.77300 23.90800
C  28.39500 0.18900 24.53100
C  29.73700 -0.31600 24.02600
N  27.80400 -0.66100 29.57700
C  28.80800 -0.95100 28.79700
C  30.02500 -1.10600 29.54400
C  29.68500 -0.75000 30.83700
C  28.29300 -0.46100 30.83200
C  31.34600 -1.51700 28.83300
C  30.20500 -0.57600 32.13700
O  31.29300 -0.79000 32.59300
C  29.00700 -0.17600 33.02400
C  28.75700 -1.23300 34.02900
O  28.30200 -2.35100 33.83300
O  29.10700 -0.73300 35.29800
C  28.82200 -1.58600 36.45500
H  22.23100 1.29700 31.64400
H  23.35800 0.12600 25.56300
H  29.47400 -1.32600 26.78500
H  26.08800 -0.05300 34.36200
H  24.07900 1.94000 33.63100
H  23.99300 -1.09200 34.29600
H  22.65100 -0.54500 33.26000
H  22.98800 0.31300 34.79600
H  25.93300 2.92000 34.49800
H  27.18500 2.30800 33.57200
H  28.29600 1.97900 35.24100
H  27.31900 0.86500 36.18600
H  19.55100 0.27700 29.60300
H  19.65800 2.02200 29.28000
H  20.22300 1.44600 30.74200
H  18.91600 1.19000 25.62300
H  19.21000 1.74700 27.19500
H  19.10400 -0.14600 26.97600
H  25.65900 0.18900 24.23600
H  27.74900 -1.84700 24.80100
H  24.26400 -2.27000 24.17400
H  25.91300 -2.55500 23.66100
H  24.76700 -1.22400 23.07000
H  28.47100 0.98700 25.27000
H  27.88700 0.62400 23.67100
H  30.33800 -0.53400 24.90900
H  30.17300 0.52500 23.48500
H  29.68300 -1.15300 23.33000
H  32.11500 -1.21200 29.54300
H  31.55400 -0.80900 28.03000
H  31.40300 -2.59300 28.66700
H  29.31100 0.73700 33.53500
H  29.09800 -1.10700 37.39500
H  29.44800 -2.47700 36.40000
H  27.77000 -1.86800 36.50700

