158

Mg 35.49100 3.44500 29.50600
C  33.74400 4.18600 32.38500
C  38.37600 3.11500 31.30500
C  37.13200 2.78500 26.63100
C  32.62400 4.22000 27.67200
N  35.97400 3.77800 31.56200
C  35.10700 3.92200 32.61000
C  35.91100 3.75800 33.97700
C  37.44100 3.79700 33.56900
C  37.27900 3.55800 32.04400
C  38.16800 5.19500 33.84100
C  35.46100 2.42800 34.66000
C  35.20100 2.56900 36.20700
H  36.05800 3.47500 37.06500
N  37.45800 2.98300 29.09600
C  38.49000 2.81200 29.93100
C  39.60500 2.19500 29.25000
C  39.30300 2.25900 27.87300
C  37.91900 2.65900 27.78000
C  40.74600 1.53300 29.94300
C  40.23600 1.93000 26.69600
O  39.81600 2.13000 25.56700
C  41.66000 1.49400 26.93100
N  35.05200 3.59900 27.44100
C  35.81900 3.21300 26.42900
C  35.23700 3.55700 25.13200
C  33.69400 3.76000 25.48000
C  33.77700 3.88700 26.91900
C  35.85700 4.71600 24.35200
C  32.76200 2.67000 24.90400
C  32.38600 1.45900 25.84400
N  33.50700 4.06700 29.86600
C  32.46700 4.35800 29.08300
C  31.32100 4.62000 29.93000
C  31.71500 4.58500 31.24100
C  33.08500 4.34200 31.08900
C  29.87800 4.83000 29.46700
C  31.32900 4.62000 32.64100
O  30.19400 4.75400 33.10200
C  32.66400 4.39500 33.41400
C  32.88600 5.63700 34.12000
O  33.53800 6.60500 33.82400
O  32.09600 5.49200 35.20700
C  32.28400 6.46900 36.31900
H  39.29000 2.87200 31.85100
H  37.64800 2.37300 25.76100
H  31.83300 4.54300 26.99200
H  35.77900 4.57200 34.68900
H  38.03100 2.97100 33.96800
H  37.60500 5.76800 34.57800
H  38.25200 5.80300 32.94000
H  39.08400 5.06600 34.41800
H  36.25300 1.68700 34.55300
H  34.48100 2.09300 34.32100
H  35.25300 1.55600 36.60700
H  34.14700 2.83500 36.28700
H  40.79100 0.46700 29.72300
H  40.70400 1.66800 31.02400
H  41.66400 2.01400 29.60600
H  41.54800 0.66100 27.62600
H  42.41000 2.23300 27.21200
H  41.96700 1.00300 26.00700
H  35.48200 2.69900 24.50600
H  33.35300 4.74700 25.16800
H  36.25400 4.19200 23.48300
H  36.58500 5.32300 24.89000
H  35.01200 5.34300 24.07100
H  33.13800 2.37000 23.92600
H  31.78400 3.09000 24.66800
H  32.39600 0.51300 25.30300
H  31.34100 1.57400 26.13200
H  32.99300 1.45000 26.74900
H  29.40600 3.86600 29.65200
H  29.83500 5.17100 28.43200
H  29.35900 5.64900 29.96400
H  32.64500 3.50100 34.03900
H  32.84100 5.90400 37.06600
H  31.29500 6.66700 36.73200
H  32.66500 7.44800 36.02800
Mg 48.16200 25.08400 28.27800
C  49.33100 27.51100 30.69400
C  47.46200 23.14900 30.96900
C  47.71300 22.72900 26.04300
C  49.95200 27.02100 25.79300
N  48.33700 25.36200 30.62300
C  48.72000 26.49000 31.32700
C  48.55400 26.23500 32.79100
C  48.13500 24.72200 32.87200
C  48.01000 24.37100 31.38900
C  49.11300 23.81500 33.66000
C  47.55800 27.19700 33.42700
C  47.67100 27.36000 34.95000
H  46.40900 27.64500 35.74600
N  47.39800 23.26300 28.42200
C  47.16900 22.54900 29.64500
C  46.59800 21.23500 29.35200
C  46.62600 21.20200 27.91000
C  47.27600 22.41200 27.37800
C  46.16100 20.23900 30.45200
C  46.13700 20.12100 26.98400
O  46.37200 20.12300 25.77500
C  45.54200 18.97500 27.65500
N  48.83000 24.90300 26.28200
C  48.31400 23.86900 25.52700
C  48.78000 23.95800 24.05200
C  49.20700 25.47900 23.96500
C  49.38200 25.80300 25.42100
C  49.93700 22.98700 23.70100
C  48.20400 26.52200 23.31500
C  48.75200 27.90600 22.91100
N  49.35600 26.89000 28.14400
C  49.92100 27.53700 27.06600
C  50.55000 28.74700 27.49900
C  50.22300 28.86000 28.87600
C  49.55900 27.65200 29.24100
C  51.45400 29.61100 26.63100
C  50.38800 29.66000 30.04900
O  50.88100 30.78100 30.07800
C  49.77200 28.88100 31.30400
C  50.89300 28.76400 32.28000
O  51.83600 27.96300 32.20000
O  50.61800 29.45200 33.48700
C  51.37200 29.07000 34.71100
H  47.09900 22.49100 31.76200
H  47.38800 21.97300 25.32500
H  50.40900 27.63900 25.01800
H  49.51700 26.40400 33.27200
H  47.14100 24.58100 33.29700
H  49.77600 24.34900 34.34000
H  49.73800 23.26100 32.96000
H  48.44400 23.17000 34.23000
H  46.56700 26.76300 33.29200
H  47.62900 28.15400 32.90800
H  48.42600 28.13100 35.10500
H  48.21600 26.44900 35.19600
H  46.17600 20.65000 31.46200
H  46.69000 19.28600 30.45400
H  45.11800 19.95300 30.31900
H  44.63700 19.15100 28.23600
H  46.23100 18.28700 28.14200
H  45.02000 18.46200 26.84700
H  47.95500 23.68500 23.39500
H  50.17000 25.50600 23.45500
H  50.13500 22.32700 24.54500
H  50.79600 23.61600 23.46500
H  49.60500 22.30300 22.92000
H  47.39800 26.65900 24.03600
H  47.69600 26.02200 22.49000
H  48.37100 28.67000 23.58800
H  48.46700 28.24500 21.91500
H  49.83500 27.84800 22.80200
H  51.97700 28.97900 25.91300
H  52.07900 30.15000 27.34300
H  50.80700 30.30200 26.09000
H  49.02500 29.58700 31.66800
H  51.25200 27.98900 34.78300
H  50.97700 29.46900 35.64500
H  52.36900 29.50300 34.62600

