158

Mg 49.19600 46.47600 42.73200
C  45.87200 47.00500 41.57600
C  49.12700 43.38200 41.26200
C  52.51500 46.32200 43.35300
C  49.16500 49.92900 43.68800
N  47.74600 45.40600 41.45400
C  46.47200 45.80200 41.13800
C  45.75900 44.70200 40.31800
C  46.57300 43.44600 40.63600
C  47.92000 44.06500 41.13200
C  45.94700 42.57600 41.72000
C  45.66100 45.13100 38.77700
C  44.44200 44.79100 37.91300
H  44.63300 44.12500 36.56000
N  50.65400 45.05300 42.38200
C  50.37500 43.78300 41.78400
C  51.60700 43.05100 41.75300
C  52.57500 43.86400 42.42500
C  51.90200 45.10700 42.79500
C  51.74300 41.70000 41.12400
C  54.03100 43.48800 42.73000
O  54.45300 42.41300 42.36200
C  55.05800 44.39200 43.43300
N  50.60700 47.99900 43.41800
C  51.93500 47.67500 43.62900
C  52.70700 48.90000 44.06000
C  51.61000 50.00400 44.18300
C  50.34900 49.24900 43.80900
C  53.46800 48.63100 45.36300
C  51.84100 51.29900 43.23700
C  51.98900 52.54700 44.05300
N  47.79900 48.10000 42.82900
C  47.94200 49.39300 43.22600
C  46.65500 50.09700 43.22800
C  45.79000 49.15700 42.57400
C  46.54100 47.94300 42.32300
C  46.39500 51.43500 43.67500
C  44.45900 48.95400 42.08200
O  43.45300 49.66800 42.17600
C  44.46600 47.53700 41.33000
C  43.33700 46.66300 41.81000
O  43.35300 45.86700 42.72600
O  42.19300 46.99900 41.10900
C  41.00300 46.43300 41.65100
H  48.98800 42.33700 40.97800
H  53.56600 46.43000 43.62700
H  49.28600 50.94200 44.07900
H  44.73500 44.53500 40.65300
H  46.80800 42.88900 39.73000
H  44.97600 42.92100 42.07700
H  46.58200 42.68300 42.59900
H  45.96800 41.50000 41.55000
H  46.58500 44.75500 38.33700
H  45.76800 46.21300 38.70000
H  43.86000 45.70600 37.80400
H  43.86400 44.00600 38.39900
H  52.49100 41.06000 41.59100
H  51.95800 41.78800 40.05900
H  50.76400 41.22000 41.12800
H  54.65600 44.81100 44.35600
H  55.30600 45.19600 42.74000
H  55.91300 43.73000 43.56800
H  53.48400 49.18600 43.35100
H  51.43900 50.35700 45.20000
H  54.54800 48.66700 45.21400
H  53.18400 47.63800 45.70900
H  53.12900 49.34800 46.11100
H  50.96900 51.48700 42.61100
H  52.69800 51.23100 42.56800
H  52.55900 52.30700 44.95100
H  51.04400 53.01000 44.33800
H  52.55000 53.25500 43.44400
H  47.11200 52.09300 43.18400
H  46.56900 51.43400 44.75100
H  45.35300 51.69900 43.49600
H  44.25700 47.74700 40.28100
H  40.47700 46.09000 40.75900
H  40.40200 47.10700 42.26100
H  41.11400 45.57600 42.31600
Mg 35.48400 49.26500 26.73900
C  35.61100 47.11700 29.58100
C  34.29200 51.73400 28.75100
C  35.00800 50.94300 24.02200
C  36.25400 46.32700 24.85200
N  35.10200 49.30100 28.86700
C  35.10400 48.38600 29.84500
C  34.94300 48.91600 31.24500
C  34.23200 50.23500 30.86500
C  34.61900 50.49000 29.40500
C  32.71700 50.29800 31.06600
C  36.28200 49.17800 32.08500
C  36.32800 48.59500 33.52900
H  35.05700 48.71700 34.37100
N  34.76700 51.12300 26.39000
C  34.35900 51.99600 27.33800
C  34.19000 53.27300 26.70600
C  34.34900 53.06300 25.29300
C  34.65100 51.65600 25.16700
C  33.91700 54.51500 27.54900
C  34.35600 53.98900 24.14200
O  34.64200 53.71900 22.96700
C  33.79400 55.40200 24.38600
N  35.61600 48.70500 24.76200
C  35.46200 49.62200 23.76000
C  35.79400 49.10300 22.39300
C  36.21800 47.65500 22.67500
C  35.99900 47.54500 24.19600
C  34.73700 49.25600 21.28800
C  37.66600 47.16800 22.22900
C  38.91900 47.73500 22.78100
N  35.86900 47.14300 27.03900
C  36.22300 46.11300 26.21400
C  36.51200 44.92400 26.92000
C  36.28200 45.26600 28.25000
C  35.90000 46.64000 28.29700
C  37.15600 43.62200 26.31400
C  36.47100 44.72300 29.61800
O  36.96200 43.61100 29.97800
C  35.87600 45.89000 30.51700
C  34.58900 45.47700 31.19500
O  33.46600 45.35000 30.62000
O  34.88100 45.11600 32.45100
C  33.86900 44.38100 33.23800
H  33.83000 52.50900 29.36600
H  34.76000 51.51100 23.12300
H  36.51900 45.44200 24.27000
H  34.27100 48.27100 31.81100
H  34.53700 51.06900 31.49600
H  32.52400 51.16300 31.69900
H  32.28000 49.40900 31.52100
H  32.15100 50.53700 30.16600
H  36.51100 50.23300 32.23300
H  36.99700 48.66500 31.44100
H  37.07200 49.08800 34.15500
H  36.73500 47.58400 33.53200
H  33.66500 54.32100 28.59200
H  33.02400 54.93900 27.09200
H  34.64200 55.32800 27.49800
H  32.82000 55.46500 24.87200
H  33.70100 55.87600 23.41000
H  34.54400 55.92300 24.98100
H  36.65500 49.72800 22.15900
H  35.54600 47.01300 22.10600
H  34.55500 48.29000 20.81800
H  35.14100 49.93000 20.53300
H  33.74300 49.50200 21.66300
H  37.69100 47.30900 21.14800
H  37.67200 46.09400 22.41300
H  38.71600 47.84200 23.84600
H  39.24400 48.68400 22.35400
H  39.70800 46.98600 22.70600
H  38.19000 43.56000 26.65300
H  37.08000 43.57700 25.22700
H  36.65600 42.73400 26.70200
H  36.59100 46.08300 31.31700
H  33.90000 43.30800 33.04800
H  32.84300 44.69700 33.05000
H  34.04500 44.50300 34.30700

