158

Mg 35.52300 1.29300 29.64700
C  33.31500 1.95800 32.29700
C  38.14700 1.12400 31.86200
C  37.68300 0.52400 27.06700
C  32.88600 1.34000 27.42800
N  35.64600 1.60500 31.78700
C  34.64500 1.86100 32.69200
C  35.17400 1.86800 34.04700
C  36.68400 1.94400 33.88000
C  36.89400 1.43200 32.41500
C  37.41700 3.31200 34.06700
C  34.74700 0.55100 34.81000
C  34.19400 0.71100 36.28200
H  34.80900 1.77400 37.16600
N  37.58900 0.92700 29.46800
C  38.44000 0.77500 30.58900
C  39.78800 0.38900 30.11100
C  39.77700 0.35900 28.70400
C  38.30000 0.53900 28.35600
C  41.00300 0.07000 31.03600
C  40.85100 0.00800 27.60700
O  40.73300 0.32000 26.45200
C  42.14700 -0.47900 28.03900
N  35.31600 0.94100 27.52100
C  36.39500 0.66500 26.66200
C  35.94300 0.65100 25.21100
C  34.41500 0.76300 25.36300
C  34.16300 1.07100 26.83100
C  36.70100 1.54100 24.16200
C  33.53500 -0.47000 24.82800
C  32.20100 -0.14500 24.05800
N  33.59000 1.74000 29.78600
C  32.66200 1.82300 28.73000
C  31.36800 2.15100 29.27800
C  31.53200 2.06900 30.66300
C  32.90900 1.87300 30.95400
C  30.20100 2.49900 28.45400
C  30.87200 2.16900 31.95100
O  29.68500 2.33600 32.08200
C  31.94200 2.12700 33.00400
C  31.81300 3.37800 33.80500
O  32.20100 4.48700 33.40300
O  31.27500 3.10800 35.03500
C  31.18500 4.29800 35.89600
H  38.97100 1.11900 32.57800
H  38.35000 0.38000 26.21500
H  32.04200 1.30000 26.73700
H  34.77800 2.72700 34.58800
H  37.19000 1.22700 34.52600
H  37.61100 3.68300 33.06000
H  38.30200 3.01700 34.63100
H  36.83100 3.97200 34.70700
H  35.51300 -0.21500 34.92600
H  33.91200 0.27300 34.16700
H  34.32900 -0.23800 36.80000
H  33.16600 1.07000 36.23300
H  40.73800 -0.13900 32.07200
H  41.80900 0.79700 30.94400
H  41.39100 -0.85400 30.60700
H  42.43000 0.17400 28.86500
H  42.85700 -0.35100 27.22200
H  42.09600 -1.51300 28.38000
H  36.16200 -0.32800 24.78500
H  34.03800 1.63200 24.82500
H  35.88300 1.92900 23.55500
H  37.48800 1.03300 23.60400
H  37.18000 2.32200 24.75100
H  33.30700 -1.08800 25.69700
H  34.20100 -0.94200 24.10500
H  32.49000 -0.03800 23.01300
H  31.91300 0.89600 24.19800
H  31.38400 -0.86400 24.11700
H  29.87800 3.46100 28.85300
H  29.52700 1.65100 28.57200
H  30.50800 2.60700 27.41400
H  31.57200 1.34100 33.66200
H  32.16200 4.76200 36.03300
H  30.90900 4.10700 36.93300
H  30.46900 4.93300 35.37400
Mg -1.53700 33.86600 27.55200
C  -2.95000 32.16700 30.39900
C  -0.05100 35.92900 29.81500
C  -1.15600 36.21200 25.03000
C  -3.42000 31.91400 25.45700
N  -1.60200 34.02500 29.86400
C  -2.13300 33.16700 30.79300
C  -1.64300 33.42700 32.22700
C  -0.88400 34.74000 31.99500
C  -0.83500 35.01600 30.47400
C  -1.32400 36.00400 32.84100
C  -1.02100 32.19500 33.05500
C  -1.65500 31.81700 34.37800
H  -0.69500 32.01100 35.57900
N  -0.55900 35.67000 27.37200
C  0.07100 36.29100 28.41100
C  0.73600 37.45000 27.95300
C  0.34900 37.63400 26.57900
C  -0.50200 36.47000 26.26400
C  1.72500 38.21100 28.75000
C  0.95200 38.56300 25.51500
O  0.72800 38.47500 24.28600
C  1.86400 39.71700 25.85800
N  -2.05000 33.91700 25.46200
C  -1.86600 35.00200 24.63100
C  -2.59100 34.83500 23.29600
C  -2.88200 33.30300 23.34200
C  -2.73600 32.97300 24.80400
C  -3.76900 35.84200 23.00700
C  -1.94600 32.45900 22.32400
C  -0.79300 31.71500 22.86700
N  -2.80500 32.31700 27.80700
C  -3.53900 31.62000 26.86400
C  -4.24700 30.54200 27.46300
C  -4.04600 30.68900 28.79300
C  -3.20500 31.83500 28.99000
C  -5.03900 29.55700 26.76700
C  -4.46600 30.24200 30.09800
O  -5.26100 29.34600 30.36100
C  -3.73100 31.12400 31.20600
C  -4.70400 31.59900 32.22300
O  -5.38900 32.61300 32.15200
O  -4.75600 30.68800 33.24400
C  -5.71600 30.86900 34.32800
H  0.66400 36.31900 30.54300
H  -1.14400 37.01800 24.29300
H  -3.98300 31.23100 24.81700
H  -2.56400 33.66000 32.76200
H  0.12000 34.42800 32.28100
H  -1.97700 35.76800 33.68100
H  -1.72300 36.80500 32.21800
H  -0.39600 36.47200 33.16900
H  0.06500 32.29000 33.07600
H  -1.11900 31.26900 32.48900
H  -1.87600 30.75000 34.38400
H  -2.57900 32.39200 34.43000
H  1.32600 39.22300 28.82100
H  2.65000 38.21400 28.17200
H  2.00200 37.79700 29.71900
H  1.29400 40.30100 26.58100
H  2.12200 40.34500 25.00600
H  2.69700 39.21000 26.34500
H  -1.85400 34.99100 22.50900
H  -3.94100 33.11400 23.16500
H  -3.81700 36.56300 23.82300
H  -4.72500 35.31900 22.96800
H  -3.56300 36.33600 22.05700
H  -1.51700 33.12500 21.57500
H  -2.61500 31.75500 21.82900
H  -0.90000 31.62200 23.94800
H  0.17500 32.15200 22.62400
H  -0.79000 30.71300 22.43700
H  -4.63100 29.43300 25.76400
H  -6.04300 29.97300 26.67600
H  -5.19200 28.69400 27.41600
H  -3.06900 30.42400 31.71700
H  -5.81200 29.94700 34.90200
H  -6.65400 31.14600 33.84800
H  -5.45100 31.67500 35.01200

