158

Mg 54.91200 23.60300 44.85100
C  53.05900 26.44800 44.39900
C  52.33900 21.68400 43.75500
C  57.13000 21.00500 44.55000
C  57.70500 25.67900 45.96100
N  52.92100 24.03400 44.23400
C  52.37100 25.27500 44.02900
C  50.90800 25.12000 43.54000
C  50.67100 23.60700 43.77000
C  52.01300 23.04600 43.91600
C  49.86000 23.37000 45.10000
C  50.59800 25.55600 42.07000
C  49.12500 25.73600 41.61000
H  48.61000 24.76400 40.54900
N  54.80800 21.59400 44.13300
C  53.61100 21.02000 43.82200
C  53.85300 19.67100 43.53400
C  55.26500 19.39700 43.73200
C  55.84300 20.68200 44.10800
C  52.65800 18.86700 42.98000
C  55.97600 18.06100 43.40400
O  55.35000 17.14500 42.89200
C  57.38300 17.70900 43.67100
N  57.15800 23.41400 45.01600
C  57.74100 22.21800 44.94700
C  59.18800 22.31600 45.50900
C  59.41900 23.83500 45.89500
C  58.01400 24.33300 45.61100
C  59.48900 21.31500 46.64000
C  60.44100 24.59100 44.95000
C  61.86700 24.53100 45.50900
N  55.29300 25.61400 45.26900
C  56.42700 26.27600 45.70900
C  56.14000 27.69600 45.87200
C  54.83000 27.83500 45.37500
C  54.41000 26.52100 44.96900
C  57.08700 28.78100 46.31300
C  53.73900 28.73900 45.04300
O  53.53400 29.93100 45.20500
C  52.61000 27.87600 44.30800
C  52.24700 28.46900 42.97200
O  52.87500 28.42200 41.91600
O  51.03300 29.05600 43.03900
C  50.35000 29.38800 41.78100
H  51.40300 21.14100 43.60800
H  57.86500 20.20000 44.48900
H  58.53500 26.33800 46.22300
H  50.26900 25.73000 44.17800
H  50.08000 23.27200 42.91800
H  49.05000 24.07200 45.29700
H  50.48300 23.21800 45.98100
H  49.36700 22.44400 44.80200
H  50.99400 24.72500 41.48600
H  51.27400 26.32500 41.69400
H  49.01400 26.71500 41.14200
H  48.46300 25.63600 42.47000
H  53.03800 18.07400 42.33500
H  51.91700 19.34800 42.34200
H  52.08800 18.50800 43.83700
H  57.99600 18.45700 43.16800
H  57.57100 16.75500 43.17800
H  57.52500 17.68200 44.75100
H  60.03300 22.16900 44.83500
H  59.73000 23.93200 46.93500
H  59.65600 21.68800 47.65000
H  60.46200 20.86600 46.44200
H  58.68300 20.58300 46.70300
H  60.11100 25.62700 44.88800
H  60.34900 24.29200 43.90600
H  62.45300 24.49400 44.59100
H  62.08100 23.62000 46.06700
H  61.96900 25.40400 46.15200
H  56.78600 29.22000 47.26400
H  57.12000 29.57200 45.56500
H  58.09700 28.42000 46.50900
H  51.72600 27.93000 44.94300
H  50.53200 28.69700 40.95700
H  50.70600 30.38900 41.53700
H  49.26500 29.39400 41.89000
Mg -10.18000 16.73900 40.89400
C  -6.74500 16.25400 41.24000
C  -9.67600 19.99300 40.01100
C  -13.41400 16.87900 40.11300
C  -10.61600 13.11300 41.25400
N  -8.34700 17.88000 40.49100
C  -7.05600 17.54600 40.81900
C  -6.14600 18.60100 40.37700
C  -7.08000 19.87900 40.38400
C  -8.46100 19.27000 40.30500
C  -6.83300 20.92000 41.52900
C  -5.58000 18.22000 39.00700
C  -4.13000 17.61000 38.99700
H  -3.92300 16.20600 38.40500
N  -11.37700 18.28000 40.10800
C  -10.98200 19.53900 39.87200
C  -12.21900 20.30200 39.55000
C  -13.31500 19.42100 39.38700
C  -12.73200 18.12000 39.83200
C  -12.06900 21.77900 39.15200
C  -14.69100 19.67200 38.90300
O  -14.87300 20.79400 38.40600
C  -15.94500 18.74000 38.86600
N  -11.79800 15.19300 40.86700
C  -13.01100 15.60500 40.58300
C  -14.00800 14.42400 40.46400
C  -13.20600 13.31400 41.04500
C  -11.76400 13.90800 40.97000
C  -15.27500 14.61400 41.38500
C  -13.35700 11.95000 40.26500
C  -13.87100 10.81200 41.12400
N  -9.01000 15.02100 41.30600
C  -9.32500 13.64800 41.36900
C  -8.09900 12.93800 41.69500
C  -7.09100 13.92000 41.73100
C  -7.68900 15.11300 41.32500
C  -8.01300 11.41600 41.94400
C  -5.73200 14.12900 42.01400
O  -4.91300 13.37700 42.47700
C  -5.39900 15.63200 41.71500
C  -5.10000 16.28400 42.99800
O  -5.74300 16.12400 44.02600
O  -4.01200 17.14300 42.86600
C  -3.40500 17.41600 44.17700
H  -9.64200 21.06700 39.81800
H  -14.47800 16.98800 39.89200
H  -10.72200 12.03000 41.34300
H  -5.39000 18.71900 41.15300
H  -7.01900 20.41300 39.43500
H  -7.68300 20.97200 42.21000
H  -6.63600 21.90600 41.10700
H  -5.95500 20.69000 42.13200
H  -5.50600 19.06200 38.31900
H  -6.29600 17.53700 38.55100
H  -3.68300 17.65200 39.99000
H  -3.58200 18.26300 38.31800
H  -11.33900 22.34800 39.72800
H  -12.92400 22.37700 39.46700
H  -11.88000 21.91600 38.08700
H  -16.83100 19.18600 38.41400
H  -16.25500 18.53700 39.89100
H  -15.58800 17.86300 38.32600
H  -14.19400 14.37300 39.39100
H  -13.37500 13.19300 42.11500
H  -15.41900 13.82500 42.12300
H  -16.15400 14.59300 40.74100
H  -15.14000 15.55800 41.91200
H  -12.40800 11.54900 39.91000
H  -14.01700 12.09900 39.41100
H  -14.85800 10.45700 40.82700
H  -13.91900 11.11800 42.16900
H  -13.15100 9.99600 41.17700
H  -8.92500 10.87000 42.18500
H  -7.24200 11.12000 42.65600
H  -7.67600 10.98000 41.00400
H  -4.62500 15.83200 40.97300
H  -3.97500 18.12900 44.77300
H  -2.58700 18.06000 43.85300
H  -3.11600 16.53400 44.74800

