158

Mg 46.35700 24.88300 29.05200
C  47.14600 26.95200 31.79600
C  45.04500 22.62000 31.20900
C  46.38800 22.61600 26.53600
C  47.87400 27.28300 26.99800
N  46.13700 24.76700 31.25300
C  46.38800 25.85700 32.15300
C  45.80000 25.49700 33.55900
C  45.17000 24.10700 33.42300
C  45.45400 23.76400 31.89200
C  45.81700 23.00100 34.25300
C  44.88200 26.58400 34.17500
C  45.15800 26.95400 35.65400
H  43.96600 27.10000 36.58000
N  45.74800 22.88300 28.91200
C  45.20400 22.16700 29.89100
C  44.88100 20.87800 29.34800
C  45.40700 20.73700 28.06200
C  45.95600 22.08000 27.78900
C  44.14000 19.87100 30.10700
C  45.33800 19.60500 27.04900
O  46.00500 19.70500 26.06800
C  44.73600 18.30000 27.41500
N  47.08700 24.95100 27.11400
C  46.81100 23.92400 26.20800
C  47.15800 24.35300 24.78800
C  47.45400 25.87400 24.96000
C  47.53100 26.07200 26.45000
C  48.20400 23.46500 23.97300
C  46.41100 26.83000 24.27900
C  45.06000 26.85900 24.92700
N  47.26400 26.72900 29.29400
C  47.88800 27.55400 28.34500
C  48.29600 28.82800 28.92800
C  48.01100 28.53500 30.26500
C  47.52900 27.26700 30.45300
C  48.87500 30.16800 28.34400
C  48.13200 29.15500 31.54900
O  48.53500 30.25200 31.91400
C  47.57500 28.11900 32.60100
C  48.70500 27.75100 33.47900
O  49.66400 27.12000 33.13300
O  48.42200 28.13900 34.74100
C  49.38800 27.67400 35.78400
H  44.46000 22.00300 31.89300
H  46.28900 22.05000 25.60700
H  48.34700 28.05300 26.38400
H  46.63900 25.35900 34.24100
H  44.11100 24.16100 33.67400
H  45.23200 22.09100 34.11600
H  45.82400 23.19600 35.32500
H  46.81600 22.76900 33.88400
H  43.85000 26.28000 33.99700
H  44.94100 27.45300 33.52100
H  45.69100 27.90400 35.65800
H  45.95200 26.31900 36.04700
H  44.78900 19.02200 30.32000
H  43.31500 19.47400 29.51500
H  43.78800 20.22600 31.07600
H  45.20400 17.95700 28.33800
H  44.86500 17.54400 26.64100
H  43.67500 18.54800 27.45200
H  46.18400 24.26100 24.30600
H  48.45200 26.15600 24.62600
H  48.54900 22.61200 24.55700
H  49.11900 23.96900 23.66000
H  47.83700 22.94500 23.08800
H  46.29100 26.47300 23.25600
H  46.90500 27.80100 24.32500
H  44.92800 25.92800 25.47800
H  44.40400 26.93900 24.06000
H  45.01900 27.73500 25.57300
H  49.24100 29.83700 27.37200
H  49.58600 30.47700 29.11000
H  48.00100 30.81900 28.35800
H  46.73200 28.48700 33.18600
H  50.39400 27.75200 35.37100
H  49.07700 26.72100 36.21100
H  49.38500 28.36100 36.63000
Mg 16.12000 51.41600 24.83400
C  17.45400 50.61000 27.88700
C  13.14600 52.33400 26.66400
C  14.63500 52.44900 22.07300
C  18.70800 50.20700 23.14000
N  15.45600 51.74700 27.10300
C  16.26400 51.30800 28.12400
C  15.68700 51.83000 29.45100
C  14.24100 52.20300 29.07900
C  14.27800 52.10100 27.54000
C  13.16100 51.36500 29.79700
C  16.53700 53.02800 30.11500
C  16.71100 53.08500 31.61800
H  15.55700 52.33100 32.48100
N  14.24900 52.26600 24.39200
C  13.12700 52.56800 25.26500
C  12.05100 53.06200 24.58200
C  12.48900 53.14300 23.17300
C  13.79000 52.61200 23.15200
C  10.74100 53.42700 25.24000
C  11.72700 53.63800 21.94000
O  12.20400 53.84300 20.83800
C  10.35000 54.05900 22.10800
N  16.58000 51.15800 22.79100
C  15.79100 51.69000 21.83800
C  16.43100 51.43600 20.45200
C  17.85800 50.94000 20.87100
C  17.76800 50.81600 22.35400
C  15.83800 50.37500 19.51400
C  18.98200 52.01100 20.50300
C  18.92500 52.52400 19.09000
N  17.76300 50.59700 25.34500
C  18.77500 50.06900 24.54500
C  19.84900 49.51700 25.39700
C  19.31600 49.70000 26.65100
C  18.08700 50.29900 26.58100
C  21.08200 48.90200 24.90800
C  19.68500 49.53600 28.04600
O  20.66500 49.12300 28.61900
C  18.52400 50.11300 28.87900
C  18.07500 49.17800 29.99800
O  17.19400 48.34800 29.90400
O  18.86300 49.42600 31.11200
C  18.36700 48.89200 32.38000
H  12.21100 52.59800 27.16300
H  14.28400 52.96500 21.17800
H  19.65800 49.97900 22.65200
H  15.72700 51.05400 30.21500
H  13.94700 53.23700 29.26100
H  12.33500 52.01300 30.08900
H  13.50300 50.86600 30.70400
H  12.84100 50.56500 29.13000
H  15.94200 53.85300 29.72200
H  17.52800 53.08200 29.66500
H  16.93200 54.07200 32.02400
H  17.66800 52.57700 31.73800
H  10.31700 54.31300 24.76700
H  10.75000 53.69000 26.29800
H  10.13000 52.54200 25.06200
H  9.60800 53.41300 22.57800
H  10.01000 54.34500 21.11200
H  10.46600 54.95900 22.71100
H  16.45500 52.44000 20.03000
H  18.14700 49.97000 20.46800
H  15.24700 49.68800 20.11900
H  16.55800 49.82700 18.90600
H  15.09400 50.78600 18.83200
H  19.90700 51.44100 20.58600
H  18.93600 52.78900 21.26400
H  18.44400 51.79700 18.43600
H  19.98700 52.54600 18.84400
H  18.41900 53.47900 18.95100
H  21.88000 49.64400 24.95000
H  20.87500 48.48500 23.92300
H  21.46700 48.11900 25.56100
H  18.97600 50.95500 29.40200
H  17.59800 49.55800 32.77000
H  19.09200 48.90100 33.19400
H  18.05200 47.85100 32.30900

