158

Mg 1.68500 -1.42600 43.40300
C  4.82400 -0.52300 42.74400
C  0.55100 1.38600 41.72900
C  -1.52100 -2.66800 43.57400
C  2.84300 -4.47500 44.80300
N  2.57000 0.14300 42.19000
C  3.89600 0.35800 42.21000
C  4.30700 1.61200 41.42500
C  2.90800 2.36800 41.39400
C  1.96300 1.21300 41.73300
C  2.73100 3.73100 42.14300
C  4.99600 1.36400 40.06200
C  6.31400 2.06200 39.75000
H  6.50700 2.60900 38.29900
N  -0.23700 -0.63600 42.88700
C  -0.44200 0.47500 42.17600
C  -1.82600 0.64700 41.95000
C  -2.45200 -0.47200 42.42500
C  -1.42100 -1.40100 42.94600
C  -2.47900 1.64500 40.99900
C  -3.96100 -0.75100 42.31600
O  -4.71100 0.09000 41.82300
C  -4.59700 -1.96500 42.88400
N  0.82900 -3.30400 44.01400
C  -0.53300 -3.56200 44.04900
C  -0.84000 -4.90600 44.67700
C  0.53100 -5.47900 45.06200
C  1.44900 -4.37000 44.61600
C  -1.76600 -4.96000 45.95400
C  0.89500 -6.82700 44.53400
C  1.25000 -7.94600 45.54400
N  3.47300 -2.37600 43.72800
C  3.84600 -3.58000 44.33900
C  5.27000 -3.61300 44.56500
C  5.68900 -2.42900 43.97600
C  4.61200 -1.71900 43.44500
C  6.12700 -4.71600 45.17100
C  6.82500 -1.60700 43.63000
O  8.05000 -1.75400 43.78100
C  6.33600 -0.28700 42.89700
C  6.60700 0.90400 43.87800
O  5.80200 1.58100 44.44700
O  7.96600 0.99800 43.99000
C  8.34100 2.15400 44.80000
H  0.26700 2.40500 41.45800
H  -2.45000 -3.23500 43.66000
H  3.22400 -5.27100 45.44600
H  5.02700 2.21400 41.97800
H  2.70100 2.73500 40.38900
H  1.69500 3.75100 42.48200
H  2.89700 4.48900 41.37800
H  3.46000 3.85200 42.94500
H  4.34400 1.68700 39.25000
H  5.14700 0.28400 40.06400
H  7.18300 1.48600 40.06900
H  6.49400 2.93500 40.37800
H  -1.71600 1.94300 40.27900
H  -2.94100 2.48400 41.51900
H  -3.21400 1.21600 40.31700
H  -4.09000 -2.87300 42.55700
H  -5.55500 -2.16800 42.40500
H  -4.79800 -1.85100 43.94900
H  -1.25100 -5.49800 43.86000
H  0.67700 -5.41100 46.14000
H  -1.33100 -5.79600 46.50100
H  -2.78400 -5.07400 45.58000
H  -1.72600 -4.03300 46.52700
H  1.64000 -6.56500 43.78200
H  0.02300 -7.28000 44.06200
H  2.32800 -8.11000 45.56200
H  0.82600 -8.92800 45.33400
H  0.94400 -7.70400 46.56200
H  6.89700 -4.24000 45.77800
H  6.49200 -5.20100 44.26500
H  5.65300 -5.45700 45.81400
H  6.94800 -0.17600 42.00200
H  7.59700 2.86800 45.15400
H  9.03500 2.82200 44.29100
H  8.69600 1.68200 45.71600
Mg 30.97600 57.60100 39.01800
C  28.37600 55.59900 38.12600
C  33.21300 55.12900 38.25100
C  33.69100 59.80800 39.59500
C  28.83800 60.14300 39.98000
N  30.80200 55.71400 38.01700
C  29.59100 54.99600 37.92900
C  29.80900 53.52400 37.55600
C  31.38800 53.34100 37.78200
C  31.83800 54.83400 38.02400
C  31.94500 52.21700 38.73400
C  29.30800 52.99000 36.18400
C  29.67200 53.73100 34.87300
H  28.60600 54.35600 34.09100
N  33.18100 57.45600 38.89200
C  33.86300 56.36500 38.52900
C  35.25800 56.61900 38.60900
C  35.43500 57.94900 38.97900
C  34.08600 58.48800 39.14200
C  36.29600 55.67500 38.14000
C  36.78700 58.63500 39.06300
O  37.81900 58.04000 38.73200
C  36.85400 60.09600 39.42300
N  31.25900 59.67300 39.53300
C  32.38900 60.37400 39.74400
C  32.20600 61.81700 40.18900
C  30.62400 61.81000 40.54400
C  30.17000 60.49800 39.97100
C  33.09100 62.24200 41.41600
C  29.88300 63.16400 40.11300
C  29.14900 63.83300 41.26200
N  29.05700 57.89900 39.04800
C  28.24700 58.93400 39.53300
C  26.85200 58.51000 39.44800
C  26.83600 57.29700 38.85100
C  28.18800 56.87900 38.65500
C  25.65500 59.31500 39.72800
C  26.00700 56.26500 38.23700
O  24.80000 56.27000 38.08800
C  27.00000 55.10600 37.85500
C  26.68600 54.01500 38.78100
O  27.16300 53.82500 39.90800
O  25.55800 53.37000 38.25400
C  24.76100 52.46600 39.13400
H  33.93100 54.30800 38.18700
H  34.50300 60.46500 39.91500
H  28.11100 60.82300 40.43000
H  29.31400 52.97100 38.35500
H  31.83900 52.95600 36.86800
H  31.15000 51.47300 38.78700
H  32.37200 52.59600 39.66200
H  32.74000 51.67400 38.22400
H  28.22500 53.03200 36.30100
H  29.54600 51.93200 36.06700
H  30.09800 52.99300 34.19400
H  30.44300 54.46100 35.11900
H  36.62800 56.03300 37.16600
H  35.96000 54.64200 38.04600
H  37.09900 55.75800 38.87300
H  37.83200 60.48700 39.14400
H  36.61500 60.18700 40.48300
H  36.16400 60.65200 38.78800
H  32.33200 62.47300 39.32800
H  30.63100 61.63900 41.62000
H  32.58100 62.97800 42.03800
H  33.97300 62.79900 41.10000
H  33.21900 61.35600 42.03800
H  29.12400 63.02900 39.34300
H  30.60200 63.78700 39.58100
H  29.95900 64.10600 41.93800
H  28.40700 63.11400 41.60700
H  28.73000 64.79300 40.95800
H  24.76100 58.94500 39.22600
H  25.86800 60.31100 39.34000
H  25.48200 59.28900 40.80400
H  26.80300 54.89000 36.80500
H  24.68300 51.56000 38.53400
H  23.78400 52.90100 39.34400
H  25.40400 52.18800 39.96900

