158

Mg 48.65000 44.55900 43.06800
C  45.28300 43.90000 43.11100
C  49.13100 41.30600 42.30800
C  51.94900 45.16600 42.57300
C  48.00200 47.94500 42.89000
N  47.31100 42.78800 42.83700
C  45.98400 42.70900 42.90000
C  45.51400 41.29100 42.70500
C  46.77000 40.39400 42.68400
C  47.81200 41.54200 42.53000
C  46.91500 39.57200 44.01900
C  44.69300 41.13800 41.41000
C  45.04100 42.03900 40.16000
H  45.88200 41.36000 39.07200
N  50.31900 43.39200 42.51700
C  50.31800 42.03700 42.28900
C  51.67400 41.54600 42.24500
C  52.54600 42.61300 42.28300
C  51.61900 43.79500 42.40100
C  51.98700 40.00000 42.18900
C  54.04500 42.62400 42.30300
O  54.68800 41.58100 42.19700
C  54.91000 43.73600 42.54500
N  49.82500 46.24700 42.71500
C  51.15200 46.28000 42.66000
C  51.72400 47.72400 42.68600
C  50.46900 48.58900 42.92500
C  49.32800 47.57900 42.82200
C  52.91500 47.86100 43.71600
C  50.28800 49.79300 41.90000
C  49.84700 51.13300 42.52200
N  47.01100 45.73200 43.00400
C  46.85500 47.09700 43.00600
C  45.52000 47.45900 43.33500
C  44.89800 46.26900 43.41300
C  45.82900 45.21400 43.15500
C  44.93100 48.82500 43.34700
C  43.53700 45.67700 43.53100
O  42.42400 46.22400 43.63200
C  43.78600 44.06900 43.40200
C  43.19500 43.31200 44.59000
O  41.97300 42.97500 44.56400
O  44.18200 42.96500 45.47400
C  43.72400 42.16300 46.57200
H  49.33300 40.25500 42.08900
H  53.00900 45.39200 42.43600
H  47.78700 49.01500 42.92300
H  44.90700 41.15500 43.59900
H  46.90200 39.65600 41.89300
H  47.83200 39.78200 44.56900
H  46.87000 38.50700 43.79300
H  46.10400 39.85200 44.69100
H  43.62400 41.17500 41.62000
H  44.78600 40.09600 41.10500
H  45.52100 42.97500 40.44500
H  44.09300 42.33200 39.70900
H  52.08000 39.56200 41.19500
H  51.22100 39.40900 42.69200
H  52.89500 39.76500 42.74400
H  54.96100 44.30400 41.61600
H  55.93600 43.43800 42.75800
H  54.53700 44.36700 43.35200
H  52.05600 48.04900 41.70000
H  50.46600 49.04400 43.91500
H  52.88000 48.84300 44.18800
H  53.85600 47.68800 43.19400
H  52.84500 47.07900 44.47300
H  49.63000 49.47200 41.09200
H  51.30900 50.05200 41.62100
H  49.13200 51.51500 41.79300
H  50.67400 51.83900 42.60500
H  49.44500 51.03000 43.53000
H  45.49100 49.32100 44.13900
H  43.89800 48.88200 43.69100
H  45.21200 49.38400 42.45400
H  43.23200 43.63500 42.56900
H  43.00400 42.72700 47.16500
H  44.65700 41.87100 47.05500
H  43.29900 41.24900 46.15700
Mg 26.62500 50.82700 27.02800
C  24.41200 51.83700 29.52800
C  29.02600 50.26700 29.51700
C  28.87400 50.37400 24.62800
C  24.31900 52.01700 24.62900
N  26.76700 51.33500 29.21700
C  25.66900 51.49000 30.03200
C  25.93400 51.08100 31.49800
C  27.50800 50.83300 31.52700
C  27.79900 50.75100 29.97700
C  28.38500 51.92800 32.23200
C  25.03500 49.95100 32.06100
C  24.18100 50.18700 33.29600
H  24.35700 49.22500 34.40200
N  28.69200 50.23400 27.08000
C  29.44500 49.97100 28.14900
C  30.70500 49.49200 27.70900
C  30.66200 49.53100 26.31800
C  29.36600 50.11000 25.92300
C  31.74600 49.07300 28.68600
C  31.73500 49.05400 25.43100
O  31.68000 49.13900 24.18300
C  33.03300 48.45500 25.93800
N  26.63800 51.21500 24.94600
C  27.64000 50.79200 24.20500
C  27.26000 50.66100 22.70500
C  25.80700 51.21300 22.68300
C  25.52300 51.45300 24.14700
C  28.33100 51.43300 21.71900
C  24.73800 50.38600 21.92800
C  24.14800 51.05400 20.69400
N  24.70700 51.78900 26.95800
C  23.87900 52.27200 25.95700
C  22.66400 52.75000 26.49700
C  22.76600 52.50800 27.88800
C  24.06600 51.98500 28.11500
C  21.51700 53.27800 25.81400
C  22.04600 52.56800 29.12300
O  20.93300 52.90000 29.34800
C  23.11400 52.21800 30.27300
C  23.21400 53.35500 31.15800
O  23.64500 54.46600 30.93600
O  22.81600 52.91500 32.41000
C  22.92300 53.91800 33.50500
H  29.59700 49.80700 30.32600
H  29.52000 50.14700 23.77700
H  23.45500 52.09700 23.96600
H  25.76100 51.97600 32.09700
H  27.84400 49.89100 31.95900
H  29.13800 51.49500 32.89000
H  27.72100 52.55600 32.82500
H  28.83700 52.51100 31.42900
H  25.62200 49.03800 32.16000
H  24.41900 49.70500 31.19500
H  23.17200 50.23300 32.88400
H  24.35700 51.20500 33.64000
H  31.42600 49.00400 29.72600
H  32.62200 49.71800 28.61300
H  31.92000 48.02100 28.45900
H  33.71900 48.38000 25.09500
H  32.79700 47.44700 26.28000
H  33.45500 49.03700 26.75700
H  27.20900 49.61300 22.41200
H  25.78800 52.21500 22.25400
H  29.30900 51.66000 22.14300
H  27.87700 52.32100 21.27900
H  28.46100 50.68500 20.93700
H  23.97300 50.08900 22.64600
H  25.24300 49.48600 21.57600
H  23.21200 51.56100 20.92700
H  23.96300 50.29900 19.92900
H  24.82800 51.79400 20.27200
H  21.78200 54.03800 25.07900
H  20.87500 53.78600 26.53300
H  21.02000 52.38300 25.43900
H  22.64200 51.39100 30.80400
H  22.93900 54.97500 33.24000
H  23.87500 53.81600 34.02700
H  22.13800 53.81000 34.25400

