158

Mg 2.38000 -0.67400 43.28800
C  5.78700 0.06300 42.85500
C  1.75900 2.25200 41.52700
C  -0.78100 -1.55300 42.95600
C  3.26900 -3.75900 44.69700
N  3.65300 0.99700 42.16500
C  4.98900 1.10400 42.18800
C  5.49800 2.24900 41.33600
C  4.21300 3.07600 41.13800
C  3.12200 2.07500 41.66600
C  4.17600 4.50700 41.78300
C  6.10600 1.63800 40.02900
C  7.15100 2.47700 39.28900
H  6.74800 3.02800 37.89400
N  0.74600 0.15900 42.33600
C  0.67900 1.43200 41.75800
C  -0.62600 1.67100 41.38500
C  -1.38900 0.50200 41.61500
C  -0.46100 -0.34800 42.34300
C  -1.10700 2.90900 40.67300
C  -2.87500 0.21600 41.16800
O  -3.45000 1.09700 40.51600
C  -3.59300 -1.11800 41.34900
N  1.34700 -2.39400 43.81000
C  0.02700 -2.49900 43.60100
C  -0.50700 -3.83500 44.15100
C  0.79400 -4.64600 44.46700
C  1.88300 -3.54600 44.32100
C  -1.48300 -3.58700 45.32600
C  1.13900 -5.82400 43.48400
C  1.63700 -7.17100 44.02400
N  4.13300 -1.61000 43.87900
C  4.38300 -2.86100 44.45900
C  5.82100 -3.01200 44.72000
C  6.38800 -1.82400 44.21600
C  5.33600 -1.06100 43.57600
C  6.50500 -4.16900 45.44600
C  7.65700 -1.08300 44.05400
O  8.78800 -1.29400 44.37000
C  7.34000 0.14000 43.18200
C  7.42300 1.24700 44.12800
O  6.65300 1.40700 45.07400
O  8.40800 2.12700 43.79200
C  8.65900 3.23400 44.75700
H  1.40300 3.19100 41.09800
H  -1.85800 -1.72200 43.01000
H  3.44800 -4.70200 45.22000
H  6.30500 2.78200 41.84000
H  4.13600 3.33100 40.08100
H  5.11900 4.59700 42.32300
H  3.33200 4.71600 42.44100
H  4.26700 5.33300 41.07800
H  5.22700 1.36200 39.44600
H  6.61400 0.68900 40.20300
H  7.99600 1.82600 39.06200
H  7.52900 3.30700 39.88500
H  -1.88200 2.78900 39.91600
H  -0.28100 3.33200 40.10100
H  -1.49700 3.62000 41.40100
H  -4.55500 -1.14200 40.83700
H  -3.77500 -1.23500 42.41700
H  -2.96600 -1.89800 40.91700
H  -1.06300 -4.30500 43.33900
H  0.80700 -5.04900 45.48000
H  -1.24500 -4.10900 46.25300
H  -2.49600 -3.85600 45.02700
H  -1.50200 -2.50700 45.47300
H  1.95300 -5.44200 42.86700
H  0.32000 -6.07300 42.80900
H  1.14100 -8.03300 43.57800
H  1.65600 -7.24000 45.11200
H  2.68100 -7.29900 43.74100
H  6.14100 -4.28400 46.46700
H  7.58400 -4.03100 45.36500
H  6.35400 -5.00700 44.76500
H  7.95600 0.18700 42.28300
H  7.69100 3.67100 45.00200
H  9.40000 3.95800 44.41600
H  8.94800 2.76500 45.69700
Mg 41.01800 7.91500 29.63100
C  42.73600 9.29200 32.39600
C  38.51800 6.95300 31.82700
C  39.74200 6.20200 27.12900
C  43.98300 8.38700 27.80500
N  40.76500 8.15100 31.92500
C  41.51400 8.77600 32.81600
C  40.89000 8.83700 34.21900
C  39.51000 8.14800 33.94500
C  39.59200 7.65500 32.50500
C  39.08900 7.05800 34.92000
C  40.86100 10.27900 34.88200
C  39.85100 10.41900 36.10200
H  40.31100 11.30700 37.27000
N  39.25100 6.88800 29.49400
C  38.36900 6.52800 30.47300
C  37.27100 5.86900 29.83000
C  37.53500 5.76100 28.46900
C  38.91200 6.27500 28.31200
C  36.07300 5.40000 30.64300
C  36.72000 5.18800 27.34000
O  37.11300 5.19800 26.19100
C  35.29900 4.61900 27.65000
N  41.76300 7.44100 27.69300
C  41.01800 6.72800 26.79300
C  41.74000 6.55600 25.39700
C  43.16300 7.32400 25.65000
C  43.00900 7.69300 27.15900
C  41.90400 5.04400 24.87800
C  43.38700 8.57500 24.75400
C  42.51300 9.80600 24.97100
N  42.87000 8.70900 29.95700
C  43.99300 8.84300 29.11400
C  45.07000 9.51800 29.74000
C  44.58900 9.77700 31.07800
C  43.29600 9.13800 31.16300
C  46.42900 9.75000 29.13000
C  44.95200 10.30300 32.33700
O  46.00100 10.76700 32.72500
C  43.78900 9.96400 33.30600
C  44.44800 9.05300 34.35600
O  44.71200 7.87500 34.07300
O  44.59900 9.66500 35.54600
C  44.98800 8.69000 36.61800
H  37.58400 6.77700 32.36600
H  39.36100 5.67600 26.25100
H  44.88500 8.32100 27.19300
H  41.57200 8.20900 34.79200
H  38.71400 8.89100 34.00200
H  38.31500 7.34000 35.63500
H  40.02400 6.83900 35.43500
H  38.66500 6.20000 34.39800
H  40.43600 11.01900 34.20400
H  41.82200 10.50700 35.34200
H  39.63800 9.48300 36.61900
H  38.92600 10.82500 35.69300
H  36.26100 5.45100 31.71500
H  35.77000 4.35800 30.53700
H  35.22600 6.04800 30.41500
H  35.36200 3.90600 28.47200
H  34.80800 4.26300 26.74400
H  34.67500 5.42900 28.02700
H  41.14900 7.07100 24.64000
H  43.97700 6.62500 25.46000
H  42.93900 4.70300 24.84000
H  41.47900 4.92800 23.88200
H  41.32000 4.39000 25.52500
H  43.11200 8.15900 23.78500
H  44.44600 8.82500 24.82500
H  41.71200 9.65200 25.69400
H  42.01800 9.98800 24.01700
H  43.05100 10.70400 25.27500
H  46.46100 9.65400 28.04500
H  47.04800 9.09200 29.74000
H  46.73100 10.78100 29.31200
H  43.40600 10.89100 33.73100
H  44.74900 9.13100 37.58600
H  46.06100 8.50100 36.60000
H  44.59900 7.67400 36.55200

