158

Mg 35.98000 2.51100 29.39800
C  33.59500 3.04200 31.82800
C  38.35800 2.67300 31.69700
C  38.19000 1.81200 26.92200
C  33.38800 2.63900 27.00600
N  35.86900 2.91100 31.57400
C  34.84400 3.02100 32.36800
C  35.18000 3.10200 33.87200
C  36.75800 3.31400 33.72200
C  37.07000 2.88500 32.23800
C  37.16200 4.77000 34.07000
C  34.73600 1.75200 34.51100
C  34.52600 1.76600 36.05100
H  35.06000 3.00600 36.77400
N  37.96700 2.22700 29.34800
C  38.80200 2.32500 30.41400
C  40.17200 2.06900 30.00500
C  40.12700 1.82600 28.53800
C  38.68900 1.98400 28.22100
C  41.30600 2.01300 30.96000
C  41.34300 1.45000 27.60700
O  41.19000 1.01700 26.45400
C  42.72500 1.51600 28.11800
N  35.83500 2.24200 27.28700
C  36.83700 1.85700 26.51000
C  36.37000 1.69000 25.04900
C  34.84500 1.56800 25.19300
C  34.61800 2.25300 26.53300
C  36.82800 2.82100 24.11400
C  34.13800 0.15200 25.04300
C  32.91000 -0.02700 24.10700
N  33.95700 2.95000 29.32500
C  33.03100 2.98700 28.27900
C  31.71400 3.26900 28.80000
C  31.85600 3.23200 30.19900
C  33.27200 3.05000 30.44500
C  30.54600 3.34800 28.00400
C  31.19800 3.46500 31.45600
O  30.02700 3.72400 31.79700
C  32.26200 3.16700 32.50700
C  32.16000 4.40900 33.39900
O  32.70100 5.44100 33.20300
O  31.48000 4.09900 34.58000
C  31.32900 5.13200 35.61200
H  39.12400 2.73900 32.47200
H  38.99300 1.45000 26.27600
H  32.51500 2.58400 26.35200
H  34.78100 3.99400 34.35500
H  37.17500 2.56300 34.39300
H  36.42500 5.11100 34.79700
H  37.09700 5.41100 33.19000
H  38.09100 4.77100 34.64100
H  35.37600 0.91600 34.23000
H  33.69900 1.55400 34.24000
H  34.97600 0.88700 36.51400
H  33.43700 1.76100 36.07900
H  40.85000 1.72900 31.90900
H  41.61200 3.05500 31.04500
H  42.08300 1.27100 30.77400
H  42.64100 2.43100 28.70500
H  43.32600 1.85800 27.27600
H  43.03300 0.54700 28.51100
H  36.69900 0.67900 24.81200
H  34.28900 2.17000 24.47400
H  36.28300 3.75000 24.28100
H  36.73000 2.57500 23.05700
H  37.89400 2.98600 24.27000
H  33.75400 -0.14100 26.02000
H  34.91200 -0.57900 24.80600
H  32.89900 0.88700 23.51400
H  32.03700 -0.21300 24.73200
H  33.14500 -0.81400 23.39100
H  30.66000 2.94600 26.99700
H  30.25100 4.38500 27.83900
H  29.70700 2.90800 28.54200
H  31.97600 2.27700 33.06700
H  31.32900 4.58600 36.55500
H  30.37100 5.63600 35.48200
H  32.17700 5.81100 35.69900
Mg -10.92900 16.44500 42.94100
C  -7.46500 17.40000 42.88400
C  -11.65000 19.90100 42.45100
C  -14.03500 15.64000 42.69000
C  -9.86700 13.16600 42.66700
N  -9.65600 18.48600 42.56700
C  -8.27600 18.56000 42.73800
C  -7.86300 20.01000 42.49300
C  -9.17200 20.80800 42.59000
C  -10.24500 19.73700 42.45100
C  -9.25000 21.53800 43.99100
C  -7.00200 20.18400 41.20200
C  -5.56700 20.68700 41.22400
H  -4.64400 20.06300 40.20100
N  -12.61500 17.54800 42.75200
C  -12.72900 18.96000 42.57600
C  -14.10300 19.32300 42.39400
C  -14.84400 18.13400 42.69100
C  -13.85400 17.03700 42.78200
C  -14.66900 20.72700 42.05400
C  -16.38900 18.03800 42.70500
O  -17.07600 18.97600 42.31100
C  -17.01400 16.80200 43.33700
N  -11.83200 14.65200 42.69600
C  -13.17200 14.55200 42.66000
C  -13.62500 13.09000 42.91600
C  -12.27600 12.32500 42.57100
C  -11.21300 13.40900 42.64100
C  -14.35500 12.92700 44.29500
C  -12.38300 11.58400 41.13400
C  -12.86700 10.11500 41.08300
N  -9.09800 15.49500 42.74400
C  -8.84400 14.16100 42.74700
C  -7.41400 13.89300 42.83300
C  -6.82600 15.15500 42.97500
C  -7.91200 16.09300 42.87300
C  -6.84000 12.51200 42.74900
C  -5.56600 15.79400 43.14300
O  -4.38000 15.40100 43.29500
C  -5.94300 17.30400 43.25100
C  -5.69200 17.64000 44.63500
O  -5.94400 16.96100 45.61000
O  -5.12600 18.85600 44.64100
C  -4.88500 19.48200 46.01100
H  -11.93000 20.92300 42.18700
H  -15.04400 15.22200 42.67800
H  -9.62800 12.10700 42.79000
H  -7.20900 20.14000 43.35500
H  -9.27900 21.60100 41.84900
H  -8.31200 21.74900 44.50600
H  -9.76500 20.92200 44.72800
H  -9.90400 22.40400 43.88800
H  -7.57100 20.87100 40.57600
H  -7.04400 19.21400 40.70600
H  -5.05400 20.45100 42.15700
H  -5.50500 21.77300 41.15800
H  -14.83200 20.84800 40.98300
H  -13.98000 21.54000 42.28100
H  -15.56900 21.09500 42.54600
H  -18.03600 17.00200 43.66000
H  -16.35400 16.38100 44.09500
H  -17.03600 16.10000 42.50300
H  -14.42300 12.99000 42.18000
H  -12.02700 11.59800 43.34300
H  -14.36200 13.91800 44.74900
H  -13.83700 12.25300 44.97700
H  -15.41200 12.67000 44.23400
H  -11.59100 11.88300 40.44800
H  -13.27800 12.00100 40.67300
H  -12.13900 9.36900 40.76500
H  -13.76100 10.14400 40.46000
H  -13.27200 9.93400 42.07800
H  -7.54000 11.77600 42.35400
H  -6.61200 12.05200 43.71000
H  -5.88900 12.44300 42.22100
H  -5.32600 17.90500 42.58400
H  -3.99600 20.04800 45.73400
H  -4.57000 18.71700 46.72000
H  -5.71500 20.10800 46.34100

