158

Mg -1.12000 17.58300 27.26200
C  -1.64000 15.17500 29.74200
C  -1.59000 20.03100 29.48800
C  -0.55900 19.87100 24.71400
C  -0.50900 14.95000 24.90900
N  -1.57900 17.60600 29.35400
C  -1.79200 16.48400 30.23500
C  -2.02100 16.98000 31.71800
C  -2.05700 18.51600 31.49700
C  -1.83700 18.75700 30.00200
C  -3.31400 19.26400 32.18600
C  -0.86700 16.50000 32.65700
C  -0.55400 17.33700 33.92200
H  -0.12600 16.45100 35.12800
N  -1.19400 19.65400 27.07300
C  -1.43200 20.50300 28.13300
C  -1.38800 21.91200 27.67300
C  -0.99500 21.80600 26.27400
C  -0.97100 20.37700 25.94700
C  -1.73700 23.08300 28.53500
C  -0.88600 22.92200 25.25900
O  -0.66900 22.81700 24.03200
C  -1.24600 24.29500 25.85100
N  -0.71700 17.43800 25.12400
C  -0.57600 18.54000 24.26500
C  -0.37400 18.03600 22.82400
C  -0.14000 16.53400 23.01300
C  -0.43100 16.28200 24.46800
C  -1.62800 18.46900 21.89400
C  1.26700 16.04100 22.58100
C  2.46300 16.20700 23.50100
N  -1.17500 15.50900 27.25400
C  -0.83600 14.55400 26.29300
C  -1.11500 13.21400 26.76600
C  -1.37800 13.36600 28.13000
C  -1.38000 14.78700 28.36200
C  -0.96800 11.92000 26.01200
C  -1.65600 12.74600 29.40900
O  -1.69500 11.55900 29.68000
C  -1.88000 13.89100 30.47000
C  -0.94600 13.42400 31.57400
O  0.26600 13.47100 31.51200
O  -1.67000 12.69700 32.50000
C  -0.82000 12.17900 33.56300
H  -1.86500 20.82200 30.18900
H  -0.47200 20.45000 23.79200
H  -0.18400 14.18400 24.20200
H  -2.96500 16.57700 32.08500
H  -1.15200 18.98600 31.88200
H  -2.98300 19.97100 32.94700
H  -3.87800 18.48800 32.70400
H  -3.99100 19.78400 31.50800
H  -0.03100 16.26700 31.99700
H  -1.25300 15.57300 33.08100
H  -1.46100 17.91300 34.10500
H  0.20900 18.08800 33.71700
H  -2.55000 23.60300 28.02900
H  -0.86400 23.71500 28.70000
H  -2.09700 22.83500 29.53300
H  -2.31500 24.34300 26.05400
H  -1.09900 25.05800 25.08600
H  -0.53600 24.45900 26.66200
H  0.50100 18.52800 22.39900
H  -0.92000 15.96000 22.51300
H  -1.81200 19.52500 22.09400
H  -2.45900 17.94800 22.36800
H  -1.50900 18.29100 20.82500
H  1.57600 16.52200 21.65300
H  1.29500 14.96300 22.42600
H  3.38500 16.39500 22.95100
H  2.54900 15.43500 24.26600
H  2.43400 17.15600 24.03700
H  -0.31600 12.11100 25.15900
H  -1.98400 11.68200 25.69800
H  -0.72400 11.06600 26.64400
H  -2.90200 13.90200 30.84900
H  -0.37800 11.21100 33.32300
H  -1.35500 12.14600 34.51200
H  0.01500 12.84600 33.77800
Mg 47.70600 16.29000 29.12500
C  45.75900 15.72500 31.96900
C  49.83700 18.06700 31.26900
C  49.41900 17.50900 26.39300
C  45.31000 14.96300 27.11600
N  47.68500 16.93500 31.33400
C  46.92500 16.45000 32.30600
C  47.29200 16.88100 33.79200
C  48.38800 17.90900 33.44000
C  48.69500 17.59000 31.90700
C  47.77200 19.38100 33.52100
C  47.87100 15.70300 34.64500
C  47.98500 15.84900 36.20600
H  47.65000 17.21600 36.98800
N  49.37900 17.50600 28.90000
C  50.14900 18.10100 29.90400
C  51.36000 18.69600 29.33500
C  51.24600 18.53900 27.88600
C  49.95000 17.85200 27.67600
C  52.50800 19.37600 30.20200
C  52.30000 19.08300 26.87000
O  52.06500 19.11400 25.68000
C  53.48900 19.79100 27.32100
N  47.42000 16.25000 27.07700
C  48.21200 16.83500 26.11700
C  47.73300 16.67300 24.64700
C  46.55100 15.69100 24.89000
C  46.43200 15.53200 26.46400
C  47.38800 18.07200 23.97500
C  46.54300 14.31700 24.12500
C  45.58000 14.00800 22.92500
N  45.87500 15.52700 29.37700
C  44.96400 14.92800 28.55800
C  43.82900 14.35200 29.28600
C  44.16100 14.60400 30.60500
C  45.35800 15.32200 30.62600
C  42.61100 13.67000 28.68900
C  43.60300 14.52100 31.94800
O  42.61100 13.99900 32.43700
C  44.63800 15.21800 32.92400
C  43.93500 16.36400 33.48200
O  43.37700 17.19500 32.82200
O  43.98300 16.32700 34.88900
C  43.49000 17.57800 35.48100
H  50.58800 18.55300 31.89500
H  49.92800 17.85600 25.49200
H  44.60900 14.52000 26.40600
H  46.48300 17.27200 34.41000
H  49.20100 17.85000 34.16400
H  48.63200 20.05100 33.50900
H  47.34500 19.54200 34.51000
H  47.07400 19.58700 32.70900
H  48.85800 15.59400 34.19400
H  47.26300 14.85200 34.33800
H  49.05500 15.69900 36.35100
H  47.42700 15.18400 36.86500
H  52.51000 18.98700 31.22000
H  52.51900 20.46100 30.09600
H  53.47500 19.02300 29.84400
H  53.23900 20.68000 27.90000
H  54.07200 20.26400 26.53200
H  54.13700 19.05800 27.80100
H  48.40600 16.04400 24.06400
H  45.66000 16.26700 24.64100
H  47.97400 18.81300 24.51800
H  46.34800 18.37600 24.09100
H  47.70100 18.22500 22.94200
H  46.39200 13.55000 24.88500
H  47.48100 14.30900 23.57000
H  46.13300 13.71200 22.03300
H  44.88400 14.83600 22.79000
H  44.98100 13.16100 23.25800
H  42.26200 13.11200 29.55800
H  42.97500 12.96400 27.94300
H  41.88800 14.37800 28.28300
H  44.79900 14.49900 33.72800
H  42.40200 17.52900 35.52200
H  43.81300 18.48300 34.96800
H  43.79900 17.65100 36.52400

