158

Mg 47.10600 16.92800 27.60100
C  45.20700 16.84200 30.47300
C  49.40000 18.90800 29.23200
C  48.66700 17.45400 24.72800
C  44.33500 15.60700 25.81700
N  47.22700 17.79900 29.70100
C  46.45200 17.43400 30.72400
C  47.06700 17.95400 32.03200
C  48.40800 18.71800 31.61300
C  48.34800 18.46200 30.07100
C  48.43800 20.13100 32.12600
C  47.31800 16.87600 33.04900
C  47.66700 17.36900 34.45800
H  46.88600 18.58400 34.96400
N  48.84700 17.88000 27.04900
C  49.67300 18.60700 27.88000
C  50.88000 18.97800 27.17100
C  50.73000 18.55200 25.80500
C  49.40100 17.86100 25.79100
C  51.98600 19.76400 27.78100
C  51.61500 18.78300 24.58200
O  51.32000 18.41700 23.47300
C  52.90100 19.63400 24.71600
N  46.60500 16.50800 25.55900
C  47.42900 16.81600 24.56100
C  46.75700 16.50400 23.19700
C  45.65100 15.54600 23.56900
C  45.52200 15.86000 25.06300
C  46.42400 17.76500 22.39300
C  46.02800 14.11800 23.36000
C  45.34000 13.51000 22.11900
N  45.14300 16.42600 27.98600
C  44.16100 15.84300 27.15600
C  42.97900 15.57800 27.98000
C  43.37200 15.90800 29.31500
C  44.70200 16.45300 29.23500
C  41.60900 15.10500 27.56600
C  42.90300 15.98100 30.70800
O  41.83800 15.65000 31.20700
C  44.14500 16.47900 31.54900
C  43.66600 17.63000 32.37600
O  44.02900 18.78700 32.17400
O  42.84000 17.23200 33.38100
C  42.18700 18.20600 34.28000
H  50.07100 19.60900 29.73300
H  49.18400 17.62100 23.78100
H  43.45700 15.23500 25.28300
H  46.42600 18.76000 32.38900
H  49.28900 18.20300 31.99500
H  49.40700 20.26300 32.60800
H  47.67300 20.38300 32.86000
H  48.29900 20.82100 31.29400
H  48.12300 16.27300 32.63000
H  46.43700 16.23900 33.11700
H  48.74600 17.51400 34.51600
H  47.58000 16.48100 35.08400
H  52.94100 19.33900 27.47200
H  51.96300 19.68200 28.86800
H  51.81300 20.82400 27.59700
H  53.70000 19.12400 25.25400
H  52.62600 20.60500 25.12800
H  53.28000 19.70800 23.69700
H  47.42500 16.00300 22.49700
H  44.66700 15.72000 23.13400
H  46.79400 18.68000 22.85600
H  45.34800 17.79100 22.22000
H  47.03500 17.69500 21.49300
H  45.72900 13.51100 24.21500
H  47.10600 13.95800 23.36000
H  45.27000 14.04000 21.16900
H  44.37400 13.09300 22.40400
H  45.98400 12.69000 21.80300
H  41.50900 14.07700 27.91400
H  41.49100 15.21200 26.48800
H  40.82300 15.74100 27.97300
H  44.38400 15.63700 32.19800
H  41.11900 18.06100 34.12000
H  42.49600 19.23500 34.09300
H  42.31300 18.02400 35.34700
Mg 2.25000 42.17900 25.25600
C  3.39200 42.18500 28.69700
C  -0.75600 41.18800 26.29400
C  1.60100 41.46300 22.05400
C  5.50300 43.08800 24.32400
N  1.46800 41.69200 27.30900
C  2.02800 41.80400 28.55100
C  1.02000 41.64200 29.66900
C  -0.28400 41.08700 28.83400
C  0.13300 41.35800 27.36800
C  -0.71900 39.64100 29.22700
C  0.85800 42.91400 30.45500
C  0.81800 42.92500 31.98300
H  0.15200 41.83300 32.78800
N  0.70200 41.36400 24.30800
C  -0.56300 41.06500 24.89700
C  -1.49100 40.75900 23.84700
C  -0.77700 40.71200 22.60400
C  0.60700 41.12900 22.97900
C  -2.96500 40.60000 24.16300
C  -1.28000 40.51500 21.12700
O  -0.54500 40.68400 20.20000
C  -2.73600 40.32700 20.91000
N  3.44200 42.20600 23.41600
C  2.85900 41.92800 22.24100
C  3.89000 42.15800 21.08400
C  4.99800 42.84500 21.79200
C  4.63400 42.78100 23.26400
C  4.24400 40.93600 20.22000
C  5.25500 44.21300 21.19200
C  4.22400 45.37200 21.48500
N  4.09000 42.69600 26.27600
C  5.29000 42.97500 25.73600
C  6.29000 43.15200 26.85600
C  5.61600 42.78800 27.99900
C  4.22100 42.53500 27.60300
C  7.70900 43.57500 26.68600
C  5.67600 42.61300 29.42500
O  6.65100 42.62500 30.13400
C  4.21300 42.21600 29.87300
C  4.25200 40.94000 30.73300
O  4.70500 39.82600 30.43800
O  3.89200 41.35100 31.92900
C  3.88100 40.30800 32.91400
H  -1.74600 40.86700 26.62400
H  1.46800 41.15300 21.01500
H  6.54700 43.26400 24.05700
H  1.29200 40.88700 30.40600
H  -1.14100 41.73800 29.00800
H  -0.95000 39.14500 28.28500
H  -1.56500 39.70000 29.91200
H  0.13400 39.14600 29.69100
H  -0.02400 43.51300 30.23000
H  1.71100 43.48800 30.09300
H  0.52400 43.95200 32.20000
H  1.81300 42.94600 32.42900
H  -3.33800 39.78800 23.53800
H  -3.46600 41.48900 23.78200
H  -3.21900 40.36300 25.19600
H  -3.26500 41.16400 21.36500
H  -3.08800 39.37300 21.30500
H  -2.90300 40.23000 19.83800
H  3.46600 42.81800 20.32700
H  5.94100 42.30300 21.71300
H  3.61900 40.11900 20.58100
H  5.26200 40.54700 20.22400
H  4.05200 41.06500 19.15500
H  5.27200 44.14100 20.10400
H  6.22400 44.60200 21.50600
H  3.34700 44.94300 21.96800
H  3.92300 45.70500 20.49200
H  4.73900 46.08100 22.13400
H  7.78500 44.55800 27.15200
H  8.01100 43.65300 25.64200
H  8.38600 42.96800 27.28700
H  4.00500 43.01200 30.58700
H  3.21900 39.52900 32.53400
H  3.37800 40.67300 33.80900
H  4.85700 39.87600 33.13400

