158

Mg 40.42400 10.23400 29.42000
C  42.18400 11.35300 32.13500
C  38.07100 8.99200 31.53300
C  38.82000 8.92900 26.71600
C  42.96500 11.35200 27.17700
N  40.25800 10.04600 31.56700
C  40.99600 10.75700 32.45400
C  40.39500 10.68400 33.87500
C  39.23000 9.73200 33.67100
C  39.09900 9.63000 32.15600
C  39.43600 8.29200 34.24000
C  39.93300 12.00400 34.57900
C  39.53800 12.07100 36.12300
H  40.44900 12.52200 37.27300
N  38.61100 9.16800 29.16000
C  37.78800 8.77400 30.19000
C  36.57400 8.20800 29.54200
C  36.82400 8.14800 28.17900
C  38.09300 8.79200 27.99000
C  35.32900 7.94400 30.34200
C  35.98000 7.40700 27.17000
O  36.40900 7.07400 26.07600
C  34.53300 7.07100 27.59000
N  40.83200 10.13700 27.17400
C  39.97300 9.61800 26.27000
C  40.47800 9.75800 24.81400
C  41.66000 10.83100 25.01400
C  41.93100 10.74100 26.52300
C  40.93100 8.44700 24.13700
C  41.37300 12.37200 24.75000
C  39.94000 12.89700 24.71800
N  42.22500 10.98000 29.57700
C  43.18800 11.39300 28.62800
C  44.32200 11.96200 29.33900
C  43.97300 12.00700 30.72200
C  42.68000 11.41300 30.82600
C  45.59600 12.45300 28.75100
C  44.50800 12.40700 31.99700
O  45.60200 12.91300 32.25300
C  43.30700 12.02300 32.99700
C  43.81600 11.08100 34.01500
O  43.89600 9.86400 33.89100
O  44.13500 11.74500 35.13200
C  44.69000 10.96700 36.21000
H  37.33800 8.61400 32.24900
H  38.37000 8.55700 25.79400
H  43.67800 11.91500 26.57200
H  41.20100 10.34800 34.52600
H  38.35000 10.13700 34.17200
H  38.97200 8.15700 35.21700
H  40.48000 7.98100 34.25400
H  39.03000 7.54900 33.55400
H  39.10300 12.48900 34.06400
H  40.76400 12.70900 34.56900
H  39.39600 11.01900 36.37000
H  38.59300 12.60900 36.18100
H  35.41600 8.04000 31.42400
H  35.18100 6.86600 30.28400
H  34.47500 8.56500 30.07200
H  34.18500 6.69800 26.62600
H  34.00800 8.00600 27.78400
H  34.41200 6.30700 28.35700
H  39.75400 10.27200 24.18100
H  42.58100 10.57800 24.48900
H  40.49500 8.35900 23.14200
H  40.74200 7.62600 24.82900
H  42.00300 8.64300 24.16800
H  41.74500 12.57400 23.74600
H  42.04900 12.97700 25.35600
H  39.46500 12.87200 23.73700
H  40.00800 13.90700 25.12400
H  39.41700 12.47500 25.57500
H  45.96000 13.17200 29.48500
H  45.51400 13.07800 27.86200
H  46.22700 11.58500 28.55800
H  42.91000 12.90300 33.50300
H  45.13700 10.02800 35.88400
H  43.84200 10.67000 36.82700
H  45.32000 11.67000 36.75600
Mg 54.31900 24.45300 43.60800
C  51.66800 26.70900 43.50700
C  52.17300 21.92100 43.04900
C  56.96700 22.47300 43.08400
C  56.50400 27.17700 44.12500
N  52.20700 24.38200 43.02800
C  51.31800 25.37300 43.09600
C  49.96100 24.88500 42.80700
C  49.99700 23.39000 43.16200
C  51.56400 23.18300 43.04300
C  49.30200 22.99300 44.47400
C  49.67800 25.17300 41.27600
C  48.31700 24.98100 40.78800
H  48.18300 24.65200 39.34200
N  54.51500 22.48200 43.06000
C  53.54800 21.58700 42.90400
C  54.08200 20.27900 42.73700
C  55.46200 20.34900 42.77100
C  55.69800 21.79500 42.97800
C  53.29200 19.01000 42.48100
C  56.51400 19.19900 42.69300
O  56.22400 18.05200 42.57700
C  57.98700 19.49000 42.67900
N  56.44300 24.83700 43.52500
C  57.32600 23.84500 43.39000
C  58.78900 24.32100 43.47000
C  58.58600 25.81700 43.82900
C  57.08100 25.94600 43.73800
C  59.72000 23.64600 44.49100
C  59.43200 26.81900 42.94200
C  58.84200 27.19300 41.55200
N  54.16200 26.49400 43.92200
C  55.09000 27.44100 44.26800
C  54.45200 28.68700 44.59600
C  53.09400 28.43100 44.36400
C  52.98700 27.15000 43.82400
C  55.14900 29.95900 45.14600
C  51.79300 28.99700 44.27700
O  51.33900 30.09600 44.49300
C  50.86800 27.96100 43.70300
C  50.34400 28.40600 42.39700
O  51.02600 28.66500 41.40800
O  48.94300 28.46500 42.40200
C  48.31600 28.91300 41.14000
H  51.49300 21.08300 42.88600
H  57.85600 21.84200 43.14500
H  57.20600 28.01300 44.14500
H  49.30000 25.40900 43.49700
H  49.54000 22.85400 42.33000
H  48.39400 22.43400 44.24600
H  49.05200 23.89500 45.03300
H  49.97700 22.46400 45.14700
H  50.43300 24.59000 40.74800
H  49.90300 26.22700 41.11800
H  47.90100 25.97500 40.95300
H  47.89800 24.14900 41.35500
H  52.59700 18.98800 41.64100
H  52.66600 18.76700 43.33900
H  53.79300 18.06200 42.28800
H  58.50000 18.56800 42.40600
H  58.25400 19.90600 43.65100
H  58.13300 20.16600 41.83700
H  59.33900 24.24000 42.53200
H  58.93400 26.05200 44.83500
H  59.92700 24.27600 45.35700
H  60.70100 23.55700 44.02400
H  59.25300 22.70700 44.78700
H  60.37600 26.30900 42.75400
H  59.73900 27.65700 43.56800
H  58.39400 28.18200 41.45700
H  58.14100 26.42800 41.21900
H  59.74100 27.06400 40.95000
H  54.74800 30.29900 46.10000
H  54.98600 30.78000 44.44800
H  56.23000 29.82800 45.19800
H  50.03700 27.91300 44.40700
H  48.66000 28.26700 40.33200
H  48.68600 29.93000 41.01100
H  47.24200 28.83700 41.31100

