158

Mg -2.54000 17.50600 27.27500
C  -2.87600 15.04300 29.84200
C  -3.42800 19.88900 29.48600
C  -2.38000 19.73300 24.76800
C  -2.36600 14.92500 24.96700
N  -2.93800 17.48100 29.40200
C  -2.91800 16.40900 30.27500
C  -3.05800 16.83200 31.78300
C  -3.48100 18.35700 31.53400
C  -3.33700 18.58500 30.01800
C  -4.96400 18.85200 32.00500
C  -1.84200 16.49700 32.70500
C  -1.37700 17.48600 33.79100
H  -1.11200 16.81500 35.15200
N  -2.79200 19.59100 27.18500
C  -3.15100 20.36100 28.18800
C  -3.01600 21.74500 27.71300
C  -2.47900 21.69500 26.43800
C  -2.56400 20.30400 26.07200
C  -3.32900 22.95500 28.71500
C  -2.03400 22.81000 25.41400
O  -1.63300 22.58000 24.30100
C  -1.97200 24.19100 25.96200
N  -2.54600 17.30800 25.19200
C  -2.45700 18.40100 24.39900
C  -2.26100 18.00300 22.88800
C  -1.95100 16.48700 22.97200
C  -2.26100 16.21500 24.44600
C  -3.53200 18.42300 22.06800
C  -0.49400 16.12000 22.65600
C  0.65300 16.70200 23.45300
N  -2.63200 15.44900 27.26300
C  -2.62000 14.52400 26.23600
C  -2.78100 13.18000 26.78100
C  -2.85300 13.34600 28.16200
C  -2.79400 14.75800 28.41100
C  -2.71400 11.85000 26.10800
C  -2.91500 12.59300 29.40400
O  -2.87400 11.40400 29.69500
C  -3.01100 13.72000 30.53400
C  -2.05600 13.46900 31.55300
O  -0.86100 13.85300 31.52100
O  -2.61700 12.70600 32.49500
C  -1.70200 12.21100 33.54800
H  -3.73700 20.62400 30.23300
H  -2.25900 20.39200 23.90500
H  -2.19900 14.13700 24.23000
H  -3.99400 16.52500 32.24800
H  -2.69700 19.00500 31.92500
H  -4.61100 19.60400 32.71200
H  -5.52700 18.15800 32.63000
H  -5.56800 19.24900 31.18900
H  -0.93900 16.31200 32.12400
H  -2.03100 15.59500 33.28800
H  -2.17000 18.23000 33.85600
H  -0.43400 17.94800 33.49700
H  -3.96000 22.59000 29.52500
H  -3.88300 23.72300 28.17500
H  -2.46700 23.43300 29.18000
H  -1.01200 24.35500 26.45100
H  -2.80500 24.46200 26.61200
H  -1.91100 24.90800 25.14400
H  -1.37800 18.52500 22.51900
H  -2.64800 16.01400 22.28000
H  -3.48800 19.45100 21.70600
H  -4.42100 18.45400 22.69700
H  -3.74800 17.75200 21.23700
H  -0.39700 16.07100 21.57100
H  -0.46600 15.07600 22.96700
H  1.19400 15.87500 23.91200
H  0.24400 17.40900 24.17400
H  1.31400 17.23600 22.77000
H  -2.31800 11.83700 25.09200
H  -3.67800 11.34100 26.08100
H  -1.95500 11.27600 26.64000
H  -4.03200 13.59000 30.89400
H  -0.85700 11.62700 33.18200
H  -2.24300 11.60100 34.27100
H  -1.20800 12.97400 34.15100
Mg 0.34100 43.72500 26.15700
C  2.47600 43.98000 28.91800
C  -2.26400 43.22700 28.24700
C  -1.56900 43.40200 23.48200
C  3.07700 44.33800 24.09900
N  0.16600 43.75200 28.37100
C  1.16700 43.87300 29.31800
C  0.64400 43.66200 30.76800
C  -0.84700 43.18000 30.46100
C  -1.00000 43.34300 28.92200
C  -1.16500 41.69600 30.91800
C  0.91800 44.86400 31.72000
C  0.95400 44.50500 33.26000
H  0.52600 43.07000 33.69000
N  -1.64100 43.34800 25.92000
C  -2.57900 43.22800 26.83300
C  -3.84600 42.92700 26.21100
C  -3.64200 42.95500 24.81900
C  -2.22500 43.20800 24.70500
C  -5.15000 42.76200 26.95700
C  -4.66600 42.64500 23.71800
O  -4.33500 42.57000 22.53800
C  -6.07300 42.45000 23.97800
N  0.71100 43.90000 24.07400
C  -0.24400 43.68900 23.15100
C  0.24000 43.94300 21.77200
C  1.59200 44.47300 21.99500
C  1.80300 44.26100 23.46300
C  0.07200 42.68900 20.83300
C  1.88600 45.93900 21.71600
C  2.10000 46.38300 20.25200
N  2.34600 43.99800 26.38200
C  3.35700 44.22100 25.44400
C  4.58000 44.35300 26.16500
C  4.30700 44.15700 27.50200
C  2.95800 44.00300 27.60400
C  5.83300 44.58500 25.38400
C  4.84300 44.03400 28.85000
O  6.00800 43.98800 29.21400
C  3.72500 44.01900 29.83000
C  3.84500 42.90400 30.80700
O  3.71800 41.74000 30.47500
O  4.17000 43.36900 32.08700
C  4.19000 42.32400 33.09500
H  -3.06000 42.89600 28.91800
H  -2.32900 43.36400 22.69900
H  3.99500 44.41800 23.51400
H  1.12500 42.74800 31.11500
H  -1.63800 43.77800 30.91300
H  -1.37200 40.93100 30.16900
H  -1.93000 41.72300 31.69400
H  -0.26500 41.32500 31.40700
H  0.15700 45.60700 31.48200
H  1.92200 45.22700 31.50200
H  0.29500 45.28900 33.63200
H  1.89900 44.73500 33.75200
H  -5.78500 43.64300 26.86000
H  -5.05800 42.42600 27.99000
H  -5.79200 41.97800 26.55600
H  -6.21600 41.54300 24.56400
H  -6.58300 42.34800 23.02000
H  -6.50200 43.34900 24.42000
H  -0.34500 44.76100 21.35300
H  2.23700 43.76700 21.47300
H  -0.94700 42.30300 20.87700
H  0.82600 41.94600 21.09300
H  0.21700 42.87100 19.76800
H  2.81200 46.23600 22.20600
H  1.08600 46.53600 22.15400
H  3.03000 46.93700 20.12300
H  1.35100 47.15100 20.06100
H  2.11000 45.52200 19.58400
H  6.54600 44.74000 26.19400
H  5.77200 45.33600 24.59700
H  6.12700 43.68000 24.85300
H  3.81600 44.93700 30.41100
H  5.19600 41.96700 33.31400
H  3.47300 41.52200 32.91700
H  3.87000 42.73600 34.05200

