158

Mg 1.23400 7.62600 25.40600
C  1.73000 9.50300 28.29400
C  1.78500 4.78300 27.40900
C  0.89300 5.88400 22.60000
C  1.50700 10.61500 23.60600
N  1.82300 7.21900 27.56700
C  1.74300 8.15700 28.53400
C  1.76000 7.47100 29.92100
C  2.14800 5.94300 29.63300
C  1.94200 5.96900 28.11200
C  3.53300 5.54400 30.04300
C  0.33700 7.66800 30.62900
C  0.38900 7.87500 32.21500
H  1.67700 7.58400 32.96200
N  1.31400 5.61100 25.03700
C  1.42700 4.56200 26.07200
C  1.25900 3.29100 25.35800
C  1.01700 3.60900 23.96800
C  0.98800 5.08800 23.79600
C  1.29300 1.92300 26.03600
C  0.77300 2.58400 22.83700
O  0.33800 2.96300 21.74600
C  1.17600 1.13100 23.01000
N  1.15700 8.20600 23.39800
C  0.95400 7.25400 22.43200
C  1.01400 7.90800 21.02400
C  0.81900 9.46900 21.30000
C  1.26800 9.45700 22.82700
C  2.32000 7.71400 20.15700
C  -0.65900 9.96000 21.02800
C  -0.77800 11.14300 20.02800
N  1.53100 9.66500 25.82200
C  1.59800 10.74100 24.96400
C  1.79800 11.96600 25.75500
C  1.81700 11.47700 27.08000
C  1.57900 10.10700 27.05300
C  2.09300 13.35600 25.22200
C  2.11900 11.94300 28.41500
O  2.51700 13.05600 28.75300
C  1.91900 10.68800 29.27600
C  3.07900 10.56900 30.14600
O  4.13200 9.97300 29.98600
O  2.76200 11.22500 31.34000
C  3.69300 11.16500 32.45300
H  1.97100 3.89100 28.01000
H  0.72200 5.27100 21.71300
H  1.39400 11.59000 23.12700
H  2.51900 7.88400 30.58500
H  1.43800 5.24000 30.06800
H  4.10600 6.17800 30.71900
H  4.12100 5.28600 29.16200
H  3.32800 4.57700 30.50200
H  -0.24500 6.75500 30.50400
H  -0.23600 8.51700 30.25600
H  -0.45700 7.35400 32.66500
H  0.29200 8.94700 32.38300
H  1.99700 1.17400 25.67300
H  0.32600 1.44600 25.87500
H  1.39700 2.05900 27.11300
H  1.10800 0.48000 22.13800
H  0.45000 0.70100 23.70100
H  2.16400 0.99400 23.44900
H  0.20500 7.56300 20.38000
H  1.50300 10.11100 20.74400
H  2.77000 8.64200 19.80300
H  2.27100 6.90900 19.42300
H  3.01700 7.22400 20.83700
H  -1.18400 10.30000 21.92000
H  -1.29400 9.19600 20.58000
H  -1.61000 11.00200 19.33800
H  0.07900 11.27900 19.36800
H  -0.93500 12.05300 20.60800
H  1.73400 13.46900 24.19900
H  3.16100 13.57200 25.26900
H  1.61800 14.05600 25.90900
H  1.04100 10.89800 29.88700
H  3.25300 11.37300 33.42800
H  4.52700 11.84400 32.27400
H  4.06800 10.14200 32.41600
Mg 52.69200 23.23700 44.84500
C  49.86500 25.02800 44.00800
C  51.43200 20.53000 43.41000
C  55.84800 21.93100 44.96700
C  54.23100 26.39400 45.81400
N  50.84900 22.85800 43.79100
C  49.75500 23.65800 43.55000
C  48.60900 22.90800 42.91800
C  49.03100 21.48100 43.26200
C  50.54900 21.57700 43.52100
C  48.15500 20.64400 44.33800
C  48.59400 23.28300 41.33200
C  47.33200 22.74300 40.56800
H  47.28800 23.23700 39.07900
N  53.45700 21.43600 44.39400
C  52.79200 20.40600 43.74000
C  53.67800 19.23500 43.66600
C  54.96100 19.62300 44.15000
C  54.79700 21.03900 44.54700
C  53.31800 17.80600 43.13100
C  56.21000 18.72800 44.25700
O  56.19300 17.59000 43.82400
C  57.48600 19.19900 45.00400
N  54.79000 23.98600 45.42100
C  55.80800 23.20900 45.47800
C  57.05100 23.97700 46.04700
C  56.55900 25.37200 46.14700
C  55.08100 25.31400 45.74600
C  57.57100 23.42100 47.36600
C  57.34700 26.39900 45.33700
C  57.59900 27.76500 46.06600
N  52.14100 25.35700 45.06600
C  52.83700 26.42600 45.52700
C  51.95400 27.52800 45.60500
C  50.79600 27.10100 44.97800
C  50.97300 25.72400 44.58100
C  52.17700 28.81400 46.33300
C  49.48700 27.43900 44.55500
O  48.82900 28.48300 44.58800
C  48.80900 26.09800 43.81500
C  48.42900 26.48500 42.41000
O  49.12900 26.63000 41.38900
O  47.14200 26.94800 42.44800
C  46.61900 27.74900 41.30600
H  50.95100 19.65700 42.96300
H  56.86700 21.54500 44.89800
H  54.67300 27.30700 46.22000
H  47.66800 23.15500 43.40900
H  49.02200 20.74000 42.46300
H  47.34000 20.19400 43.77200
H  47.51400 21.27400 44.95500
H  48.72200 19.97600 44.98700
H  49.45100 22.79700 40.86700
H  48.81800 24.31800 41.07700
H  46.43300 23.12700 41.04900
H  47.21900 21.65900 40.60600
H  53.52000 17.10000 43.93700
H  53.97500 17.68900 42.26900
H  52.33500 17.67800 42.67800
H  58.10400 18.32400 45.20800
H  57.25300 19.66700 45.96100
H  58.03000 19.87900 44.34900
H  57.79000 23.82000 45.26100
H  56.66400 25.71300 47.17700
H  56.98000 23.84600 48.17800
H  58.57900 23.77800 47.57400
H  57.52200 22.33900 47.49200
H  56.74500 26.64200 44.46100
H  58.33500 26.01800 45.07900
H  58.65200 27.98300 46.24600
H  57.01700 27.80300 46.98600
H  57.20700 28.55500 45.42500
H  52.47300 29.52900 45.56600
H  53.01500 28.73400 47.02600
H  51.27400 29.08000 46.88300
H  47.99300 25.76300 44.45400
H  46.73300 27.37800 40.28800
H  47.26400 28.61900 41.18700
H  45.64700 28.14200 41.60200

