158

Mg 8.09300 2.71500 29.31200
C  9.56000 1.12200 32.19100
C  6.42700 4.79800 31.45700
C  6.59300 4.00900 26.68900
C  9.75700 0.40100 27.39700
N  7.86600 2.71000 31.63000
C  8.71200 2.18800 32.52400
C  8.50900 2.86000 33.91100
C  7.28400 3.79000 33.68700
C  7.19200 3.79300 32.12100
C  5.96100 3.41400 34.31800
C  9.78900 3.67000 34.35100
C  10.23700 3.61800 35.85900
H  9.15800 3.20000 36.98400
N  6.70000 4.20000 29.16800
C  6.19600 5.01500 30.11300
C  5.34700 6.05200 29.54000
C  5.36900 5.84700 28.15200
C  6.20700 4.64400 27.91900
C  4.56100 7.05100 30.29600
C  4.73800 6.68300 26.96400
O  4.91900 6.39300 25.81500
C  3.93600 7.93400 27.15300
N  7.96800 2.05500 27.32500
C  7.38500 2.84600 26.39600
C  7.74100 2.37800 24.98600
C  8.77600 1.28200 25.19000
C  8.88800 1.26300 26.72300
C  6.50400 1.94200 24.14500
C  10.06900 1.56100 24.34600
C  11.16700 2.57500 24.98900
N  9.32000 1.07000 29.64200
C  9.91800 0.20000 28.74300
C  10.75300 -0.77000 29.45200
C  10.63400 -0.46300 30.75700
C  9.79800 0.70400 30.87400
C  11.64800 -1.77000 28.68500
C  11.20200 -0.73100 32.10800
O  11.99100 -1.59700 32.49800
C  10.57500 0.32200 33.08500
C  9.87400 -0.43800 34.14200
O  8.92700 -1.20500 34.01700
O  10.45300 -0.22900 35.31300
C  9.79200 -0.84400 36.50500
H  5.90400 5.44100 32.16800
H  6.40300 4.52200 25.74400
H  10.34600 -0.32200 26.82800
H  8.12500 2.10500 34.59800
H  7.48600 4.80300 34.03500
H  5.33600 2.88800 33.59600
H  5.37000 4.23200 34.72900
H  6.10500 2.62600 35.05800
H  9.67600 4.74100 34.17700
H  10.62900 3.24800 33.79900
H  10.57400 4.58700 36.22600
H  11.06900 2.92200 35.97000
H  4.87800 7.08100 31.33800
H  3.51000 6.76800 30.36800
H  4.62000 8.05000 29.86300
H  3.18700 7.79000 27.93100
H  3.28100 8.13100 26.30400
H  4.56100 8.73800 27.54200
H  8.27300 3.17100 24.46000
H  8.39100 0.29300 24.94300
H  5.72400 1.84200 24.90000
H  6.64500 0.91600 23.80600
H  6.19700 2.54900 23.29300
H  9.86200 1.87900 23.32500
H  10.63200 0.64000 24.19000
H  12.04500 1.96800 25.20900
H  10.69400 2.91200 25.91200
H  11.31200 3.44000 24.34200
H  10.97300 -2.30400 28.01600
H  12.14400 -2.50800 29.31500
H  12.38400 -1.32300 28.01600
H  11.36200 1.00000 33.41500
H  10.55600 -1.48400 36.94600
H  8.88900 -1.44300 36.38700
H  9.43700 -0.05900 37.17200
Mg 24.39900 -5.09000 46.70000
C  26.21400 -2.40000 45.05500
C  21.57000 -4.00900 45.12200
C  23.07200 -8.04300 47.35100
C  27.49800 -6.21100 47.93400
N  24.00000 -3.48700 45.20500
C  24.87500 -2.49000 44.66900
C  24.09400 -1.70900 43.67000
C  22.63600 -1.95400 44.03600
C  22.70800 -3.25500 44.81900
C  21.99100 -0.80000 44.77900
C  24.62000 -1.96700 42.21800
C  25.12100 -0.77500 41.37100
H  26.03200 -1.04200 40.16600
N  22.50600 -5.91700 46.33400
C  21.48600 -5.34700 45.63600
C  20.38800 -6.26400 45.55900
C  20.76600 -7.44600 46.31800
C  22.11800 -7.16600 46.82700
C  19.05700 -5.85200 44.85200
C  19.90700 -8.64600 46.43900
O  18.82600 -8.78300 45.92800
C  20.28500 -9.77400 47.25900
N  25.19200 -6.86000 47.57300
C  24.41400 -7.98300 47.70900
C  25.22500 -9.11000 48.25400
C  26.53100 -8.45700 48.69700
C  26.47500 -7.10400 48.05100
C  24.42600 -10.04100 49.25500
C  27.77600 -9.30000 48.32100
C  28.73500 -9.46000 49.41200
N  26.44800 -4.46100 46.54000
C  27.54200 -5.00300 47.23100
C  28.71400 -4.06500 47.01700
C  28.25400 -3.08300 46.12900
C  26.86000 -3.37300 45.85900
C  30.03900 -4.27700 47.56800
C  28.73000 -1.86000 45.41800
O  29.77600 -1.26500 45.36800
C  27.35800 -1.37700 44.63300
C  27.04300 -0.01300 44.97900
O  26.22100 0.46000 45.72100
O  27.82900 0.74100 44.21600
C  27.64300 2.19100 44.20100
H  20.63500 -3.71400 44.64000
H  22.73900 -9.08200 47.38700
H  28.38200 -6.54100 48.48400
H  24.41600 -0.68000 43.82700
H  22.05100 -1.99100 43.11800
H  22.74000 -0.08700 45.12100
H  21.49100 -1.23700 45.64400
H  21.26300 -0.29200 44.14700
H  23.90500 -2.62800 41.72800
H  25.42600 -2.70100 42.21100
H  25.45200 0.00100 42.06100
H  24.28000 -0.29300 40.87300
H  19.22400 -5.93000 43.77800
H  18.81600 -4.79500 44.97300
H  18.21200 -6.47300 45.15000
H  19.38000 -10.35000 47.45200
H  20.60400 -9.30600 48.19000
H  20.95400 -10.48000 46.76600
H  25.52300 -9.79000 47.45500
H  26.40900 -8.29500 49.76800
H  24.94200 -10.11000 50.21200
H  24.21600 -10.98600 48.75500
H  23.46000 -9.62700 49.54500
H  28.41600 -8.73200 47.64600
H  27.44400 -10.24900 47.90100
H  29.68400 -9.02100 49.10500
H  28.84400 -10.53800 49.53600
H  28.27900 -9.02700 50.30200
H  30.63300 -4.96800 46.97000
H  30.05300 -4.68900 48.57700
H  30.48600 -3.28800 47.66900
H  27.69700 -1.50300 43.60500
H  27.84000 2.56700 45.20500
H  26.65100 2.59500 44.00300
H  28.28200 2.79500 43.55600

