158

Mg 34.87400 1.95100 29.30000
C  33.00500 3.21400 31.94700
C  37.66500 2.03300 31.50700
C  36.90500 1.41800 26.75300
C  32.30900 2.80700 27.09100
N  35.19800 2.40300 31.52500
C  34.29000 2.89200 32.42100
C  34.90800 3.09100 33.85200
C  36.40600 2.73900 33.61200
C  36.46000 2.36000 32.11300
C  37.40800 3.84500 34.07500
C  34.18800 2.19800 34.92300
C  33.71500 2.78900 36.18600
H  34.59300 3.81900 36.91000
N  36.95300 1.46600 29.20600
C  37.88700 1.58900 30.18400
C  39.06500 1.10400 29.68100
C  38.94400 0.84100 28.31400
C  37.53600 1.26000 28.00900
C  40.27500 1.10900 30.54300
C  39.91300 0.35200 27.32700
O  39.68700 0.20200 26.13900
C  41.37700 0.11400 27.75900
N  34.66500 2.05800 27.20800
C  35.64100 1.77000 26.35100
C  35.19700 2.13300 24.92700
C  33.65900 2.19600 25.03800
C  33.48200 2.33800 26.52100
C  36.01500 3.27300 24.21400
C  32.84900 1.02800 24.36000
C  32.75900 -0.26000 25.24900
N  33.06600 2.93600 29.39300
C  32.12400 3.19400 28.45600
C  30.98600 3.84800 29.04200
C  31.27100 3.85100 30.41300
C  32.60500 3.33800 30.58400
C  29.75500 4.22800 28.36100
C  30.74600 4.13400 31.67900
O  29.67500 4.65400 32.05500
C  31.94300 3.87200 32.70300
C  32.32900 5.14200 33.41900
O  33.10000 5.94900 32.92100
O  31.72200 5.30900 34.63700
C  31.89300 6.69400 35.12200
H  38.48100 2.11800 32.22800
H  37.47300 1.37300 25.82100
H  31.48600 2.96200 26.39100
H  34.88200 4.14500 34.12900
H  36.78500 1.88500 34.17300
H  37.99100 4.18400 33.21800
H  38.01700 3.33300 34.82000
H  36.83000 4.71100 34.39700
H  34.68300 1.26400 35.19100
H  33.22500 1.98100 34.46200
H  33.53600 2.02800 36.94600
H  32.75100 3.26800 36.01400
H  40.42500 2.04300 31.08400
H  41.25400 0.86000 30.13200
H  40.22700 0.30300 31.27500
H  41.29900 -0.76100 28.40400
H  41.70600 1.07700 28.15000
H  41.97900 -0.13300 26.88500
H  35.42400 1.21000 24.39400
H  33.16900 3.07900 24.62700
H  36.53800 2.90000 23.33300
H  36.78200 3.65100 24.89000
H  35.27100 3.98200 23.85200
H  33.32100 0.61300 23.47000
H  31.83300 1.32300 24.09700
H  33.05200 -1.15000 24.69200
H  31.75200 -0.45900 25.61600
H  33.45600 -0.15300 26.08100
H  29.17000 3.32700 28.17800
H  29.94500 4.78400 27.44400
H  29.20900 4.88200 29.04100
H  31.60400 3.13100 33.42700
H  32.05900 7.46100 34.36600
H  32.68300 6.60800 35.86800
H  31.06600 6.92400 35.79400
Mg 46.61100 25.30600 28.59500
C  47.53000 27.22500 31.37500
C  45.83700 22.77100 30.80700
C  45.80200 23.37700 26.06900
C  48.08700 27.53600 26.55300
N  46.65400 25.09100 30.88500
C  46.91100 26.02600 31.79000
C  46.57400 25.60100 33.26300
C  46.03000 24.15700 32.98500
C  46.16400 23.93900 31.44300
C  46.68500 23.04000 33.87100
C  45.58900 26.56600 34.13100
C  45.97100 26.96700 35.58600
H  44.97000 27.53200 36.61400
N  45.90000 23.40600 28.44200
C  45.75300 22.46500 29.39600
C  45.32900 21.20000 28.87000
C  45.17500 21.32100 27.48200
C  45.65700 22.74200 27.26500
C  45.13900 19.94000 29.79300
C  44.70100 20.35100 26.44200
O  44.60700 20.62200 25.27000
C  44.17900 18.93000 26.88900
N  46.95500 25.44500 26.61600
C  46.49800 24.52500 25.72000
C  46.93100 24.82300 24.27600
C  47.45000 26.31400 24.46300
C  47.42900 26.52700 25.95800
C  47.95100 23.81500 23.68200
C  46.60100 27.36900 23.62700
C  47.42100 27.80400 22.39100
N  47.64800 26.99100 28.82500
C  48.10500 27.84600 27.88000
C  48.74400 29.02100 28.50500
C  48.55400 28.75500 29.88400
C  47.88900 27.51100 30.03500
C  49.34800 30.20800 27.87000
C  48.88200 29.22300 31.21900
O  49.50900 30.16300 31.63700
C  48.18000 28.25500 32.20700
C  49.20000 27.74400 33.07200
O  50.00000 26.84600 32.83800
O  49.10100 28.42500 34.26200
C  49.99900 27.78900 35.30700
H  45.56800 21.94800 31.47300
H  45.59000 22.76000 25.19300
H  48.59400 28.34700 26.02600
H  47.54300 25.53700 33.75800
H  44.95400 24.12600 33.15800
H  46.12500 22.10500 33.88300
H  46.72500 23.49900 34.85900
H  47.66700 22.75000 33.49500
H  44.54000 26.27500 34.07800
H  45.57400 27.46500 33.51400
H  46.78200 27.69600 35.57000
H  46.41100 26.08400 36.04900
H  45.62200 20.01900 30.76700
H  45.65100 19.21300 29.16200
H  44.09000 19.64700 29.80500
H  43.32800 18.97900 27.56900
H  44.95900 18.32800 27.35300
H  43.94800 18.39100 25.97000
H  46.07500 24.82400 23.60000
H  48.47800 26.40000 24.11400
H  48.96100 24.20800 23.56300
H  47.61400 23.43400 22.71800
H  47.82800 22.97400 24.36500
H  46.24900 28.19600 24.24400
H  45.66700 26.85300 23.40100
H  47.93100 26.95500 21.93700
H  48.16200 28.54700 22.68600
H  46.88100 28.41200 21.66600
H  50.42800 30.06200 27.86300
H  48.91200 31.04900 28.40900
H  49.02800 30.28600 26.83100
H  47.54300 28.93200 32.77600
H  51.00100 28.00100 34.93400
H  49.80000 26.79500 35.70900
H  50.04200 28.35200 36.24000

