158

Mg 47.09400 24.43500 28.39700
C  47.75400 26.73600 31.01600
C  45.90500 22.20500 30.71800
C  47.07200 22.25900 25.87900
C  48.68000 26.85600 26.17800
N  46.77600 24.53100 30.70000
C  47.12000 25.53500 31.52500
C  46.70300 25.18200 32.96300
C  46.19500 23.69000 32.83400
C  46.27400 23.41100 31.34300
C  46.97500 22.74500 33.82800
C  45.71300 26.24200 33.61500
C  46.15100 26.72000 35.08700
H  45.05500 26.76600 36.18400
N  46.52500 22.54700 28.30800
C  46.06100 21.80800 29.38500
C  45.78500 20.47000 28.82600
C  46.15800 20.42700 27.40400
C  46.57200 21.78900 27.09300
C  45.04700 19.34300 29.53600
C  46.01500 19.23000 26.45200
O  46.36000 19.40000 25.30700
C  45.30500 17.91800 26.78100
N  47.91700 24.48800 26.31100
C  47.72100 23.43900 25.50200
C  48.40400 23.70400 24.16800
C  48.44400 25.28000 24.13300
C  48.33200 25.59200 25.59800
C  49.70200 22.88000 23.97100
C  47.16400 25.92100 23.37900
C  46.77800 27.40100 23.41400
N  47.96900 26.33800 28.51500
C  48.49700 27.17600 27.55800
C  48.84600 28.42400 28.18600
C  48.69300 28.19900 29.51500
C  48.04800 26.96100 29.66900
C  49.50300 29.59900 27.49600
C  48.91300 28.87300 30.78300
O  49.42700 29.90500 31.17400
C  48.28000 27.87200 31.79900
C  49.36600 27.37600 32.72600
O  50.26100 26.57800 32.46500
O  49.10800 27.74400 33.99900
C  50.07500 27.19400 35.00400
H  45.51400 21.52200 31.47600
H  47.13500 21.55500 25.04700
H  49.07400 27.68000 25.58000
H  47.66200 25.29400 33.46900
H  45.14300 23.70500 33.12000
H  46.25400 22.18700 34.42500
H  47.62200 23.23700 34.55400
H  47.58400 22.01300 33.29700
H  44.73700 25.79500 33.80300
H  45.63200 27.17600 33.05900
H  46.64000 27.69100 35.01900
H  46.89600 26.04900 35.51600
H  45.65800 18.45500 29.37600
H  43.96200 19.31100 29.44100
H  45.15600 19.65100 30.57600
H  46.04000 17.38200 27.38200
H  45.09300 17.44400 25.82300
H  44.41300 18.11100 27.37700
H  47.66200 23.36200 23.44700
H  49.41200 25.56000 23.71600
H  49.59200 22.23800 23.09700
H  50.06900 22.35200 24.85200
H  50.59100 23.47800 23.77000
H  46.31900 25.38700 23.81300
H  47.08600 25.62500 22.33300
H  45.82000 27.47700 23.92800
H  46.71700 27.75300 22.38400
H  47.51700 28.00500 23.93900
H  48.98600 29.62800 26.53700
H  50.59200 29.55100 27.48500
H  49.06300 30.42100 28.06200
H  47.46900 28.38000 32.32200
H  50.04700 26.11700 35.16800
H  49.89100 27.64200 35.98100
H  51.11200 27.44700 34.77900
Mg -10.26100 18.22300 42.80200
C  -7.03600 17.21300 42.37900
C  -9.37300 21.46200 42.30900
C  -13.56300 19.00700 42.68600
C  -11.21800 14.76000 42.48000
N  -8.48300 19.20800 42.01600
C  -7.23500 18.62000 42.14100
C  -6.15000 19.64800 41.97100
C  -6.86800 21.03400 42.06200
C  -8.37300 20.55300 42.16400
C  -6.45200 21.87000 43.37700
C  -5.13300 19.46400 40.79500
C  -5.74600 18.96400 39.48400
H  -5.00500 19.20600 38.23800
N  -11.38700 20.02600 42.59400
C  -10.79200 21.23700 42.36100
C  -11.84100 22.23900 42.23500
C  -13.05200 21.58900 42.46700
C  -12.70000 20.15900 42.61700
C  -11.70500 23.73400 41.87100
C  -14.47900 22.20400 42.75600
O  -14.66600 23.39900 42.77200
C  -15.73400 21.34300 43.25900
N  -12.12400 17.00600 42.88700
C  -13.32400 17.65400 42.88900
C  -14.47500 16.60900 42.83000
C  -13.71600 15.21800 42.64300
C  -12.26200 15.68100 42.57000
C  -15.44500 16.58900 44.04700
C  -14.27300 14.34900 41.47200
C  -14.68300 12.99800 41.97000
N  -9.36500 16.32600 42.68200
C  -9.86400 14.99900 42.56500
C  -8.70900 14.10700 42.50900
C  -7.59600 14.90000 42.57100
C  -8.07200 16.24200 42.53800
C  -8.75700 12.61600 42.34800
C  -6.19300 14.88200 42.41200
O  -5.39400 13.98600 42.30800
C  -5.78500 16.42900 42.54900
C  -5.04400 16.68200 43.82300
O  -3.81000 16.69000 43.93400
O  -5.95800 16.96700 44.80600
C  -5.35300 17.24600 46.14600
H  -9.19900 22.53100 42.17700
H  -14.63400 19.21200 42.72700
H  -11.38700 13.70500 42.25800
H  -5.52600 19.59900 42.86300
H  -6.70600 21.74300 41.25000
H  -7.37200 21.89400 43.96000
H  -6.16800 22.91100 43.22700
H  -5.63200 21.43000 43.94500
H  -4.38300 18.72500 41.07700
H  -4.68300 20.45100 40.68200
H  -6.83100 19.05800 39.51200
H  -5.64100 17.87900 39.46100
H  -12.61500 24.04200 41.35600
H  -10.78700 23.93700 41.32000
H  -11.57200 24.32200 42.77900
H  -15.47400 20.81100 44.17300
H  -16.15300 20.69500 42.48900
H  -16.60600 21.98700 43.37700
H  -15.03800 16.75400 41.90800
H  -13.89600 14.67600 43.57100
H  -16.41700 16.87600 43.64600
H  -15.08400 17.20900 44.86800
H  -15.51300 15.55100 44.37300
H  -13.61900 14.34500 40.59900
H  -15.21600 14.78200 41.13900
H  -14.25600 12.83900 42.96100
H  -14.27500 12.22200 41.32300
H  -15.77100 12.97400 41.89800
H  -9.65200 12.17600 42.78900
H  -7.98200 12.12800 42.93900
H  -8.81800 12.45000 41.27200
H  -5.05100 16.61600 41.76500
H  -5.50600 16.37200 46.77800
H  -5.93400 17.95100 46.74000
H  -4.32200 17.59900 46.18000

