158

Mg -1.68100 17.43500 27.02700
C  -2.17900 15.23900 29.72700
C  -2.30300 19.98300 29.23100
C  -2.05100 19.47600 24.28900
C  -1.94100 14.69700 24.92700
N  -2.37900 17.57100 29.23300
C  -2.27800 16.58900 30.15600
C  -2.38200 17.05900 31.59500
C  -2.42600 18.61100 31.39100
C  -2.51900 18.74900 29.87300
C  -3.59400 19.40500 32.04200
C  -1.25400 16.52000 32.55400
C  -1.14700 17.35100 33.82400
H  -0.94900 16.62700 35.25200
N  -1.90300 19.41700 26.83100
C  -2.17400 20.26000 27.86200
C  -2.04900 21.66500 27.34600
C  -1.77300 21.54300 25.92900
C  -1.97800 20.12100 25.62200
C  -2.02200 22.90600 28.21600
C  -1.48800 22.58100 24.86100
O  -1.42900 22.32400 23.67300
C  -1.17700 23.90300 25.37100
N  -2.03900 17.18200 24.90100
C  -2.10700 18.13400 23.94700
C  -2.27900 17.58900 22.56400
C  -1.97200 16.08000 22.75600
C  -1.96800 15.91900 24.30700
C  -3.54600 17.82600 21.76800
C  -0.60100 15.63800 22.14200
C  0.66400 16.07300 22.96600
N  -1.80800 15.33900 27.19600
C  -1.93500 14.39600 26.25500
C  -2.14000 13.07700 26.92500
C  -2.22000 13.32600 28.25800
C  -2.09600 14.77300 28.38600
C  -2.43600 11.87400 26.23900
C  -2.34000 12.71100 29.54900
O  -2.35600 11.54100 29.93600
C  -2.22000 13.90300 30.58600
C  -0.93900 13.63500 31.31800
O  0.20200 13.94800 30.92000
O  -1.14900 12.92600 32.51900
C  0.05500 12.60200 33.33500
H  -2.32100 20.79800 29.95800
H  -1.93400 20.15700 23.44300
H  -2.01800 13.83400 24.26200
H  -3.31600 16.80500 32.09700
H  -1.54500 19.09700 31.81100
H  -4.09000 18.84400 32.83400
H  -4.29300 19.78500 31.29800
H  -3.23100 20.27600 32.58700
H  -0.30400 16.27900 32.07700
H  -1.57100 15.54800 32.93300
H  -1.96100 18.05300 34.00400
H  -0.17900 17.84300 33.73300
H  -2.68300 23.63100 27.74300
H  -1.00700 23.27600 28.36200
H  -2.52600 22.71700 29.16400
H  -0.47800 23.84400 26.20600
H  -2.16500 24.30600 25.59100
H  -0.75200 24.43700 24.52100
H  -1.44900 17.95100 21.95800
H  -2.68500 15.32300 22.42900
H  -4.10000 16.89600 21.89400
H  -3.29700 18.04200 20.72900
H  -4.15300 18.65000 22.14200
H  -0.58800 16.07300 21.14300
H  -0.59400 14.54800 22.12200
H  0.45400 16.55000 23.92300
H  1.09200 16.79900 22.27400
H  1.31100 15.20600 23.09500
H  -1.63000 11.47500 25.62300
H  -3.25500 11.95300 25.52400
H  -2.64800 11.18600 27.05700
H  -3.07500 13.78100 31.25100
H  -0.36900 11.94000 34.09000
H  0.47200 13.43700 33.89900
H  0.79200 12.19700 32.64200
Mg 35.19400 2.68500 29.70400
C  33.17400 3.85300 32.17500
C  37.83000 2.51900 31.96900
C  37.22200 1.84400 27.25800
C  32.55100 2.86500 27.50600
N  35.44200 3.14600 31.83200
C  34.42600 3.61300 32.58600
C  34.89200 3.71200 34.10900
C  36.47600 3.40900 33.97200
C  36.58200 2.89200 32.54900
C  37.38800 4.68100 34.07500
C  34.18400 2.80000 35.21300
C  34.11300 3.36700 36.64700
H  34.85900 4.72700 36.99100
N  37.32700 2.24800 29.54000
C  38.18600 2.20500 30.60100
C  39.49800 1.72500 30.12300
C  39.38500 1.59600 28.68000
C  37.93700 1.91600 28.45600
C  40.74200 1.48400 30.97700
C  40.43000 1.11000 27.62000
O  40.15100 1.06600 26.41700
C  41.80800 0.79500 28.12100
N  35.00400 2.61900 27.59700
C  35.90000 2.08900 26.88600
C  35.47100 1.95400 25.36800
C  33.93100 1.88300 25.55200
C  33.82900 2.50400 26.97700
C  36.06900 3.09600 24.51000
C  33.37500 0.37700 25.58500
C  32.10800 0.13500 24.81600
N  33.28500 3.33600 29.68900
C  32.32300 3.42700 28.77300
C  31.08400 3.92400 29.31300
C  31.35200 4.16000 30.65300
C  32.74800 3.79000 30.84400
C  29.84000 4.06600 28.53700
C  30.76900 4.72400 31.91200
O  29.68700 5.26100 32.25200
C  31.96200 4.38300 32.91700
C  32.21300 5.68500 33.55500
O  32.89800 6.57700 33.07200
O  31.55900 5.86200 34.79200
C  31.37600 7.19500 35.23900
H  38.66600 2.57100 32.67100
H  37.77800 1.53100 26.37200
H  31.70400 2.73300 26.83000
H  34.62600 4.75300 34.28800
H  36.83300 2.58500 34.58900
H  36.76300 5.51600 33.75600
H  38.18500 4.72000 33.33300
H  37.84900 4.77100 35.05900
H  34.65100 1.81800 35.28500
H  33.16100 2.57200 34.91300
H  34.43600 2.55200 37.29500
H  33.03500 3.44000 36.78900
H  40.46700 1.54900 32.03000
H  41.61200 2.05400 30.65400
H  40.95300 0.42000 30.86800
H  41.88400 0.15800 29.00200
H  42.33500 1.72100 28.34900
H  42.44900 0.32400 27.37600
H  35.84300 0.98900 25.02300
H  33.30300 2.50300 24.91200
H  35.22800 3.73100 24.23300
H  36.71700 2.76700 23.69700
H  36.68700 3.66200 25.20600
H  33.22100 0.20100 26.64900
H  34.05100 -0.40100 25.23300
H  31.28600 0.32200 25.50700
H  32.11900 -0.88200 24.42600
H  32.08000 0.89500 24.03500
H  29.51000 3.08800 28.18700
H  30.10300 4.72400 27.70900
H  29.03900 4.50400 29.13100
H  31.56400 3.69200 33.66000
H  32.02400 7.39200 36.09300
H  30.32100 7.09200 35.49600
H  31.55700 7.96100 34.48600

