158

Mg 47.73700 15.09000 27.23900
C  45.79900 15.23500 30.01500
C  49.94800 17.29000 28.62200
C  49.25300 15.33100 24.23600
C  45.09700 13.33300 25.60100
N  47.87800 16.21500 29.12400
C  47.05000 15.90100 30.12600
C  47.50100 16.55500 31.43300
C  48.83100 17.33600 31.00200
C  48.86700 17.06200 29.51500
C  48.94500 18.79800 31.45300
C  47.77600 15.44100 32.53100
C  47.24900 15.82300 33.93700
H  46.95600 17.26500 34.37000
N  49.38800 16.05200 26.63300
C  50.19000 16.90600 27.34400
C  51.37000 17.33900 26.57500
C  51.17600 16.61300 25.30200
C  49.88200 15.95200 25.31000
C  52.48800 18.22200 27.08900
C  52.03700 16.64600 24.11600
O  51.81700 16.13700 23.02900
C  53.30000 17.42800 24.16800
N  47.31700 14.29900 25.29700
C  48.08000 14.57100 24.21400
C  47.53200 13.88700 22.95200
C  46.25300 13.13700 23.36100
C  46.22500 13.54100 24.86200
C  47.23500 14.85900 21.76600
C  46.21900 11.65000 22.99100
C  46.69200 10.64600 24.16700
N  45.78800 14.41700 27.68100
C  44.87100 13.63900 26.95400
C  43.67700 13.47600 27.76200
C  44.03000 14.01400 29.01100
C  45.30000 14.58400 28.89700
C  42.32100 12.93300 27.37500
C  43.57800 14.21100 30.41700
O  42.51900 14.04600 30.92100
C  44.74400 14.94000 31.14200
C  44.16500 16.13500 31.79800
O  44.33800 17.29000 31.43400
O  43.48400 15.79900 32.96200
C  42.68900 16.82400 33.62200
H  50.67300 17.88900 29.17600
H  49.66400 15.38300 23.22500
H  44.28000 12.80900 25.10000
H  46.80600 17.33500 31.74400
H  49.67900 16.80000 31.42700
H  48.82800 19.35700 30.52500
H  49.98400 18.92600 31.75700
H  48.17200 19.20200 32.10700
H  48.84900 15.29000 32.65000
H  47.33000 14.51200 32.17700
H  47.89100 15.49400 34.75500
H  46.31700 15.30200 34.15400
H  52.21600 18.65300 28.05200
H  52.79500 19.04400 26.44200
H  53.30400 17.55200 27.35900
H  53.89000 17.38000 25.08300
H  53.08900 18.41200 23.75000
H  53.94900 17.00400 23.40100
H  48.30500 13.14500 22.75600
H  45.43800 13.66700 22.86700
H  46.19500 14.90600 21.44400
H  47.90800 14.50200 20.98700
H  47.55000 15.87500 22.00600
H  46.69600 11.32900 22.06500
H  45.14800 11.45700 22.91900
H  47.24700 9.81700 23.72600
H  45.84400 10.22300 24.70500
H  47.35600 11.05300 24.92900
H  42.21400 12.92800 26.29100
H  41.60200 13.65800 27.75700
H  42.18300 11.88800 27.65300
H  45.19100 14.27800 31.88300
H  43.00000 17.86600 33.54700
H  42.54400 16.53900 34.66400
H  41.71800 16.79600 33.12800
Mg 26.64700 50.40500 26.90700
C  24.51800 51.56000 29.51700
C  28.79100 49.21300 29.48000
C  28.85400 49.48600 24.63200
C  24.52400 51.78400 24.57100
N  26.71100 50.50700 29.20800
C  25.66800 50.91700 30.04200
C  25.93300 50.55300 31.50400
C  27.34000 50.00300 31.47500
C  27.62400 49.90900 29.95900
C  28.40700 50.80300 32.27300
C  24.87400 49.58600 32.14600
C  24.18500 50.21700 33.36200
H  24.20500 49.43800 34.68300
N  28.51600 49.58100 27.02700
C  29.17900 49.09100 28.12500
C  30.37900 48.45400 27.69600
C  30.49100 48.51700 26.29200
C  29.30900 49.27000 25.93700
C  31.40600 47.80800 28.67700
C  31.63200 48.01900 25.35800
O  31.61400 48.21100 24.19200
C  32.86600 47.22900 25.85900
N  26.69800 50.72700 24.89700
C  27.67400 50.15800 24.15600
C  27.28500 50.23900 22.64800
C  25.92600 51.07400 22.67700
C  25.69100 51.22100 24.11100
C  28.45200 50.99800 21.79100
C  24.77400 50.42600 21.84200
C  23.67900 49.51100 22.54100
N  24.85000 51.41700 26.95000
C  24.09500 52.00000 25.93800
C  22.83500 52.49400 26.49100
C  23.02700 52.47100 27.87300
C  24.26500 51.74800 28.07800
C  21.66000 52.98700 25.68400
C  22.47700 52.82400 29.12900
O  21.55400 53.55500 29.45500
C  23.38800 52.17500 30.22600
C  23.98400 53.25300 31.04400
O  24.91200 54.04900 30.85100
O  23.28100 53.30000 32.20900
C  23.66900 54.25300 33.25400
H  29.39400 48.75900 30.27000
H  29.37000 48.93300 23.84400
H  23.73700 52.14400 23.90600
H  25.95500 51.51400 32.01700
H  27.32800 49.01500 31.93600
H  29.33500 50.23100 32.30000
H  28.07500 50.98200 33.29600
H  28.49900 51.76400 31.76600
H  25.24800 48.60600 32.44200
H  24.11100 49.40500 31.38900
H  23.12000 50.35400 33.17500
H  24.53900 51.22300 33.58400
H  32.39600 48.26300 28.65000
H  31.61900 46.78900 28.35200
H  31.08700 47.77600 29.71900
H  32.73900 46.15000 25.95600
H  33.05900 47.72300 26.81100
H  33.70000 47.44300 25.19100
H  27.12000 49.26300 22.19300
H  26.12400 52.01500 22.16300
H  28.11100 51.72700 21.05600
H  28.95700 50.27100 21.15500
H  29.16900 51.42800 22.49000
H  25.28200 49.70400 21.20300
H  24.33700 51.13900 21.14200
H  22.82100 50.17700 22.44800
H  23.84800 49.21100 23.57500
H  23.67700 48.55000 22.02700
H  20.90600 52.26500 25.37000
H  22.06900 53.58700 24.87000
H  21.16700 53.69300 26.35100
H  22.86500 51.46900 30.87100
H  24.71800 54.03700 33.46100
H  23.12100 54.14300 34.18900
H  23.36400 55.26600 32.99200

