158

Mg 45.17500 5.26800 47.15000
C  43.15700 8.15200 46.51600
C  42.60700 3.27900 46.21000
C  47.39500 2.69400 47.10200
C  47.96800 7.44000 47.07600
N  43.11900 5.72200 46.41600
C  42.46100 6.93900 46.31200
C  41.05600 6.77100 45.81500
C  40.87400 5.20700 45.90700
C  42.28400 4.63300 46.18100
C  39.76100 4.80100 46.91800
C  40.78700 7.59400 44.48100
C  40.20200 6.74700 43.32800
H  39.90900 7.60500 42.08500
N  45.00800 3.23900 46.81400
C  43.82600 2.58600 46.51700
C  44.06000 1.18100 46.65600
C  45.44700 0.96000 46.87300
C  46.04400 2.29600 46.92500
C  42.96600 0.17500 46.27500
C  46.06500 -0.40600 46.86200
O  45.34600 -1.38100 46.79000
C  47.57800 -0.58800 46.91100
N  47.40700 5.12200 47.05400
C  48.04500 3.92500 47.10300
C  49.61800 4.00900 47.09300
C  49.77800 5.55000 46.89900
C  48.29200 6.14000 47.05600
C  50.28400 3.20900 48.25600
C  50.50000 6.10600 45.61300
C  49.97500 5.56400 44.26500
N  45.49100 7.34400 47.07600
C  46.72300 8.10500 47.09000
C  46.41900 9.49300 47.06100
C  45.05200 9.53500 46.92800
C  44.51000 8.27000 46.87700
C  47.41300 10.53600 47.00600
C  43.95400 10.44500 46.72800
O  43.91500 11.69100 46.66800
C  42.69100 9.53300 46.46000
C  41.64900 9.88500 47.48500
O  41.52700 9.31600 48.57300
O  40.90900 10.99700 47.03200
C  39.83700 11.36400 47.97800
H  41.76400 2.65400 45.90800
H  48.18600 1.94100 47.11800
H  48.80000 8.14400 47.14500
H  40.43200 7.19000 46.60500
H  40.55300 4.79400 44.95100
H  39.31700 5.65800 47.42400
H  40.09700 4.10100 47.68400
H  38.99500 4.26600 46.35700
H  41.63800 8.19000 44.15300
H  39.94600 8.23600 44.74500
H  39.31900 6.21600 43.68500
H  41.02500 6.08700 43.05400
H  42.05100 0.61400 46.67300
H  43.06000 -0.75000 46.84300
H  42.91500 -0.14700 45.23500
H  47.80500 -1.65100 46.82600
H  47.95800 -0.23800 47.87100
H  48.11100 -0.11500 46.08600
H  49.83400 3.51000 46.14900
H  50.30900 5.78200 47.82200
H  51.20900 3.71700 48.53100
H  50.55500 2.20500 47.93100
H  49.65200 2.97800 49.11300
H  51.57100 5.91700 45.68800
H  50.50000 7.19500 45.64200
H  48.95600 5.20800 44.41300
H  50.59200 4.69100 44.05500
H  50.07700 6.14600 43.34900
H  48.19200 10.55400 47.76800
H  46.83800 11.46100 47.00000
H  47.93000 10.46000 46.04900
H  42.27100 9.86500 45.51100
H  39.35100 12.21100 47.49500
H  40.15800 11.67300 48.97200
H  39.09900 10.56200 47.96700
Mg 47.68300 25.11000 28.47900
C  48.68000 27.30700 31.20800
C  46.49900 22.92700 30.90700
C  47.33600 23.03000 26.10700
C  49.13900 27.52800 26.25600
N  47.60700 25.12300 30.78100
C  48.05500 26.11000 31.60500
C  47.64600 25.80000 33.10300
C  47.16700 24.27500 32.98500
C  47.15900 24.03000 31.45800
C  48.06900 23.32500 33.70800
C  46.64100 26.78800 33.70400
C  47.05200 27.56900 34.98200
H  45.97700 27.84500 35.97800
N  46.88400 23.29300 28.49000
C  46.44900 22.58200 29.55500
C  45.84100 21.41000 28.98600
C  46.03600 21.37000 27.56400
C  46.87400 22.56100 27.36500
C  45.06500 20.35500 29.84700
C  45.49300 20.45400 26.45600
O  45.62000 20.60000 25.27000
C  44.58300 19.28400 26.95500
N  48.05500 25.35000 26.46200
C  47.85100 24.26000 25.68800
C  48.40500 24.40400 24.24200
C  48.82800 25.93900 24.22700
C  48.70000 26.35400 25.72800
C  49.64300 23.45900 23.96400
C  47.95200 26.74800 23.29200
C  46.71100 27.44000 23.85500
N  48.71200 26.98600 28.61200
C  49.16800 27.86100 27.64800
C  49.83700 28.99800 28.22100
C  49.64300 28.81400 29.63100
C  48.92600 27.58700 29.81200
C  50.62000 30.15500 27.66500
C  49.96400 29.39300 30.92900
O  50.60500 30.37800 31.30900
C  49.22900 28.49100 31.94900
C  50.26900 28.09000 32.91500
O  51.20000 27.30500 32.68700
O  50.14100 28.71700 34.15600
C  51.17800 28.47100 35.12100
H  46.09000 22.19200 31.60300
H  47.34400 22.33900 25.26100
H  49.51800 28.22900 25.51000
H  48.53300 25.89100 33.72900
H  46.17400 24.12700 33.40900
H  48.79000 22.94300 32.98600
H  47.50900 22.47200 34.09100
H  48.55600 23.80500 34.55600
H  45.78600 26.19200 34.02100
H  46.37400 27.57800 33.00200
H  47.35900 28.57200 34.68800
H  47.88200 27.08800 35.50000
H  44.00500 20.38200 29.59600
H  45.21100 20.59100 30.90100
H  45.41400 19.32400 29.77500
H  44.84900 18.65900 27.80800
H  44.57200 18.62600 26.08700
H  43.56300 19.64700 27.08400
H  47.58600 24.03900 23.62200
H  49.87500 26.05100 23.94500
H  50.02900 23.07100 24.90600
H  50.49100 23.85600 23.40600
H  49.22100 22.56500 23.50400
H  47.67800 26.24500 22.36400
H  48.58100 27.53500 22.87600
H  46.61300 27.60700 24.92800
H  45.78600 26.96700 23.52500
H  46.64700 28.49800 23.60200
H  50.84300 30.01100 26.60800
H  51.55400 30.12100 28.22600
H  50.20400 31.13200 27.91100
H  48.42500 29.06400 32.41200
H  50.93800 27.49500 35.54500
H  51.12700 29.34500 35.76900
H  52.15800 28.42200 34.64600

