158

Mg 24.38300 -7.79400 46.83300
C  26.16500 -5.12800 45.39500
C  21.68000 -7.15200 44.78900
C  23.01800 -10.70000 47.76100
C  27.39400 -8.77600 48.28300
N  24.00200 -6.34100 45.30100
C  24.94700 -5.39300 44.81300
C  24.23500 -4.58700 43.65700
C  22.69800 -4.95000 43.79200
C  22.80500 -6.24700 44.64400
C  21.78700 -3.91300 44.42800
C  24.92100 -4.77500 42.22400
C  25.39100 -3.46000 41.59800
H  24.61600 -3.00200 40.36500
N  22.53200 -8.73500 46.41600
C  21.59700 -8.32600 45.51700
C  20.45500 -9.21600 45.56800
C  20.72200 -10.15700 46.56300
C  22.11700 -9.95100 46.95100
C  19.18000 -9.04700 44.62900
C  19.75600 -11.13300 47.01800
O  18.62500 -11.09100 46.60500
C  20.07000 -12.18600 47.99400
N  25.12800 -9.48200 47.74600
C  24.37000 -10.51000 48.07000
C  25.05500 -11.64600 48.84100
C  26.45100 -11.10000 49.00100
C  26.36200 -9.73500 48.25500
C  24.42900 -12.12500 50.18800
C  27.50700 -12.05900 48.47100
C  28.77300 -12.22400 49.33200
N  26.42100 -7.06800 46.90300
C  27.45600 -7.54200 47.61100
C  28.51400 -6.58300 47.57800
C  28.10800 -5.59300 46.70800
C  26.83200 -5.99200 46.24800
C  29.72100 -6.47800 48.55400
C  28.40700 -4.38000 46.06100
O  29.48000 -3.75400 46.01700
C  27.14400 -4.03900 45.16400
C  26.66000 -2.67300 45.29800
O  26.85600 -1.84600 44.40600
O  25.79600 -2.54200 46.34800
C  25.33400 -1.24300 46.65100
H  20.86100 -6.91000 44.10800
H  22.73100 -11.69600 48.10400
H  28.25200 -9.06300 48.89500
H  24.16200 -3.52000 43.86600
H  22.24200 -5.16500 42.82600
H  22.37100 -3.00700 44.59200
H  21.52500 -4.29600 45.41400
H  20.96100 -3.61500 43.78200
H  24.18900 -5.20000 41.53700
H  25.79900 -5.42100 42.22300
H  26.40800 -3.58300 41.22700
H  25.41700 -2.58000 42.24100
H  18.48700 -8.43500 45.20600
H  18.72000 -9.97900 44.29900
H  19.42600 -8.50900 43.71400
H  20.57500 -12.98600 47.45300
H  19.17400 -12.57300 48.47900
H  20.57800 -11.68200 48.81600
H  25.00100 -12.52600 48.20000
H  26.67400 -10.83300 50.03400
H  23.42900 -11.69000 50.19700
H  24.97600 -11.76000 51.05700
H  24.34000 -13.20200 50.32800
H  27.75300 -11.81800 47.43700
H  27.08100 -13.05900 48.54400
H  29.57200 -11.66800 48.84100
H  29.13200 -13.24000 49.49300
H  28.67200 -11.71900 50.29300
H  30.38000 -7.33100 48.39200
H  29.40900 -6.53400 49.59700
H  30.20100 -5.50900 48.41600
H  27.61600 -4.05100 44.18200
H  24.37500 -1.42400 47.13700
H  25.18200 -0.48300 45.88500
H  25.94100 -0.78000 47.42900
Mg 53.57600 23.61100 45.11400
C  51.26800 26.04600 43.91000
C  51.72400 21.19900 43.69500
C  56.37900 21.63700 45.38600
C  55.66900 26.44200 46.07200
N  51.82700 23.63200 43.76300
C  51.01700 24.71800 43.42500
C  49.82200 24.25700 42.53200
C  49.66100 22.77300 43.03100
C  51.16400 22.49000 43.55300
C  48.58500 22.55800 44.11300
C  50.16800 24.35500 41.02200
C  49.17200 24.81900 39.96100
H  49.73000 25.24200 38.56600
N  53.96900 21.64700 44.80600
C  52.99100 20.84300 44.24900
C  53.47300 19.52800 44.29800
C  54.78700 19.55700 44.74400
C  55.15000 20.98800 45.00800
C  52.63700 18.28700 43.85000
C  55.72200 18.43400 44.78400
O  55.30700 17.29400 44.59000
C  57.12100 18.54700 45.30400
N  55.75400 24.01100 45.60500
C  56.69300 23.00200 45.71400
C  58.04400 23.48400 46.08500
C  57.70400 24.89900 46.46600
C  56.26600 25.13600 46.06500
C  58.76400 22.76800 47.26100
C  58.68700 25.99800 46.04600
C  58.69700 26.48100 44.59700
N  53.44200 25.78100 45.17900
C  54.38200 26.76700 45.60400
C  53.78200 28.08700 45.42900
C  52.57500 27.82500 44.71300
C  52.44000 26.41100 44.63300
C  54.42600 29.41900 45.71600
C  51.43100 28.38200 44.04600
O  51.08100 29.57400 43.86300
C  50.46600 27.24700 43.74500
C  49.78300 27.54200 42.39200
O  50.36900 27.67500 41.30700
O  48.46200 27.83600 42.51400
C  47.89500 28.49300 41.34700
H  51.10200 20.41400 43.26000
H  57.31200 21.07900 45.27500
H  56.15300 27.35300 46.43200
H  48.85900 24.76100 42.45000
H  49.35100 22.15900 42.18500
H  49.02100 22.22700 45.05600
H  47.88700 21.86000 43.65200
H  48.06600 23.48400 44.36400
H  50.49400 23.34500 40.77200
H  51.02200 25.03200 40.98400
H  48.51500 25.57500 40.39200
H  48.57000 23.92700 39.78300
H  52.40100 18.25300 42.78700
H  51.61600 18.29900 44.23100
H  52.99800 17.32100 44.20200
H  57.03300 19.01700 46.28300
H  57.59300 19.09600 44.48900
H  57.44600 17.51700 45.44800
H  58.73400 23.65300 45.25800
H  57.60600 25.02000 47.54500
H  58.72200 23.43200 48.12400
H  59.81300 22.56500 47.04800
H  58.16500 21.87900 47.45800
H  59.68600 25.60300 46.23300
H  58.48300 26.78600 46.77100
H  59.54000 26.19000 43.96900
H  58.64100 27.56700 44.67200
H  57.73500 26.12700 44.22600
H  55.45800 29.31300 45.37900
H  54.34700 29.69200 46.76800
H  53.87800 30.08800 45.05200
H  49.72200 27.32200 44.53800
H  47.97900 29.55000 41.60100
H  46.84300 28.35100 41.10100
H  48.40400 28.38600 40.38900

