158

Mg -10.07700 40.00000 39.48800
C  -8.83100 36.92000 38.38400
C  -7.09500 41.39400 38.82400
C  -11.63800 42.91700 39.52700
C  -13.26800 38.29700 40.02900
N  -8.15000 39.24000 38.67900
C  -7.92600 37.99900 38.22500
C  -6.52200 38.02700 37.62800
C  -5.78500 39.23100 38.34700
C  -7.07800 40.00700 38.67300
C  -4.94500 38.94000 39.56600
C  -6.59800 38.11700 36.07900
C  -5.97900 36.97600 35.22300
H  -6.93200 36.33000 34.21700
N  -9.39700 41.96600 39.27500
C  -8.15600 42.30800 38.99100
C  -8.09400 43.78200 38.88900
C  -9.40400 44.27700 39.15500
C  -10.22600 43.04200 39.39700
C  -6.75800 44.54400 38.84700
C  -9.75400 45.72800 39.28000
O  -8.95500 46.60100 39.03500
C  -11.12400 46.18000 39.67300
N  -12.16900 40.54100 39.93500
C  -12.46200 41.84800 39.75400
C  -13.99600 41.97700 39.80200
C  -14.52400 40.56700 40.19400
C  -13.26900 39.74100 40.07700
C  -14.44100 43.15200 40.65300
C  -15.66700 40.07100 39.26900
C  -17.03100 40.74500 39.34400
N  -10.89800 37.93500 39.43100
C  -12.15800 37.41100 39.64700
C  -12.12000 36.04600 39.45700
C  -10.81200 35.73200 38.98700
C  -10.12700 36.95300 39.02400
C  -13.31300 35.09900 39.69300
C  -9.92900 34.73800 38.39600
O  -10.05200 33.53000 38.13100
C  -8.60800 35.48000 37.97700
C  -7.47100 34.88700 38.60900
O  -7.29900 34.76400 39.83300
O  -6.55100 34.47300 37.66700
C  -5.41700 33.75400 38.25000
H  -6.12700 41.87700 38.67600
H  -12.22400 43.83800 39.50500
H  -14.22400 37.82400 40.26200
H  -6.06500 37.07100 37.88400
H  -5.09400 39.70400 37.64900
H  -4.94000 37.85300 39.63900
H  -5.31600 39.43800 40.46200
H  -3.91300 39.26800 39.44500
H  -6.15900 39.04400 35.71100
H  -7.65200 38.05300 35.81000
H  -5.51400 36.24400 35.88200
H  -5.09900 37.28800 34.66000
H  -6.81500 45.20400 37.98100
H  -5.95800 43.82700 38.66300
H  -6.56800 45.14800 39.73400
H  -11.15700 47.21700 40.00600
H  -11.40700 45.56900 40.53000
H  -11.77000 45.90900 38.83800
H  -14.31800 42.23600 38.79400
H  -14.88300 40.60700 41.22200
H  -15.12100 42.80700 41.43200
H  -14.94500 43.82600 39.96100
H  -13.67600 43.72800 41.17500
H  -15.83100 39.01100 39.46000
H  -15.30800 40.27400 38.26000
H  -17.15300 41.47600 38.54500
H  -17.04900 41.31400 40.27300
H  -17.80000 39.99000 39.17600
H  -14.19400 35.59700 39.28900
H  -13.40100 35.01700 40.77600
H  -13.20100 34.13600 39.19300
H  -8.42300 35.42500 36.90500
H  -4.76700 34.46800 38.75600
H  -4.87100 33.20400 37.48300
H  -5.63800 33.11700 39.10700
Mg 0.91200 43.62200 25.91900
C  3.08600 43.24300 28.70100
C  -1.79300 42.93200 28.15000
C  -1.20200 43.52400 23.32400
C  3.57500 43.74200 23.83300
N  0.65800 43.19700 28.23900
C  1.67600 43.20000 29.14200
C  1.19200 43.10500 30.55200
C  -0.34200 42.75600 30.35400
C  -0.52300 42.94900 28.82200
C  -0.83000 41.34800 30.85100
C  1.48900 44.36500 31.42100
C  1.66800 44.22000 32.90700
H  1.04200 43.01300 33.65000
N  -1.23600 43.36300 25.79200
C  -2.16000 43.19700 26.81500
C  -3.47900 43.18600 26.24000
C  -3.31500 43.25500 24.84200
C  -1.88900 43.36100 24.57700
C  -4.69500 42.96800 27.08800
C  -4.41700 43.22300 23.75900
O  -4.18900 43.11600 22.52500
C  -5.85700 43.35500 24.22500
N  1.10300 43.49200 23.87300
C  0.13200 43.67700 22.98800
C  0.67800 43.85100 21.58200
C  2.17500 44.23300 21.78200
C  2.29500 43.84500 23.24300
C  0.42700 42.62100 20.81100
C  2.49600 45.77000 21.55200
C  3.82500 46.07400 20.81100
N  2.86500 43.40900 26.12900
C  3.84900 43.42900 25.18500
C  5.20200 43.39600 25.83300
C  4.95500 43.30300 27.16000
C  3.50600 43.37700 27.35000
C  6.50100 43.46300 25.12400
C  5.56600 43.21600 28.43600
O  6.74500 43.09800 28.77700
C  4.44800 43.26300 29.40900
C  4.56000 42.04700 30.25200
O  4.19900 40.93400 29.93600
O  5.13800 42.39000 31.44200
C  5.10400 41.35900 32.57900
H  -2.60200 42.59800 28.80400
H  -1.81600 43.49200 22.42100
H  4.44300 44.00500 23.22400
H  1.78100 42.26800 30.92700
H  -0.94900 43.56800 30.75400
H  -0.11400 40.59400 31.17700
H  -1.29400 40.91000 29.96700
H  -1.62700 41.64400 31.53300
H  0.79700 45.17600 31.19400
H  2.46700 44.75400 31.14000
H  1.27100 45.09400 33.42400
H  2.72300 44.29000 33.17200
H  -5.23600 43.86500 27.38800
H  -4.46600 42.46000 28.02400
H  -5.33200 42.27200 26.54200
H  -6.19700 42.41000 24.64900
H  -6.28300 43.55400 23.24200
H  -5.98600 44.29900 24.75600
H  0.16400 44.69600 21.12400
H  2.85200 43.68300 21.12800
H  -0.18800 41.87600 21.31700
H  1.35800 42.05500 20.82300
H  -0.02100 42.75900 19.82700
H  2.67000 46.24000 22.51900
H  1.66600 46.26900 21.05200
H  4.58100 46.53000 21.45000
H  3.65400 46.77100 19.99000
H  4.17700 45.24500 20.19800
H  6.60800 42.77300 24.28700
H  7.26900 43.04100 25.77100
H  6.77900 44.45400 24.76400
H  4.33300 44.14300 30.04200
H  4.86700 41.81800 33.53900
H  6.07000 40.93600 32.85700
H  4.47500 40.48800 32.39500

