158

Mg -1.63400 17.24800 27.33700
C  -2.27900 14.83300 29.80600
C  -2.44300 19.71200 29.60200
C  -1.55900 19.47600 24.86800
C  -1.70900 14.65000 25.00400
N  -2.31900 17.21000 29.49000
C  -2.36500 16.15700 30.33600
C  -2.58700 16.67400 31.71400
C  -2.79300 18.20200 31.59200
C  -2.50000 18.44300 30.12100
C  -4.21700 18.77500 32.04600
C  -1.45800 16.36700 32.77900
C  -1.39100 17.15600 34.16300
H  -0.66500 16.55800 35.30700
N  -1.85500 19.39000 27.30400
C  -2.10200 20.19800 28.30100
C  -2.04700 21.55700 27.90100
C  -1.89800 21.56200 26.49800
C  -1.77200 20.11800 26.16200
C  -2.19800 22.71800 28.84100
C  -1.82600 22.68900 25.52200
O  -1.72800 22.53800 24.30900
C  -2.01700 24.07600 25.91600
N  -1.57600 17.06700 25.27100
C  -1.45600 18.13800 24.44900
C  -1.13100 17.78700 23.03000
C  -1.11400 16.20800 23.05800
C  -1.48200 15.93100 24.54100
C  -2.17700 18.34600 22.07400
C  0.18100 15.54000 22.54600
C  1.41000 15.92400 23.42600
N  -1.93200 15.19400 27.33800
C  -1.91200 14.22500 26.29900
C  -2.06700 12.93500 26.86200
C  -2.24600 13.14800 28.21800
C  -2.17700 14.54100 28.46300
C  -2.16700 11.66400 26.08700
C  -2.48500 12.44600 29.46300
O  -2.61700 11.23700 29.76800
C  -2.44200 13.53200 30.57100
C  -1.23600 13.26800 31.48900
O  -0.08200 13.53300 31.21700
O  -1.61900 12.70000 32.62800
C  -0.59400 12.52300 33.65500
H  -2.69600 20.42900 30.38600
H  -1.33200 20.08400 23.99000
H  -1.67800 13.84200 24.27100
H  -3.54400 16.39400 32.15600
H  -1.95100 18.70900 32.06300
H  -4.99300 18.08400 32.37400
H  -4.60400 19.28900 31.16600
H  -4.04700 19.48500 32.85500
H  -0.46800 16.26800 32.33400
H  -1.78000 15.40100 33.16800
H  -2.36600 17.44300 34.55600
H  -0.70500 17.96000 33.89500
H  -2.81800 23.48800 28.38200
H  -1.23300 23.13500 29.13000
H  -2.59800 22.38000 29.79700
H  -1.66000 24.26000 26.92900
H  -3.10000 24.17200 25.99200
H  -1.65700 24.82700 25.21300
H  -0.13400 18.14500 22.77600
H  -2.01100 15.82300 22.57400
H  -1.91000 19.35000 21.74600
H  -3.14300 18.42300 22.57300
H  -2.23500 17.58800 21.29300
H  0.39200 15.86300 21.52600
H  -0.00600 14.46600 22.55800
H  2.06100 16.67200 22.97300
H  1.98900 15.01800 23.60700
H  1.06100 16.34200 24.37000
H  -1.73300 10.90600 26.73800
H  -1.60800 11.70400 25.15200
H  -3.23500 11.47300 25.98000
H  -3.39500 13.65000 31.08700
H  0.12100 11.79000 33.28400
H  -0.90600 12.12900 34.62200
H  0.01700 13.42500 33.70800
Mg 47.20000 24.60200 27.17400
C  48.48500 26.85300 29.64000
C  46.27200 22.49800 29.72800
C  46.46000 22.24600 24.88200
C  48.48600 26.73700 24.63500
N  47.52000 24.66600 29.46600
C  47.83900 25.72900 30.20800
C  47.55900 25.45800 31.67800
C  47.23100 23.91100 31.61800
C  46.87700 23.75100 30.13900
C  48.48300 22.98700 32.03700
C  46.38600 26.36300 32.21800
C  45.88100 25.85100 33.63700
H  46.03300 26.84200 34.75000
N  46.38400 22.70800 27.24300
C  46.06600 22.05000 28.40300
C  45.51000 20.76200 28.09000
C  45.43900 20.70100 26.69200
C  46.17000 21.89500 26.16700
C  45.01000 19.74200 29.12400
C  44.90500 19.59200 25.76400
O  45.02800 19.75100 24.55700
C  44.31300 18.29400 26.32900
N  47.24800 24.60300 25.03700
C  46.99600 23.42400 24.39000
C  47.14500 23.71100 22.85700
C  47.64100 25.16700 22.79900
C  47.86200 25.52500 24.26500
C  47.91600 22.64800 22.15000
C  46.65600 26.14300 22.08700
C  47.29700 27.10200 21.09400
N  48.27100 26.35700 27.10100
C  48.77500 27.09900 26.00200
C  49.55600 28.30000 26.48900
C  49.40900 28.18800 27.86400
C  48.64100 27.03200 28.23900
C  50.21800 29.38800 25.71400
C  49.62900 28.94300 29.16900
O  50.23200 29.95200 29.35700
C  48.89500 28.17600 30.34200
C  49.84000 27.87700 31.44100
O  50.72100 27.06600 31.55200
O  49.29600 28.56500 32.51500
C  49.98200 28.42600 33.80700
H  46.02500 21.84000 30.56400
H  46.30400 21.67500 23.96400
H  48.69700 27.48200 23.86400
H  48.43400 25.65300 32.29800
H  46.35600 23.64400 32.21200
H  48.91100 22.51400 31.15300
H  48.21400 22.14300 32.67300
H  49.24600 23.56700 32.55600
H  45.52700 26.13900 31.58600
H  46.52800 27.44200 32.26600
H  46.51800 25.07200 34.05500
H  44.87600 25.42900 33.65100
H  45.00400 20.05900 30.16700
H  45.48300 18.77300 28.97100
H  43.95800 19.50900 28.95700
H  43.44600 18.48400 26.96200
H  45.08900 17.81800 26.92900
H  43.91300 17.70400 25.50400
H  46.16300 23.66200 22.38600
H  48.57100 25.25300 22.23600
H  47.28400 21.89600 21.67600
H  48.46100 22.12500 22.93600
H  48.63500 23.07700 21.45200
H  46.08700 26.80600 22.73900
H  45.81700 25.71200 21.54100
H  47.18400 28.11400 21.48100
H  46.95900 27.14900 20.05900
H  48.36300 26.90900 20.96900
H  50.33400 29.10100 24.66900
H  51.19600 29.51900 26.17600
H  49.78600 30.38700 25.78700
H  48.13300 28.91700 30.58600
H  51.06300 28.28600 33.80100
H  49.49800 27.66900 34.42300
H  49.92800 29.34300 34.39400

