158

Mg 47.64100 25.61500 27.72500
C  48.99800 27.61500 30.16700
C  46.64200 23.27200 30.07300
C  46.48700 23.69300 25.20500
C  49.02700 27.86400 25.22400
N  47.89500 25.43800 29.88300
C  48.28800 26.45600 30.71700
C  47.90100 26.20000 32.15400
C  47.40100 24.71000 32.07000
C  47.33100 24.42400 30.58100
C  48.30300 23.78300 32.93600
C  46.88000 27.20900 32.71400
C  47.15500 27.39700 34.27200
H  45.97600 28.01800 35.11000
N  46.68700 23.71700 27.65600
C  46.36100 22.97800 28.77600
C  45.81700 21.69400 28.30900
C  45.59500 21.84500 26.87000
C  46.27300 23.12100 26.46200
C  45.52400 20.56900 29.22900
C  44.80400 20.90700 25.98100
O  44.71200 21.08300 24.74500
C  44.12200 19.73300 26.55800
N  47.77500 25.78900 25.51200
C  47.23900 24.75600 24.76100
C  47.67100 24.89500 23.34800
C  48.43100 26.22700 23.32100
C  48.38200 26.68100 24.72600
C  48.57400 23.74300 22.86500
C  47.74500 27.33000 22.32500
C  48.27300 27.53700 20.85200
N  48.74500 27.38800 27.65300
C  49.25700 28.19200 26.62600
C  50.09800 29.21800 27.12400
C  49.92600 29.05300 28.51000
C  49.13000 27.94400 28.78000
C  50.86600 30.25700 26.44300
C  50.22400 29.66200 29.73900
O  50.93300 30.61700 29.93400
C  49.60600 28.82700 30.87200
C  50.49200 28.53300 31.96200
O  51.60900 27.95500 31.92200
O  49.91200 29.02700 33.09900
C  50.62600 28.91100 34.31400
H  46.34600 22.54700 30.83500
H  46.16000 23.03800 24.39400
H  49.58000 28.46100 24.49600
H  48.86200 26.19600 32.66800
H  46.41200 24.71200 32.52800
H  48.99000 23.01400 32.58200
H  47.59700 23.23500 33.56000
H  48.93900 24.35600 33.61000
H  45.84200 26.88300 32.64400
H  47.02600 28.15900 32.20000
H  48.02000 28.06000 34.30600
H  47.44900 26.47300 34.76900
H  44.48900 20.61300 29.56600
H  46.24200 20.65000 30.04600
H  45.73300 19.62300 28.73000
H  44.82800 18.90400 26.49400
H  43.32800 19.48600 25.85300
H  43.67500 20.13500 27.46700
H  46.78500 25.02100 22.72600
H  49.43900 26.16800 22.91200
H  48.67500 22.96200 23.61800
H  49.61600 24.05500 22.79100
H  48.19500 23.35600 21.91900
H  47.74300 28.30200 22.81700
H  46.71900 27.06400 22.06900
H  47.43700 27.19100 20.24300
H  49.17700 26.93100 20.80100
H  48.59200 28.57100 20.71600
H  51.40100 31.00500 27.02800
H  50.26000 30.66600 25.63400
H  51.63700 29.71200 25.89700
H  48.79800 29.50800 31.13800
H  50.45200 27.95500 34.80700
H  50.24100 29.64600 35.02100
H  51.64400 29.28800 34.22100
Mg 30.64100 58.44100 40.63700
C  27.84600 56.56100 39.65500
C  32.64300 55.79700 39.96800
C  33.14400 60.57400 40.60600
C  28.31600 61.24200 41.30200
N  30.29800 56.51200 39.71600
C  29.12800 55.90700 39.46300
C  29.33400 54.46000 39.04500
C  30.74000 54.14300 39.71500
C  31.32000 55.56700 39.78900
C  30.74500 53.34200 41.01000
C  29.20600 54.39700 37.49800
C  28.23600 53.39600 36.83800
H  27.23900 54.08300 35.88400
N  32.63600 58.20900 40.36200
C  33.29100 57.00100 40.15700
C  34.65700 57.25300 40.04100
C  34.83100 58.59200 40.35300
C  33.53500 59.23400 40.38500
C  35.60900 56.17000 39.81200
C  36.19600 59.28700 40.63200
O  37.30200 58.68600 40.53300
C  36.35000 60.77100 41.16200
N  30.62200 60.60800 40.86400
C  31.90300 61.18900 40.79400
C  31.74700 62.68800 41.12100
C  30.22600 62.89800 41.47100
C  29.67900 61.53600 41.18200
C  32.65700 63.22400 42.20500
C  29.46300 63.96700 40.61400
C  29.87300 65.37600 40.81400
N  28.54200 58.86700 40.59500
C  27.74600 60.04600 40.85400
C  26.33700 59.58100 40.62900
C  26.32300 58.34200 40.11700
C  27.70400 57.91300 40.10400
C  25.16800 60.49300 40.86600
C  25.48500 57.20500 39.63200
O  24.31900 57.20900 39.31900
C  26.51600 55.99700 39.41900
C  26.14300 54.90700 40.32500
O  26.63500 54.79700 41.42200
O  25.12000 54.10400 39.84200
C  24.41900 53.18400 40.79300
H  33.26700 54.91900 39.78600
H  33.94500 61.31100 40.51700
H  27.72200 62.02400 41.77800
H  28.49100 53.88900 39.43400
H  31.28900 53.52600 39.00300
H  29.67300 53.21000 41.15700
H  31.19100 53.75600 41.91300
H  31.23300 52.37800 40.86500
H  30.18400 54.12100 37.10300
H  29.16400 55.40400 37.08100
H  27.71900 52.88200 37.64800
H  28.80000 52.64900 36.27900
H  35.61400 55.55600 40.71200
H  36.67100 56.38900 39.69500
H  35.38900 55.49500 38.98500
H  36.36000 61.46800 40.32500
H  37.29000 60.81800 41.71200
H  35.49400 60.94300 41.81400
H  31.99500 63.10000 40.14300
H  30.13500 63.13000 42.53200
H  33.11400 62.39900 42.75100
H  32.22600 63.95400 42.89000
H  33.45800 63.80200 41.74400
H  28.42200 64.06000 40.92400
H  29.30800 63.75300 39.55600
H  30.11800 65.77300 39.82900
H  30.72300 65.56700 41.46900
H  29.03700 65.99900 41.13400
H  24.40500 60.10500 41.54200
H  24.69800 60.47400 39.88300
H  25.40200 61.52900 41.11100
H  26.33800 55.65500 38.40000
H  23.39500 53.53800 40.91700
H  24.67600 53.33900 41.84100
H  24.36600 52.10500 40.64900

