158

Mg 35.60500 49.28700 25.65200
C  36.05000 47.23000 28.48400
C  34.24300 51.56600 27.79500
C  34.47200 50.76000 22.84900
C  36.42200 46.41100 23.69700
N  35.28400 49.39000 27.86900
C  35.62200 48.47600 28.79500
C  35.58300 49.05400 30.27600
C  34.68000 50.32600 29.95100
C  34.80700 50.46700 28.44200
C  33.17900 50.24600 30.33700
C  37.01600 49.42300 30.84600
C  37.31400 49.26000 32.37700
H  36.09700 49.24000 33.31000
N  34.57200 51.01100 25.40600
C  34.12700 51.84200 26.40500
C  33.66600 53.07100 25.76500
C  33.59600 52.84100 24.34800
C  34.27300 51.53500 24.13100
C  33.50800 54.41200 26.53500
C  33.06700 53.65700 23.21900
O  33.31800 53.35800 22.07500
C  32.47400 55.02800 23.57400
N  35.46100 48.66700 23.59700
C  35.06800 49.51100 22.65300
C  35.24100 48.93900 21.24700
C  35.98500 47.52200 21.55300
C  36.00400 47.54300 23.04300
C  33.95200 48.85000 20.40000
C  37.34500 47.39300 20.87300
C  37.55900 46.38900 19.84300
N  36.19400 47.28200 25.93700
C  36.47600 46.25300 25.10200
C  36.96100 45.09000 25.80400
C  36.80300 45.45100 27.14000
C  36.32100 46.78900 27.13900
C  37.35900 43.80400 25.24500
C  36.90800 44.97900 28.52200
O  37.31100 43.93100 28.92300
C  36.46500 46.10800 29.41900
C  35.36500 45.55800 30.24500
O  34.24500 45.33700 29.88200
O  35.84800 45.32200 31.53000
C  34.92400 45.08000 32.61900
H  33.78600 52.27100 28.49300
H  34.18000 51.33600 21.96800
H  36.67800 45.61400 22.99600
H  34.96800 48.38600 30.87900
H  35.02800 51.20300 30.49800
H  32.96100 51.14500 30.91300
H  32.94200 49.38000 30.95600
H  32.40500 50.47500 29.60400
H  37.25200 50.43100 30.50500
H  37.71500 48.71700 30.39600
H  37.78000 50.23500 32.52200
H  37.96300 48.39100 32.47900
H  33.87600 54.37900 27.56000
H  32.50300 54.83000 26.59100
H  33.86600 55.26900 25.96400
H  33.21300 55.70700 23.99800
H  31.59100 54.95500 24.20900
H  32.14100 55.46100 22.63100
H  35.83000 49.62300 20.63700
H  35.26700 46.77300 21.22100
H  33.99800 49.66900 19.68200
H  33.08500 48.94000 21.05500
H  33.88300 47.91600 19.84300
H  38.09700 47.20400 21.64000
H  37.34000 48.34700 20.34700
H  38.21300 46.71600 19.03500
H  36.63600 46.09800 19.34000
H  38.04900 45.55500 20.34600
H  37.50600 43.82700 24.16500
H  36.62400 43.06100 25.55500
H  38.34700 43.54200 25.62300
H  37.15200 46.49500 30.17200
H  35.56000 44.82600 33.46700
H  34.20900 44.31000 32.32700
H  34.33600 45.97200 32.83500
Mg 16.66700 52.12100 26.39700
C  18.39400 50.64300 28.88300
C  14.26400 52.96700 28.69000
C  14.90500 53.39800 23.89200
C  19.07800 51.09900 24.09400
N  16.30700 51.62400 28.64600
C  17.29900 51.33500 29.43200
C  16.92500 51.34900 30.88600
C  15.37900 51.85400 30.82900
C  15.27800 52.18600 29.36300
C  14.27500 50.73800 31.33600
C  17.77100 52.22700 31.87900
C  17.86900 51.68200 33.27200
H  16.92100 52.33400 34.25400
N  14.96700 53.13000 26.38600
C  14.02600 53.29400 27.38600
C  12.83700 54.00300 26.85900
C  13.04900 54.28300 25.49300
C  14.33500 53.61600 25.19300
C  11.61000 54.28100 27.80700
C  12.21500 54.95600 24.41800
O  12.59700 55.18200 23.32200
C  10.90000 55.50400 24.81300
N  16.81700 51.94600 24.27900
C  15.96700 52.70100 23.53800
C  16.53100 52.78800 22.00500
C  17.97100 52.47900 22.25300
C  17.99300 51.88100 23.64700
C  15.68800 51.94000 21.03600
C  18.80400 53.79400 22.33600
C  19.83300 54.02100 21.22500
N  18.33900 50.97900 26.42100
C  19.25100 50.63000 25.42500
C  20.30200 49.92600 26.00700
C  19.99900 49.88300 27.34900
C  18.81000 50.59900 27.54700
C  21.56600 49.46800 25.31100
C  20.56800 49.46600 28.60300
O  21.62900 48.86100 28.85900
C  19.53400 50.01100 29.68000
C  19.25800 48.88300 30.61800
O  18.51100 47.93700 30.33700
O  19.78900 49.09100 31.80500
C  19.49900 48.26200 33.00000
H  13.54000 53.29800 29.43700
H  14.27600 53.84400 23.11900
H  19.87600 51.05800 23.35000
H  16.84500 50.31200 31.21300
H  15.30100 52.73700 31.46400
H  14.29300 50.32100 32.34300
H  14.51100 49.87800 30.70900
H  13.30700 51.09600 30.98700
H  17.24300 53.18000 31.90700
H  18.73500 52.44000 31.41800
H  18.91600 51.77000 33.56300
H  17.69200 50.60700 33.27000
H  11.34400 55.33500 27.73800
H  11.80200 54.05200 28.85600
H  10.67400 53.76000 27.60500
H  10.06100 54.80900 24.77500
H  10.58100 56.25400 24.08900
H  10.77000 55.93600 25.80600
H  16.45900 53.79900 21.60300
H  18.41600 51.89200 21.44900
H  14.95500 52.50100 20.45700
H  15.14500 51.17500 21.59300
H  16.34600 51.41000 20.34800
H  19.34900 53.80800 23.28000
H  18.19100 54.69500 22.33900
H  19.74200 55.00900 20.77300
H  19.74700 53.24500 20.46500
H  20.80500 54.00500 21.71700
H  21.63300 49.95600 24.33900
H  21.76200 48.40100 25.42300
H  22.42500 49.84000 25.86900
H  20.02100 50.79100 30.26500
H  19.90400 47.27500 32.77600
H  18.42900 48.11400 33.14600
H  20.12600 48.50600 33.85800

