158

Mg 45.75800 4.82500 48.31300
C  43.80000 7.59800 47.68000
C  43.03300 2.80700 47.77900
C  47.82300 2.10300 48.17300
C  48.61000 6.79900 48.52500
N  43.55300 5.22300 47.85200
C  42.98500 6.43100 47.57800
C  41.54400 6.22400 47.13100
C  41.26800 4.72600 47.54700
C  42.72100 4.15300 47.75800
C  40.20700 4.42800 48.67000
C  41.38200 6.54600 45.64400
C  40.16200 7.40300 45.27900
H  39.51600 7.09800 43.96300
N  45.41800 2.78400 48.05900
C  44.24200 2.13000 47.92200
C  44.41300 0.70200 47.78600
C  45.78300 0.47400 47.99400
C  46.41600 1.79700 48.08600
C  43.33800 -0.28000 47.45100
C  46.42000 -0.96600 48.14400
O  45.77000 -2.00400 48.17600
C  47.88300 -1.16000 48.32900
N  47.95300 4.50400 48.02200
C  48.51100 3.29600 48.18600
C  50.02500 3.31600 48.21100
C  50.35900 4.83700 48.39300
C  48.87500 5.44900 48.25700
C  50.64400 2.32800 49.25500
C  51.32600 5.33900 47.28300
C  52.10700 6.67500 47.64800
N  46.12000 6.76000 48.21600
C  47.27900 7.42100 48.40900
C  47.02300 8.81600 48.48200
C  45.70400 8.94200 48.23300
C  45.17300 7.64200 48.03500
C  48.08000 9.86000 48.59000
C  44.68000 9.85200 47.92000
O  44.71800 11.05800 47.91800
C  43.35300 9.01300 47.62000
C  42.33300 9.36700 48.65700
O  42.51600 9.10500 49.84000
O  41.24700 9.97500 48.08700
C  40.14300 10.21200 49.14500
H  42.20900 2.11300 47.59900
H  48.49400 1.24500 48.09500
H  49.50000 7.38200 48.77300
H  40.86700 6.91100 47.63900
H  40.83900 4.11000 46.75700
H  39.44200 3.87800 48.12000
H  39.82600 5.31100 49.18200
H  40.62100 3.80400 49.46200
H  41.35300 5.63200 45.05100
H  42.23200 7.07900 45.22000
H  40.54600 8.41400 45.41900
H  39.34700 7.27500 45.99100
H  42.81400 -0.83000 48.23300
H  43.72700 -0.90200 46.64500
H  42.60300 0.31800 46.91300
H  48.33700 -0.69700 47.45300
H  48.16200 -2.16300 48.65200
H  48.15700 -0.68000 49.26900
H  50.39300 2.96500 47.24700
H  50.77400 5.05000 49.37800
H  49.99800 2.06000 50.09200
H  51.48600 2.87000 49.68500
H  51.12000 1.46300 48.79400
H  50.81100 5.47500 46.33200
H  52.09200 4.57200 47.16000
H  53.13900 6.62900 47.30000
H  52.15800 6.78200 48.73100
H  51.56700 7.54500 47.27400
H  48.40900 9.71200 49.61900
H  47.55600 10.78700 48.35800
H  48.92200 9.69000 47.91800
H  42.97200 9.24000 46.62500
H  40.39500 10.81800 50.01500
H  39.73000 9.28000 49.53100
H  39.27300 10.75800 48.77900
Mg 10.11500 47.79300 25.92500
C  8.29300 48.11300 29.07600
C  12.89000 49.07300 27.64600
C  11.71800 47.66300 23.08700
C  7.03500 47.05000 24.45600
N  10.51200 48.54300 28.10800
C  9.65700 48.45900 29.21800
C  10.46600 48.83400 30.47900
C  11.79900 49.49600 29.91700
C  11.75300 48.88700 28.50700
C  11.83600 51.04400 29.90400
C  10.69800 47.62700 31.50700
C  10.38100 48.00900 32.96400
H  10.26200 46.89600 34.06200
N  12.08800 48.34500 25.36700
C  13.07400 48.89600 26.19800
C  14.27500 49.03200 25.40000
C  13.92500 48.60900 24.07200
C  12.51100 48.23100 24.11600
C  15.57000 49.53700 25.98400
C  14.72900 48.51300 22.83400
O  14.25900 48.26900 21.74000
C  16.18700 48.74000 22.88300
N  9.47800 47.47100 24.08400
C  10.33500 47.34700 23.08400
C  9.66800 46.94100 21.78000
C  8.22100 46.55700 22.22500
C  8.22400 47.05300 23.61500
C  9.62100 48.03200 20.58800
C  7.93500 45.00700 22.19300
C  8.88100 44.13300 23.13500
N  8.04200 47.65100 26.53100
C  6.89200 47.41000 25.82800
C  5.68900 47.41800 26.64500
C  6.21200 47.56900 27.96100
C  7.63000 47.69900 27.84500
C  4.30900 47.37200 26.16600
C  5.91100 47.64900 29.35500
O  4.82900 47.65600 29.89400
C  7.20900 47.88300 30.18500
C  7.30100 46.68200 31.00900
O  7.76500 45.61200 30.62300
O  6.87900 46.88700 32.33800
C  6.85500 45.71400 33.13000
H  13.78400 49.22300 28.25500
H  12.09500 47.48400 22.07800
H  6.10500 46.73500 23.97700
H  9.87200 49.62300 30.94000
H  12.71700 49.25200 30.45200
H  11.97900 51.35600 28.86900
H  12.60900 51.36900 30.60000
H  10.86800 51.36400 30.29000
H  11.72100 47.26700 31.39500
H  9.97900 46.84700 31.25800
H  9.56700 48.73300 32.99900
H  11.22800 48.57100 33.35700
H  15.45300 49.79500 27.03700
H  15.96400 50.34700 25.37000
H  16.33500 48.76100 25.95400
H  16.50900 49.77100 22.74000
H  16.48900 48.11800 22.04100
H  16.71200 48.31900 23.74000
H  10.23400 46.08500 21.41200
H  7.43200 47.03200 21.64200
H  10.57600 48.03700 20.06300
H  9.39200 49.01200 21.00700
H  8.77700 47.75400 19.95600
H  8.04000 44.69800 21.15400
H  6.87100 44.93400 22.41800
H  8.29100 43.61500 23.89100
H  9.76900 44.71300 23.38400
H  9.20500 43.34500 22.45500
H  3.65600 47.32200 27.03700
H  4.19400 46.49200 25.53300
H  4.02100 48.33000 25.73200
H  6.96700 48.78900 30.74200
H  7.59800 45.90100 33.90600
H  7.10700 44.73600 32.72100
H  5.88700 45.70300 33.63100

