158

Mg 24.01600 -6.70400 47.58300
C  26.12200 -4.12400 46.43300
C  21.66000 -5.57000 45.39300
C  22.16700 -9.39000 48.40200
C  26.79800 -8.11600 49.23800
N  23.95700 -5.05200 46.06700
C  24.85500 -4.09400 45.87300
C  24.35200 -3.03900 44.79000
C  22.77600 -3.41600 44.65000
C  22.76300 -4.71900 45.45000
C  21.83300 -2.33000 45.32900
C  25.15300 -3.11800 43.54800
C  25.69900 -1.82400 42.93800
H  25.05700 -1.40700 41.58000
N  22.10600 -7.30400 47.12400
C  21.38000 -6.78300 46.04600
C  20.06700 -7.55500 45.92000
C  20.15100 -8.57100 46.93800
C  21.49700 -8.42200 47.58800
C  18.89700 -7.10400 45.08000
C  19.06500 -9.60200 47.26000
O  18.08000 -9.59800 46.50200
C  19.23300 -10.56900 48.42200
N  24.33300 -8.47300 48.71000
C  23.48200 -9.42000 48.92200
C  23.92500 -10.46900 49.96400
C  25.45500 -10.07300 50.15500
C  25.58800 -8.82800 49.32600
C  23.03700 -10.51000 51.27400
C  26.51800 -11.05200 49.76600
C  26.58100 -11.43100 48.29800
N  26.08700 -6.29100 47.79800
C  27.02300 -6.88300 48.59900
C  28.23100 -6.05300 48.54500
C  27.96900 -4.97200 47.70300
C  26.61000 -5.17200 47.26800
C  29.53100 -6.23600 49.17600
C  28.40100 -3.73800 47.13100
O  29.48000 -3.08600 47.23100
C  27.24900 -3.19200 46.19100
C  26.95200 -1.85700 46.62200
O  26.13600 -1.56500 47.50900
O  27.77000 -0.96100 46.00500
C  27.64000 0.48100 46.38300
H  20.97200 -5.27300 44.59800
H  21.70000 -10.37300 48.48800
H  27.49500 -8.57500 49.94200
H  24.48500 -2.07600 45.28400
H  22.40900 -3.68100 43.65800
H  22.52300 -1.67700 45.86300
H  21.16100 -2.71300 46.09700
H  21.40400 -1.65600 44.58700
H  24.53400 -3.56100 42.76900
H  25.96800 -3.83400 43.65800
H  26.75200 -2.08300 42.82400
H  25.58100 -0.95400 43.58500
H  18.40200 -7.90500 44.53000
H  19.17200 -6.39400 44.30100
H  18.14800 -6.55100 45.64700
H  18.27200 -11.05800 48.58500
H  19.40600 -10.12500 49.40200
H  19.92200 -11.36700 48.14500
H  23.98400 -11.45600 49.50600
H  25.56900 -9.95100 51.23300
H  22.68800 -11.49100 51.59400
H  22.15000 -9.88100 51.19100
H  23.62900 -10.20100 52.13500
H  26.25900 -11.98700 50.26300
H  27.49900 -10.78900 50.16100
H  26.85900 -12.48200 48.21000
H  27.40300 -10.90600 47.81300
H  25.62500 -11.21700 47.82000
H  29.92400 -5.31900 49.61500
H  30.22400 -6.62100 48.42900
H  29.59700 -6.98500 49.96500
H  27.65100 -3.13800 45.17900
H  27.79200 1.14900 45.53500
H  28.30800 0.68900 47.21800
H  26.67100 0.89800 46.65700
Mg 43.75500 4.00900 47.83200
C  41.52100 6.75800 47.32600
C  40.91300 1.88100 47.48600
C  45.78500 1.37300 47.36900
C  46.46700 6.27500 47.54500
N  41.39100 4.33900 47.53100
C  40.77900 5.48300 47.47800
C  39.28600 5.23400 47.31400
C  39.13000 3.67000 47.67800
C  40.54600 3.20600 47.50200
C  38.59100 3.43200 49.15200
C  38.76500 5.49700 45.88200
C  37.67600 6.57300 45.71700
H  37.17500 6.84700 44.33600
N  43.39700 1.87600 47.51500
C  42.19900 1.25600 47.41700
C  42.38600 -0.15300 47.18100
C  43.80400 -0.28100 47.02000
C  44.44400 1.03100 47.27100
C  41.24700 -1.11900 47.11300
C  44.49400 -1.62200 46.71700
O  43.80100 -2.63100 46.62600
C  46.03100 -1.69300 46.37700
N  45.79000 3.84800 47.38600
C  46.43300 2.62700 47.40800
C  47.96600 2.76200 47.42600
C  48.20900 4.32900 47.40000
C  46.72000 4.89100 47.44200
C  48.66700 2.06700 48.65900
C  49.12400 4.76700 46.22700
C  50.49700 5.37800 46.57100
N  43.98600 6.14800 47.55000
C  45.15600 6.88900 47.45000
C  44.77000 8.30300 47.33200
C  43.40200 8.28400 47.27400
C  42.92700 6.96200 47.43100
C  45.70300 9.48600 47.41300
C  42.18200 9.06500 47.27700
O  42.00000 10.30000 47.24900
C  40.87800 8.09200 47.27000
C  39.88900 8.30700 48.31300
O  39.84800 7.85500 49.42000
O  38.88700 9.17700 47.98100
C  37.70000 9.35300 48.92200
H  40.04600 1.24000 47.31000
H  46.37700 0.45600 47.41000
H  47.28100 6.99900 47.61800
H  38.73200 5.84200 48.03000
H  38.43900 3.12500 47.03500
H  39.35100 2.82600 49.64400
H  37.60100 2.97900 49.21500
H  38.50800 4.40000 49.64700
H  38.21200 4.59500 45.61800
H  39.57200 5.52500 45.15000
H  38.00900 7.43400 46.29600
H  36.81800 6.09400 46.18900
H  41.30700 -1.88500 46.33900
H  40.31000 -0.63100 46.84200
H  41.07600 -1.47500 48.12900
H  46.64000 -1.84800 47.26700
H  46.14200 -0.80400 45.75500
H  46.18100 -2.53100 45.69600
H  48.31600 2.20500 46.55800
H  48.55600 4.75600 48.34100
H  47.93400 1.64900 49.35000
H  49.17200 2.81600 49.26800
H  49.44600 1.37400 48.34100
H  48.65800 5.64800 45.78500
H  49.16600 3.88500 45.58900
H  51.13100 4.49200 46.55400
H  50.52200 5.76000 47.59200
H  50.85800 6.07400 45.81300
H  46.04600 9.73200 48.41800
H  45.17000 10.36200 47.04200
H  46.59900 9.36700 46.80300
H  40.36300 8.20300 46.31600
H  37.03200 10.12300 48.53600
H  37.96600 9.47100 49.97200
H  37.21500 8.37900 48.85300

