158

Mg 16.53600 -2.69000 28.20200
C  15.47300 -0.45500 30.77700
C  18.18000 -4.56900 30.46200
C  18.21300 -4.25400 25.62200
C  15.02700 -0.50500 25.87300
N  16.79100 -2.41400 30.34400
C  16.17600 -1.56800 31.24400
C  16.41000 -1.99900 32.68700
C  17.39100 -3.19200 32.52500
C  17.45700 -3.47300 30.98700
C  18.80000 -3.07100 33.09700
C  15.12900 -2.26900 33.51000
C  14.97800 -1.89300 34.98600
H  16.19600 -1.30700 35.63300
N  17.97700 -4.24400 28.06100
C  18.47900 -4.92800 29.11300
C  19.25300 -6.08000 28.60700
C  19.42300 -5.91100 27.17400
C  18.54000 -4.75500 26.91400
C  19.83400 -7.09900 29.50500
C  20.06500 -6.83800 26.14500
O  19.88900 -6.81100 24.91700
C  21.05500 -7.83100 26.60200
N  16.70400 -2.35000 26.07800
C  17.34300 -3.24100 25.23900
C  17.14500 -2.83100 23.77200
C  16.11400 -1.65900 23.88300
C  15.86500 -1.56400 25.39300
C  18.51000 -2.60500 23.06200
C  14.80000 -1.88200 23.11400
C  14.62200 -1.08400 21.86900
N  15.50400 -0.90600 28.26500
C  14.91200 -0.19100 27.20500
C  14.40400 1.06800 27.73500
C  14.51800 0.99500 29.14300
C  15.20700 -0.25800 29.40900
C  13.75100 2.12700 26.91200
C  14.23100 1.62200 30.37400
O  13.48700 2.59700 30.63100
C  14.91500 0.75200 31.47600
C  15.95800 1.57700 32.16000
O  16.98400 1.93300 31.58700
O  15.59500 1.94500 33.40300
C  16.53300 2.91600 34.07100
H  18.68000 -5.14900 31.24100
H  18.75400 -4.70300 24.78700
H  14.43000 0.14900 25.23400
H  16.92500 -1.15800 33.15200
H  16.99100 -4.10400 32.96800
H  18.77300 -2.31100 33.87700
H  19.59100 -2.94800 32.35600
H  19.06400 -3.99500 33.61300
H  14.93200 -3.32900 33.35200
H  14.38400 -1.67800 32.97800
H  14.72800 -2.84000 35.46500
H  14.09800 -1.26300 35.11900
H  19.52200 -8.03800 29.04900
H  19.58400 -6.93400 30.55300
H  20.92200 -7.02500 29.50700
H  21.45800 -7.47700 27.55100
H  21.79300 -8.09000 25.84300
H  20.45500 -8.70200 26.86900
H  16.65100 -3.67100 23.28400
H  16.58900 -0.75100 23.51200
H  19.21100 -2.60800 23.89700
H  18.46800 -1.66300 22.51500
H  18.66600 -3.46200 22.40700
H  13.94900 -1.59500 23.73200
H  14.62700 -2.91400 22.80600
H  13.92400 -0.24700 21.85000
H  14.35600 -1.79100 21.08300
H  15.52400 -0.51800 21.63600
H  12.78400 1.81600 26.51600
H  14.27900 2.30600 25.97500
H  13.68700 3.02900 27.52100
H  14.03400 0.50600 32.06900
H  16.08600 3.41500 34.93100
H  16.77100 3.73200 33.38900
H  17.42200 2.41000 34.44900
Mg 48.06400 44.43500 42.83400
C  44.51600 44.10300 42.47600
C  48.28600 41.03600 42.53900
C  51.32900 44.82400 42.98200
C  47.66000 47.85300 42.52400
N  46.55300 42.82300 42.44000
C  45.21800 42.81500 42.54400
C  44.56400 41.41000 42.55900
C  45.89200 40.47900 42.76300
C  47.02800 41.51200 42.60900
C  45.83900 39.77100 44.15900
C  43.72300 40.97300 41.31800
C  43.97200 41.70200 39.95800
H  43.89800 40.92400 38.69200
N  49.58600 43.08000 42.69400
C  49.49500 41.72100 42.59200
C  50.86200 41.16100 42.62100
C  51.74500 42.23400 42.56700
C  50.95000 43.41600 42.82100
C  51.16000 39.75900 42.42100
C  53.30400 42.19100 42.38000
O  53.88900 41.09500 42.35300
C  54.20500 43.45700 42.20700
N  49.33000 46.16100 42.88600
C  50.69100 46.06700 43.01500
C  51.37300 47.45100 43.14900
C  50.13900 48.40800 43.15900
C  48.98500 47.46500 42.75100
C  52.53000 47.59500 44.23700
C  50.36300 49.55800 42.10800
C  50.48800 50.96000 42.67300
N  46.46100 45.72500 42.49900
C  46.47200 47.10300 42.38200
C  45.07500 47.61800 42.22600
C  44.30100 46.43700 42.29800
C  45.19700 45.34100 42.38100
C  44.63300 49.04400 42.19400
C  42.91200 45.96000 42.51300
O  41.89800 46.57300 42.61100
C  43.02600 44.43000 42.61800
C  42.35400 44.00100 43.84200
O  41.22200 43.53600 43.99200
O  43.15300 44.28900 44.96900
C  42.73900 43.66800 46.29100
H  48.37200 39.94900 42.49500
H  52.37300 45.02500 43.22900
H  47.52900 48.93600 42.47700
H  43.99800 41.40900 43.49000
H  46.11500 39.74600 41.98700
H  45.39800 38.79700 43.94800
H  45.16200 40.25000 44.86600
H  46.86400 39.61600 44.49600
H  42.68800 41.01400 41.65600
H  43.90500 39.92300 41.09000
H  44.91800 42.24400 39.93200
H  43.17700 42.44200 39.86800
H  51.75700 39.41200 43.26500
H  51.86200 39.69400 41.59000
H  50.27600 39.16400 42.19100
H  53.83600 44.24000 41.54400
H  55.17100 43.18500 41.78300
H  54.28200 43.92200 43.19000
H  51.81000 47.51100 42.15300
H  49.93700 48.69900 44.19000
H  52.31100 48.28100 45.05600
H  53.45100 47.93900 43.76700
H  52.84300 46.67900 44.73700
H  49.43600 49.61100 41.53600
H  51.17900 49.45200 41.39400
H  49.78600 51.66100 42.22000
H  51.43600 51.49000 42.58300
H  50.25400 50.78600 43.72300
H  44.65000 49.51000 43.17900
H  43.69100 49.15700 41.65600
H  45.33100 49.63200 41.59800
H  42.40400 44.09000 41.79000
H  43.60200 43.63100 46.95500
H  42.35800 42.65300 46.40400
H  41.95800 44.24100 46.79200

