158

Mg 1.53800 -1.60500 44.35500
C  4.77600 -0.72400 43.40100
C  0.36000 1.27800 42.60000
C  -1.69600 -2.79600 44.37000
C  2.73300 -4.68300 45.52200
N  2.47200 0.12000 43.18600
C  3.80700 0.20900 42.93100
C  4.05600 1.51400 42.11300
C  2.70800 2.31700 42.18200
C  1.79700 1.16800 42.69000
C  2.65400 3.49600 43.19600
C  4.38600 1.15500 40.63300
C  5.53200 2.04000 40.10200
H  5.24400 2.64000 38.72700
N  -0.51400 -0.79300 43.70200
C  -0.71400 0.34800 42.98700
C  -2.09100 0.38500 42.61800
C  -2.78700 -0.73600 43.10400
C  -1.65400 -1.52100 43.76100
C  -2.62600 1.53400 41.77900
C  -4.28800 -1.10800 43.10900
O  -5.02200 -0.40400 42.42700
C  -4.87000 -2.13300 44.00100
N  0.59600 -3.45900 44.91100
C  -0.69700 -3.74000 44.83800
C  -0.92700 -5.15500 45.47600
C  0.45200 -5.82300 45.62600
C  1.35700 -4.56800 45.26400
C  -1.89300 -5.13600 46.75600
C  0.68100 -7.03700 44.73000
C  1.60600 -8.11600 45.36200
N  3.39100 -2.50300 44.64600
C  3.75400 -3.76500 45.12500
C  5.18400 -3.93100 44.99500
C  5.58600 -2.78500 44.32200
C  4.48300 -1.99100 44.11900
C  5.88800 -5.11600 45.40000
C  6.80500 -2.13200 43.80500
O  7.96900 -2.46200 43.74500
C  6.28000 -0.67200 43.27900
C  6.87700 0.47100 43.98700
O  6.75500 0.73900 45.17200
O  7.57900 1.23800 43.04500
C  8.40700 2.30200 43.65500
H  -0.03200 2.23600 42.25200
H  -2.65900 -3.30300 44.45900
H  2.96800 -5.69900 45.84600
H  4.82900 2.00900 42.70200
H  2.38500 2.69600 41.21200
H  2.37200 4.35800 42.59200
H  3.70800 3.57500 43.46300
H  2.04700 3.42500 44.09800
H  3.48400 1.19200 40.02300
H  4.65300 0.10900 40.47900
H  6.47700 1.49700 40.11400
H  5.72100 2.91900 40.71800
H  -2.89900 1.20700 40.77600
H  -2.01000 2.43300 41.80900
H  -3.54100 1.95300 42.19900
H  -5.90100 -1.85100 44.21800
H  -4.46800 -2.00000 45.00500
H  -4.90400 -3.16300 43.64600
H  -1.43100 -5.59000 44.61400
H  0.51000 -6.10000 46.67800
H  -2.86400 -5.57700 46.53000
H  -2.00800 -4.14400 47.19200
H  -1.39700 -5.65400 47.57700
H  1.25000 -6.81200 43.82700
H  -0.30200 -7.48000 44.57100
H  1.97300 -8.72400 44.53500
H  1.02500 -8.92600 45.80400
H  2.43800 -7.69200 45.92500
H  5.85800 -5.91400 44.65800
H  5.43300 -5.50400 46.31200
H  6.90100 -4.76700 45.60200
H  6.57300 -0.61100 42.23100
H  9.26800 2.55300 43.03600
H  8.75200 1.90600 44.61000
H  7.83400 3.20000 43.88600
Mg -10.95500 38.57100 41.67600
C  -9.48000 35.38900 41.10800
C  -8.24300 39.89400 40.15600
C  -12.52600 41.53400 41.67000
C  -13.91300 36.96700 42.67400
N  -9.07100 37.72100 40.75400
C  -8.63100 36.44100 40.69400
C  -7.20000 36.27900 40.25800
C  -6.80100 37.76200 39.99700
C  -8.08200 38.53000 40.38600
C  -5.51700 38.18500 40.73500
C  -7.23200 35.46000 38.92600
C  -6.08600 34.41800 38.81200
H  -5.11300 34.80100 37.73000
N  -10.39800 40.44700 41.08900
C  -9.16800 40.77700 40.63000
C  -9.09100 42.20200 40.41900
C  -10.34500 42.74100 40.77800
C  -11.16800 41.61300 41.23300
C  -7.88300 42.90700 39.83100
C  -10.73500 44.16500 40.87300
O  -9.94600 45.10200 40.65300
C  -12.14700 44.60900 41.21000
N  -13.01000 39.11400 41.83900
C  -13.32700 40.40400 41.86800
C  -14.75100 40.63900 42.38900
C  -15.19600 39.18100 42.79000
C  -13.94900 38.30800 42.41300
C  -14.84700 41.73700 43.52500
C  -16.38800 38.60700 41.96200
C  -17.56600 38.13800 42.85600
N  -11.64900 36.61700 41.86400
C  -12.85400 36.08100 42.32900
C  -12.68200 34.66100 42.56900
C  -11.40400 34.34300 42.06700
C  -10.79500 35.58700 41.70100
C  -13.73100 33.76300 43.04900
C  -10.42200 33.24900 41.75900
O  -10.53000 32.06100 42.03400
C  -9.22000 33.86300 41.08400
C  -8.01500 33.28500 41.69200
O  -7.40700 32.32900 41.24900
O  -7.66100 33.96700 42.86700
C  -6.37100 33.57900 43.55400
H  -7.46400 40.46100 39.64100
H  -13.09300 42.46200 41.77100
H  -14.79400 36.54600 43.16300
H  -6.54900 35.84400 41.01700
H  -6.64300 37.95000 38.93500
H  -4.79700 37.37000 40.66400
H  -5.63400 38.38100 41.80000
H  -4.96500 39.03800 40.34100
H  -7.01400 36.08500 38.06000
H  -8.23000 35.05300 38.76500
H  -6.46600 33.43900 38.51900
H  -5.44200 34.45800 39.69000
H  -7.85200 43.90700 40.26500
H  -7.85700 43.08900 38.75700
H  -6.96200 42.43700 40.17800
H  -12.58900 44.43200 42.19000
H  -12.78100 44.14800 40.45400
H  -12.22500 45.66600 40.95400
H  -15.31000 41.03900 41.54300
H  -15.45300 39.19800 43.84900
H  -14.00000 42.04000 44.14100
H  -15.62300 41.34800 44.18300
H  -15.13200 42.68100 43.05900
H  -16.01300 37.77800 41.36200
H  -16.73600 39.35900 41.25400
H  -17.55800 38.36100 43.92300
H  -17.75300 37.06400 42.85900
H  -18.51700 38.56200 42.53200
H  -14.00100 33.94500 44.08900
H  -13.35600 32.74100 42.98600
H  -14.63900 33.81700 42.44900
H  -9.13500 33.49900 40.06000
H  -6.39200 33.84800 44.61000
H  -5.53000 34.12900 43.13100
H  -6.27800 32.49400 43.52500

