158

Mg 8.53300 3.31000 27.77300
C  10.08500 2.03100 30.44700
C  6.61900 5.42900 29.87900
C  6.89000 4.58700 25.08000
C  10.01600 0.94200 25.75300
N  8.25800 3.61300 29.98100
C  9.11500 2.95100 30.91300
C  8.93600 3.54300 32.26900
C  7.68600 4.59900 32.01500
C  7.44000 4.51700 30.54000
C  6.46700 4.36800 32.84100
C  10.19700 4.28000 32.88600
C  9.98800 4.64300 34.33900
H  10.83900 3.93900 35.41100
N  6.94600 4.76900 27.56700
C  6.34300 5.55400 28.55000
C  5.42800 6.47500 27.94800
C  5.45400 6.14100 26.55800
C  6.45400 5.13400 26.34100
C  4.63500 7.42200 28.74300
C  4.54600 6.62800 25.41300
O  4.79700 6.36000 24.23900
C  3.39200 7.60300 25.65900
N  8.48600 2.82900 25.79800
C  7.88500 3.59100 24.86200
C  8.12500 3.09600 23.45800
C  8.96400 1.81200 23.67200
C  9.12500 1.85400 25.15900
C  6.82500 2.85900 22.53700
C  10.30600 1.76400 22.85500
C  10.41400 0.62200 21.84900
N  9.77500 1.69900 28.02600
C  10.41400 0.86800 27.10800
C  11.29200 -0.09100 27.81700
C  11.26900 0.41400 29.10300
C  10.27600 1.50000 29.20900
C  12.14300 -1.16400 27.23700
C  11.70100 0.13100 30.46100
O  12.53300 -0.69700 30.90800
C  10.96100 1.15100 31.36400
C  10.13100 0.50200 32.42700
O  9.17300 -0.18400 32.24500
O  10.67100 0.74800 33.66600
C  9.95800 0.24800 34.89400
H  6.24400 6.05700 30.69000
H  6.36200 4.90200 24.17800
H  10.53500 0.27600 25.06000
H  8.65300 2.79100 33.00600
H  8.09900 5.60100 32.12800
H  6.45800 5.01700 33.71600
H  6.56800 3.28900 32.96200
H  5.53400 4.56200 32.31200
H  10.38200 5.17700 32.29600
H  11.07900 3.71500 32.58600
H  8.96700 4.33900 34.56900
H  10.16800 5.71100 34.46700
H  4.87600 7.40500 29.80600
H  3.58900 7.11600 28.71600
H  4.72200 8.42800 28.33300
H  2.55800 7.06200 26.10700
H  3.09400 7.91400 24.65700
H  3.61900 8.38600 26.38200
H  8.69000 3.82000 22.87000
H  8.37200 0.95900 23.33800
H  5.97400 2.94800 23.21100
H  6.94100 1.93100 21.97700
H  6.71100 3.68600 21.83700
H  11.15400 1.73000 23.53900
H  10.40200 2.70000 22.30600
H  11.23300 -0.03600 22.13800
H  10.76700 1.03800 20.90600
H  9.53900 0.02000 21.60400
H  13.09600 -0.72100 26.94700
H  11.69200 -1.44300 26.28500
H  12.16500 -2.07300 27.84000
H  11.75200 1.70400 31.86900
H  9.38800 -0.67100 34.75900
H  9.25300 1.05800 35.07900
H  10.64000 0.18200 35.74100
Mg 16.89800 52.97800 26.85200
C  18.72000 51.21800 29.32700
C  14.65500 53.70400 29.26400
C  14.92700 54.20700 24.50500
C  18.99400 51.51000 24.35100
N  16.80400 52.66300 28.99900
C  17.67100 51.95500 29.81600
C  17.25500 51.92800 31.28100
C  15.75800 52.28600 31.09300
C  15.77700 52.98000 29.72300
C  14.95600 50.97700 31.30000
C  18.08900 53.01700 31.98800
C  18.47600 52.81400 33.43700
H  17.40700 52.08900 34.26700
N  15.08900 53.97700 26.87300
C  14.36200 54.25200 27.99200
C  13.22700 55.01800 27.63100
C  13.16900 54.99100 26.22900
C  14.45300 54.40100 25.77700
C  12.28700 55.55700 28.68500
C  11.98900 55.45700 25.28200
O  12.22500 55.53800 24.08900
C  10.60200 55.92200 25.81700
N  17.09700 53.02900 24.73400
C  16.05700 53.60800 24.01000
C  16.26100 53.34700 22.49600
C  17.62100 52.57500 22.49800
C  17.93700 52.44400 23.97000
C  15.11400 52.58500 21.90900
C  18.69700 53.14800 21.54800
C  19.71300 54.19700 22.04300
N  18.53300 51.59200 26.77500
C  19.30100 51.16000 25.73900
C  20.41700 50.43800 26.30800
C  20.26900 50.43900 27.69500
C  19.05500 51.05600 27.92400
C  21.56400 49.90900 25.49000
C  20.83700 50.13200 28.97000
O  21.95000 49.74100 29.26900
C  19.84500 50.61700 30.04700
C  19.46400 49.44900 30.95400
O  18.83400 48.49400 30.51400
O  19.78500 49.63200 32.29600
C  19.24200 48.68500 33.27700
H  13.97900 53.94600 30.08700
H  14.48200 54.75300 23.67100
H  19.50200 50.93500 23.57400
H  17.60900 51.06100 31.83900
H  15.38200 52.90800 31.90600
H  15.09700 50.27000 30.48200
H  13.87600 51.02700 31.43400
H  15.36600 50.50900 32.19500
H  17.55200 53.96500 32.00900
H  19.01800 53.19100 31.44600
H  18.71800 53.79300 33.85100
H  19.41300 52.25900 33.40000
H  11.96400 56.56000 28.40700
H  12.72600 55.48000 29.68000
H  11.35200 54.99800 28.70900
H  10.00100 55.16000 26.31300
H  9.92800 56.34200 25.07100
H  10.82200 56.80500 26.41700
H  16.37500 54.30000 21.98100
H  17.42800 51.55400 22.17000
H  14.57700 53.17400 21.16500
H  14.49500 52.11600 22.67400
H  15.57700 51.73400 21.41100
H  18.21100 53.88100 20.90300
H  19.17800 52.35800 20.97200
H  19.41500 54.50900 23.04400
H  19.67200 55.09000 21.42000
H  20.73300 53.81800 22.10000
H  21.97500 50.62900 24.78200
H  21.08400 49.17400 24.84200
H  22.36700 49.37700 25.99900
H  20.35200 51.28700 30.74200
H  19.61500 47.69100 33.03000
H  18.15800 48.58500 33.20900
H  19.63100 49.07400 34.21800

