158

Mg -2.35500 17.26100 27.26300
C  -2.68900 14.98400 29.87600
C  -2.80500 19.79500 29.46000
C  -2.30700 19.37600 24.55000
C  -2.14700 14.53200 25.04300
N  -2.67100 17.32200 29.43800
C  -2.79900 16.30800 30.31200
C  -2.80200 16.82700 31.76200
C  -3.23800 18.30500 31.52500
C  -2.85600 18.49800 30.07400
C  -4.77900 18.54300 31.73000
C  -1.43500 16.69800 32.55000
C  -1.55400 16.03100 33.96400
H  -0.47400 16.09600 34.97300
N  -2.53000 19.31800 27.00300
C  -2.64600 20.20000 28.01500
C  -2.56800 21.52800 27.54200
C  -2.35300 21.42200 26.14000
C  -2.36200 19.98100 25.83800
C  -2.63000 22.78900 28.43800
C  -1.99600 22.50500 25.11200
O  -1.64200 22.33100 23.97500
C  -2.03300 23.91300 25.49900
N  -2.58000 17.01700 25.11400
C  -2.45700 18.05300 24.17400
C  -2.28700 17.47400 22.77600
C  -2.05700 15.92200 22.95400
C  -2.30600 15.82600 24.47700
C  -3.51900 17.73900 21.86600
C  -0.66600 15.44600 22.37500
C  0.64800 15.54700 23.26100
N  -2.36700 15.17300 27.33400
C  -2.11000 14.20700 26.38800
C  -2.17300 12.90200 26.98600
C  -2.33000 13.17900 28.37300
C  -2.47500 14.55400 28.52700
C  -2.18900 11.69400 26.21500
C  -2.58700 12.59400 29.65800
O  -2.66600 11.39500 29.95200
C  -2.85300 13.74300 30.65600
C  -1.78200 13.44900 31.73200
O  -0.55800 13.63600 31.64600
O  -2.33300 12.78100 32.79000
C  -1.36000 12.28200 33.77200
H  -2.95500 20.61100 30.17000
H  -2.08900 20.05400 23.72200
H  -2.06500 13.70800 24.33200
H  -3.62000 16.34300 32.29500
H  -2.80500 18.99900 32.24500
H  -5.42200 17.66400 31.68900
H  -5.23300 19.28100 31.06900
H  -4.93300 18.82800 32.77100
H  -0.98900 17.68800 32.65000
H  -0.86400 15.94600 32.00600
H  -1.98200 15.02900 33.94200
H  -2.35200 16.65300 34.36900
H  -3.06500 22.52700 29.40200
H  -3.18800 23.63400 28.03600
H  -1.58100 23.06200 28.55400
H  -1.20300 24.27700 26.10500
H  -2.99800 24.12000 25.96100
H  -2.13800 24.56100 24.62900
H  -1.35300 17.91400 22.42700
H  -2.80100 15.39900 22.35300
H  -4.36600 17.33100 22.41900
H  -3.44200 17.18300 20.93100
H  -3.59700 18.81700 21.72700
H  -0.36200 16.02600 21.50400
H  -0.77500 14.40000 22.09100
H  1.10400 14.56000 23.32800
H  0.43500 15.91700 24.26400
H  1.43900 16.13700 22.79800
H  -1.67500 11.72300 25.25400
H  -3.23100 11.43500 26.02300
H  -1.83100 10.89000 26.85800
H  -3.78800 13.59400 31.19600
H  -1.87400 11.83900 34.62500
H  -0.78200 13.09000 34.21900
H  -0.69700 11.52400 33.35300
Mg -13.22000 38.00600 43.38000
C  -11.17500 35.62800 41.87100
C  -11.50400 40.50000 41.73500
C  -15.83300 40.07500 43.98000
C  -14.87900 35.41300 45.01000
N  -11.51800 38.07100 41.97600
C  -10.83800 36.94100 41.57100
C  -9.61400 37.34200 40.67800
C  -9.50600 38.93800 40.95800
C  -10.92500 39.18600 41.53800
C  -8.29700 39.36200 41.94800
C  -9.83100 37.00700 39.17900
C  -8.81500 35.99500 38.60800
H  -7.97000 36.43500 37.37200
N  -13.60200 39.99600 42.88800
C  -12.77100 40.90200 42.25800
C  -13.43600 42.17300 42.06100
C  -14.77700 41.95900 42.50800
C  -14.81100 40.57800 43.17400
C  -12.86000 43.41800 41.51600
C  -15.93900 42.90800 42.39600
O  -15.77400 44.06800 42.03600
C  -17.35400 42.50200 42.56600
N  -15.18200 37.73800 44.24700
C  -15.98200 38.79200 44.51100
C  -17.15000 38.40400 45.41500
C  -16.77700 36.87700 45.80000
C  -15.50300 36.63100 45.01900
C  -17.56900 39.28700 46.64100
C  -17.88600 35.87200 45.46900
C  -18.04300 34.77700 46.52500
N  -13.21000 35.85900 43.42700
C  -13.82800 34.97100 44.19900
C  -13.23600 33.68100 44.08500
C  -12.28300 33.84700 43.08300
C  -12.25900 35.26100 42.72600
C  -13.54800 32.45000 44.99100
C  -11.25600 33.21700 42.35900
O  -10.96200 31.99600 42.17900
C  -10.44200 34.35600 41.55900
C  -9.00800 34.35500 42.09200
O  -8.02200 34.01300 41.41900
O  -8.92500 34.78800 43.41800
C  -7.61600 34.83600 44.04300
H  -10.75500 41.25800 41.49900
H  -16.57000 40.80100 44.33200
H  -15.26000 34.59400 45.62400
H  -8.71600 36.83900 41.03700
H  -9.43600 39.40900 39.97700
H  -7.59100 40.03300 41.45900
H  -7.73000 38.62800 42.51900
H  -8.87000 39.91200 42.69500
H  -9.76000 37.90100 38.55900
H  -10.80800 36.53000 39.11100
H  -9.42900 35.18400 38.21600
H  -8.12300 35.65800 39.38000
H  -13.38000 44.34300 41.76300
H  -12.91200 43.34700 40.42900
H  -11.79900 43.59200 41.69500
H  -17.50300 41.47800 42.22500
H  -17.97500 43.15600 41.95400
H  -17.62000 42.65000 43.61300
H  -17.99500 38.35500 44.72700
H  -16.63700 36.83900 46.88000
H  -16.95600 40.18800 46.67000
H  -17.59000 38.74200 47.58500
H  -18.58500 39.61800 46.42900
H  -17.54600 35.45600 44.52100
H  -18.86500 36.31000 45.27200
H  -18.95100 34.89900 47.11500
H  -17.24700 34.78600 47.26900
H  -17.88600 33.77900 46.11600
H  -14.61000 32.42900 45.23700
H  -13.03000 32.51600 45.94800
H  -13.25200 31.54700 44.45800
H  -10.47600 34.06800 40.50900
H  -7.42400 35.86100 44.35800
H  -6.69100 34.58600 43.52300
H  -7.59600 34.22000 44.94200

