158

Mg 6.16900 53.42300 40.64600
C  5.43900 49.92600 40.40700
C  9.33800 52.64600 39.48500
C  6.69200 56.61100 40.09500
C  2.73300 53.96500 41.10700
N  7.22000 51.49200 40.18900
C  6.70200 50.23100 39.98100
C  7.81700 49.21900 39.55300
C  9.15900 50.12600 39.82400
C  8.55200 51.52300 39.75400
C  9.88200 49.83900 41.20700
C  7.66800 48.73400 37.97600
C  6.93300 49.73600 37.01700
H  6.16600 49.24800 35.63900
N  7.83700 54.51000 39.95300
C  9.08400 53.99200 39.54900
C  9.99400 55.02500 39.44800
C  9.21500 56.23200 39.65000
C  7.86600 55.86100 39.91400
C  11.42400 54.83400 39.11100
C  9.88000 57.58000 39.73700
O  11.06000 57.66400 39.63300
C  9.20400 58.80500 39.98600
N  4.85600 55.08800 40.58400
C  5.32400 56.34600 40.37800
C  4.17600 57.41300 40.52700
C  2.96700 56.55000 40.86000
C  3.50500 55.12900 40.86600
C  4.52100 58.52100 41.56500
C  1.70500 56.54500 39.90900
C  0.27400 56.45700 40.51300
N  4.42200 52.24900 40.83400
C  3.09000 52.59400 41.10300
C  2.31000 51.44900 41.36400
C  3.21100 50.40200 41.07800
C  4.45600 50.90400 40.79100
C  0.91400 51.39100 41.80300
C  3.31000 48.94000 40.97600
O  2.49300 48.05700 41.20000
C  4.71800 48.59800 40.43700
C  4.60100 48.01700 39.09700
O  4.24800 48.53500 38.05300
O  4.80100 46.68400 39.29900
C  4.66800 45.77400 38.13600
H  10.39400 52.46500 39.27400
H  6.81400 57.66600 39.84000
H  1.71500 54.27900 41.34700
H  7.66900 48.35900 40.20600
H  9.87100 50.05500 39.00200
H  9.32000 49.19000 41.87800
H  9.99300 50.76300 41.77500
H  10.83700 49.39900 40.92000
H  7.22200 47.74100 37.91500
H  8.71300 48.67400 37.67300
H  7.72900 50.36000 36.61000
H  6.21500 50.35000 37.56100
H  11.77800 53.84300 39.39600
H  12.00000 55.47300 39.78000
H  11.56600 54.98400 38.04100
H  8.51200 58.74200 40.82600
H  8.55000 59.00600 39.13700
H  9.90500 59.63000 40.11600
H  3.87200 57.91800 39.61000
H  2.63700 56.66700 41.89200
H  5.34800 58.18800 42.19200
H  3.68700 58.71200 42.24000
H  4.71500 59.44900 41.02700
H  1.79700 55.73900 39.18100
H  1.66200 57.48400 39.35700
H  0.29600 56.04000 41.52000
H  -0.49600 55.97400 39.91200
H  -0.14100 57.46400 40.55300
H  0.52100 52.38400 42.02300
H  0.94000 50.85800 42.75300
H  0.29300 50.99600 40.99900
H  5.33300 47.99000 41.10000
H  5.47000 45.03600 38.14600
H  4.52100 46.22100 37.15300
H  3.76600 45.20700 38.36600
Mg -12.19000 38.52100 42.18400
C  -9.94600 36.13300 41.23300
C  -10.27600 40.85300 40.46200
C  -14.62900 40.68500 42.80000
C  -14.30000 35.96800 43.44800
N  -10.35600 38.45200 40.98700
C  -9.53000 37.37700 40.80700
C  -8.19600 37.77900 40.04400
C  -8.27600 39.33500 39.90300
C  -9.73300 39.54900 40.45800
C  -7.20600 40.24800 40.62000
C  -7.81200 36.98900 38.71800
C  -6.60900 35.91900 38.63700
H  -5.69800 36.28300 37.50500
N  -12.41400 40.56800 41.71500
C  -11.54300 41.33600 41.07200
C  -12.09200 42.68700 41.10700
C  -13.33200 42.67300 41.73200
C  -13.50100 41.25100 42.14300
C  -11.40200 43.84400 40.40000
C  -14.18700 43.88700 41.98300
O  -13.93100 44.97800 41.54300
C  -15.29800 43.71700 42.86300
N  -14.23800 38.26200 42.85000
C  -15.01700 39.35800 43.06400
C  -16.36300 38.99200 43.61500
C  -16.28500 37.42500 43.74700
C  -14.85100 37.19300 43.40300
C  -16.75900 39.73600 44.97800
C  -17.27800 36.75000 42.77000
C  -18.70500 36.89200 43.32000
N  -12.17100 36.47800 42.26900
C  -13.03000 35.57800 42.94600
C  -12.41700 34.27400 42.97700
C  -11.22700 34.40700 42.28000
C  -11.15700 35.76700 41.86800
C  -12.91800 32.98600 43.70000
C  -10.02200 33.69500 41.82500
O  -9.65700 32.55000 42.03200
C  -9.18500 34.84900 41.08100
C  -7.82200 34.79600 41.72000
O  -7.04900 33.91500 41.44200
O  -7.64200 35.83000 42.65700
C  -6.28600 35.98300 43.24700
H  -9.61400 41.59300 40.00700
H  -15.43500 41.29900 43.20800
H  -14.92900 35.16900 43.84500
H  -7.34400 37.47000 40.64900
H  -8.21600 39.57800 38.84200
H  -7.50800 40.55700 41.62100
H  -7.30800 41.11100 39.96200
H  -6.17500 39.91900 40.49400
H  -7.59300 37.78400 38.00500
H  -8.57700 36.45100 38.15800
H  -7.18100 35.02400 38.39500
H  -6.01400 35.77400 39.53900
H  -11.84600 44.21900 39.47800
H  -10.42200 43.46900 40.10600
H  -11.31800 44.71500 41.05100
H  -15.62200 44.67300 43.27500
H  -15.02900 43.18300 43.77400
H  -16.12600 43.22700 42.35000
H  -17.04700 39.43000 42.88800
H  -16.43800 37.15200 44.79100
H  -15.87500 40.11700 45.49000
H  -17.48100 39.08400 45.47000
H  -17.27300 40.63800 44.64500
H  -17.06700 35.69600 42.58600
H  -17.26500 37.10300 41.73900
H  -19.41000 37.14500 42.52800
H  -18.63300 37.54900 44.18600
H  -18.86800 35.85600 43.61800
H  -13.12300 32.24700 42.92500
H  -13.83800 33.30400 44.19200
H  -12.12100 32.65900 44.36700
H  -9.07800 34.54200 40.04100
H  -5.63500 36.58900 42.61700
H  -5.83300 35.00600 43.41600
H  -6.42400 36.63300 44.11100

