158

Mg 45.18300 5.19900 47.00900
C  42.85500 7.83400 46.58400
C  42.55000 2.99300 46.40900
C  47.43300 2.88800 46.56300
C  47.83200 7.65500 46.85500
N  43.00900 5.46900 46.45800
C  42.24400 6.61400 46.30800
C  40.73400 6.37700 46.28200
C  40.65600 4.80000 46.11000
C  42.11000 4.38000 46.38600
C  39.56900 4.13700 47.17700
C  39.85800 7.09500 45.13900
C  40.62000 7.44600 43.78000
H  39.88400 6.96100 42.49000
N  44.99400 3.18000 46.59200
C  43.87800 2.45200 46.49800
C  44.20800 1.02700 46.43100
C  45.66200 1.02000 46.24000
C  46.11400 2.35500 46.45800
C  43.19400 -0.07100 46.29500
C  46.43100 -0.22600 45.81300
O  45.85200 -1.30800 45.57000
C  48.00400 -0.12000 45.49900
N  47.31100 5.29200 46.86300
C  47.99300 4.12000 46.76200
C  49.54100 4.28300 46.94800
C  49.71800 5.79200 47.01500
C  48.26800 6.27800 46.89100
C  50.19100 3.61000 48.23300
C  50.74300 6.34600 46.01600
C  51.98000 6.97200 46.63100
N  45.35000 7.27100 46.84200
C  46.45400 8.11700 46.82900
C  45.99600 9.52000 46.82900
C  44.59300 9.37000 46.90700
C  44.24900 8.06900 46.79100
C  46.84400 10.71800 46.92500
C  43.46000 10.18700 47.04300
O  43.36200 11.37400 47.33200
C  42.23100 9.18400 46.66200
C  41.22400 9.18300 47.78000
O  41.18200 8.38700 48.69100
O  40.36200 10.29000 47.53400
C  39.29500 10.56200 48.47300
H  41.78500 2.25600 46.15400
H  48.23100 2.15900 46.40900
H  48.65800 8.34000 47.05800
H  40.15900 6.64200 47.17000
H  40.29900 4.65300 45.09100
H  39.05600 4.83500 47.83800
H  40.06900 3.41000 47.81600
H  38.79000 3.56300 46.67500
H  39.69800 8.11000 45.50100
H  38.89900 6.58500 45.04900
H  41.56100 6.93000 43.97400
H  40.75000 8.52800 43.74800
H  43.38600 -0.69300 45.42100
H  42.16700 0.28500 46.21400
H  43.16500 -0.65100 47.21700
H  48.61000 -0.09600 46.40500
H  48.12200 0.80600 44.93700
H  48.26000 -0.96900 44.86400
H  50.03200 3.85300 46.07500
H  49.91400 6.15700 48.02400
H  51.08000 4.15800 48.54800
H  50.47000 2.58700 47.98100
H  49.34900 3.59200 48.92500
H  50.19300 7.12100 45.48100
H  50.96000 5.53400 45.32200
H  51.75700 8.03900 46.65300
H  52.86900 6.69300 46.06600
H  52.11300 6.56900 47.63600
H  47.74500 10.59000 47.52500
H  46.26500 11.57200 47.27700
H  47.21200 10.99700 45.93700
H  41.77800 9.53800 45.73600
H  39.10900 11.63500 48.51100
H  39.63600 10.31800 49.47900
H  38.40600 9.99000 48.20700
Mg -9.39300 40.12600 39.79700
C  -8.53900 36.76900 39.23500
C  -6.20600 41.01400 39.06300
C  -10.52300 43.19600 38.95600
C  -12.70100 39.11800 40.17400
N  -7.63100 39.04800 39.26700
C  -7.42300 37.69400 39.20800
C  -5.98200 37.31200 38.90400
C  -5.19000 38.61100 39.09100
C  -6.37800 39.64800 39.17400
C  -4.13700 38.65500 40.19300
C  -5.77400 36.54600 37.59400
C  -6.35000 37.24500 36.35600
H  -7.10400 36.40000 35.35800
N  -8.46400 41.87800 39.28000
C  -7.16500 42.01700 38.98800
C  -6.92400 43.35600 38.59000
C  -8.15400 44.03400 38.50700
C  -9.14100 43.05100 38.86600
C  -5.57200 44.01300 38.43700
C  -8.45300 45.52200 38.13200
O  -7.46700 46.19800 37.94500
C  -9.80900 46.16700 38.02900
N  -11.27500 40.98500 39.60500
C  -11.47300 42.28900 39.29800
C  -12.98100 42.61800 39.30200
C  -13.62700 41.44700 40.04100
C  -12.51800 40.43000 39.91700
C  -13.45900 44.08100 39.72100
C  -15.05600 41.09700 39.43600
C  -16.00700 40.31200 40.30400
N  -10.50800 38.37000 39.83100
C  -11.82500 38.09300 39.96400
C  -12.01300 36.64000 39.89500
C  -10.77300 36.07700 39.59000
C  -9.86000 37.19000 39.60700
C  -13.32700 35.88300 40.11700
C  -10.04100 34.82000 39.36700
O  -10.44300 33.67100 39.30000
C  -8.59600 35.26200 39.02800
C  -7.61800 34.45300 39.88100
O  -7.27600 34.75200 41.00800
O  -7.05000 33.44800 39.21000
C  -5.86000 32.89000 39.87100
H  -5.20900 41.43900 38.93000
H  -10.92400 44.20900 38.89300
H  -13.71800 38.76200 40.35100
H  -5.81900 36.57200 39.68700
H  -4.68000 38.93300 38.18300
H  -4.15300 39.60300 40.73000
H  -3.13700 38.53600 39.77600
H  -4.40900 37.90700 40.93800
H  -6.01000 35.49200 37.73600
H  -4.70300 36.56600 37.39700
H  -5.51900 37.69400 35.81100
H  -6.98300 38.09300 36.61800
H  -5.57500 44.47100 37.44800
H  -4.78300 43.26100 38.44800
H  -5.45000 44.75400 39.22700
H  -10.27600 46.40200 38.98500
H  -10.56800 45.61100 37.48000
H  -9.55200 47.09400 37.51600
H  -13.34100 42.62300 38.27300
H  -13.79400 41.53200 41.11500
H  -12.71000 44.86800 39.81100
H  -14.07900 44.12100 40.61700
H  -14.07400 44.49000 38.91900
H  -14.79900 40.44000 38.60600
H  -15.58900 41.95700 39.03000
H  -16.72600 41.00900 40.73600
H  -15.50400 39.91300 41.18500
H  -16.42800 39.52900 39.67400
H  -13.89800 35.85100 39.18900
H  -13.90400 36.19900 40.98500
H  -13.04300 34.85600 40.34800
H  -8.53700 34.97500 37.97800
H  -5.21500 33.74700 40.06300
H  -5.36700 32.15600 39.23400
H  -6.20900 32.37400 40.76500

