158

Mg 16.80700 -2.04000 27.54900
C  16.03600 0.29300 30.00300
C  18.32100 -3.99400 30.02500
C  18.35500 -3.78000 25.18900
C  15.98800 0.38300 25.09400
N  17.19600 -1.83600 29.75600
C  16.63100 -0.88700 30.57700
C  16.83600 -1.19400 32.08600
C  17.59600 -2.57900 32.01100
C  17.80000 -2.81300 30.49400
C  18.91100 -2.59600 32.81200
C  15.52400 -1.31000 32.87800
C  15.33600 -0.29000 34.01700
H  16.61400 0.09100 34.78500
N  17.82100 -3.78500 27.56200
C  18.29600 -4.48400 28.66800
C  19.09700 -5.62100 28.30000
C  19.29200 -5.52800 26.85000
C  18.51800 -4.29300 26.51800
C  19.64200 -6.61300 29.33200
C  20.06300 -6.41400 25.99800
O  20.15600 -6.11500 24.81000
C  20.69300 -7.66300 26.45900
N  17.05400 -1.73700 25.43700
C  17.77800 -2.57500 24.74400
C  17.87000 -2.20400 23.24000
C  17.05600 -0.93100 23.16300
C  16.59500 -0.75700 24.61700
C  19.32100 -2.02600 22.69800
C  15.88300 -0.95000 22.11400
C  15.99700 0.13000 21.03100
N  16.06400 -0.11700 27.52000
C  15.68800 0.74700 26.50000
C  15.11900 1.99400 27.03100
C  15.13500 1.78200 28.40000
C  15.80700 0.57900 28.66000
C  14.81100 3.24400 26.35100
C  14.83400 2.47000 29.70400
O  14.25600 3.56800 29.92700
C  15.45300 1.49200 30.77900
C  16.57000 2.34000 31.48900
O  17.76900 2.36800 31.10900
O  16.09500 2.92400 32.61000
C  16.86300 4.06100 33.06300
H  18.77900 -4.63300 30.78300
H  18.91800 -4.41700 24.50300
H  15.81400 1.22300 24.41900
H  17.52100 -0.41000 32.40800
H  16.90900 -3.30100 32.45300
H  18.93600 -1.68300 33.40600
H  19.73900 -2.60000 32.10300
H  18.88200 -3.48800 33.43800
H  15.42300 -2.21800 33.47200
H  14.70100 -1.14600 32.18300
H  14.67700 -0.75700 34.74800
H  14.81800 0.56000 33.57200
H  20.72700 -6.57400 29.23600
H  19.28500 -7.58400 28.98900
H  19.35300 -6.54600 30.38000
H  20.05300 -8.28700 27.08400
H  21.54200 -7.41300 27.09600
H  21.20200 -8.01200 25.56000
H  17.52700 -3.02000 22.60300
H  17.75600 -0.11500 22.98300
H  19.50000 -1.24000 21.96400
H  19.58700 -3.00900 22.30900
H  19.92200 -1.86100 23.59200
H  14.89200 -0.80300 22.54500
H  15.93300 -1.93800 21.65700
H  16.22600 1.03600 21.59400
H  15.03400 0.29300 20.54800
H  16.76100 -0.04900 20.27400
H  15.35800 3.24800 25.40800
H  15.09900 4.06000 27.01400
H  13.75900 3.22900 26.06800
H  14.76000 1.19600 31.56700
H  17.10400 4.72300 32.23100
H  17.80200 3.84400 33.57200
H  16.27700 4.59800 33.80800
Mg 48.74500 44.97800 42.68500
C  45.22200 44.64700 42.60800
C  48.89000 41.50700 42.18400
C  52.04700 45.29900 42.39800
C  48.27200 48.42900 42.64600
N  47.06200 43.28900 42.31200
C  45.76800 43.39600 42.51500
C  45.13200 42.00400 42.46100
C  46.32000 40.98300 42.43000
C  47.50700 41.98300 42.24500
C  46.43900 40.08700 43.67200
C  44.22300 41.75200 41.19800
C  44.83300 42.09600 39.74000
H  44.88400 40.96900 38.72500
N  50.33000 43.58000 42.21500
C  50.14200 42.25000 42.07600
C  51.52100 41.69500 41.89500
C  52.41700 42.82500 41.85900
C  51.60700 43.98400 42.18000
C  51.76400 40.28000 41.61400
C  53.96900 42.82200 41.63000
O  54.56400 41.76400 41.34600
C  54.86500 44.04300 41.63300
N  49.98700 46.62800 42.29900
C  51.30900 46.44100 42.55300
C  52.01200 47.69800 43.01500
C  50.86200 48.71900 42.82700
C  49.60800 47.91300 42.58200
C  52.72200 47.56200 44.45900
C  51.01800 49.76000 41.59000
C  50.47800 51.10100 41.89200
N  47.15200 46.24600 42.69100
C  47.07200 47.64400 42.63400
C  45.70800 48.11200 42.71600
C  44.94500 46.94000 42.69100
C  45.86700 45.86500 42.65700
C  45.21600 49.55000 42.75600
C  43.66000 46.47900 42.68700
O  42.66900 47.14900 42.77600
C  43.73100 44.99900 42.62000
C  42.97700 44.24100 43.61300
O  41.96600 43.55700 43.38000
O  43.55800 44.43300 44.84600
C  42.90000 43.69400 46.02200
H  48.96900 40.41900 42.24200
H  53.10000 45.44100 42.65100
H  48.20700 49.47100 42.96800
H  44.50300 41.94100 43.35000
H  46.19500 40.31000 41.58200
H  46.09000 39.06400 43.53200
H  46.01600 40.50400 44.58600
H  47.52000 40.11200 43.80100
H  43.28500 42.30100 41.28000
H  43.83300 40.74800 41.36900
H  45.79100 42.55400 39.98800
H  44.23700 42.84500 39.21900
H  52.82900 40.04600 41.61200
H  51.30900 40.06900 40.64700
H  51.25500 39.63600 42.33200
H  54.53100 44.90500 41.05600
H  55.90200 43.76300 41.44800
H  54.87600 44.21600 42.70900
H  52.67800 48.00400 42.20900
H  50.78000 49.18700 43.80800
H  53.74400 47.93900 44.48800
H  52.69500 46.56200 44.89000
H  52.20300 48.16200 45.20700
H  50.66900 49.34800 40.64300
H  52.07000 50.02200 41.47500
H  51.20400 51.90800 41.99400
H  49.96900 50.93900 42.84300
H  49.80100 51.43800 41.10700
H  45.71200 50.06200 43.58100
H  44.13500 49.66300 42.84300
H  45.57300 49.98300 41.82200
H  43.22300 44.65200 41.72000
H  41.92400 43.30100 45.73600
H  42.74600 44.37500 46.85900
H  43.49900 42.83900 46.33600

