158

Mg 8.70000 4.34500 27.83300
C  9.98200 2.41300 30.45900
C  6.62000 6.03000 29.99900
C  7.17200 5.55600 25.25700
C  10.25700 1.77000 25.70300
N  8.29800 4.14800 29.96300
C  9.05000 3.39400 30.87800
C  8.76800 3.90300 32.31400
C  7.71100 5.06700 32.10500
C  7.44600 5.05400 30.58600
C  6.45200 4.81600 32.92100
C  10.07300 4.42000 32.97100
C  9.95800 5.26400 34.31500
H  10.12300 4.52500 35.65100
N  7.26600 5.82600 27.67500
C  6.44200 6.34500 28.64900
C  5.66100 7.37800 28.02800
C  5.91800 7.39500 26.61900
C  6.85600 6.22100 26.43400
C  4.66900 8.21900 28.83400
C  5.42200 8.33300 25.50000
O  5.79800 8.23300 24.35000
C  4.49000 9.41600 25.88000
N  8.62900 3.66000 25.80400
C  7.98000 4.45500 24.98800
C  8.06500 3.85500 23.54000
C  9.13300 2.71000 23.64800
C  9.28000 2.73400 25.15600
C  6.76400 3.50400 22.89800
C  10.45600 2.92500 22.89200
C  11.05800 1.59200 22.33000
N  9.99800 2.55000 27.96400
C  10.48900 1.64900 27.07100
C  11.45600 0.77900 27.66800
C  11.28200 1.00100 29.07000
C  10.31700 2.06900 29.16500
C  12.38200 -0.15600 27.02000
C  11.64300 0.57300 30.36200
O  12.33700 -0.35000 30.75400
C  10.90400 1.57400 31.31200
C  10.12500 0.76800 32.28000
O  9.05800 0.26500 31.99300
O  10.78400 0.65000 33.47200
C  10.02600 0.02000 34.53000
H  6.02200 6.59000 30.72100
H  6.55300 6.04400 24.50200
H  10.67800 1.05800 24.99000
H  8.43300 3.00500 32.83300
H  8.06100 6.07000 32.35100
H  5.63500 5.01000 32.22600
H  6.39500 5.39000 33.84500
H  6.25700 3.75600 33.08600
H  10.59900 5.07600 32.27700
H  10.75200 3.57900 33.11000
H  9.09500 5.92700 34.37100
H  10.78200 5.96800 34.19700
H  5.10000 9.20500 29.00600
H  4.53000 7.71600 29.79100
H  3.74800 8.35600 28.26700
H  4.29900 10.00000 24.98000
H  5.07000 9.99600 26.59700
H  3.53600 9.20700 26.36400
H  8.38600 4.63900 22.85400
H  8.66300 1.76600 23.37300
H  5.94400 3.62800 23.60600
H  7.00400 2.52500 22.48500
H  6.57500 4.05100 21.97400
H  11.18700 3.39000 23.55400
H  10.29100 3.66400 22.10800
H  12.00300 1.46600 22.85900
H  11.29100 1.72600 21.27400
H  10.35100 0.80700 22.60000
H  13.02900 0.41700 26.35600
H  11.89100 -0.94500 26.45100
H  13.06800 -0.68700 27.68100
H  11.75100 2.14100 31.70000
H  9.77500 0.84900 35.19200
H  10.67400 -0.59600 35.15300
H  9.26100 -0.69500 34.22700
Mg 46.18500 4.35300 47.02100
C  44.09500 7.09200 46.70000
C  43.49600 2.41400 46.07400
C  48.31700 1.72300 46.79200
C  49.03100 6.45900 47.02200
N  44.06700 4.74200 46.45100
C  43.46300 5.93800 46.33200
C  41.90800 5.75300 46.25600
C  41.74100 4.25200 46.03100
C  43.18100 3.75100 46.27500
C  40.72300 3.47300 46.91100
C  41.19100 6.59700 45.08900
C  42.02600 6.65100 43.74800
H  41.34900 6.11700 42.46300
N  45.95100 2.30600 46.64100
C  44.75900 1.69900 46.16300
C  44.93300 0.27500 45.97900
C  46.33000 0.04600 46.24300
C  46.98700 1.38000 46.64200
C  43.85000 -0.68000 45.54100
C  46.94800 -1.38200 46.14700
O  46.24100 -2.28700 45.80200
C  48.37600 -1.53800 46.44000
N  48.40300 4.12700 47.12000
C  48.97300 2.94200 46.93700
C  50.46400 2.93800 47.01100
C  50.75200 4.50300 46.85500
C  49.32400 5.11100 47.12300
C  50.96500 2.26800 48.31300
C  51.34500 5.01200 45.45200
C  51.67300 4.02700 44.35600
N  46.52400 6.31500 47.10300
C  47.70700 7.04400 47.05900
C  47.31700 8.44700 47.08300
C  45.90100 8.52400 47.04700
C  45.51900 7.23000 46.96400
C  48.26600 9.63000 46.91200
C  44.75800 9.38200 46.96300
O  44.67000 10.62100 46.92600
C  43.48100 8.47400 46.75500
C  42.55800 8.56500 47.85300
O  42.46400 7.80400 48.83600
O  41.75500 9.70300 47.73000
C  40.91300 10.07400 48.83100
H  42.69400 1.80700 45.65000
H  49.01900 0.89600 46.66500
H  49.88500 7.13800 46.99100
H  41.36700 6.05600 47.15300
H  41.67500 4.01400 44.96900
H  39.84900 4.03800 47.23400
H  41.21600 3.12800 47.82000
H  40.28200 2.59900 46.43000
H  40.98600 7.60200 45.45800
H  40.25800 6.04500 44.97500
H  42.89800 6.00800 43.86100
H  42.44500 7.63800 43.55100
H  44.03100 -1.23300 44.61900
H  42.88500 -0.19500 45.39700
H  43.78800 -1.43600 46.32400
H  48.53500 -1.19200 47.46100
H  48.95500 -0.99900 45.69000
H  48.60800 -2.59300 46.29100
H  50.95500 2.30600 46.27200
H  51.40200 4.82200 47.66900
H  51.69000 2.85900 48.87100
H  51.46000 1.33500 48.04300
H  50.12000 2.10500 48.98200
H  52.24400 5.51700 45.80700
H  50.71800 5.81300 45.06100
H  52.66400 3.66700 44.63200
H  51.63800 4.41800 43.33900
H  50.91500 3.24900 44.45100
H  49.24100 9.53500 47.38900
H  47.85500 10.59400 47.21100
H  48.47500 9.62900 45.84200
H  42.84100 8.82100 45.94400
H  41.07200 9.58300 49.79100
H  39.86100 9.95000 48.57200
H  40.99700 11.15100 48.97500

