158

Mg 23.61100 -5.86200 45.95600
C  26.04700 -3.86400 44.51800
C  21.34000 -4.70500 43.70400
C  21.64900 -8.50600 46.65300
C  26.27200 -7.41700 47.83700
N  23.72100 -4.44700 44.34000
C  24.80100 -3.71300 43.91800
C  24.42700 -2.80500 42.73300
C  22.84000 -2.85500 42.66200
C  22.62900 -4.16800 43.59000
C  22.13400 -1.67700 43.27900
C  25.16500 -3.21300 41.40600
C  26.13700 -2.21200 40.78800
H  25.48900 -1.20000 39.79500
N  21.72600 -6.44500 45.31600
C  20.85300 -5.74400 44.51800
C  19.58300 -6.48900 44.42600
C  19.61400 -7.52700 45.39000
C  21.05000 -7.54700 45.82400
C  18.39900 -6.04400 43.57400
C  18.41900 -8.46100 45.77000
O  17.34100 -8.28200 45.23000
C  18.52500 -9.51500 46.81700
N  23.92500 -7.73900 47.10600
C  22.93100 -8.64300 47.24300
C  23.46900 -9.88800 48.01400
C  24.74000 -9.31900 48.66000
C  24.99300 -8.04600 47.82800
C  22.35300 -10.50000 48.94100
C  26.00200 -10.21000 49.03400
C  26.94500 -10.56600 47.79800
N  25.71000 -5.68000 46.20700
C  26.66800 -6.39100 46.95700
C  27.95800 -5.73900 46.80200
C  27.68100 -4.80500 45.78900
C  26.39800 -4.80000 45.49800
C  29.25200 -6.00900 47.45900
C  28.36300 -3.84800 44.95600
O  29.55000 -3.65500 44.83600
C  27.26100 -3.12800 44.16000
C  27.34800 -1.67900 44.55700
O  26.62600 -1.11700 45.35100
O  28.39700 -1.16400 43.86800
C  28.83500 0.18900 44.32300
H  20.49900 -4.31800 43.12500
H  21.06400 -9.40600 46.85400
H  27.07300 -7.88800 48.41200
H  24.86400 -1.84100 42.99300
H  22.41400 -2.99700 41.66900
H  21.35400 -1.93700 43.99500
H  21.78300 -1.05600 42.45400
H  22.83200 -1.01100 43.78800
H  24.39700 -3.36300 40.64800
H  25.50600 -4.24200 41.51900
H  27.06600 -2.66000 40.43700
H  26.44200 -1.52900 41.58200
H  18.59200 -5.33200 42.77200
H  17.68500 -5.56800 44.24700
H  17.95200 -6.94100 43.14600
H  17.51500 -9.67000 47.19500
H  19.05800 -9.19800 47.71400
H  19.07300 -10.40700 46.51400
H  23.74200 -10.68200 47.31900
H  24.43900 -8.87500 49.60900
H  22.05700 -11.51000 48.65800
H  21.62600 -9.69500 49.05100
H  22.77800 -10.64500 49.93400
H  25.55700 -11.13900 49.39100
H  26.55000 -9.69500 49.82300
H  26.85900 -11.65100 47.74700
H  27.95600 -10.33200 48.12900
H  26.79900 -10.10300 46.82200
H  29.94700 -6.42100 46.72700
H  29.15400 -6.62500 48.35200
H  29.59500 -5.00600 47.71500
H  27.44400 -3.18300 43.08700
H  29.92100 0.13600 44.23500
H  28.62500 0.46400 45.35700
H  28.37200 0.87900 43.61800
Mg 29.04300 58.14100 42.00000
C  26.85800 56.07000 40.31300
C  31.67900 56.52400 40.21600
C  31.18900 60.59700 42.91500
C  26.32300 59.89000 43.19600
N  29.17100 56.68900 40.18000
C  28.13700 55.93400 39.76000
C  28.53900 54.76300 38.77100
C  30.07200 54.74100 39.24200
C  30.32800 56.03200 39.94800
C  30.53800 53.47900 40.00400
C  28.29800 55.14400 37.33800
C  27.34500 54.20900 36.60000
H  27.22800 54.14200 35.12100
N  31.13700 58.53000 41.66300
C  32.02100 57.73200 40.95500
C  33.37100 58.19400 41.21900
C  33.20900 59.41500 42.02100
C  31.78900 59.56300 42.20800
C  34.61900 57.41700 40.73800
C  34.39900 60.26500 42.48000
O  35.54900 59.89700 42.21400
C  34.23900 61.53800 43.35900
N  28.81600 59.92200 42.87000
C  29.86600 60.78600 43.23200
C  29.28700 62.09400 43.76100
C  27.80300 61.71000 44.06600
C  27.62400 60.45400 43.25800
C  30.05000 62.78400 44.93700
C  26.75300 62.86700 43.75700
C  25.61500 62.99000 44.76000
N  26.90100 57.92200 42.08400
C  25.94400 58.69800 42.55500
C  24.63300 58.06700 42.24100
C  24.97000 56.99600 41.43700
C  26.37800 56.96600 41.30400
C  23.31200 58.64900 42.65300
C  24.36300 55.94700 40.61800
O  23.19500 55.66100 40.50900
C  25.60700 55.27200 39.94900
C  25.66900 53.88000 40.50400
O  26.40100 53.46300 41.38300
O  24.66600 53.14900 39.89700
C  24.65100 51.74800 40.40200
H  32.49300 55.93100 39.79400
H  31.92800 61.32200 43.26500
H  25.42200 60.44900 43.45900
H  28.04000 53.84000 39.06600
H  30.70100 54.69200 38.35300
H  30.52800 53.76900 41.05400
H  31.51600 53.13700 39.66400
H  29.79500 52.70700 39.80500
H  29.24500 55.05700 36.80500
H  27.98100 56.17400 37.17300
H  26.33900 54.39300 36.97700
H  27.57700 53.18600 36.89800
H  34.42800 56.46200 40.24900
H  35.28300 57.07300 41.53100
H  35.15600 58.01800 40.00500
H  33.81500 62.26500 42.66600
H  35.23400 61.77900 43.73400
H  33.69400 61.10600 44.19800
H  29.30000 62.81900 42.94700
H  27.69400 61.40500 45.10600
H  29.42300 62.94100 45.81500
H  30.36900 63.75900 44.57100
H  30.99300 62.35600 45.27700
H  26.37500 62.64100 42.76000
H  27.27100 63.82000 43.64900
H  25.55400 64.01900 45.11300
H  25.67900 62.36200 45.64800
H  24.68600 62.79500 44.22500
H  23.35000 59.62900 42.17800
H  23.20400 58.84100 43.72100
H  22.53200 58.02600 42.21500
H  25.35500 55.25400 38.88900
H  24.46700 51.76300 41.47600
H  25.58300 51.22000 40.20200
H  23.79800 51.31000 39.88400

