158

Mg 0.78400 8.35400 25.24100
C  1.51200 10.24100 28.12000
C  0.95700 5.48800 27.17200
C  0.82000 6.61700 22.40000
C  0.97400 11.40100 23.39700
N  1.09000 7.92400 27.41500
C  1.29500 8.83400 28.36000
C  1.32000 8.18100 29.82100
C  1.32100 6.69700 29.48100
C  1.04900 6.67300 27.92500
C  2.61500 5.94900 29.80300
C  0.29900 8.69700 30.84000
C  0.62800 8.41700 32.34000
H  1.90900 7.62200 32.71700
N  0.77600 6.32800 24.83200
C  0.82600 5.31300 25.75900
C  0.85400 3.98000 25.06600
C  0.77500 4.28100 23.67800
C  0.82800 5.81000 23.59300
C  0.90300 2.62900 25.75800
C  0.63600 3.37700 22.46700
O  0.62500 3.80200 21.29400
C  0.36200 1.92300 22.66600
N  0.85900 8.95500 23.24400
C  0.86100 8.01900 22.25700
C  0.55600 8.65900 20.84700
C  0.71600 10.15900 21.17200
C  0.80500 10.18300 22.69200
C  1.43000 8.21100 19.70400
C  -0.40500 11.00200 20.53200
C  -1.71000 11.18300 21.36700
N  0.95400 10.52000 25.70100
C  1.08900 11.54000 24.79900
C  1.45200 12.76000 25.55000
C  1.62200 12.33900 26.88500
C  1.26500 10.94400 26.93900
C  1.64600 14.13000 24.91800
C  1.91800 12.72600 28.20300
O  2.20900 13.81100 28.67200
C  1.98600 11.45100 29.11200
C  3.25600 11.04600 29.81200
O  3.90300 10.13600 29.43600
O  3.40600 11.89600 30.90300
C  4.62300 11.53000 31.73400
H  1.09000 4.58700 27.77400
H  0.77600 6.01800 21.48900
H  1.04500 12.33200 22.83100
H  2.27400 8.43400 30.28400
H  0.40700 6.31200 29.93400
H  2.27600 5.09800 30.39300
H  3.35200 6.49400 30.39400
H  3.13600 5.52200 28.94600
H  -0.68400 8.24500 30.70400
H  0.21600 9.78000 30.75900
H  -0.19900 7.81100 32.70900
H  0.69000 9.32100 32.94700
H  -0.07000 2.17300 25.58000
H  0.99600 2.71200 26.84100
H  1.70500 1.95700 25.45100
H  1.14100 1.48500 23.29100
H  0.41900 1.35600 21.73800
H  -0.63500 1.87300 23.10200
H  -0.48000 8.43100 20.60000
H  1.69300 10.42200 20.76500
H  0.86100 7.46200 19.15300
H  2.35600 7.69900 19.96700
H  1.59000 9.07600 19.06000
H  -0.58500 10.44300 19.61400
H  -0.09800 12.01500 20.27300
H  -2.51700 11.18500 20.63300
H  -1.66500 12.06300 22.00900
H  -1.88100 10.26400 21.92700
H  1.73800 14.16300 23.83300
H  2.50300 14.53600 25.45500
H  0.70600 14.66000 25.07300
H  1.37000 11.68900 29.97900
H  4.71000 12.29900 32.50100
H  5.50600 11.56700 31.09700
H  4.53300 10.55700 32.21600
Mg 26.45100 50.38400 26.48500
C  24.03800 51.60300 28.74800
C  28.58100 49.75100 29.05900
C  28.61400 49.46500 24.22300
C  24.27200 51.53600 23.89300
N  26.28700 50.70100 28.65800
C  25.19600 51.04100 29.38800
C  25.41900 50.72100 30.87900
C  26.99200 50.53800 30.91600
C  27.31800 50.26100 29.46800
C  27.73300 51.67200 31.58900
C  24.73200 49.37600 31.44000
C  23.91300 49.69300 32.75000
H  24.59800 50.37600 33.96000
N  28.37400 49.58800 26.60600
C  29.10100 49.39800 27.76400
C  30.43000 48.89300 27.43300
C  30.47100 48.92800 26.01800
C  29.07400 49.28300 25.51900
C  31.52900 48.67100 28.43300
C  31.57700 48.50100 25.09800
O  31.63100 48.67200 23.93900
C  32.83400 47.84500 25.73500
N  26.48000 50.68000 24.31900
C  27.43900 49.99200 23.64800
C  27.11500 49.93400 22.16900
C  25.63200 50.46000 22.09700
C  25.39100 50.87900 23.51900
C  28.16200 50.54700 21.09400
C  24.61900 49.51900 21.41000
C  23.96000 48.34900 22.21200
N  24.63900 51.51700 26.27800
C  23.90000 51.85300 25.23900
C  22.71200 52.52500 25.65500
C  22.61600 52.39700 27.01800
C  23.91500 51.82300 27.34700
C  21.75600 53.29500 24.73200
C  21.91500 52.59200 28.28300
O  20.76900 52.99200 28.55800
C  22.79100 52.09500 29.37300
C  22.88800 53.11800 30.39000
O  23.50500 54.18600 30.30500
O  22.11200 52.71800 31.47900
C  22.29900 53.53400 32.62700
H  29.24000 49.52100 29.89900
H  29.32600 49.23100 23.42900
H  23.56300 51.69900 23.07800
H  25.10400 51.56800 31.48800
H  27.12400 49.65600 31.54300
H  27.21200 52.33300 32.28200
H  28.31700 52.33500 30.95200
H  28.43400 51.18500 32.26700
H  25.36900 48.54000 31.72700
H  24.05200 49.10000 30.63400
H  23.45100 48.77100 33.10500
H  23.03700 50.25400 32.42300
H  31.91200 47.68400 28.17500
H  31.26700 48.56200 29.48500
H  32.38600 49.33700 28.32900
H  33.43800 47.30900 25.00300
H  32.52600 47.04100 26.40200
H  33.52500 48.58800 26.13300
H  27.02000 48.86800 21.96200
H  25.71000 51.41900 21.58600
H  28.96000 51.21400 21.42100
H  27.63700 51.26600 20.46500
H  28.57000 49.73400 20.49300
H  25.14900 48.99000 20.61700
H  23.78100 50.14700 21.11000
H  24.30500 48.22800 23.23900
H  24.19000 47.40200 21.72600
H  22.87700 48.46100 22.16600
H  22.11100 54.26600 24.38900
H  20.85000 53.52400 25.29300
H  21.64100 52.74400 23.79900
H  22.52200 51.15800 29.86000
H  22.45800 54.58000 32.36700
H  23.12000 53.07500 33.17800
H  21.44100 53.38600 33.28200

