158

Mg 30.10300 58.41000 40.17300
C  27.27300 56.67500 39.19800
C  31.97700 55.63800 39.37400
C  33.10000 60.39100 39.94000
C  28.31100 61.22100 40.55500
N  29.68500 56.35800 39.25600
C  28.43300 55.87800 39.10200
C  28.53300 54.31100 38.88100
C  30.08700 53.96100 39.15400
C  30.62000 55.38500 39.33300
C  30.37600 52.97600 40.28300
C  28.13800 53.91900 37.34000
C  28.70800 54.70700 36.20200
H  27.81400 55.53000 35.26600
N  32.25300 58.06900 39.88200
C  32.76600 56.79400 39.55200
C  34.19100 56.93300 39.41200
C  34.57900 58.25700 39.69200
C  33.30400 58.97000 39.83400
C  35.05900 55.77100 38.99100
C  36.03600 58.74500 39.59100
O  36.91400 57.96600 39.23200
C  36.50800 60.19800 39.99900
N  30.67000 60.51900 40.08800
C  31.88000 61.10200 40.06700
C  31.86800 62.65400 40.22600
C  30.39600 62.74100 40.77700
C  29.74300 61.43600 40.48300
C  32.93000 63.05200 41.28900
C  29.71800 63.95300 39.96800
C  29.41200 65.27000 40.74500
N  28.18600 58.88600 39.90200
C  27.57600 60.07800 40.18500
C  26.16100 59.89300 40.21800
C  25.96900 58.64400 39.65800
C  27.28600 58.07000 39.51800
C  25.14600 60.95300 40.50900
C  25.03100 57.72000 39.20300
O  23.79400 57.78100 39.13400
C  25.83800 56.34000 38.88600
C  25.28300 55.20600 39.68900
O  25.06400 55.23000 40.84100
O  24.84700 54.19400 38.89100
C  23.92000 53.20500 39.59600
H  32.51500 54.69400 39.26100
H  34.00200 61.00400 39.88000
H  27.73100 62.10700 40.82300
H  27.87600 53.86700 39.62900
H  30.53300 53.67500 38.20100
H  31.06000 53.34800 41.04600
H  30.88300 52.09200 39.89800
H  29.44400 52.62200 40.72400
H  27.07900 54.16900 37.29600
H  28.29400 52.85100 37.19200
H  29.36600 54.09800 35.58100
H  29.31200 55.48600 36.66700
H  35.81100 56.04100 38.24900
H  34.40500 54.98500 38.61400
H  35.42800 55.39000 39.94300
H  36.08500 60.91200 39.29200
H  37.58600 60.27400 39.86000
H  36.45300 60.54700 41.03000
H  32.12000 63.17800 39.30500
H  30.36200 62.77600 41.86600
H  32.64100 63.80200 42.02500
H  33.81300 63.40400 40.75600
H  33.21300 62.23000 41.94600
H  28.78000 63.70600 39.47100
H  30.29500 64.19900 39.07600
H  28.44200 65.68900 40.47600
H  30.13100 66.07700 40.60400
H  29.31700 65.00400 41.79800
H  25.19800 61.71700 39.73200
H  25.28900 61.56200 41.40200
H  24.09800 60.72500 40.70100
H  25.71500 56.11900 37.82600
H  23.84200 52.26400 39.05300
H  22.93700 53.65000 39.75800
H  24.24000 52.93100 40.60100
Mg 6.06200 54.43700 41.10900
C  5.22700 51.11500 40.77700
C  9.10400 53.88800 39.47200
C  6.45800 57.79600 40.46700
C  2.77800 55.14400 42.00800
N  6.96700 52.73500 40.01200
C  6.48600 51.44400 40.13600
C  7.58300 50.40200 39.57200
C  8.80500 51.34100 39.54400
C  8.29800 52.75100 39.62600
C  9.87200 51.21300 40.63200
C  7.26400 49.82500 38.09000
C  6.57400 50.80500 37.07000
H  7.14100 50.89600 35.67100
N  7.73400 55.68300 40.24300
C  8.85100 55.25300 39.63600
C  9.66800 56.34200 39.27700
C  8.98300 57.58400 39.62800
C  7.67500 57.08400 40.15200
C  11.13200 56.11000 38.81200
C  9.44600 59.00700 39.54400
O  10.55200 59.32800 39.01200
C  8.64800 60.16000 40.06700
N  4.79600 56.20900 41.13600
C  5.17700 57.46100 40.88400
C  4.04400 58.44800 40.93500
C  2.86600 57.60300 41.40000
C  3.48700 56.24800 41.52300
C  4.31500 59.79900 41.57800
C  1.61800 57.60900 40.49200
C  0.34200 58.09900 41.16500
N  4.42700 53.38700 41.62100
C  3.15400 53.77300 42.00600
C  2.34600 52.57100 42.30400
C  3.17600 51.52800 41.83300
C  4.37600 52.04300 41.38700
C  0.92300 52.45100 42.83400
C  3.15900 50.10700 41.64000
O  2.31700 49.22200 41.88000
C  4.64100 49.76600 41.16800
C  4.53800 48.88600 40.02100
O  4.03000 49.16400 38.94100
O  5.09400 47.66500 40.34000
C  4.93500 46.68100 39.26600
H  10.14600 53.69900 39.20500
H  6.46800 58.86300 40.23200
H  1.80100 55.42300 42.40700
H  7.75600 49.53700 40.21300
H  9.32100 51.22700 38.59100
H  9.76500 50.31400 41.23900
H  9.76900 52.04200 41.33200
H  10.86300 51.28300 40.18200
H  6.62700 48.94000 38.08800
H  8.17200 49.49800 37.58400
H  6.62800 51.78900 37.53800
H  5.53400 50.58400 36.83200
H  11.78900 56.97800 38.86900
H  11.20600 55.77000 37.77900
H  11.57800 55.34400 39.44600
H  7.84400 60.50800 39.41800
H  9.34200 60.96900 40.29300
H  8.31400 59.78200 41.03300
H  3.92900 58.51000 39.85300
H  2.51100 57.81400 42.40900
H  3.72700 60.50700 40.99400
H  5.33500 60.18000 41.62700
H  4.03700 59.79100 42.63200
H  1.49600 56.61500 40.06000
H  1.78200 58.31700 39.67900
H  -0.50000 57.51400 40.79500
H  0.24600 59.15700 40.92200
H  0.31100 57.96700 42.24700
H  0.99400 51.91600 43.78100
H  0.35000 51.90200 42.08700
H  0.36700 53.38600 42.90000
H  5.23500 49.21400 41.89600
H  5.53600 45.78800 39.43600
H  5.09400 47.07700 38.26300
H  3.89000 46.37800 39.19200

