158

Mg 30.12700 58.90300 38.56300
C  27.24100 57.05100 37.76800
C  32.05000 56.28700 37.64800
C  32.88700 60.95100 38.52100
C  28.01900 61.76600 38.85100
N  29.63100 57.04400 37.64500
C  28.41000 56.37000 37.47400
C  28.52400 54.96000 37.04300
C  30.09000 54.68300 37.36700
C  30.65700 56.11000 37.60100
C  30.39900 53.77000 38.56500
C  28.24200 54.78700 35.49800
C  26.87500 54.17900 35.05400
H  26.18100 55.06100 33.94200
N  32.21000 58.59900 38.30700
C  32.78000 57.46800 37.93400
C  34.24500 57.63300 37.88000
C  34.46000 58.97100 38.24700
C  33.16000 59.54700 38.39400
C  35.19900 56.55400 37.50000
C  35.81300 59.62100 38.50100
O  36.91900 59.08200 38.24400
C  35.92400 60.86800 39.22900
N  30.40600 61.01400 38.63800
C  31.63700 61.60900 38.56500
C  31.45700 63.11800 38.67300
C  29.93500 63.37900 38.87100
C  29.40600 61.95200 38.68800
C  32.44300 63.95500 39.59000
C  29.40200 64.42900 37.81600
C  28.45000 65.49400 38.32900
N  28.09000 59.39200 38.36900
C  27.38700 60.55600 38.66400
C  25.93700 60.35800 38.53700
C  25.83100 59.00600 38.18400
C  27.14200 58.46300 38.14300
C  24.86300 61.42700 38.75200
C  24.94200 57.90400 37.97500
O  23.69800 57.86300 38.06800
C  25.75000 56.64300 37.57700
C  25.30100 55.61000 38.44400
O  25.76100 55.44000 39.56900
O  24.33500 54.80300 37.87600
C  23.66300 53.85900 38.73500
H  32.66400 55.38500 37.60200
H  33.68800 61.65900 38.30000
H  27.35300 62.58100 39.14100
H  27.92700 54.35300 37.72400
H  30.55500 54.19600 36.51000
H  31.09400 52.94400 38.40900
H  29.52900 53.13800 38.74600
H  30.62800 54.17000 39.55200
H  29.02200 54.24700 34.96100
H  28.47000 55.79400 35.14700
H  26.34200 53.90600 35.96500
H  27.15200 53.20800 34.64200
H  35.97000 56.59400 38.27000
H  35.69000 56.90100 36.59000
H  34.75000 55.56600 37.40000
H  36.92700 61.13400 39.56400
H  35.17100 60.99300 40.00700
H  35.63400 61.60000 38.47500
H  31.78300 63.42700 37.67900
H  29.68000 63.69200 39.88400
H  31.83300 64.24500 40.44600
H  32.92400 64.82000 39.13300
H  33.19200 63.21800 39.87900
H  28.88300 64.05100 36.93600
H  30.30400 64.96800 37.52600
H  28.90600 66.42600 38.66300
H  27.85900 65.18400 39.19100
H  27.65700 65.83300 37.66300
H  23.95900 61.04900 38.27500
H  25.06800 62.44700 38.42700
H  24.80100 61.41400 39.84000
H  25.62400 56.37700 36.52800
H  23.27000 54.40000 39.59600
H  24.30700 53.08700 39.15600
H  22.96800 53.26500 38.14200
Mg 0.10400 42.77300 26.53800
C  2.56800 42.41500 28.90200
C  -2.16800 41.36500 28.59100
C  -2.23800 42.93600 23.98200
C  2.55300 43.69600 24.13500
N  0.17900 42.01000 28.45500
C  1.23400 42.09900 29.34700
C  0.84800 41.71800 30.79000
C  -0.58600 41.07800 30.51200
C  -0.88700 41.47300 29.07200
C  -0.62800 39.49700 30.72700
C  0.70000 42.98800 31.68500
C  1.26100 42.88800 33.08000
H  0.69400 41.55100 33.78800
N  -1.92000 42.37800 26.35900
C  -2.69100 41.81600 27.35200
C  -4.06200 41.64400 26.85000
C  -4.17500 42.23400 25.56900
C  -2.71200 42.55700 25.21200
C  -4.99200 40.90400 27.73100
C  -5.44100 42.41600 24.65600
O  -5.39100 42.85000 23.50300
C  -6.77900 42.19800 25.22900
N  0.18100 43.29900 24.39300
C  -0.97000 43.37700 23.61900
C  -0.80400 43.98000 22.25000
C  0.81500 44.18000 22.30200
C  1.25800 43.69100 23.64000
C  -1.32600 43.19900 21.03100
C  1.40000 45.63500 22.06100
C  0.75100 46.80300 22.77100
N  2.13400 42.99100 26.43500
C  3.02000 43.26100 25.45800
C  4.41300 43.18400 25.89400
C  4.26700 42.97900 27.33800
C  2.90600 42.80100 27.56900
C  5.70200 43.43600 25.12300
C  4.96000 42.76900 28.56900
O  6.16200 42.80500 28.83500
C  3.87200 42.53400 29.65100
C  4.23200 41.31100 30.34800
O  4.02100 40.18400 29.94100
O  4.68900 41.59400 31.63500
C  4.78800 40.45900 32.52400
H  -2.89100 41.19900 29.39300
H  -2.98000 42.96700 23.18100
H  3.32700 44.19400 23.54500
H  1.45900 40.95600 31.27300
H  -1.33700 41.50600 31.17700
H  0.39200 39.14000 30.86600
H  -1.09200 38.99500 29.87800
H  -1.30000 39.25700 31.55100
H  -0.37400 43.15300 31.77300
H  1.12100 43.86100 31.18500
H  1.07800 43.85400 33.55000
H  2.34200 42.95000 32.95700
H  -4.51500 40.17500 28.38600
H  -5.59400 40.33400 27.02300
H  -5.62900 41.62300 28.24700
H  -6.89300 41.11600 25.16300
H  -7.46300 42.76500 24.59900
H  -6.69900 42.58500 26.24500
H  -1.38600 44.88400 22.42900
H  1.35700 43.57600 21.57400
H  -0.95000 42.17600 21.01300
H  -1.00300 43.72500 20.13300
H  -2.39100 43.02300 20.87600
H  1.34000 45.67400 20.97400
H  2.47900 45.61900 22.21900
H  0.37800 47.53700 22.05700
H  1.50200 47.27600 23.40500
H  -0.08000 46.43000 23.36900
H  6.29200 42.52700 25.00600
H  6.27200 44.21200 25.63400
H  5.57100 43.78600 24.09900
H  3.78800 43.28900 30.43200
H  3.97000 40.56400 33.23700
H  5.74100 40.49100 33.05100
H  4.73000 39.47900 32.05100

