158

Mg 30.76000 57.84500 39.43100
C  27.77100 55.94700 38.66500
C  32.60400 55.14700 38.60500
C  33.37100 59.79900 39.81400
C  28.59900 60.61100 40.00200
N  30.16600 55.83800 38.58700
C  28.91500 55.25200 38.47300
C  29.07300 53.72400 38.29700
C  30.62600 53.49200 38.32500
C  31.18600 54.91600 38.60200
C  31.21600 52.50300 39.35000
C  28.49800 53.10500 36.91500
C  29.06300 53.78700 35.63300
H  28.08500 54.21200 34.54200
N  32.75600 57.52700 39.27700
C  33.30400 56.32600 39.01400
C  34.69400 56.45400 39.18900
C  34.96700 57.80300 39.49300
C  33.67700 58.47600 39.52400
C  35.60700 55.33300 38.88800
C  36.37900 58.45500 39.68400
O  37.37300 57.78700 39.50300
C  36.57800 59.89000 39.95700
N  30.95400 59.94800 39.68600
C  32.17900 60.53500 39.80600
C  32.00100 62.08800 39.77400
C  30.50100 62.20800 40.21500
C  29.97100 60.79100 39.97500
C  33.04900 62.87700 40.70100
C  29.77500 63.31100 39.32600
C  28.81000 64.22900 40.13500
N  28.63000 58.31700 39.33600
C  27.96300 59.40200 39.77900
C  26.48600 59.10100 39.67200
C  26.38700 57.76000 39.34700
C  27.70200 57.33200 39.13000
C  25.42600 60.15600 39.83300
C  25.44000 56.67900 39.12200
O  24.24500 56.61100 39.18500
C  26.34400 55.40100 38.68300
C  26.24500 54.42300 39.87100
O  27.07000 54.29800 40.80800
O  25.14600 53.62800 39.69700
C  24.93200 52.51400 40.61000
H  33.26000 54.32200 38.31800
H  34.16200 60.54200 39.93400
H  28.02600 61.52600 40.16300
H  28.70400 53.15100 39.14800
H  31.05400 53.22100 37.36000
H  31.37000 53.04100 40.28600
H  32.18200 52.21000 38.94100
H  30.64700 51.59300 39.54200
H  27.42200 52.96600 37.01800
H  28.88900 52.08900 36.86600
H  29.68100 53.06600 35.09700
H  29.69300 54.62700 35.92500
H  35.67400 55.01900 37.84600
H  35.27200 54.54600 39.56400
H  36.65800 55.48800 39.13100
H  37.61400 60.03500 39.65100
H  36.52800 60.06700 41.03200
H  36.05900 60.54200 39.25500
H  31.98700 62.49800 38.76400
H  30.51400 62.52000 41.25900
H  33.44200 62.21800 41.47500
H  32.46300 63.59400 41.27600
H  33.88000 63.39100 40.21700
H  29.11800 62.82600 38.60400
H  30.37500 63.90900 38.64000
H  29.04700 65.28700 40.02400
H  28.87700 63.92000 41.17800
H  27.79400 64.19000 39.74200
H  24.39000 59.82100 39.89500
H  25.57100 60.86100 39.01500
H  25.78100 60.63000 40.74800
H  26.03800 54.86400 37.78500
H  24.52600 52.83700 41.56800
H  25.88500 52.02000 40.79800
H  24.31700 51.77000 40.10300
Mg -5.48900 24.51800 27.04300
C  -4.18900 26.12900 29.88400
C  -7.33200 22.44500 29.07500
C  -6.67700 23.03500 24.23900
C  -3.46500 26.56600 24.97200
N  -5.74000 24.37900 29.16800
C  -5.13700 25.15700 30.17100
C  -5.78700 24.77900 31.52900
C  -6.44900 23.43900 31.31800
C  -6.54400 23.34300 29.77000
C  -5.81100 22.20000 31.92700
C  -6.76800 25.93400 32.01800
C  -6.99200 26.22100 33.58800
H  -6.60400 25.21500 34.66900
N  -6.96900 23.06000 26.68800
C  -7.64400 22.38000 27.63500
C  -8.57500 21.49100 26.99200
C  -8.48500 21.72100 25.62000
C  -7.31600 22.61100 25.43100
C  -9.48200 20.55600 27.81700
C  -9.31900 21.05700 24.43600
O  -9.09700 21.31700 23.27800
C  -10.31800 19.99000 24.91500
N  -5.01400 24.64500 24.91200
C  -5.69400 23.89100 23.94000
C  -5.10600 24.20900 22.54700
C  -4.07900 25.42500 22.89100
C  -4.22100 25.61800 24.35600
C  -4.45000 23.01700 21.84600
C  -4.27600 26.69200 21.97500
C  -2.98200 27.26700 21.39500
N  -3.88600 25.91500 27.32600
C  -3.37300 26.82000 26.38800
C  -2.58700 27.82000 27.12100
C  -2.85800 27.56000 28.51000
C  -3.70900 26.39300 28.60700
C  -1.71300 28.94300 26.50900
C  -2.53800 28.06900 29.81800
O  -1.82100 28.95900 30.21900
C  -3.44400 27.16000 30.76800
C  -2.58700 26.50600 31.79600
O  -1.56200 25.90300 31.55900
O  -3.22800 26.68600 33.00000
C  -2.48700 26.11200 34.13700
H  -7.76700 21.63400 29.66400
H  -7.13400 22.56400 23.36700
H  -3.00800 27.40400 24.44200
H  -4.98100 24.68100 32.25700
H  -7.50100 23.39200 31.60000
H  -5.31300 22.54900 32.83200
H  -5.09100 21.86500 31.18100
H  -6.43600 21.33400 32.14600
H  -7.74500 25.62700 31.64500
H  -6.53000 26.94200 31.67900
H  -8.04600 26.48700 33.66700
H  -6.53500 27.19900 33.74000
H  -10.52300 20.52000 27.49500
H  -9.52400 20.80900 28.87700
H  -9.13200 19.52400 27.83800
H  -11.09700 20.49200 25.49000
H  -9.77200 19.20500 25.43900
H  -10.73000 19.56600 24.00000
H  -5.91800 24.64500 21.96500
H  -3.05100 25.07100 22.80300
H  -3.45900 23.33300 21.52000
H  -5.11800 22.65400 21.06500
H  -4.15900 22.22600 22.53700
H  -4.79100 27.47500 22.53200
H  -5.02300 26.56700 21.19100
H  -3.05300 27.58600 20.35500
H  -2.25200 26.45800 21.39600
H  -2.51800 28.04500 22.00100
H  -0.83500 28.60100 25.96100
H  -1.61600 29.65300 27.33000
H  -2.36800 29.42800 25.78500
H  -4.18500 27.72600 31.33300
H  -1.44300 26.42400 34.17700
H  -2.43300 25.03200 34.00300
H  -3.01600 26.30600 35.07100

