158

Mg 47.74700 35.04200 27.12800
C  46.15100 33.26800 29.81600
C  48.08600 37.68500 29.19900
C  48.80200 36.76800 24.52600
C  47.42200 32.11900 25.18600
N  47.37900 35.28800 29.31000
C  46.78300 34.44700 30.21900
C  46.97100 35.00500 31.64700
C  47.28500 36.51300 31.30200
C  47.63800 36.49700 29.81700
C  46.15900 37.47500 31.71400
C  48.18100 34.24300 32.30600
C  48.66300 34.75000 33.71700
H  47.83700 35.70500 34.50700
N  48.35500 36.93300 26.90000
C  48.43500 37.87000 27.85000
C  48.86400 39.10600 27.29500
C  49.12100 38.89500 25.86200
C  48.83700 37.42600 25.71600
C  49.10500 40.30200 28.07300
C  49.70000 39.86800 24.80000
O  50.06600 39.47400 23.68800
C  49.98600 41.31200 25.13900
N  48.17800 34.48700 25.16500
C  48.45700 35.45000 24.24800
C  48.51100 34.82800 22.81700
C  48.48100 33.33000 23.17100
C  47.96700 33.32700 24.62100
C  47.47400 35.28500 21.80200
C  49.72100 32.46100 22.86800
C  49.83400 32.08400 21.38900
N  46.87700 33.17000 27.36300
C  46.82100 32.06500 26.46300
C  46.14300 30.94000 27.12300
C  45.81100 31.47000 28.34600
C  46.28800 32.78400 28.51300
C  45.86700 29.56600 26.63400
C  44.99300 31.12000 29.51900
O  44.31900 30.08800 29.68800
C  45.16200 32.31900 30.52400
C  45.42000 31.81100 31.92900
O  46.37000 31.23500 32.36100
O  44.36600 32.36000 32.67400
C  44.43000 32.18900 34.09900
H  48.26500 38.51300 29.88800
H  48.99900 37.44200 23.68900
H  47.45200 31.28200 24.48400
H  46.05300 34.81200 32.20200
H  48.19500 36.78300 31.83700
H  45.56200 36.82200 32.35200
H  45.53600 37.91000 30.93300
H  46.65200 38.18500 32.37700
H  49.07400 34.27100 31.68100
H  47.91600 33.19400 32.43600
H  49.62700 35.25800 33.72400
H  48.75500 33.87000 34.35300
H  49.70400 41.06900 27.58400
H  49.52000 39.95400 29.02000
H  48.12000 40.70500 28.30900
H  50.33600 41.92100 24.30600
H  50.77100 41.40700 25.89000
H  49.06800 41.65300 25.61800
H  49.51000 35.04100 22.43800
H  47.70800 32.92700 22.51600
H  47.67200 36.35600 21.74200
H  46.45900 35.07200 22.13600
H  47.78100 34.75300 20.90200
H  49.70500 31.59000 23.52400
H  50.64500 33.00700 23.05900
H  49.05200 32.63700 20.86900
H  49.63700 31.01700 21.29300
H  50.84000 32.30800 21.03300
H  45.86900 28.81600 27.42600
H  46.70700 29.27800 26.00200
H  44.98100 29.55200 25.99900
H  44.27500 32.93600 30.66800
H  43.85200 33.02700 34.48900
H  45.46100 32.28800 34.44000
H  44.05900 31.21500 34.41700
Mg 42.66600 41.76500 25.89000
C  41.72400 44.09400 28.15300
C  43.45800 39.52100 28.41100
C  43.43900 39.34600 23.57000
C  42.17700 44.02400 23.15100
N  42.52100 41.81100 28.01600
C  42.03000 42.84200 28.77400
C  42.19500 42.53200 30.31800
C  43.11800 41.19300 30.22700
C  43.00300 40.83500 28.75700
C  44.57400 41.47400 30.72700
C  40.82800 42.34700 30.93600
C  40.81900 41.82600 32.41700
H  40.18000 42.75600 33.44900
N  43.52800 39.69300 25.93100
C  43.58500 38.94400 27.07800
C  44.01200 37.61000 26.73800
C  43.94900 37.53200 25.29700
C  43.65900 38.89800 24.86600
C  44.54100 36.58100 27.80600
C  44.05100 36.35600 24.34000
O  43.98400 36.32500 23.10600
C  44.21300 35.01600 25.01300
N  42.87500 41.69900 23.70600
C  43.13800 40.58900 22.95700
C  43.16200 40.93300 21.44100
C  42.43000 42.26200 21.34200
C  42.51200 42.70200 22.83600
C  44.46300 40.66200 20.65300
C  41.00600 42.08300 20.88100
C  39.83100 41.77200 21.81300
N  42.02500 43.70200 25.61900
C  41.89300 44.53700 24.49100
C  41.39000 45.75500 24.98700
C  41.32500 45.70600 26.38100
C  41.68300 44.41100 26.73800
C  40.98400 46.90300 24.16500
C  41.04000 46.37500 27.65000
O  40.73800 47.49600 27.90400
C  41.31000 45.35900 28.77500
C  42.17200 45.88300 29.81300
O  43.16000 46.59200 29.65000
O  41.59700 45.78800 31.05800
C  42.59300 46.01000 32.16700
H  43.65000 38.84000 29.24300
H  43.57100 38.58800 22.79500
H  42.04900 44.86400 22.46500
H  42.77100 43.39100 30.65900
H  42.68200 40.40100 30.83600
H  44.78200 40.61400 31.36400
H  44.66300 42.39900 31.29600
H  45.28700 41.41400 29.90500
H  40.32200 41.49200 30.48900
H  40.16800 43.16100 30.63500
H  41.84500 41.61300 32.72100
H  40.28000 40.87900 32.44500
H  44.99300 37.18800 28.59100
H  45.22900 35.82100 27.43900
H  43.63000 36.09500 28.15600
H  45.21600 34.69700 25.29600
H  43.83400 34.17200 24.43800
H  43.66800 35.05100 25.95600
H  42.44800 40.17800 21.11100
H  42.95100 42.95100 20.67600
H  45.16600 40.22200 21.36000
H  44.94400 41.58100 20.31800
H  44.27500 39.94500 19.85400
H  40.94500 41.40500 20.03000
H  40.68900 42.98200 20.35400
H  39.49900 40.73600 21.75100
H  38.95900 42.39800 21.62500
H  40.08600 41.87400 22.86800
H  41.88600 47.49500 24.01500
H  40.27600 47.46100 24.77900
H  40.45200 46.60200 23.26200
H  40.33400 45.07700 29.17100
H  42.23000 45.81300 33.17600
H  42.95200 47.03600 32.09300
H  43.50200 45.41100 32.11400

