158

Mg 47.77400 25.76300 28.06700
C  48.53800 28.07200 30.65600
C  46.29800 23.69800 30.54600
C  47.20400 23.50300 25.63200
C  49.33500 27.87000 25.77200
N  47.52500 25.94000 30.33300
C  47.79600 26.97400 31.11500
C  47.37100 26.69900 32.49200
C  46.66300 25.27800 32.52300
C  46.82300 24.94100 31.04300
C  47.30300 24.23600 33.48300
C  46.42400 27.81800 33.02100
C  45.71200 27.45400 34.34200
H  45.53300 28.46000 35.45500
N  46.84400 23.92700 28.07800
C  46.29900 23.24800 29.16600
C  45.84500 21.89800 28.71000
C  46.09500 21.89400 27.31200
C  46.78100 23.18300 26.93900
C  45.26200 20.84200 29.62100
C  45.84700 20.71900 26.24700
O  46.22800 20.78900 25.06800
C  44.96000 19.58800 26.59000
N  48.16900 25.70200 25.95100
C  47.80100 24.63100 25.22400
C  48.10800 24.92800 23.71400
C  48.67600 26.41100 23.74100
C  48.84400 26.68300 25.24900
C  49.18200 23.85800 23.20800
C  47.65800 27.41300 23.08300
C  48.03900 27.56900 21.52900
N  48.72600 27.51100 28.16900
C  49.32100 28.27300 27.13000
C  49.88900 29.53000 27.69900
C  49.59800 29.45900 29.09200
C  48.95600 28.21200 29.27500
C  50.71400 30.49000 26.93900
C  49.81300 30.13400 30.31900
O  50.49200 31.11100 30.57700
C  49.05800 29.27600 31.41900
C  49.87300 28.96000 32.63200
O  50.75500 28.10200 32.67400
O  49.42900 29.73200 33.74500
C  50.13500 29.41000 34.93000
H  45.84300 22.98600 31.23700
H  47.03700 22.79600 24.81700
H  49.67600 28.65200 25.09000
H  48.30000 26.80700 33.05200
H  45.59000 25.41300 32.66400
H  48.13300 24.58700 34.09700
H  47.64400 23.46000 32.79800
H  46.50500 23.76700 34.05800
H  45.72900 28.18900 32.26800
H  47.04100 28.66900 33.30900
H  46.19800 26.53900 34.67900
H  44.70300 27.16300 34.05100
H  45.27600 19.81300 29.26200
H  44.17800 20.93300 29.70200
H  45.65300 20.84400 30.63900
H  45.56900 18.84100 27.09900
H  44.62700 19.10400 25.67200
H  44.19700 20.02900 27.23300
H  47.20900 24.75700 23.12300
H  49.72900 26.47500 23.46700
H  50.16800 24.24000 22.94500
H  48.75600 23.34200 22.34800
H  49.36000 23.13700 24.00600
H  47.73900 28.35400 23.62700
H  46.64500 27.03300 23.21800
H  47.40300 26.94300 20.90300
H  49.03600 27.20000 21.28900
H  48.03700 28.58600 21.13500
H  51.61900 29.92400 26.71400
H  50.94100 31.22000 27.71600
H  50.40700 30.78600 25.93600
H  48.15800 29.77300 31.77900
H  51.12200 29.82700 34.72600
H  50.34400 28.38500 35.23400
H  49.79000 30.00000 35.77900
Mg 36.98200 49.31200 24.77900
C  37.06800 47.40000 27.69200
C  35.34600 51.80900 26.60100
C  36.41300 50.91100 21.90800
C  38.28800 46.52900 22.90700
N  36.18700 49.51200 26.94600
C  36.58800 48.64200 27.98300
C  36.22700 49.22700 29.36300
C  35.50700 50.55300 28.91800
C  35.71200 50.69200 27.37300
C  34.08800 50.74900 29.42800
C  37.54500 49.35300 30.13900
C  37.47300 48.84400 31.58600
H  37.05500 49.94900 32.57000
N  36.14300 51.16500 24.38200
C  35.66000 52.09200 25.26300
C  35.25400 53.30100 24.58300
C  35.45200 53.01800 23.15400
C  36.09800 51.70600 23.05400
C  34.81200 54.63800 25.25400
C  35.27600 53.90000 21.93300
O  35.50900 53.59400 20.76900
C  34.77700 55.30700 22.17600
N  37.37600 48.85200 22.73000
C  36.97200 49.65600 21.75500
C  37.29100 49.14400 20.36200
C  38.22000 47.97500 20.76300
C  37.91600 47.70700 22.24800
C  35.98700 48.65700 19.55400
C  39.67500 48.08500 20.63800
C  40.46900 46.77200 20.17100
N  37.48800 47.31000 25.08500
C  38.10600 46.37800 24.29100
C  38.38300 45.21700 25.13400
C  38.04600 45.56500 26.43900
C  37.48000 46.85700 26.38700
C  39.07700 43.99200 24.68500
C  38.04800 45.11100 27.82900
O  38.41400 44.02800 28.29100
C  37.45000 46.32300 28.61900
C  36.23800 45.70100 29.20800
O  35.23300 45.32300 28.61300
O  36.36300 45.78700 30.58600
C  35.05400 45.36300 31.30100
H  34.88000 52.56900 27.23100
H  36.21000 51.44900 20.98000
H  38.85300 45.74100 22.40500
H  35.57300 48.55100 29.91300
H  35.99900 51.44700 29.30200
H  33.35100 50.49000 28.66800
H  33.86500 51.81400 29.47700
H  33.93800 50.17500 30.34300
H  37.73900 50.41200 30.30900
H  38.50000 49.03800 29.72000
H  38.46800 48.56500 31.93200
H  36.78900 47.99600 31.57000
H  33.76900 54.92200 25.11400
H  35.46100 55.42000 24.86000
H  35.05600 54.67300 26.31600
H  33.95500 55.40800 22.88500
H  34.30600 55.67200 21.26300
H  35.58100 55.97800 22.47900
H  37.85300 49.97000 19.92600
H  37.91200 47.10700 20.17900
H  35.10400 48.82900 20.16900
H  36.06700 47.62200 19.22000
H  35.99900 49.18400 18.60000
H  40.07500 48.29900 21.62900
H  39.94400 48.91800 19.98800
H  41.17900 46.99600 19.37600
H  39.83000 45.92600 19.91800
H  41.10900 46.47300 21.00100
H  40.08000 43.89400 25.10200
H  39.25300 43.93700 23.61100
H  38.37400 43.21100 24.97400
H  38.18000 46.55500 29.39500
H  34.26500 45.88400 30.75900
H  34.98400 45.62800 32.35600
H  34.79800 44.32100 31.10800

