158

Mg 36.53800 49.49900 24.93100
C  36.62400 47.52200 28.01900
C  35.01900 52.07400 26.78800
C  35.76600 50.90700 22.07000
C  37.60600 46.54000 23.27100
N  35.79700 49.71700 27.13700
C  36.10900 48.84800 28.21600
C  35.81700 49.60900 29.51700
C  35.19800 50.95000 29.06100
C  35.26000 50.91400 27.52300
C  33.66400 51.18400 29.45800
C  37.02700 49.77200 30.45700
C  36.82100 49.42600 32.02200
H  35.37900 49.17500 32.54900
N  35.65300 51.29900 24.46500
C  35.13600 52.22000 25.36000
C  34.81200 53.38800 24.64300
C  34.90800 53.09400 23.23000
C  35.43600 51.74800 23.14400
C  34.38300 54.66200 25.41000
C  34.53800 53.94600 21.98900
O  34.62900 53.48400 20.86900
C  34.13000 55.33900 22.17400
N  36.62600 48.73300 22.98900
C  36.32700 49.60600 21.96500
C  36.59600 48.96300 20.57200
C  37.36600 47.59100 20.98100
C  37.15700 47.58500 22.52000
C  35.28800 48.65300 19.76000
C  38.83300 47.52500 20.53000
C  39.77300 48.42200 21.41500
N  37.16400 47.48200 25.49800
C  37.55500 46.43100 24.67500
C  37.74600 45.19000 25.46600
C  37.43500 45.65400 26.80500
C  37.08900 47.03200 26.77100
C  38.16300 43.80500 24.99000
C  37.47600 45.24300 28.23000
O  37.94300 44.20300 28.71600
C  36.90800 46.43400 29.04700
C  35.75700 46.11900 29.99300
O  34.65500 46.62600 29.92100
O  36.13800 45.17600 30.94100
C  35.09800 44.81000 32.01200
H  34.69500 52.89900 27.42700
H  35.57100 51.24800 21.05100
H  38.07000 45.71400 22.72800
H  35.11500 49.04400 30.13100
H  35.77800 51.79000 29.44300
H  33.37000 50.26000 29.95600
H  33.05300 51.42200 28.58800
H  33.55200 52.01300 30.15700
H  37.38500 50.79300 30.31800
H  37.87600 49.23700 30.03000
H  37.23600 50.31200 32.50400
H  37.48500 48.61800 32.32600
H  33.31000 54.53200 25.55700
H  34.47700 55.52300 24.74900
H  34.88900 54.82900 26.36100
H  33.96000 55.80100 21.20200
H  35.00100 55.91000 22.49600
H  33.22800 55.47000 22.77200
H  37.20500 49.60100 19.93200
H  36.79600 46.76300 20.55900
H  34.44100 49.04900 20.31900
H  35.18900 47.58300 19.57700
H  35.32500 49.13600 18.78300
H  39.01700 47.98000 19.55700
H  39.20000 46.49900 20.52500
H  39.24900 48.99000 22.18400
H  40.28500 49.19700 20.84500
H  40.54400 47.79700 21.86600
H  39.22700 43.82200 24.75000
H  37.53000 43.42600 24.18800
H  37.94700 43.14000 25.82600
H  37.72300 46.72000 29.71200
H  35.17900 43.80400 32.42500
H  34.11400 44.93100 31.56000
H  35.23400 45.46500 32.87300
Mg -5.58300 24.92900 26.06700
C  -3.98500 25.91600 29.16000
C  -7.30800 22.65100 28.04500
C  -6.38700 23.40400 23.25200
C  -3.25900 26.86900 24.39600
N  -5.75800 24.44800 28.46100
C  -4.99300 24.91100 29.44700
C  -5.52000 24.38500 30.81100
C  -6.55700 23.28800 30.41500
C  -6.62500 23.49000 28.90100
C  -6.10800 21.90300 30.71800
C  -6.25900 25.60300 31.60100
C  -5.91000 25.78700 33.08100
H  -5.08700 24.78600 33.79200
N  -6.77300 23.44400 25.71700
C  -7.51300 22.68500 26.60000
C  -8.41100 21.80300 25.89200
C  -8.16000 22.00200 24.49800
C  -7.04700 22.99600 24.46700
C  -9.42800 20.88500 26.58600
C  -8.85400 21.32700 23.26800
O  -8.41100 21.45400 22.14900
C  -9.92400 20.37400 23.43900
N  -4.89200 25.04500 24.16700
C  -5.33900 24.28400 23.13800
C  -4.82000 24.73500 21.81100
C  -3.97200 26.01500 22.14300
C  -4.06600 26.04600 23.67900
C  -3.91700 23.63200 21.07400
C  -4.43500 27.30800 21.46800
C  -3.38400 28.31900 21.10500
N  -3.99300 26.23400 26.62800
C  -3.21400 26.96800 25.78300
C  -2.32300 27.82000 26.61200
C  -2.60600 27.46800 27.96900
C  -3.60500 26.47500 27.91400
C  -1.57100 28.98600 26.21200
C  -2.18400 27.67200 29.35000
O  -1.21600 28.31600 29.70700
C  -3.23500 26.79600 30.21300
C  -2.34400 25.89000 31.06500
O  -1.98200 24.77100 30.72200
O  -1.97700 26.55600 32.21800
C  -0.89000 25.83200 32.89100
H  -7.99100 22.01700 28.61400
H  -6.81700 23.04700 22.31400
H  -2.60200 27.59700 23.91600
H  -4.68100 24.06100 31.42700
H  -7.52600 23.40300 30.90100
H  -5.28000 21.83400 31.42400
H  -5.72800 21.47800 29.78900
H  -6.91700 21.24200 31.02800
H  -7.34600 25.55800 31.53300
H  -5.99800 26.54200 31.11400
H  -6.81100 25.93600 33.67700
H  -5.45700 26.75900 33.27900
H  -9.44000 20.95700 27.67300
H  -9.21100 19.83400 26.39700
H  -10.37600 21.05000 26.07300
H  -10.89100 20.87000 23.51700
H  -9.60300 19.63700 24.17500
H  -10.14900 19.83100 22.52000
H  -5.69900 24.95400 21.20400
H  -2.94800 25.78600 21.84800
H  -3.85200 22.74600 21.70600
H  -2.86800 23.87300 20.90700
H  -4.38200 23.47800 20.10100
H  -5.25300 27.90100 21.87800
H  -4.81000 27.07100 20.47200
H  -2.43500 27.98200 21.52300
H  -3.44000 29.28700 21.60200
H  -3.36800 28.41100 20.01900
H  -2.20600 29.75200 25.76600
H  -0.77300 28.87100 25.47900
H  -1.22000 29.45700 27.13000
H  -3.87700 27.35200 30.89600
H  0.07800 25.95700 32.40600
H  -1.07900 24.78100 33.11300
H  -0.92300 26.22400 33.90800

