158

Mg 6.46000 53.96900 40.73500
C  5.42000 50.55600 40.45800
C  9.58100 53.02200 39.75100
C  7.01100 57.18900 40.27000
C  3.03600 54.66000 41.77900
N  7.20200 52.10300 39.85900
C  6.67500 50.82100 39.85400
C  7.64900 49.80400 39.15000
C  9.00100 50.52600 39.47600
C  8.60300 52.01200 39.66500
C  9.70800 49.90500 40.75600
C  7.22900 49.66800 37.65400
C  7.59500 48.26800 36.93500
H  6.73200 47.84900 35.80200
N  8.15900 54.96700 40.12100
C  9.33300 54.39200 39.81100
C  10.23800 55.43200 39.55000
C  9.60400 56.69000 39.71300
C  8.14400 56.34300 40.01800
C  11.72700 55.20500 39.15600
C  10.22400 58.01200 39.51100
O  11.42600 58.13000 39.20600
C  9.43100 59.30000 39.50800
N  5.17800 55.60800 40.81900
C  5.68100 56.89200 40.65300
C  4.52900 57.94000 40.92700
C  3.38800 57.08700 41.57500
C  3.96000 55.68800 41.47200
C  4.94100 59.18600 41.79300
C  1.95500 57.15100 40.90500
C  1.40900 58.60300 40.59500
N  4.60400 52.86300 41.17500
C  3.41400 53.27900 41.68400
C  2.51800 52.14300 41.98700
C  3.31500 51.06300 41.56200
C  4.51000 51.53600 41.05300
C  1.17400 52.11600 42.55700
C  3.41600 49.60600 41.36600
O  2.61500 48.70100 41.65300
C  4.85200 49.19800 40.77100
C  4.69900 48.29000 39.57300
O  4.21400 48.52600 38.49700
O  5.05100 47.01100 39.94900
C  5.02900 45.92600 38.97000
H  10.58300 52.66600 39.49800
H  7.13000 58.27400 40.30300
H  2.06300 54.95200 42.18000
H  7.57800 48.83200 39.63800
H  9.66500 50.31300 38.63800
H  9.13700 49.13600 41.27800
H  9.92300 50.71300 41.45600
H  10.61500 49.40600 40.41700
H  7.82200 50.45300 37.18500
H  6.21600 50.00500 37.43100
H  7.60200 47.52900 37.73700
H  8.61200 48.49100 36.61300
H  11.90100 54.13300 39.06500
H  12.40900 55.62400 39.89600
H  11.96200 55.63500 38.18300
H  10.04500 60.19200 39.37500
H  8.97800 59.20500 40.49400
H  8.81100 59.29100 38.61200
H  4.17100 58.25300 39.94600
H  3.18900 57.25500 42.63300
H  4.06200 59.64200 42.24800
H  5.40700 59.88300 41.09600
H  5.73300 58.96000 42.50700
H  1.28900 56.65100 41.60800
H  2.02900 56.63800 39.94600
H  2.05600 59.34400 41.06500
H  0.36500 58.72900 40.88000
H  1.44300 58.61100 39.50500
H  0.64000 53.06600 42.54600
H  1.16900 51.74300 43.58100
H  0.64500 51.31000 42.04700
H  5.47200 48.68100 41.50400
H  4.20800 45.99600 38.25600
H  5.06700 44.96000 39.47300
H  5.88000 46.09400 38.31100
Mg -11.62900 16.47700 41.94200
C  -8.73700 14.36900 41.62400
C  -9.88800 19.04900 40.44700
C  -14.45100 18.17900 41.60400
C  -13.44700 13.61000 42.98900
N  -9.55800 16.66100 41.05300
C  -8.51300 15.71500 41.12100
C  -7.26100 16.30200 40.51800
C  -7.66300 17.78600 40.19200
C  -9.10800 17.84800 40.64500
C  -6.70100 18.82800 40.77500
C  -6.67800 15.57900 39.26600
C  -5.17900 16.04200 39.09100
H  -4.70600 16.45200 37.67900
N  -12.10900 18.39800 41.24600
C  -11.29400 19.24900 40.66300
C  -11.99400 20.55100 40.40700
C  -13.36200 20.26900 40.79700
C  -13.36700 18.89200 41.21000
C  -11.33100 21.82000 39.95900
C  -14.48600 21.31700 40.71300
O  -14.28100 22.47300 40.31400
C  -15.88300 21.08900 41.06400
N  -13.70300 15.89900 41.99000
C  -14.67400 16.83900 41.99500
C  -16.02800 16.20900 42.40800
C  -15.64300 14.79600 42.81200
C  -14.16500 14.76000 42.59800
C  -16.79900 17.08700 43.44400
C  -16.35200 13.63000 42.04600
C  -17.31300 12.74300 42.87200
N  -11.21900 14.43800 42.34400
C  -12.02300 13.37400 42.82300
C  -11.25300 12.15900 43.10600
C  -9.96900 12.54000 42.61200
C  -9.99400 13.93800 42.14400
C  -11.78500 10.92000 43.70200
C  -8.58700 12.00700 42.49000
O  -8.13900 10.93900 42.84400
C  -7.74800 13.21700 41.88000
C  -6.65600 13.55700 42.80900
O  -6.71900 13.54300 44.02300
O  -5.53000 13.67700 42.04700
C  -4.31200 14.03300 42.81500
H  -9.31700 19.83900 39.95400
H  -15.44000 18.64400 41.59000
H  -13.98700 12.68600 43.20800
H  -6.56700 16.24600 41.35600
H  -7.68900 18.11200 39.15300
H  -7.21000 19.62200 41.32100
H  -6.25200 19.42500 39.98100
H  -5.83100 18.40800 41.28000
H  -7.21900 15.94400 38.39300
H  -6.82800 14.51200 39.42600
H  -4.47600 15.23700 39.30800
H  -4.89400 16.90400 39.69500
H  -11.87800 22.28900 39.14100
H  -10.30500 21.71800 39.60700
H  -11.31800 22.58700 40.73400
H  -16.35400 20.48300 40.29000
H  -16.44800 22.02100 41.06800
H  -15.89700 20.60100 42.03900
H  -16.58000 16.41000 41.49000
H  -15.89000 14.61300 43.85800
H  -17.77500 17.34300 43.03000
H  -16.13600 17.88400 43.78100
H  -16.98100 16.41500 44.28300
H  -15.66500 12.95000 41.54200
H  -17.01500 14.04700 41.28800
H  -17.30600 13.10500 43.90000
H  -17.23800 11.65600 42.86500
H  -18.29700 12.94400 42.44800
H  -12.35700 10.26200 43.04700
H  -12.42100 11.16900 44.55100
H  -10.96000 10.25400 43.95700
H  -7.28200 12.84800 40.96700
H  -4.34400 15.08800 43.08600
H  -3.47800 13.78000 42.16000
H  -4.22100 13.42100 43.71200

