158

Mg 40.48100 9.64600 28.59100
C  42.19700 10.58200 31.53700
C  38.24300 7.89300 30.86200
C  38.68100 8.70700 25.96800
C  43.14400 10.69600 26.57200
N  40.26600 9.21300 31.00500
C  41.05900 9.79800 31.90700
C  40.57600 9.38300 33.32900
C  39.62600 8.19600 33.09600
C  39.36200 8.46600 31.59300
C  40.22900 6.80100 33.38500
C  39.99000 10.58500 34.11400
C  40.46100 10.70900 35.55600
H  40.88300 12.13600 35.89600
N  38.74200 8.57700 28.44700
C  38.02500 7.86800 29.40600
C  36.80800 7.28700 28.81200
C  36.80500 7.56300 27.39300
C  38.12100 8.34600 27.25700
C  35.79300 6.54200 29.65000
C  35.79300 7.26300 26.29600
O  35.94500 7.50100 25.08800
C  34.45300 6.75900 26.74600
N  40.96200 9.66400 26.53700
C  39.95200 9.36600 25.69200
C  40.43100 9.59500 24.19700
C  41.76100 10.33000 24.36600
C  42.03500 10.24100 25.88200
C  40.46900 8.31100 23.30300
C  41.93700 11.70700 23.72900
C  41.23800 12.89600 24.24400
N  42.35800 10.44500 28.93400
C  43.33700 10.83800 28.00600
C  44.31800 11.55200 28.81400
C  43.90300 11.52100 30.17700
C  42.71000 10.78200 30.22800
C  45.53500 12.14700 28.22200
C  44.22800 12.02400 31.55900
O  45.14900 12.72300 32.01900
C  43.16200 11.39200 32.46100
C  43.77100 10.39800 33.47000
O  44.27000 9.31000 33.22100
O  43.77600 10.94700 34.73000
C  44.18900 10.08000 35.84500
H  37.64100 7.21200 31.46800
H  38.03900 8.54900 25.09900
H  43.83000 11.11300 25.83200
H  41.45500 8.97800 33.83100
H  38.76100 8.25400 33.75700
H  41.28100 6.95500 33.62600
H  40.29700 6.28500 32.42700
H  39.72800 6.17700 34.12500
H  38.91400 10.42400 34.18400
H  40.21900 11.52300 33.60900
H  41.26400 10.04300 35.87200
H  39.57500 10.54000 36.16700
H  35.97200 6.36100 30.71000
H  35.63000 5.58300 29.15800
H  34.87500 7.11900 29.75500
H  33.95100 6.47600 25.82100
H  33.82000 7.57700 27.08900
H  34.54600 5.97200 27.49400
H  39.69500 10.28600 23.78600
H  42.56300 9.70900 23.96500
H  39.40400 8.22100 23.09000
H  40.65600 7.38900 23.85400
H  41.13100 8.38500 22.44100
H  41.75000 11.53800 22.66900
H  43.00000 11.89300 23.87800
H  40.59600 13.23700 23.43200
H  41.90300 13.71900 24.50700
H  40.56800 12.69700 25.08100
H  45.65000 13.05800 28.81000
H  45.40000 12.38300 27.16700
H  46.34300 11.41600 28.26400
H  42.72500 12.14700 33.11400
H  43.81600 10.51100 36.77400
H  45.27500 10.13400 35.92500
H  44.01300 9.00800 35.76100
Mg 48.82200 45.14000 43.00900
C  45.48300 45.51300 41.89000
C  48.48500 41.70500 42.79200
C  52.18500 44.84200 43.44300
C  49.17900 48.73400 42.88300
N  47.17900 43.84800 42.29600
C  45.89500 44.12200 41.92000
C  45.01200 42.85400 41.66200
C  46.02400 41.74400 42.12500
C  47.31700 42.50000 42.44500
C  45.44000 40.91700 43.32900
C  44.58000 42.60100 40.15500
C  45.54500 43.04800 39.08100
H  45.48000 42.18300 37.84500
N  50.17400 43.50400 43.01800
C  49.84100 42.18700 43.00200
C  51.03400 41.45700 42.89100
C  52.16200 42.25400 43.17100
C  51.53900 43.59000 43.25200
C  51.02600 39.99600 42.48900
C  53.54600 41.82000 43.23600
O  53.87200 40.62900 43.23300
C  54.78700 42.75700 43.23000
N  50.44400 46.55700 42.95900
C  51.66800 46.19200 43.39200
C  52.62600 47.40600 43.59500
C  51.71800 48.61000 43.39100
C  50.37700 47.88100 43.02800
C  53.49400 47.49900 44.89300
C  52.14700 49.58300 42.21300
C  52.07000 50.99200 42.58500
N  47.54800 46.89200 42.64000
C  47.84200 48.26500 42.65600
C  46.53600 48.97600 42.35700
C  45.68700 47.92000 42.10700
C  46.26200 46.69400 42.26000
C  46.33500 50.51200 42.24600
C  44.31700 47.66600 41.67200
O  43.41600 48.47100 41.49300
C  44.13100 46.05800 41.43500
C  42.96700 45.48700 42.25100
O  42.29400 44.51100 41.92700
O  42.67400 46.17900 43.38600
C  41.68000 45.57700 44.28600
H  48.39700 40.62200 42.90000
H  53.20700 44.79000 43.82600
H  49.19100 49.82200 42.97200
H  44.08800 42.90700 42.23800
H  46.11300 41.01500 41.32000
H  45.63500 39.92000 42.93400
H  44.40000 41.18300 43.51900
H  46.05900 41.04300 44.21700
H  43.62600 43.12800 40.17900
H  44.36000 41.54700 39.98300
H  46.56600 43.13000 39.45500
H  45.27700 44.08100 38.86000
H  51.27600 39.97000 41.42800
H  50.07100 39.50300 42.67200
H  51.62000 39.31700 43.10100
H  54.49200 43.62000 42.63400
H  55.72600 42.32900 42.87900
H  54.90600 43.03300 44.27800
H  53.38200 47.37700 42.81000
H  51.62800 49.15100 44.33300
H  53.13200 48.23500 45.61000
H  54.49900 47.73200 44.54000
H  53.53600 46.49800 45.32200
H  51.61500 49.38600 41.28200
H  53.19000 49.36300 41.98600
H  51.46300 51.18200 43.47000
H  51.70200 51.55500 41.72800
H  53.10100 51.30800 42.74200
H  46.47500 50.83400 41.21400
H  46.95100 51.16900 42.86100
H  45.31200 50.72100 42.55900
H  44.00200 45.78700 40.38700
H  40.69200 45.74300 43.85600
H  41.74400 46.02000 45.28000
H  41.78200 44.49200 44.30000

