158

Mg 48.94400 45.81300 42.77000
C  45.61200 46.22800 41.92600
C  48.60100 42.52700 41.83500
C  52.23900 45.62900 42.72500
C  49.11800 49.29200 43.39700
N  47.36800 44.54000 41.96600
C  46.05500 44.94400 41.79700
C  45.23700 43.73800 41.38600
C  46.06100 42.53900 41.89300
C  47.42800 43.21000 41.80200
C  45.73600 42.06000 43.36800
C  45.12500 43.74500 39.81300
C  43.77100 43.34100 39.24400
H  43.33300 44.21400 38.04000
N  50.32000 44.21100 42.35800
C  49.94100 42.94800 41.96600
C  51.15500 42.22400 41.70800
C  52.32200 43.09900 42.03500
C  51.69500 44.37800 42.36800
C  51.24000 40.84300 41.04500
C  53.79200 42.80800 41.87800
O  54.12000 41.62800 41.60600
C  54.88900 43.84800 41.96400
N  50.51800 47.35100 42.73100
C  51.73400 46.94500 42.97700
C  52.64800 48.14400 43.49000
C  51.61900 49.30800 43.64100
C  50.32300 48.67500 43.25200
C  53.47800 47.85900 44.81300
C  51.90600 50.62400 42.84600
C  52.84600 51.62400 43.63700
N  47.61400 47.42100 42.81300
C  47.82800 48.76800 43.08300
C  46.58900 49.49700 42.94700
C  45.63200 48.52300 42.47000
C  46.34900 47.27800 42.42300
C  46.42800 50.94700 43.21300
C  44.24100 48.29300 42.26500
O  43.22800 48.93200 42.41100
C  44.23900 46.78800 41.87200
C  43.20100 46.10500 42.61700
O  42.21700 45.56200 42.07100
O  43.37200 46.17000 43.96600
C  42.56200 45.21900 44.66100
H  48.41200 41.45800 41.71800
H  53.27500 45.57700 43.06700
H  49.19100 50.37400 43.52700
H  44.25300 43.81800 41.84700
H  46.09100 41.68500 41.21500
H  46.62900 42.24600 43.96500
H  45.41900 41.01700 43.40900
H  44.97200 42.76500 43.69700
H  45.72700 42.91000 39.45300
H  45.45300 44.70900 39.42300
H  43.03800 43.36500 40.05000
H  43.84100 42.28300 38.99400
H  51.33000 39.99300 41.72100
H  52.08000 40.72200 40.36100
H  50.48600 40.76200 40.26100
H  54.88100 44.19900 42.99600
H  54.58000 44.72300 41.39300
H  55.85200 43.38100 41.75900
H  53.39100 48.40900 42.73800
H  51.45200 49.46500 44.70700
H  53.17400 48.46000 45.67000
H  54.53200 47.96500 44.55400
H  53.34000 46.80700 45.06100
H  51.02900 51.21900 42.59000
H  52.42200 50.32400 41.93400
H  53.74300 51.82600 43.05200
H  53.11900 51.26900 44.63100
H  52.29900 52.54900 43.82300
H  45.38900 51.16800 42.97100
H  47.11900 51.56200 42.63600
H  46.70400 51.09600 44.25700
H  43.81700 46.61800 40.88100
H  42.45100 44.30000 44.08700
H  41.58500 45.68500 44.78800
H  42.92800 44.98700 45.66100
Mg -10.62600 16.66200 41.03100
C  -7.20800 16.80100 41.58200
C  -10.58500 19.94500 40.19500
C  -13.97400 16.41000 40.31400
C  -10.54100 13.13700 41.40900
N  -9.07800 18.09400 40.85800
C  -7.75900 17.96200 41.06000
C  -7.01600 19.27300 40.59600
C  -8.14900 20.28500 40.76500
C  -9.40000 19.38700 40.64300
C  -8.25300 21.07300 42.10500
C  -6.47600 19.16400 39.19400
C  -5.00300 18.87700 39.04700
H  -4.65000 17.85900 38.04800
N  -12.07500 18.00700 40.30400
C  -11.87000 19.31800 40.04500
C  -13.10000 19.91100 39.73400
C  -14.02400 18.85600 39.65900
C  -13.37800 17.64300 40.04500
C  -13.30000 21.42400 39.43500
C  -15.41300 19.05300 39.15400
O  -15.76800 20.22200 38.93100
C  -16.45200 17.95700 38.87600
N  -12.00300 14.91700 40.57000
C  -13.34000 15.13600 40.56200
C  -14.16800 13.86200 40.91200
C  -12.99800 12.75900 41.02800
C  -11.73900 13.62500 40.98700
C  -14.98000 14.05700 42.26000
C  -13.07000 11.59800 39.94200
C  -12.31800 11.83600 38.57700
N  -9.18800 15.20200 41.45000
C  -9.26500 13.81500 41.61200
C  -7.95400 13.29100 42.08700
C  -7.10200 14.48300 42.08500
C  -7.86300 15.53500 41.64300
C  -7.56900 11.84100 42.26700
C  -5.79900 15.00500 42.39800
O  -4.80800 14.42800 42.77000
C  -5.89700 16.55900 42.15500
C  -5.72200 17.40500 43.40400
O  -4.95700 18.35900 43.49500
O  -6.52600 16.95800 44.40800
C  -6.15900 17.39300 45.78900
H  -10.49900 21.01600 40.00100
H  -15.06500 16.36500 40.35300
H  -10.57200 12.07300 41.65300
H  -6.09400 19.40600 41.16100
H  -8.24800 21.05600 40.00200
H  -7.30600 20.81900 42.58200
H  -9.03400 20.82400 42.82300
H  -8.24900 22.14500 41.91100
H  -6.57800 20.15700 38.75700
H  -7.01200 18.38000 38.65900
H  -4.64800 18.40700 39.96400
H  -4.54300 19.83000 38.78500
H  -13.74000 21.47700 38.43900
H  -12.33800 21.93600 39.47200
H  -13.94000 21.87100 40.19600
H  -15.94500 17.22500 38.24700
H  -17.20600 18.40400 38.22800
H  -16.93900 17.50500 39.74000
H  -14.88700 13.63800 40.12500
H  -12.84600 12.31900 42.01400
H  -14.69000 14.96000 42.79800
H  -14.96700 13.11900 42.81500
H  -16.01900 14.21800 41.97300
H  -14.13900 11.50500 39.75300
H  -12.67500 10.76900 40.52900
H  -13.06000 11.98600 37.79400
H  -11.72200 10.94300 38.38900
H  -11.67000 12.71200 38.60600
H  -7.83400 11.28200 41.37000
H  -8.13200 11.40600 43.09300
H  -6.49800 11.87200 42.46900
H  -5.06200 16.73200 41.47600
H  -6.80300 18.20200 46.13300
H  -5.19100 17.89500 45.80000
H  -5.95300 16.57600 46.48100

