158

Mg 48.17100 15.72200 28.94900
C  46.02300 15.62800 31.61400
C  50.24800 17.76500 30.65700
C  50.07600 16.08700 26.17100
C  45.70400 14.14300 26.95800
N  48.16500 16.51300 30.89900
C  47.22000 16.38400 31.85600
C  47.74600 16.84100 33.25900
C  49.02100 17.76300 32.86900
C  49.16000 17.37100 31.35400
C  48.79000 19.31500 32.93500
C  48.08900 15.61100 34.14400
C  47.89200 15.73500 35.69100
H  47.33500 17.05700 36.16700
N  49.95900 16.72400 28.54700
C  50.73300 17.40000 29.41800
C  51.98600 17.66700 28.84200
C  51.95500 17.29900 27.49700
C  50.54800 16.73700 27.32300
C  53.10800 18.19500 29.62700
C  53.10500 17.35900 26.45300
O  52.93700 16.85800 25.32700
C  54.36900 18.04800 26.71500
N  47.96600 15.19800 26.90600
C  48.84700 15.59200 25.91800
C  48.43500 15.05600 24.51300
C  47.13000 14.23000 24.86700
C  46.87400 14.53000 26.37200
C  48.31600 16.20500 23.53600
C  47.30200 12.70700 24.74500
C  46.53300 12.15000 23.52000
N  46.29500 15.09500 29.21500
C  45.43300 14.45900 28.30100
C  44.18700 14.20600 29.00300
C  44.38500 14.60600 30.34200
C  45.69600 15.10900 30.40700
C  43.01100 13.68000 28.31800
C  43.74100 14.56300 31.64200
O  42.65900 14.02700 31.96600
C  44.88300 15.24900 32.61800
C  44.23800 16.36600 33.38100
O  44.32700 17.56700 33.11100
O  43.60500 15.86100 34.50300
C  42.88900 16.85400 35.27300
H  50.85900 18.38400 31.31700
H  50.69100 16.18200 25.27300
H  44.96200 13.60400 26.36500
H  47.03300 17.55900 33.66700
H  49.91500 17.35400 33.34100
H  49.30400 19.87800 33.71300
H  47.74900 19.33500 33.25800
H  48.85200 19.78300 31.95200
H  49.15500 15.39300 34.08000
H  47.45900 14.78300 33.82000
H  48.85400 15.47400 36.13200
H  47.18800 14.93800 35.93100
H  53.95900 17.51400 29.64700
H  52.83800 18.42500 30.65700
H  53.37100 19.22600 29.38600
H  54.17100 19.08000 27.00500
H  54.87400 18.20200 25.76100
H  55.04300 17.55900 27.41800
H  49.31100 14.45200 24.27600
H  46.28300 14.60000 24.28900
H  47.32000 16.33400 23.11200
H  48.90600 15.88900 22.67600
H  48.65900 17.17700 23.88900
H  46.85800 12.17900 25.58900
H  48.34700 12.42600 24.61900
H  46.90400 11.13100 23.40200
H  46.53700 12.84500 22.68000
H  45.50600 11.90400 23.79100
H  43.13500 12.63900 28.02000
H  42.85100 14.24600 27.40000
H  42.08400 13.91000 28.84300
H  45.26000 14.57700 33.38900
H  41.93700 17.02300 34.77000
H  43.35600 17.83900 35.27500
H  42.80400 16.48700 36.29600
Mg 47.98900 34.27700 26.83100
C  46.11300 32.62200 29.32400
C  47.90300 37.08500 28.83000
C  49.21000 36.00900 24.23300
C  47.15700 31.58300 24.60500
N  47.30500 34.67800 28.96400
C  46.76200 33.81400 29.74300
C  46.72500 34.48700 31.15700
C  47.03400 36.04800 30.94700
C  47.44300 35.95300 29.51000
C  45.69700 36.88000 31.00500
C  47.94200 33.86300 32.04500
C  48.00200 34.33900 33.57500
H  47.08300 35.41300 34.15000
N  48.49600 36.24600 26.53200
C  48.37500 37.22700 27.51200
C  48.93400 38.43900 26.99800
C  49.53000 38.12700 25.75200
C  49.05600 36.80800 25.39100
C  49.10600 39.67000 27.82800
C  50.35000 38.98400 24.90100
O  50.85400 38.57200 23.85400
C  50.85200 40.31400 25.39300
N  48.12300 33.77900 24.80000
C  48.68500 34.73700 23.88300
C  48.74600 34.20700 22.46100
C  48.22700 32.74200 22.59200
C  47.75100 32.67000 24.08200
C  47.96600 35.18500 21.56800
C  49.31900 31.73800 22.25300
C  49.17100 30.99300 20.87700
N  46.95400 32.39000 26.86500
C  46.77100 31.40300 25.94200
C  45.89300 30.35800 26.47300
C  45.58100 30.90200 27.76700
C  46.24800 32.09900 27.99200
C  45.45200 29.10300 25.74800
C  44.81100 30.59000 29.01000
O  44.17500 29.55700 29.31500
C  45.05800 31.78200 30.07100
C  45.29400 31.27800 31.44300
O  46.18100 30.52600 31.72800
O  44.43200 31.89000 32.24700
C  44.58200 31.69600 33.70500
H  47.85600 37.91200 29.54100
H  49.53500 36.64600 23.40800
H  47.02800 30.70300 23.97000
H  45.78100 34.31200 31.67300
H  47.84600 36.44900 31.55400
H  45.25000 37.10800 30.03800
H  45.89200 37.76800 31.60500
H  45.01200 36.38300 31.69300
H  48.83200 34.04000 31.44200
H  47.89900 32.77400 32.04100
H  49.04800 34.38100 33.87900
H  47.65100 33.49800 34.17300
H  50.09100 39.73200 28.29000
H  48.27900 39.79500 28.52700
H  48.86700 40.50500 27.16900
H  49.99700 40.98500 25.47300
H  51.65500 40.68200 24.75400
H  51.34600 40.09500 26.34000
H  49.79300 34.13900 22.16300
H  47.45700 32.51600 21.85500
H  47.84000 36.13400 22.08900
H  46.97200 34.85500 21.26900
H  48.55600 35.39400 20.67600
H  49.48200 31.01000 23.04800
H  50.26300 32.27900 22.32700
H  50.18300 30.97000 20.47300
H  48.42500 31.43600 20.21600
H  48.84400 29.98200 21.11800
H  44.36400 29.05200 25.71900
H  45.91000 28.24900 26.24800
H  45.86500 29.04300 24.74100
H  44.06500 32.23000 30.10400
H  45.64200 31.53500 33.89900
H  44.10300 30.78200 34.05800
H  44.23500 32.56900 34.25700

