158

Mg 48.93500 35.15700 27.07800
C  47.07800 33.62300 29.76700
C  49.30300 37.85700 29.32000
C  50.40200 36.62200 24.73900
C  48.01900 32.52200 24.98700
N  48.24200 35.61800 29.21600
C  47.63100 34.84100 30.16300
C  47.66000 35.46900 31.53200
C  47.91700 36.96300 31.18000
C  48.49000 36.84600 29.76200
C  46.66900 37.87800 31.17000
C  48.85900 34.84600 32.34500
C  48.65300 34.62000 33.84800
H  47.59300 35.38400 34.69400
N  49.87100 36.91400 27.03700
C  49.97800 37.88400 28.02000
C  50.94100 38.84300 27.56400
C  51.24700 38.54400 26.17300
C  50.46300 37.30600 25.92200
C  51.33600 40.00100 28.39800
C  52.08800 39.34500 25.19100
O  52.27100 39.08200 23.99900
C  52.79200 40.60800 25.71700
N  48.97000 34.70100 24.95100
C  49.82600 35.43400 24.26500
C  50.18700 34.75500 22.94300
C  49.45700 33.37500 23.05200
C  48.74600 33.55200 24.36500
C  49.92900 35.74400 21.77500
C  50.35100 32.11400 23.12000
C  51.48000 32.06400 22.09100
N  47.79000 33.36300 27.26200
C  47.54400 32.41500 26.32900
C  46.76100 31.41000 26.87500
C  46.51700 31.80200 28.26200
C  47.14700 33.07500 28.39800
C  46.06800 30.23800 26.13800
C  45.80700 31.50600 29.50600
O  45.13200 30.56800 29.92300
C  46.05400 32.73300 30.49700
C  46.53600 32.26200 31.80600
O  47.67400 31.91700 32.18400
O  45.50600 32.30400 32.66900
C  45.71400 31.90600 34.01200
H  49.38200 38.78000 29.89900
H  51.16700 36.99900 24.05600
H  47.79400 31.64300 24.38000
H  46.67900 35.30500 31.97600
H  48.68000 37.38700 31.83300
H  46.07000 37.79300 30.26400
H  47.03900 38.90400 31.16900
H  46.08800 37.64300 32.06200
H  49.74700 35.46500 32.21100
H  49.12400 33.88200 31.91200
H  49.65200 34.84800 34.22000
H  48.53700 33.54800 34.01000
H  52.32200 40.40400 28.16900
H  51.41600 39.67300 29.43500
H  50.58500 40.78900 28.45900
H  52.99300 41.15300 24.79500
H  53.65500 40.43000 26.35800
H  52.16100 41.28100 26.29800
H  51.27500 34.69700 22.89100
H  48.72900 33.17800 22.26500
H  48.84300 35.75800 21.87000
H  50.15500 35.34100 20.78700
H  50.34500 36.72900 21.98600
H  49.66200 31.27200 23.05800
H  50.84600 32.11400 24.09100
H  51.39800 31.12200 21.54900
H  52.43400 31.99500 22.61300
H  51.44400 32.94200 21.44600
H  45.25700 30.64900 25.53700
H  45.84300 29.39900 26.79600
H  46.89500 29.87000 25.53200
H  45.09800 33.23800 30.63800
H  44.78600 31.36800 34.20500
H  45.65900 32.85800 34.54100
H  46.61600 31.39300 34.34400
Mg -2.23900 34.35100 26.63200
C  -3.75400 32.53700 29.24700
C  -0.93700 36.54700 28.99800
C  -1.28900 36.38300 24.16800
C  -4.11300 32.49900 24.43100
N  -2.51100 34.55100 28.83500
C  -3.11000 33.70800 29.71000
C  -2.80500 34.20000 31.13800
C  -2.15700 35.58200 30.99100
C  -1.82200 35.57200 29.50200
C  -3.02900 36.81700 31.40900
C  -1.92200 33.22800 32.02300
C  -2.29100 32.86000 33.49600
H  -1.19700 32.94200 34.51900
N  -1.02900 36.15100 26.55400
C  -0.54300 36.83100 27.67500
C  0.35800 37.83800 27.15400
C  0.28900 37.78000 25.71300
C  -0.67900 36.72000 25.38100
C  1.17400 38.71300 28.04800
C  1.06100 38.53000 24.70900
O  0.86800 38.38900 23.50200
C  2.04200 39.56600 25.17000
N  -2.80500 34.56600 24.61800
C  -2.24000 35.45600 23.79000
C  -2.70900 35.34800 22.30900
C  -3.50200 33.99200 22.37000
C  -3.53200 33.67500 23.88000
C  -3.48600 36.64500 21.78400
C  -2.89200 32.84400 21.49900
C  -1.42400 32.54000 21.69800
N  -3.53800 32.81800 26.79200
C  -4.22300 32.09700 25.75300
C  -5.02800 31.02200 26.30000
C  -4.83700 31.08000 27.68000
C  -3.86400 32.17300 27.89500
C  -6.04200 30.17100 25.50800
C  -5.25900 30.53600 28.96000
O  -5.97500 29.57700 29.19800
C  -4.52700 31.45900 30.09500
C  -5.62600 32.02800 30.90200
O  -6.37200 32.92000 30.57100
O  -5.55700 31.43900 32.14600
C  -6.60400 31.80400 33.12500
H  -0.46900 37.14100 29.78600
H  -0.96900 37.00500 23.32900
H  -4.67100 31.81700 23.78600
H  -3.78700 34.23600 31.61000
H  -1.20800 35.66500 31.52200
H  -3.20400 37.52400 30.59800
H  -2.60100 37.31800 32.27700
H  -3.99200 36.61100 31.87800
H  -0.91900 33.65300 32.03500
H  -1.76800 32.33200 31.42200
H  -2.71100 31.85800 33.40900
H  -3.14100 33.44000 33.85300
H  0.79600 39.67000 27.68800
H  2.19700 38.40300 27.83200
H  0.91200 38.59600 29.09900
H  1.51700 40.41800 25.60300
H  2.47800 40.09700 24.32400
H  2.76100 39.09400 25.84000
H  -1.77100 35.16700 21.78300
H  -4.49300 34.25600 22.00200
H  -4.26100 36.28900 21.10500
H  -2.78600 37.15900 21.12500
H  -3.79300 37.20300 22.66800
H  -3.08700 33.13000 20.46600
H  -3.49100 31.96500 21.73800
H  -0.99700 33.14300 20.89600
H  -1.25800 31.46300 21.66000
H  -1.16800 33.07900 22.61000
H  -6.92800 30.08400 26.13700
H  -5.63500 29.21100 25.19000
H  -6.25900 30.84300 24.67700
H  -3.90400 30.81700 30.71800
H  -7.37300 32.44000 32.68700
H  -6.07500 32.34600 33.90900
H  -6.96900 30.84800 33.50000

