158

Mg 53.85500 23.77700 45.21700
C  51.16200 25.76700 43.94000
C  52.08100 21.02400 43.80600
C  56.66000 21.97700 45.74400
C  55.50500 26.73200 46.01300
N  51.81100 23.42400 44.12400
C  50.98700 24.43200 43.55900
C  49.91900 23.87700 42.51800
C  50.02000 22.35000 42.97700
C  51.35500 22.22000 43.67000
C  48.90300 21.85700 43.93300
C  50.42300 24.08000 41.01300
C  51.96300 24.34600 40.77100
H  52.91400 23.14000 40.79100
N  54.31400 21.71200 44.88100
C  53.43900 20.77500 44.32400
C  54.16700 19.50800 44.45400
C  55.45100 19.72000 45.07500
C  55.52300 21.17000 45.27000
C  53.56000 18.20000 43.91400
C  56.42700 18.70000 45.53600
O  56.22700 17.43800 45.43800
C  57.70100 19.01900 46.27400
N  55.83100 24.29800 45.70600
C  56.80200 23.36000 45.86700
C  58.13200 23.99600 46.02900
C  57.74900 25.51600 46.32400
C  56.24700 25.55500 46.01500
C  59.07900 23.37100 47.04200
C  58.63800 26.56200 45.67000
C  58.26800 27.05800 44.22400
N  53.38800 25.80800 45.15500
C  54.15700 26.90000 45.61800
C  53.36000 28.08200 45.60400
C  52.17900 27.73300 44.86500
C  52.25400 26.33600 44.64500
C  53.72400 29.43100 45.93000
C  50.92100 28.16400 44.35900
O  50.51100 29.29300 44.38900
C  50.26100 26.93900 43.70100
C  50.01300 27.32800 42.28000
O  50.86900 27.46100 41.44100
O  48.63100 27.39300 42.08300
C  48.13500 27.77200 40.75200
H  51.65400 20.12000 43.36700
H  57.65800 21.54600 45.84500
H  56.05200 27.65300 46.22600
H  48.97400 24.37700 42.72900
H  49.92700 21.70500 42.10300
H  48.23800 22.69300 44.14900
H  49.32500 21.46000 44.85700
H  48.25600 21.13800 43.43000
H  49.81000 24.87100 40.58000
H  50.15600 23.20000 40.42900
H  52.34000 25.24000 41.26800
H  52.08900 24.66900 39.73800
H  54.23300 17.89100 43.11400
H  52.54000 18.31400 43.54700
H  53.56400 17.43600 44.69200
H  58.08000 18.17800 46.85400
H  57.64500 19.83300 46.99700
H  58.55600 19.31500 45.66500
H  58.68800 24.01100 45.09200
H  57.82600 25.64800 47.40300
H  59.99500 23.11400 46.51100
H  58.75700 22.52100 47.64300
H  59.39500 24.20300 47.67200
H  59.67100 26.21300 45.67400
H  58.62200 27.48500 46.25100
H  59.10100 26.76500 43.58500
H  58.12100 28.13600 44.28900
H  57.31900 26.64600 43.88200
H  53.59200 30.03400 45.03100
H  54.75400 29.35400 46.27800
H  53.19200 29.90400 46.75500
H  49.31100 26.84600 44.22700
H  48.96600 27.82900 40.04900
H  47.55000 28.69100 40.80300
H  47.46200 26.98700 40.40600
Mg -1.84500 33.82000 26.94900
C  -3.63800 31.96900 29.42000
C  -0.61600 35.73500 29.58300
C  -0.56000 35.94000 24.67700
C  -3.47100 32.11000 24.50700
N  -2.22300 33.92200 29.15500
C  -2.81100 32.93900 29.91300
C  -2.44600 33.10100 31.45200
C  -1.63500 34.39300 31.43500
C  -1.45400 34.67100 29.97500
C  -2.14500 35.61100 32.15900
C  -1.71500 31.85800 32.09800
C  -2.37400 31.09700 33.26500
H  -1.75800 31.27900 34.59800
N  -0.65600 35.56500 27.11900
C  -0.21800 36.13900 28.29100
C  0.66000 37.23000 27.93500
C  0.56400 37.46500 26.53700
C  -0.21700 36.31000 26.02300
C  1.37100 38.00500 28.95300
C  1.19300 38.55100 25.73900
O  1.08600 38.60800 24.49300
C  1.97700 39.68600 26.49000
N  -2.13300 34.10600 24.88800
C  -1.38600 34.98700 24.12600
C  -1.70800 34.78100 22.59100
C  -2.71700 33.57300 22.62200
C  -2.75000 33.19100 24.07600
C  -2.30200 35.96600 21.70000
C  -2.54500 32.39600 21.56300
C  -1.60200 31.21600 21.92500
N  -3.23800 32.37300 26.87400
C  -3.69600 31.64100 25.82400
C  -4.44700 30.57000 26.25300
C  -4.50900 30.67600 27.68800
C  -3.72000 31.78500 27.99400
C  -5.14800 29.49600 25.41600
C  -5.03100 30.05800 28.86500
O  -5.88200 29.16300 29.14200
C  -4.43000 30.82600 29.96800
C  -5.41900 31.19500 30.97900
O  -6.42900 31.92900 30.81000
O  -5.29100 30.42900 32.12100
C  -6.31200 30.50800 33.18000
H  -0.23000 36.17100 30.50600
H  -0.01700 36.59900 23.99600
H  -4.02500 31.40400 23.88500
H  -3.35700 33.32400 32.00900
H  -0.68700 34.17600 31.92800
H  -1.37600 36.35000 32.38400
H  -2.53000 35.32200 33.13700
H  -3.00300 36.05400 31.65300
H  -0.67800 32.07500 32.35100
H  -1.72000 31.05800 31.35800
H  -2.43100 30.01900 33.11900
H  -3.39600 31.47600 33.24600
H  2.39900 37.92400 28.60000
H  1.31300 37.55300 29.94300
H  0.89800 38.98400 29.03600
H  2.21800 40.39500 25.69700
H  2.95000 39.34900 26.84600
H  1.48500 40.19200 27.32000
H  -0.78800 34.39400 22.15400
H  -3.72800 33.92900 22.42600
H  -2.85600 36.66800 22.32300
H  -2.99600 35.54500 20.97300
H  -1.46500 36.46900 21.21600
H  -2.09200 32.85000 20.68200
H  -3.52600 32.05300 21.23500
H  -0.91000 30.96900 21.11900
H  -2.24500 30.37500 22.18600
H  -0.99600 31.55600 22.76500
H  -4.64300 29.19600 24.49700
H  -6.08100 29.92900 25.05700
H  -5.26700 28.59300 26.01500
H  -3.74100 30.15600 30.48300
H  -5.80500 30.95900 34.03400
H  -6.68800 29.52300 33.45700
H  -7.15500 31.15500 32.94100

