158

Mg -1.46400 17.68000 27.66100
C  -2.06600 15.36300 30.30900
C  -2.31900 20.15000 29.82500
C  -1.23300 19.75400 25.14200
C  -1.26300 14.90800 25.36900
N  -1.96300 17.75400 29.82800
C  -2.08200 16.74300 30.73900
C  -2.23900 17.24800 32.11600
C  -2.40700 18.79500 31.88500
C  -2.25200 18.95500 30.44500
C  -3.60400 19.43000 32.50100
C  -0.99900 16.71600 32.92200
C  -0.40900 17.70800 33.93800
H  -0.15600 17.02700 35.31800
N  -1.70000 19.71800 27.53000
C  -2.10100 20.60400 28.48300
C  -2.22800 21.93000 27.92300
C  -1.77800 21.87600 26.52000
C  -1.57400 20.41900 26.31800
C  -2.74100 23.09400 28.72000
C  -1.55700 22.96700 25.45400
O  -1.09000 22.69900 24.33800
C  -1.65100 24.32300 25.94000
N  -1.39800 17.34100 25.51100
C  -1.17800 18.43800 24.74800
C  -0.97000 17.95400 23.27900
C  -0.77900 16.41200 23.39900
C  -1.18200 16.17100 24.81500
C  -2.15600 18.33800 22.30200
C  0.71200 15.86900 23.23800
C  1.78800 16.50200 24.11000
N  -1.69800 15.61400 27.72100
C  -1.63400 14.66000 26.73900
C  -1.97200 13.37100 27.28300
C  -2.11200 13.59900 28.66700
C  -1.85900 14.98800 28.87400
C  -1.98300 12.01800 26.59600
C  -2.36900 13.01100 29.94800
O  -2.60600 11.89700 30.16200
C  -2.25200 14.10700 31.09200
C  -1.17000 13.73100 31.95300
O  0.00100 14.06800 31.77400
O  -1.69200 13.04800 33.06400
C  -0.67300 12.81500 34.12500
H  -2.47200 20.98900 30.50700
H  -1.17400 20.41700 24.27600
H  -1.14100 13.94800 24.86400
H  -3.14900 16.85900 32.57400
H  -1.58600 19.33400 32.35800
H  -4.34400 18.68200 32.78400
H  -4.08500 20.06200 31.75400
H  -3.34800 19.99500 33.39800
H  -0.23000 16.58700 32.16100
H  -1.27900 15.79600 33.43600
H  -1.14500 18.48100 34.15800
H  0.58400 17.99800 33.59500
H  -3.32400 23.79100 28.11800
H  -1.84900 23.59300 29.09900
H  -3.33600 22.74900 29.56600
H  -1.38700 25.04900 25.17100
H  -0.93400 24.33800 26.76100
H  -2.67500 24.55800 26.23100
H  -0.10500 18.54900 22.98600
H  -1.42300 15.92300 22.66900
H  -2.53900 19.18100 22.87700
H  -2.96100 17.65400 22.03400
H  -1.71000 18.77300 21.40800
H  0.98800 15.84400 22.18400
H  0.69300 14.79500 23.42400
H  2.54300 16.89700 23.43000
H  2.12600 15.69700 24.76200
H  1.51200 17.35600 24.72800
H  -1.00900 11.53000 26.61500
H  -2.31200 12.17700 25.56900
H  -2.63000 11.28000 27.06900
H  -3.16200 14.08400 31.69300
H  -1.08400 13.52700 34.84000
H  0.36000 13.07700 33.89500
H  -0.74400 11.82600 34.57600
Mg 1.06700 8.25200 27.04400
C  1.53000 10.28100 29.78200
C  1.23200 5.54400 29.03600
C  0.90200 6.33900 24.22200
C  1.37500 11.03600 24.98100
N  1.49700 7.96700 29.22200
C  1.37700 8.96100 30.14300
C  1.19200 8.36900 31.58900
C  1.07500 6.86600 31.27300
C  1.27800 6.74800 29.75400
C  2.10900 6.04700 32.08700
C  0.02400 9.04800 32.43300
C  -0.52200 8.21200 33.59800
H  0.46000 7.94200 34.67900
N  1.03300 6.17100 26.72300
C  1.07000 5.23200 27.66500
C  0.73400 3.91300 27.11400
C  0.69300 4.13500 25.69500
C  0.86400 5.63000 25.51200
C  0.60900 2.59200 28.02800
C  0.34000 3.15900 24.58300
O  0.51600 3.45100 23.37100
C  -0.07900 1.67100 24.90100
N  1.09200 8.63500 24.97100
C  1.02600 7.68300 24.05000
C  0.90600 8.30500 22.61400
C  0.73000 9.78900 22.92700
C  1.07700 9.83300 24.42400
C  2.11800 7.96700 21.68400
C  -0.75200 10.29700 22.77100
C  -0.87500 11.54300 21.84000
N  1.55600 10.26200 27.32100
C  1.63800 11.22100 26.39600
C  1.94600 12.53400 27.13900
C  1.85300 12.18400 28.46700
C  1.60800 10.83300 28.51500
C  2.21900 13.81700 26.57400
C  2.02800 12.68400 29.73100
O  2.33400 13.81900 30.11700
C  1.71900 11.49800 30.66700
C  2.79000 11.25600 31.74300
O  3.85500 10.59700 31.65100
O  2.39700 11.86600 32.90700
C  3.38600 11.93600 33.94600
H  1.05000 4.77400 29.78800
H  0.89600 5.75400 23.30000
H  1.38100 11.98000 24.43300
H  2.11400 8.67000 32.08600
H  0.06900 6.46900 31.40500
H  2.90900 6.67000 32.48800
H  2.62900 5.33300 31.44800
H  1.56500 5.48600 32.84600
H  -0.67400 9.26600 31.62500
H  0.26600 10.02500 32.85200
H  -1.00300 7.31300 33.21300
H  -1.27600 8.76000 34.16400
H  0.51000 1.61800 27.54900
H  -0.34000 2.75600 28.53800
H  1.47400 2.53600 28.68900
H  -1.04200 1.71700 25.40900
H  0.73100 1.19100 25.44900
H  -0.14700 1.08700 23.98300
H  -0.02800 7.84800 22.28600
H  1.43000 10.44500 22.41000
H  1.91200 7.00800 21.20800
H  3.02300 7.89000 22.28600
H  2.31100 8.66400 20.86800
H  -1.02800 10.71800 23.73800
H  -1.47200 9.55500 22.42600
H  0.07200 11.60100 21.30400
H  -1.19400 12.38600 22.45300
H  -1.63300 11.37200 21.07500
H  2.34900 13.79800 25.49200
H  3.13700 14.08000 27.09800
H  1.58200 14.63800 26.90500
H  0.84400 11.79600 31.24500
H  4.42300 11.72200 33.69000
H  3.09800 11.11800 34.60600
H  3.28300 12.86500 34.50700

