158

Mg 42.77400 41.10600 26.31700
C  42.00900 43.60800 28.71500
C  43.66400 39.00700 28.86000
C  43.43700 38.98200 23.95100
C  42.24100 43.61600 23.86400
N  42.81100 41.33900 28.52100
C  42.27600 42.40100 29.29000
C  42.29300 42.03700 30.81600
C  43.06800 40.63200 30.79700
C  43.16300 40.21500 29.32100
C  44.43400 40.62000 31.60700
C  40.84500 42.03400 31.38000
C  40.54700 43.03800 32.53900
H  39.94300 42.39600 33.81100
N  43.45700 39.26300 26.42700
C  43.81400 38.55300 27.53100
C  44.25900 37.23000 27.13000
C  44.13800 37.16200 25.65900
C  43.62600 38.49000 25.30100
C  44.65200 36.23200 28.19200
C  44.38000 36.01700 24.72200
O  44.03300 35.98400 23.53200
C  44.94400 34.79600 25.35300
N  43.10800 41.33800 24.18300
C  43.20900 40.21900 23.43900
C  43.40700 40.53800 21.97900
C  43.01200 42.02100 21.91800
C  42.75400 42.38200 23.40500
C  44.94300 40.38100 21.55100
C  41.81600 42.37600 20.99600
C  42.01500 43.59300 20.08700
N  42.24000 43.17900 26.29000
C  42.06800 44.03000 25.21200
C  41.55600 45.38900 25.64700
C  41.48600 45.28200 27.09700
C  42.02000 43.98000 27.37600
C  41.22500 46.52800 24.73900
C  41.18600 45.94700 28.32800
O  40.75900 47.04500 28.60200
C  41.60800 44.87500 29.44700
C  42.70700 45.41500 30.33700
O  43.88000 45.12500 30.19900
O  42.11500 46.05700 31.43900
C  43.19900 46.62900 32.25400
H  43.89200 38.31900 29.67600
H  43.46000 38.17300 23.21800
H  42.20500 44.44500 23.15500
H  42.89500 42.79000 31.32400
H  42.47000 39.91500 31.35900
H  44.40500 39.90800 32.43200
H  44.51000 41.59700 32.08400
H  45.22600 40.43400 30.88200
H  40.67400 41.11400 31.93900
H  40.10100 42.23200 30.60900
H  39.75700 43.74600 32.28700
H  41.41000 43.64900 32.80200
H  45.73000 36.07200 28.16400
H  44.09800 35.32100 27.96700
H  44.60200 36.44800 29.25900
H  45.39600 34.09000 24.65600
H  44.17500 34.34300 25.97800
H  45.78900 35.22400 25.89300
H  42.78900 39.92300 21.32400
H  43.86200 42.56000 21.49800
H  45.52800 40.35400 22.47000
H  45.47500 41.10200 20.93100
H  45.10200 39.47600 20.96400
H  40.90100 42.50400 21.57600
H  41.66100 41.53800 20.31700
H  41.46700 43.30300 19.19100
H  43.01100 43.95600 19.83400
H  41.35800 44.30400 20.58900
H  41.00000 46.09500 23.76400
H  42.06400 47.22100 24.80200
H  40.42700 47.06200 25.25400
H  40.77900 44.78000 30.14900
H  43.94600 47.20300 31.70500
H  43.54800 45.89800 32.98200
H  42.63600 47.29100 32.91200
Mg -13.25300 16.79200 42.23800
C  -10.45600 14.41700 41.71000
C  -11.32300 19.05900 40.43700
C  -16.02800 18.51200 41.96200
C  -15.01600 13.97200 43.55000
N  -11.24400 16.66600 41.11400
C  -10.24500 15.67600 41.11400
C  -8.96700 16.12800 40.50400
C  -9.23900 17.62700 40.09200
C  -10.66200 17.82400 40.68900
C  -8.17700 18.72600 40.58400
C  -8.46500 15.11900 39.37200
C  -6.98500 14.56900 39.59800
H  -5.85700 15.11300 38.60500
N  -13.62900 18.68500 41.43500
C  -12.66000 19.45700 40.74400
C  -13.34000 20.71300 40.43800
C  -14.72500 20.63500 40.94700
C  -14.90400 19.21000 41.41400
C  -12.72000 21.79500 39.77300
C  -15.74300 21.74600 40.98500
O  -15.40200 22.81600 40.56800
C  -17.10100 21.61100 41.70900
N  -15.36100 16.19000 42.37800
C  -16.25500 17.19700 42.42200
C  -17.53100 16.74700 42.96900
C  -17.13400 15.35500 43.68100
C  -15.79300 15.08400 43.16300
C  -18.30300 17.78200 43.86300
C  -18.11100 14.17500 43.63000
C  -18.52800 13.57500 45.01600
N  -12.87100 14.63600 42.74000
C  -13.69000 13.74000 43.24100
C  -12.92100 12.54200 43.55300
C  -11.63000 12.75900 43.00700
C  -11.65600 14.07800 42.42800
C  -13.45600 11.25300 44.13600
C  -10.29000 12.22600 42.87600
O  -9.79300 11.13200 43.17500
C  -9.49300 13.25700 41.95100
C  -8.18900 13.46300 42.55900
O  -7.95600 14.33500 43.37200
O  -7.31800 12.48800 42.10000
C  -6.04900 12.50800 42.83100
H  -10.65500 19.74700 39.91500
H  -16.87800 19.07700 41.57300
H  -15.45800 13.16700 44.14000
H  -8.37100 16.06900 41.41500
H  -9.27000 17.72200 39.00600
H  -8.58700 19.35400 41.37500
H  -7.99000 19.33200 39.69700
H  -7.19800 18.36200 40.89400
H  -8.53700 15.59800 38.39600
H  -9.06300 14.20900 39.33800
H  -6.94900 13.48200 39.51600
H  -6.62500 14.81900 40.59600
H  -13.28400 21.91600 38.84800
H  -11.65800 21.69600 39.55000
H  -12.90800 22.72100 40.31700
H  -17.52600 22.61100 41.79100
H  -16.91900 21.18600 42.69600
H  -17.60700 20.91100 41.04500
H  -18.20100 16.57800 42.12500
H  -16.82600 15.58600 44.70100
H  -18.82200 17.41000 44.74700
H  -19.16000 18.25900 43.38700
H  -17.62200 18.58200 44.15200
H  -17.80100 13.41900 42.90800
H  -19.06200 14.43100 43.16400
H  -19.44300 14.03100 45.39500
H  -17.78200 13.88500 45.74700
H  -18.64300 12.49100 45.01700
H  -14.26600 10.98600 43.45800
H  -13.93300 11.31500 45.11300
H  -12.72500 10.44400 44.14400
H  -9.32000 12.59800 41.10000
H  -5.35200 13.23400 42.41000
H  -5.65800 11.54900 42.49000
H  -6.12700 12.61500 43.91300

