158

Mg 25.38000 1.91800 29.45400
C  27.16800 1.38500 32.42900
C  22.48400 1.93700 31.36300
C  23.58400 1.97900 26.60400
C  28.24000 1.07300 27.64200
N  24.91300 1.64600 31.69600
C  25.78600 1.68600 32.75000
C  25.11100 1.98500 34.11300
C  23.62900 2.10900 33.68500
C  23.67200 1.96700 32.13000
C  22.64300 1.08100 34.32700
C  25.73900 3.21200 34.85600
C  25.99400 3.03400 36.44900
H  25.48700 4.00000 37.48300
N  23.38300 1.85700 29.08300
C  22.27600 1.85700 30.01000
C  21.06300 1.82300 29.25000
C  21.39300 1.68400 27.84700
C  22.85100 1.79800 27.79500
C  19.75600 1.70100 30.04000
C  20.42200 1.46800 26.69100
O  20.84100 1.39800 25.54000
C  18.92800 1.37000 26.85700
N  25.89300 1.58100 27.39600
C  24.96400 1.82400 26.45100
C  25.67200 1.82100 25.05800
C  27.18100 1.56100 25.43400
C  27.11900 1.48100 26.93300
C  25.11400 0.87500 24.00300
C  28.20200 2.78700 25.06000
C  29.64700 2.39000 24.44700
N  27.34500 1.42900 29.88400
C  28.38200 1.12100 29.06600
C  29.57800 0.81400 29.83200
C  29.17000 0.93600 31.16300
C  27.79600 1.30200 31.18000
C  30.85300 0.42600 29.20200
C  29.57100 0.69900 32.59900
O  30.60200 0.19500 33.04900
C  28.32000 1.16200 33.46900
C  27.96900 0.12500 34.46900
O  27.15200 -0.76400 34.35200
O  28.77400 0.30100 35.57400
C  28.38900 -0.60900 36.69500
H  21.59100 2.19100 31.93800
H  23.08500 2.13700 25.64500
H  29.12100 0.74800 27.08500
H  25.26000 1.17900 34.83100
H  23.14300 3.06000 33.90400
H  23.02300 0.44700 35.12900
H  22.38300 0.39200 33.52400
H  21.66900 1.50400 34.57300
H  25.04500 4.01900 34.61800
H  26.70600 3.42500 34.40100
H  27.07500 2.89500 36.43100
H  25.59700 2.04800 36.69000
H  18.92200 2.25900 29.61300
H  19.88300 2.05700 31.06200
H  19.38300 0.67900 30.10700
H  18.42700 1.04300 25.94600
H  18.52700 2.34200 27.14300
H  18.85100 0.59700 27.62100
H  25.50000 2.84900 24.73900
H  27.50800 0.61100 25.01200
H  24.24400 0.32700 24.36600
H  25.87500 0.12200 23.79900
H  24.80300 1.48800 23.15800
H  28.21800 3.41000 25.95400
H  27.80000 3.40900 24.26100
H  29.76900 1.31400 24.57300
H  30.45500 2.83100 25.03000
H  29.73500 2.68500 23.40100
H  31.21400 -0.48500 29.68100
H  31.49000 1.25600 29.50900
H  30.76200 0.25100 28.13000
H  28.48300 2.09000 34.01600
H  28.85000 -1.59100 36.59000
H  27.33300 -0.81100 36.87800
H  28.71500 -0.19200 37.64800
Mg 1.18700 42.44100 25.86500
C  2.04800 42.67200 29.35600
C  -1.70100 40.96500 26.82600
C  0.67300 41.82000 22.57000
C  4.34500 43.75600 25.16000
N  0.37300 41.88400 27.81600
C  0.77400 42.09000 29.10100
C  -0.28800 41.91200 30.11600
C  -1.42900 41.16100 29.34500
C  -0.89800 41.28200 27.88100
C  -1.74300 39.68000 29.74300
C  -0.70500 43.23800 30.87900
C  -0.48400 43.21000 32.45800
H  -0.36100 41.88300 33.28900
N  -0.35600 41.58800 24.80000
C  -1.45300 40.95900 25.41600
C  -2.31900 40.54100 24.40500
C  -1.72000 40.85400 23.09000
C  -0.43700 41.48600 23.43600
C  -3.50000 39.69300 24.83500
C  -2.22300 40.54800 21.71000
O  -1.59200 40.89200 20.74000
C  -3.56700 39.95100 21.48800
N  2.29400 42.77900 24.14700
C  1.92000 42.43000 22.87400
C  2.97200 42.84600 21.83400
C  3.91400 43.66500 22.67700
C  3.48300 43.37500 24.08100
C  3.58300 41.65400 21.01000
C  3.90100 45.17900 22.19000
C  2.61600 45.98500 22.38400
N  2.92400 43.07000 26.91900
C  4.09900 43.63700 26.50800
C  4.94500 43.90100 27.58400
C  4.20100 43.50900 28.73800
C  2.99900 43.03500 28.29100
C  6.35000 44.32400 27.48700
C  4.17100 43.49000 30.14400
O  5.02800 43.79300 30.98600
C  2.81400 42.74900 30.58700
C  3.34200 41.41800 30.97100
O  3.97800 40.63700 30.28500
O  3.06600 41.34700 32.30000
C  3.51300 40.17600 33.01600
H  -2.65000 40.63300 27.25200
H  0.62200 41.59400 21.50300
H  5.31000 44.19200 24.89400
H  0.13200 41.28100 30.90000
H  -2.33900 41.74600 29.47900
H  -1.09400 39.39600 30.57100
H  -1.43900 39.09100 28.87800
H  -2.75000 39.40700 30.05900
H  -1.71300 43.54800 30.60100
H  -0.20700 44.07200 30.38500
H  -1.22900 43.84800 32.93400
H  0.44800 43.68900 32.76000
H  -4.27300 40.29900 25.30700
H  -3.06700 39.00600 25.56200
H  -3.92200 39.08100 24.03700
H  -3.40700 38.96500 21.92400
H  -3.77100 39.93400 20.41800
H  -4.31000 40.49900 22.06800
H  2.42300 43.40400 21.07600
H  4.92300 43.25200 22.65900
H  4.66400 41.51400 21.00500
H  3.18800 41.85800 20.01500
H  3.14700 40.72600 21.38000
H  4.10000 45.22800 21.11900
H  4.76600 45.62400 22.68200
H  1.71600 45.38600 22.52100
H  2.33700 46.46400 21.44600
H  2.68100 46.68500 23.21700
H  6.55700 44.93400 26.60700
H  6.93500 43.40500 27.47400
H  6.63600 44.88700 28.37600
H  2.47300 43.23100 31.50300
H  3.88300 40.48400 33.99400
H  4.36800 39.62800 32.62000
H  2.73500 39.41400 33.05900

