158

Mg 40.30800 8.35900 29.65900
C  42.28400 9.71500 32.23200
C  37.95900 7.53700 31.98000
C  38.55700 6.78800 27.19100
C  42.90700 9.03100 27.45000
N  40.27500 8.51100 31.82900
C  41.10300 9.24500 32.70600
C  40.50200 9.36200 34.03800
C  39.31100 8.40400 34.09500
C  39.12800 8.14500 32.50300
C  39.54200 7.07300 34.84900
C  40.04300 10.82800 34.47900
C  39.60000 10.93500 35.97000
H  40.52300 11.68500 36.86200
N  38.45500 7.35200 29.64600
C  37.61500 7.19200 30.67100
C  36.44800 6.37900 30.20700
C  36.57000 6.38600 28.80700
C  37.90600 6.86900 28.48900
C  35.32500 6.00200 31.12500
C  35.54900 6.00300 27.67000
O  35.71700 6.17500 26.48400
C  34.23100 5.39200 28.10000
N  40.74400 7.84100 27.63700
C  39.88200 7.16600 26.85400
C  40.36300 7.14300 25.38100
C  41.70900 7.95600 25.40700
C  41.83100 8.36000 26.94700
C  40.59300 5.65200 24.90200
C  41.74800 9.14400 24.39000
C  40.90300 10.28200 24.58900
N  42.26800 9.13000 29.72800
C  43.19900 9.42700 28.75600
C  44.39100 9.95400 29.31600
C  44.03700 10.24100 30.69300
C  42.72300 9.64900 30.88900
C  45.61300 10.20700 28.57100
C  44.46800 10.76200 31.96400
O  45.53100 11.27300 32.34300
C  43.30600 10.52100 32.90900
C  43.83700 9.81100 34.08500
O  44.28600 8.68100 33.94400
O  43.59400 10.51600 35.22400
C  44.01900 9.87700 36.45400
H  37.22400 7.43800 32.78200
H  38.11000 6.20800 26.38200
H  43.68800 9.17900 26.70100
H  41.27300 9.00700 34.72300
H  38.43400 8.89900 34.51100
H  40.49100 7.05400 35.38500
H  39.51500 6.16600 34.24500
H  38.86800 7.07000 35.70600
H  39.28100 11.20400 33.79600
H  40.89100 11.46200 34.22300
H  39.48900 9.94300 36.40900
H  38.62300 11.41700 35.94500
H  35.57400 6.23900 32.15900
H  35.22900 4.91600 31.10200
H  34.40500 6.53100 30.87700
H  33.77200 6.09000 28.80000
H  34.54400 4.47800 28.60400
H  33.59100 5.25600 27.22800
H  39.56300 7.39800 24.68600
H  42.57200 7.37800 25.07800
H  40.58700 5.69800 23.81300
H  39.74500 5.03500 25.20000
H  41.48700 5.21100 25.34200
H  41.69200 8.56000 23.47100
H  42.75500 9.53100 24.54700
H  40.16200 10.13500 23.80300
H  41.40700 11.21000 24.31800
H  40.46800 10.34400 25.58600
H  45.56800 11.17400 28.07000
H  45.74100 9.46600 27.78200
H  46.45300 10.25700 29.26400
H  42.83200 11.41100 33.32400
H  45.06700 10.08300 36.67300
H  43.80600 8.81200 36.54400
H  43.41300 10.29300 37.25900
Mg 6.47600 57.00700 41.62800
C  6.03400 53.36500 41.83800
C  9.58600 56.22300 40.28100
C  6.83400 60.14800 40.98000
C  3.28000 57.18300 42.80000
N  7.60400 54.95100 40.97600
C  7.22000 53.66300 41.11100
C  8.32300 52.68600 40.65700
C  9.59700 53.62200 40.52700
C  8.93800 55.04800 40.64000
C  10.77100 53.46300 41.61200
C  7.82500 52.02900 39.27900
C  8.04300 50.51600 39.04300
H  7.70700 49.89900 37.64500
N  7.96000 58.00100 40.65100
C  9.18500 57.59100 40.25700
C  9.92100 58.73200 39.60100
C  9.10100 59.92400 39.70600
C  7.89100 59.42100 40.48400
C  11.30100 58.56400 39.11000
C  9.36900 61.29200 39.16600
O  10.31500 61.49200 38.39400
C  8.47700 62.48600 39.48600
N  5.19000 58.43500 41.61000
C  5.63200 59.73900 41.58900
C  4.59500 60.69500 42.22500
C  3.36700 59.75900 42.64800
C  3.95600 58.34200 42.34000
C  5.35300 61.56400 43.30900
C  1.99500 60.05700 41.89900
C  1.79900 61.47600 41.18900
N  5.01000 55.60000 42.36100
C  3.72400 55.88200 42.79100
C  3.12700 54.70500 43.34900
C  3.99100 53.67800 43.00300
C  5.13500 54.29700 42.38200
C  1.84400 54.65700 44.12900
C  4.14000 52.23500 43.05200
O  3.41200 51.36200 43.47900
C  5.44500 51.92500 42.14800
C  5.01300 51.09500 40.99500
O  4.23400 51.48200 40.12100
O  5.43900 49.79300 41.16100
C  4.88100 48.81300 40.22000
H  10.64200 56.16400 40.01000
H  6.75900 61.22500 40.81500
H  2.35600 57.25000 43.37800
H  8.46700 51.88900 41.38700
H  10.04500 53.61200 39.53300
H  10.67200 52.59400 42.26300
H  10.87600 54.37700 42.19700
H  11.75500 53.43200 41.14300
H  8.48400 52.45100 38.52000
H  6.80700 52.38900 39.12900
H  7.50400 50.03800 39.86000
H  9.08700 50.23900 39.18800
H  11.97100 58.04000 39.79100
H  11.62900 59.58300 38.90300
H  11.40700 58.09200 38.13300
H  8.35100 62.46900 40.56800
H  7.53600 62.55800 38.94100
H  8.98600 63.41200 39.22000
H  4.25400 61.42800 41.49400
H  3.24200 59.85200 43.72600
H  6.41100 61.30700 43.26500
H  5.02400 61.26400 44.30400
H  5.17500 62.62800 43.14800
H  1.17100 59.92200 42.60000
H  1.93400 59.28600 41.13100
H  2.43700 61.69500 40.33300
H  1.80000 62.33300 41.86200
H  0.77400 61.30900 40.85800
H  1.18000 55.50800 43.97200
H  2.12900 54.68000 45.18000
H  1.35600 53.69100 43.99400
H  6.22700 51.36900 42.66400
H  4.04000 49.10900 39.59300
H  4.60500 48.00900 40.90100
H  5.60500 48.46900 39.48100

