158

Mg 16.11400 51.57600 26.29600
C  18.17000 50.65200 29.01300
C  13.71400 52.48600 28.42300
C  14.29200 52.22000 23.56200
C  18.60300 50.18800 24.17000
N  16.04000 51.69200 28.47600
C  16.96700 51.26500 29.38200
C  16.41600 51.45700 30.83200
C  14.96600 51.99600 30.60000
C  14.86900 52.04800 29.07400
C  13.77400 51.12400 31.20600
C  17.27900 52.45000 31.55700
C  17.31700 52.56400 33.05600
H  16.36300 51.75300 33.94200
N  14.24500 52.30900 26.06800
C  13.38000 52.70700 27.07300
C  12.27800 53.31600 26.42700
C  12.47300 53.26800 24.98300
C  13.72100 52.55400 24.81500
C  11.09300 53.86700 27.20300
C  11.49100 53.72300 23.90500
O  11.56000 53.53200 22.73300
C  10.20600 54.35100 24.28600
N  16.35600 51.14300 24.14000
C  15.43000 51.47900 23.21500
C  15.77600 50.85700 21.83400
C  17.28000 50.57000 22.04800
C  17.44100 50.65900 23.57600
C  14.91000 49.62300 21.50500
C  18.15400 51.62700 21.35700
C  19.24200 51.02700 20.38500
N  18.06900 50.63100 26.47100
C  18.92600 50.08900 25.50300
C  19.96500 49.39400 26.13600
C  19.81100 49.60200 27.52600
C  18.58800 50.37600 27.66400
C  21.05900 48.64100 25.48500
C  20.31700 49.39100 28.87100
O  21.24900 48.76300 29.23500
C  19.22100 50.10000 29.92200
C  18.83000 49.01300 30.74600
O  18.22500 47.98700 30.32500
O  19.28300 49.22100 32.02700
C  18.89700 48.15800 32.98400
H  12.86300 52.71500 29.06900
H  13.72400 52.46700 22.66300
H  19.41400 49.93800 23.48300
H  16.49900 50.48100 31.31100
H  14.82300 52.94700 31.11200
H  13.07500 50.58400 30.56700
H  13.11200 51.71100 31.84200
H  14.34400 50.46900 31.86400
H  17.02900 53.41500 31.11600
H  18.26500 52.26700 31.12800
H  17.01700 53.60400 33.18100
H  18.34900 52.47400 33.39500
H  10.29800 53.13300 27.07100
H  10.79000 54.90600 27.07600
H  11.26000 53.80900 28.27900
H  9.66100 54.59900 23.37600
H  10.48200 55.35000 24.62400
H  9.49700 53.76900 24.87500
H  15.61500 51.56100 21.01700
H  17.56500 49.55500 21.77300
H  14.05800 49.49900 22.17300
H  15.37700 48.64900 21.65200
H  14.63700 49.56000 20.45200
H  18.68100 52.22300 22.10100
H  17.63500 52.41400 20.80900
H  19.59000 51.69600 19.59700
H  19.02300 50.06200 19.92800
H  20.09900 50.69700 20.97200
H  21.07500 48.69900 24.39700
H  21.05200 47.58700 25.76300
H  21.99900 49.03700 25.87000
H  19.70700 50.93700 30.42400
H  19.76600 47.51900 33.13600
H  18.11200 47.46100 32.69000
H  18.65800 48.66400 33.92000
Mg 0.04100 44.20000 26.17300
C  1.78900 43.32200 29.05800
C  -2.86400 43.21000 27.87800
C  -1.67000 44.33900 23.27400
C  3.02600 44.86700 24.69900
N  -0.43900 43.17300 28.23300
C  0.40300 43.07600 29.27600
C  -0.30800 42.93000 30.66100
C  -1.78900 42.74400 30.13500
C  -1.73700 43.09300 28.64300
C  -2.43800 41.39300 30.43000
C  -0.11800 44.11400 31.53200
C  0.14600 43.91800 32.99700
H  -0.27800 42.55500 33.68500
N  -2.03900 44.05200 25.67700
C  -3.02700 43.64000 26.46100
C  -4.25300 43.63900 25.75600
C  -3.93100 43.98200 24.40400
C  -2.47900 44.13500 24.40000
C  -5.56000 43.30500 26.35500
C  -4.85700 44.28700 23.20000
O  -4.40800 44.73800 22.16900
C  -6.35400 43.98100 23.25300
N  0.56800 44.44100 24.27900
C  -0.31000 44.66300 23.21500
C  0.32900 45.21900 21.97800
C  1.76200 45.58300 22.58800
C  1.80300 44.95400 23.96800
C  0.39400 44.06500 20.87200
C  2.14100 47.06800 22.56300
C  3.47800 47.39200 21.90900
N  1.99700 44.11000 26.72000
C  3.11400 44.39800 26.03600
C  4.35200 44.21700 26.79900
C  3.87100 43.85000 28.08800
C  2.48000 43.79100 27.93300
C  5.84800 44.35500 26.37500
C  4.26100 43.49500 29.43300
O  5.31400 43.37100 29.96000
C  2.94800 43.09200 30.15600
C  3.06900 41.71200 30.73200
O  2.60500 40.64600 30.24600
O  3.98500 41.75700 31.70100
C  4.47700 40.52900 32.40100
H  -3.81600 42.93600 28.33800
H  -2.13600 44.31800 22.28700
H  3.90600 45.26400 24.18900
H  -0.02800 42.01500 31.18400
H  -2.42100 43.51300 30.57800
H  -3.38700 41.55100 30.94100
H  -1.85800 40.78100 31.12100
H  -2.74300 41.01300 29.45500
H  -0.85500 44.91500 31.48200
H  0.73600 44.66500 31.13900
H  -0.16700 44.77100 33.59900
H  1.22900 43.86400 33.10300
H  -6.30500 42.97700 25.63000
H  -5.97200 44.20600 26.80800
H  -5.46500 42.41700 26.97900
H  -6.38900 42.89600 23.35700
H  -6.87100 44.25500 22.33400
H  -6.93300 44.51600 24.00600
H  -0.27800 46.08100 21.70300
H  2.56500 45.09200 22.03900
H  1.38000 44.04900 20.40700
H  -0.30200 44.24800 20.05400
H  0.32100 43.02200 21.17900
H  2.33000 47.52300 23.53600
H  1.36400 47.71400 22.15400
H  3.74600 46.65500 21.15200
H  4.30300 47.56800 22.60000
H  3.38700 48.31400 21.33500
H  6.41900 43.76300 27.09000
H  6.32900 45.33200 26.31800
H  5.83800 43.90100 25.38400
H  2.87200 43.84000 30.94400
H  5.46300 40.74400 32.81400
H  4.42100 39.53000 31.96900
H  3.79100 40.51900 33.24800

