158

Mg 7.73000 2.70800 28.76600
C  9.23400 1.33000 31.77100
C  5.63900 4.42900 30.89000
C  6.01900 3.61700 26.08300
C  9.36100 0.09800 26.97200
N  7.62700 2.95400 31.13300
C  8.27700 2.29900 32.11200
C  7.85400 2.82000 33.56100
C  6.70300 3.80000 33.22500
C  6.57400 3.69900 31.67700
C  5.35800 3.42600 33.94800
C  8.98800 3.56100 34.37200
C  8.63000 4.08600 35.77200
H  8.88800 3.27100 37.07700
N  6.17900 3.87400 28.48900
C  5.43300 4.47400 29.49000
C  4.40700 5.34800 28.87900
C  4.52900 5.17900 27.44700
C  5.57200 4.19200 27.32000
C  3.49900 6.21500 29.65600
C  3.87100 5.86800 26.29300
O  4.12100 5.65700 25.10000
C  2.65600 6.71400 26.51700
N  7.71400 1.97200 26.78700
C  7.07800 2.67800 25.82300
C  7.43100 2.13700 24.44000
C  8.63100 1.08100 24.70500
C  8.59000 1.04400 26.27200
C  6.16800 1.61700 23.80500
C  10.02500 1.50000 24.12600
C  11.10800 2.16600 25.03900
N  9.14300 1.08700 29.15400
C  9.64100 0.09600 28.36100
C  10.58900 -0.64300 29.14800
C  10.46500 -0.26200 30.44800
C  9.56000 0.84900 30.47500
C  11.37800 -1.85300 28.60900
C  10.91500 -0.51900 31.80700
O  11.67400 -1.35700 32.25700
C  10.15100 0.50100 32.69500
C  9.38000 -0.28800 33.64400
O  8.47900 -1.02400 33.39200
O  9.86000 -0.16600 34.97100
C  9.27200 -0.98400 36.02100
H  5.02400 5.12000 31.47100
H  5.52200 3.86000 25.14200
H  9.81800 -0.71700 26.40800
H  7.42600 2.03600 34.18600
H  6.93200 4.84000 33.46000
H  4.59000 2.94600 33.34100
H  4.89200 4.32400 34.35300
H  5.43400 2.60700 34.66300
H  9.46900 4.36800 33.81900
H  9.84000 2.90700 34.55400
H  7.54700 3.99300 35.85300
H  8.91400 5.12500 35.93900
H  3.74200 6.37300 30.70700
H  2.58800 5.65500 29.86400
H  3.42200 7.17600 29.14600
H  2.22600 6.93100 25.53900
H  2.95000 7.69600 26.89000
H  1.99200 6.21200 27.22100
H  7.87700 2.95700 23.87700
H  8.34700 0.08400 24.36700
H  5.34100 1.54800 24.51200
H  6.30600 0.63400 23.35600
H  5.88400 2.34800 23.04800
H  9.91300 2.30500 23.39900
H  10.58600 0.67400 23.68900
H  10.72600 2.29300 26.05200
H  11.30900 3.19200 24.73100
H  11.98500 1.51900 25.01800
H  12.18000 -1.97400 29.33600
H  11.73100 -1.76200 27.58200
H  10.71300 -2.70700 28.74400
H  10.88300 1.15400 33.17100
H  9.33700 -0.41900 36.95100
H  9.59600 -2.02200 36.09700
H  8.18800 -0.99700 35.90900
Mg 48.17400 35.13300 27.56800
C  46.22400 33.27900 29.82900
C  48.54400 37.50200 29.99900
C  49.71700 36.95600 25.21800
C  47.00600 32.94500 25.01600
N  47.48700 35.28900 29.61400
C  46.82200 34.36300 30.36300
C  46.94600 34.59700 31.83100
C  47.31900 36.14500 31.89800
C  47.85600 36.35700 30.40400
C  46.12100 37.13300 32.30000
C  48.06900 33.66500 32.35100
C  48.07800 33.38400 33.85000
H  47.20300 34.29900 34.79900
N  49.08800 36.95500 27.64800
C  49.17700 37.76600 28.75200
C  50.20400 38.76900 28.46000
C  50.63000 38.66000 27.10300
C  49.90200 37.44500 26.62700
C  50.67600 39.82600 29.55900
C  51.57600 39.46300 26.26500
O  51.79100 39.07300 25.09500
C  52.21100 40.66800 26.83800
N  48.24700 35.03500 25.36300
C  49.05200 35.90600 24.70600
C  48.96400 35.61500 23.21900
C  48.41900 34.10700 23.13000
C  47.83100 33.99400 24.59000
C  48.01800 36.58700 22.42700
C  49.39200 32.94300 22.75800
C  50.45400 32.43000 23.64000
N  46.99900 33.42700 27.36400
C  46.57800 32.65300 26.30200
C  45.56400 31.70400 26.67900
C  45.26300 31.99700 28.04700
C  46.24400 32.93800 28.43200
C  44.94500 30.65600 25.73500
C  44.43100 31.63400 29.26500
O  43.53400 30.83800 29.46600
C  45.13400 32.51600 30.48600
C  45.70200 31.34700 31.33700
O  46.45900 30.50000 30.84500
O  45.18200 31.35000 32.58000
C  45.74200 30.39000 33.51600
H  48.79500 38.10900 30.87100
H  50.07800 37.56000 24.38300
H  46.64400 32.20000 24.30500
H  46.06400 34.39000 32.43700
H  48.20300 36.29800 32.51700
H  46.29900 37.68100 33.22500
H  45.14000 36.66400 32.37900
H  46.05200 37.87400 31.50400
H  49.07600 34.03300 32.15500
H  47.84600 32.73400 31.82900
H  49.09700 33.46600 34.22800
H  47.72700 32.36700 34.02600
H  51.66000 39.53400 29.92500
H  49.96800 39.91800 30.38200
H  50.83900 40.78200 29.06100
H  53.02100 40.39700 27.51400
H  51.46500 41.30200 27.31700
H  52.72200 41.32600 26.13500
H  49.94500 35.55500 22.74800
H  47.57500 33.87500 22.48100
H  47.33400 36.95100 23.19400
H  47.59000 36.14600 21.52700
H  48.61400 37.44400 22.11300
H  49.83200 33.21900 21.80100
H  48.90800 32.01700 22.44600
H  51.29500 32.09700 23.03300
H  50.12500 31.56000 24.20800
H  50.72800 33.15200 24.41000
H  44.20800 29.99200 26.18600
H  45.65800 29.95100 25.30600
H  44.44700 31.24600 24.96500
H  44.38900 33.06300 31.06400
H  46.75400 30.11900 33.21600
H  45.05200 29.55300 33.62100
H  45.77900 30.96600 34.44000

