158

Mg 47.05500 25.12900 28.53100
C  48.07500 27.41600 31.05200
C  46.19200 22.88900 30.94000
C  46.50700 22.95000 26.09700
C  48.56600 27.39100 26.20900
N  47.12900 25.12400 30.81900
C  47.49800 26.15800 31.62200
C  47.28200 25.74500 33.08700
C  47.09700 24.21800 32.98300
C  46.70500 24.05100 31.47100
C  48.27700 23.28700 33.28900
C  46.14300 26.55700 33.81400
C  46.60200 27.02500 35.22300
H  45.54700 27.41500 36.24100
N  46.41000 23.11400 28.55500
C  46.04100 22.40200 29.62400
C  45.52600 21.11600 29.16300
C  45.68700 21.07300 27.70800
C  46.24100 22.42100 27.36300
C  45.03000 20.06300 30.07500
C  45.39600 19.94800 26.76400
O  45.46900 20.09400 25.60400
C  44.99500 18.53800 27.16800
N  47.32300 25.20600 26.46100
C  46.91700 24.13700 25.62200
C  47.03500 24.55100 24.16100
C  47.95600 25.84200 24.21400
C  47.97300 26.21000 25.70500
C  47.59200 23.37200 23.29500
C  47.47600 27.07200 23.38400
C  47.66400 26.99300 21.81000
N  48.14700 27.00700 28.55800
C  48.68800 27.78000 27.55100
C  49.26000 28.97000 28.12600
C  49.01400 28.87900 29.44200
C  48.38100 27.64500 29.69700
C  49.95700 30.02400 27.34400
C  49.20700 29.59600 30.73500
O  49.74800 30.66400 30.97300
C  48.55900 28.63700 31.78100
C  49.51000 28.21500 32.81100
O  50.35500 27.32200 32.65000
O  49.37900 28.93700 33.96600
C  50.15900 28.42700 35.02800
H  46.07100 22.07100 31.65300
H  46.10800 22.33000 25.29100
H  49.02600 28.09200 25.50900
H  48.19800 25.90600 33.65600
H  46.27900 23.85000 33.60100
H  48.09100 22.76300 34.22600
H  49.18300 23.84600 33.52100
H  48.58000 22.57600 32.52100
H  45.24500 25.99400 34.06900
H  45.79700 27.35200 33.15300
H  47.17000 27.93200 35.01500
H  47.22900 26.25600 35.67400
H  45.78700 19.28000 30.11300
H  44.10900 19.76300 29.57600
H  44.76200 20.27700 31.11000
H  45.65900 17.99300 27.83900
H  44.84000 17.86500 26.32500
H  44.00800 18.77100 27.56900
H  46.03200 24.79500 23.81100
H  48.96300 25.57500 23.89400
H  47.96600 22.57300 23.93500
H  48.36000 23.62900 22.56500
H  46.76200 22.96600 22.71700
H  47.95200 28.00400 23.69100
H  46.40600 27.18700 23.56300
H  48.22700 27.78300 21.31200
H  46.64800 26.83800 21.44700
H  48.27500 26.13100 21.54400
H  50.35800 29.75900 26.36600
H  50.81100 30.23800 27.98700
H  49.37600 30.94700 27.35400
H  47.68200 29.08300 32.25100
H  51.16300 28.84100 34.93700
H  50.34800 27.35300 35.04900
H  49.67500 28.67500 35.97300
Mg 17.23000 51.43500 25.56100
C  18.81400 50.47200 28.57400
C  14.32100 52.25900 27.54600
C  15.39000 51.95500 22.75200
C  19.70100 50.07200 23.69000
N  16.68000 51.52600 27.79300
C  17.53900 51.04500 28.77400
C  16.98300 51.53400 30.16400
C  15.44500 51.72400 29.83400
C  15.44800 51.86100 28.29700
C  14.54100 50.53600 30.27500
C  17.60400 52.83200 30.71300
C  17.48700 52.99700 32.18900
H  16.39800 52.36400 33.04800
N  15.25600 52.22300 25.25000
C  14.25300 52.51900 26.12100
C  13.15100 53.11700 25.43900
C  13.46100 53.04300 24.08900
C  14.77300 52.42900 23.97700
C  11.93700 53.70400 26.22600
C  12.65700 53.51500 22.90300
O  13.22300 53.53000 21.79800
C  11.28000 54.07900 23.04800
N  17.56900 51.20000 23.51900
C  16.63200 51.32000 22.55400
C  17.18400 50.94100 21.19500
C  18.73400 50.71900 21.49500
C  18.66000 50.62200 23.01900
C  16.44000 49.78000 20.51400
C  19.77700 51.79200 20.85100
C  21.07000 51.21800 20.29400
N  18.90200 50.44900 25.95500
C  19.91700 50.00000 25.12200
C  21.00800 49.47500 25.91600
C  20.70100 49.73200 27.22900
C  19.32000 50.24400 27.24900
C  22.20700 48.64500 25.38800
C  21.14700 49.66400 28.57400
O  22.22300 49.35500 29.03100
C  19.91700 50.18200 29.51100
C  19.51300 49.09200 30.40600
O  19.39500 47.93400 30.06900
O  18.99900 49.65800 31.61100
C  18.38700 48.77700 32.59500
H  13.43600 52.51100 28.13500
H  15.03400 51.95100 21.72000
H  20.47300 49.54600 23.12500
H  16.99000 50.68700 30.85000
H  15.04800 52.68100 30.17100
H  14.56300 49.79700 29.47500
H  13.55800 50.84300 30.63100
H  15.05100 50.01500 31.08600
H  17.13300 53.66800 30.19500
H  18.66400 52.82700 30.45800
H  17.59900 54.05800 32.41200
H  18.41600 52.71800 32.68600
H  11.86300 53.29200 27.23200
H  11.00500 53.44000 25.72600
H  11.95900 54.79300 26.25700
H  10.67100 53.32600 23.54900
H  10.95100 54.05500 22.00900
H  11.22600 55.05100 23.53800
H  17.08200 51.81800 20.55700
H  18.95300 49.70100 21.17400
H  15.47100 49.69100 21.00500
H  17.00400 48.85000 20.57000
H  16.11200 49.87200 19.47800
H  19.90200 52.61900 21.55100
H  19.24200 52.24600 20.01700
H  21.01200 51.14000 19.20800
H  21.37100 50.27100 20.74200
H  21.87100 51.91400 20.54300
H  23.13800 48.96300 25.85800
H  22.29100 48.55200 24.30500
H  21.95800 47.64300 25.73700
H  20.28200 51.01800 30.10800
H  18.39800 49.33000 33.53500
H  19.10200 47.98200 32.80600
H  17.43600 48.34800 32.28100

