158

Mg 2.36700 -0.61900 43.00800
C  5.79900 0.31500 42.70000
C  1.60600 2.58700 41.98400
C  -0.69800 -1.70000 42.79500
C  3.53100 -3.92800 43.78200
N  3.62800 1.21900 42.40400
C  5.00000 1.43400 42.48400
C  5.38700 2.84700 41.98000
C  3.99700 3.58800 42.07300
C  2.97800 2.39700 42.16900
C  3.72200 4.67600 43.20600
C  6.03800 2.77500 40.65900
C  5.73900 1.68000 39.59700
H  5.83000 2.02000 38.05100
N  0.64900 0.33700 42.42500
C  0.50500 1.68000 42.06500
C  -0.93200 1.97900 41.94300
C  -1.59900 0.74200 42.13300
C  -0.57300 -0.28200 42.45100
C  -1.54500 3.28200 41.71800
C  -3.11100 0.48100 42.00100
O  -3.78400 1.43000 41.62600
C  -3.78200 -0.90300 42.22900
N  1.51100 -2.59800 43.16100
C  0.15700 -2.69300 43.15500
C  -0.35400 -4.11300 43.50500
C  1.04800 -4.83400 43.84100
C  2.10700 -3.73400 43.58900
C  -1.42100 -4.22800 44.59100
C  1.34700 -6.19300 42.93400
C  0.60400 -7.41800 43.42100
N  4.24900 -1.67500 43.31000
C  4.53900 -2.98100 43.58900
C  5.93900 -3.14300 43.65100
C  6.40200 -1.90200 43.29100
C  5.39200 -1.02600 43.17300
C  6.81100 -4.31900 43.99700
C  7.63000 -1.23000 43.11500
O  8.78400 -1.65300 43.21900
C  7.27000 0.19800 42.70500
C  7.95600 1.20500 43.56200
O  8.78100 2.04400 43.22000
O  7.39900 1.26200 44.79600
C  8.07000 2.12300 45.82100
H  1.43000 3.64600 41.78700
H  -1.66300 -2.19300 42.65700
H  3.93900 -4.91600 44.00500
H  6.09800 3.31900 42.65800
H  3.84400 4.16500 41.16100
H  2.79400 4.56500 43.76700
H  3.72300 5.70700 42.85300
H  4.50000 4.63600 43.96900
H  7.11800 2.86800 40.76400
H  5.67800 3.56900 40.00500
H  4.67700 1.47100 39.72500
H  6.35600 0.82000 39.86000
H  -1.76600 3.45700 40.66500
H  -0.67500 3.86000 42.03000
H  -2.36100 3.42600 42.42600
H  -3.31100 -1.38000 43.08800
H  -3.53400 -1.32300 41.25400
H  -4.82800 -0.64300 42.39100
H  -0.76000 -4.42700 42.54400
H  1.10900 -5.14200 44.88500
H  -0.93800 -4.27800 45.56700
H  -2.10600 -5.05700 44.41100
H  -1.96700 -3.29500 44.45200
H  2.42500 -6.35400 42.91000
H  0.98900 -5.94400 41.93500
H  0.30500 -7.30400 44.46300
H  1.11300 -8.37800 43.34300
H  -0.31700 -7.62000 42.87400
H  6.56000 -5.24700 43.48300
H  6.92500 -4.50700 45.06400
H  7.81800 -4.22200 43.59100
H  7.73000 0.27800 41.72100
H  9.04000 2.46700 45.46200
H  8.18900 1.60200 46.77100
H  7.40800 2.97900 45.95500
Mg 35.75200 1.44900 29.71000
C  33.21900 2.46300 32.07000
C  38.03900 1.53700 32.35100
C  38.20000 1.07800 27.42000
C  33.40300 2.09900 27.25900
N  35.58800 1.95700 31.89200
C  34.50100 2.26900 32.70800
C  34.72300 2.26500 34.23500
C  36.32100 2.23400 34.19400
C  36.73300 1.85300 32.68900
C  37.02700 3.49700 34.68300
C  34.00000 1.12700 34.89400
C  33.50700 1.41000 36.34600
H  33.75800 2.79000 37.04000
N  37.85300 1.21000 29.86400
C  38.55600 1.16100 31.05900
C  39.91900 0.69600 30.74600
C  39.96600 0.63600 29.31400
C  38.66300 0.96000 28.82100
C  40.93800 0.40800 31.82500
C  41.12000 0.45700 28.37500
O  41.09400 0.51600 27.15900
C  42.47200 0.19200 28.91700
N  35.79100 1.64000 27.63700
C  36.92900 1.41200 26.87500
C  36.63500 1.63400 25.39900
C  35.05500 1.53300 25.34700
C  34.67500 1.77000 26.82800
C  37.14600 2.99800 24.95700
C  34.38100 0.25400 24.76100
C  33.67300 -0.71000 25.74700
N  33.66300 2.04000 29.62600
C  32.90000 2.26300 28.50700
C  31.53700 2.78700 28.93100
C  31.57600 2.79700 30.34200
C  32.89500 2.40700 30.75300
C  30.28600 3.00100 28.09500
C  30.85400 3.13500 31.57800
O  29.72100 3.62800 31.68700
C  31.89400 2.87900 32.77100
C  32.06600 4.16200 33.54000
O  32.85500 5.09200 33.36000
O  31.01700 4.20800 34.40700
C  30.85300 5.51000 35.01000
H  38.69000 1.56700 33.22700
H  38.83000 1.02600 26.53000
H  32.68600 2.44500 26.51100
H  34.50600 3.28500 34.55300
H  36.85700 1.50300 34.79900
H  36.87100 4.24500 33.90500
H  38.10400 3.32900 34.69300
H  36.59800 3.81200 35.63400
H  34.70300 0.29400 34.88700
H  33.10100 0.89100 34.32500
H  34.01200 0.60500 36.87900
H  32.44100 1.18300 36.36400
H  41.52400 1.26700 32.15100
H  41.52700 -0.38400 31.36200
H  40.49700 -0.09100 32.68800
H  42.67000 -0.87600 29.00900
H  42.74200 0.67400 29.85700
H  43.11800 0.60900 28.14400
H  37.10600 0.89600 24.75000
H  34.63800 2.36800 24.78400
H  36.56000 3.60400 24.26700
H  38.10700 2.90900 24.45100
H  37.49300 3.62100 25.78100
H  35.17200 -0.16500 24.13900
H  33.66400 0.55600 23.99700
H  33.44900 -1.68300 25.31000
H  32.66300 -0.36900 25.97300
H  34.08400 -0.84800 26.74700
H  29.56700 2.21800 28.33500
H  30.66000 2.80800 27.08900
H  29.96500 4.03100 28.24700
H  31.48400 2.12700 33.44400
H  30.63200 6.35500 34.35700
H  31.65100 5.79300 35.69500
H  29.97400 5.54500 35.65300

