158

Mg 41.40700 8.15400 29.17900
C  43.32600 9.66500 31.67800
C  39.38700 6.80700 31.64300
C  39.58300 6.61800 26.73800
C  43.94200 8.99600 26.81900
N  41.40600 8.07500 31.36900
C  42.12300 8.95600 32.14600
C  41.63700 9.01300 33.57600
C  40.62900 7.89600 33.57700
C  40.41900 7.58800 32.08000
C  40.88300 6.67600 34.38200
C  41.13000 10.37200 34.06000
C  40.38800 10.31800 35.46900
H  41.00300 10.99000 36.66200
N  39.68100 7.06400 29.16900
C  38.99200 6.55400 30.28100
C  37.69000 6.02300 29.84500
C  37.67400 6.09300 28.45100
C  39.01700 6.65300 28.00900
C  36.70700 5.43400 30.80000
C  36.51600 5.77700 27.44600
O  36.62200 5.71300 26.22800
C  35.14500 5.60000 28.04900
N  41.83600 7.56400 27.14100
C  40.86100 7.05700 26.31700
C  41.43500 6.84500 24.89500
C  42.54700 7.94900 24.89400
C  42.84000 8.22100 26.40100
C  41.92900 5.40100 24.64200
C  42.11100 9.24600 24.11000
C  41.28400 10.35800 24.84400
N  43.24700 9.16300 29.16800
C  44.17400 9.46500 28.13400
C  45.13900 10.29500 28.66700
C  44.84100 10.42500 30.02800
C  43.69400 9.72300 30.31200
C  46.31000 10.87000 27.86900
C  45.31300 11.02200 31.25700
O  46.18600 11.82300 31.51000
C  44.31900 10.47200 32.38900
C  45.00200 9.76200 33.47300
O  45.40300 8.60300 33.46800
O  45.12100 10.62700 34.46300
C  45.41500 9.93800 35.73300
H  38.72700 6.54200 32.47200
H  39.00000 6.07200 25.99300
H  44.54100 9.32800 25.96900
H  42.45500 8.79700 34.26400
H  39.67800 8.27900 33.94800
H  40.59300 5.75400 33.87700
H  40.23300 6.70000 35.25600
H  41.86200 6.55100 34.84500
H  40.52100 10.84500 33.29000
H  41.97800 11.01000 34.30900
H  39.94700 9.35700 35.73500
H  39.55700 11.00900 35.32800
H  35.96600 6.09100 31.25700
H  37.37300 5.04600 31.57100
H  36.22400 4.53800 30.41100
H  35.13100 4.59600 28.47400
H  34.43900 5.49500 27.22500
H  34.73400 6.37400 28.69700
H  40.73000 7.21900 24.15300
H  43.47800 7.57200 24.47200
H  41.98300 5.30400 23.55800
H  41.23300 4.62600 24.96500
H  42.92200 5.21100 25.04900
H  41.64000 9.00200 23.15800
H  43.05600 9.74000 23.88500
H  40.46200 10.66600 24.19800
H  41.93900 11.21100 25.02200
H  40.97700 9.89800 25.78300
H  46.41400 11.94800 27.99700
H  46.15900 10.65300 26.81200
H  47.19300 10.32600 28.20500
H  43.71500 11.26600 32.82900
H  46.12300 9.11100 35.69200
H  44.46400 9.64100 36.17600
H  45.75300 10.65300 36.48200
Mg -0.08400 43.27700 25.07300
C  2.34900 42.30000 27.60100
C  -2.51400 42.39300 27.36600
C  -2.26200 43.76700 22.77900
C  2.63500 43.73700 22.87700
N  -0.09600 42.48200 27.29400
C  1.01700 42.23100 28.07500
C  0.60600 41.95700 29.49200
C  -0.96000 41.66000 29.33400
C  -1.23100 42.23200 27.92400
C  -1.31200 40.16900 29.56200
C  1.08700 43.04700 30.56900
C  0.24700 43.34700 31.76900
H  -0.30200 42.18500 32.67900
N  -2.15900 43.18500 25.04600
C  -2.97500 42.75200 26.04700
C  -4.37300 42.97100 25.57300
C  -4.31300 43.39300 24.21500
C  -2.85800 43.44800 23.93000
C  -5.59000 42.67700 26.42700
C  -5.41300 43.76300 23.25000
O  -5.19700 44.15100 22.08600
C  -6.78300 43.74700 23.75500
N  0.21200 43.70200 23.07700
C  -0.90400 43.94700 22.37200
C  -0.51000 44.40300 21.00000
C  1.07300 44.38200 20.99700
C  1.36000 43.90300 22.38400
C  -1.23100 43.64600 19.78400
C  1.73800 45.78200 20.81700
C  1.66400 46.28400 19.37400
N  2.07300 43.03700 25.10200
C  3.00600 43.35700 24.16800
C  4.35900 43.08700 24.65000
C  4.15400 42.70800 26.01600
C  2.75900 42.79700 26.28700
C  5.63100 43.19800 23.90200
C  4.83500 42.33200 27.29400
O  5.99500 42.13300 27.58300
C  3.66700 42.16100 28.34800
C  3.97800 40.90900 29.02900
O  3.71300 39.80700 28.66400
O  4.51400 41.25400 30.20600
C  4.70500 40.10700 31.09800
H  -3.21100 41.94800 28.07800
H  -2.92700 44.16800 22.01100
H  3.53800 43.92700 22.29300
H  1.13300 41.05700 29.80800
H  -1.59900 42.21600 30.02000
H  -1.71600 39.87200 28.59400
H  -2.01600 40.10000 30.39100
H  -0.46500 39.51600 29.77400
H  1.37100 43.93500 30.00500
H  2.09100 42.77600 30.89600
H  -0.53500 44.02800 31.43200
H  0.84000 43.96100 32.44700
H  -6.10300 43.63500 26.50300
H  -5.24900 42.40500 27.42600
H  -6.28500 41.96900 25.97500
H  -7.06600 44.55800 24.42700
H  -7.00400 42.73300 24.08600
H  -7.49500 43.77900 22.93000
H  -0.82300 45.44600 20.94400
H  1.48000 43.67500 20.27400
H  -1.37600 44.28200 18.91000
H  -2.06600 43.11300 20.23800
H  -0.48500 42.87800 19.57600
H  2.77000 45.76900 21.16700
H  1.34000 46.61100 21.40200
H  0.81200 45.83000 18.86800
H  2.62100 46.05000 18.90700
H  1.43300 47.35000 19.37100
H  5.80800 44.22500 23.58200
H  5.41400 42.57400 23.03500
H  6.54300 42.73700 24.28100
H  3.75600 42.98600 29.05400
H  5.04400 39.23200 30.54300
H  3.84400 39.88400 31.72800
H  5.58500 40.17400 31.73700

