158

Mg 35.90500 1.93400 29.58200
C  33.72500 3.19700 32.10100
C  38.45800 2.22200 31.82600
C  37.96000 0.97500 27.10100
C  33.39800 2.47300 27.37100
N  36.01400 2.56300 31.72500
C  34.99400 2.91900 32.56700
C  35.43000 3.03500 34.03800
C  36.99800 2.89400 33.93500
C  37.21600 2.48300 32.42500
C  37.86000 4.16900 34.37600
C  34.77900 1.88300 34.94200
C  34.11200 2.39700 36.18400
H  34.81300 3.36900 37.13800
N  37.93700 1.75800 29.41300
C  38.77500 1.85500 30.45000
C  40.13800 1.57300 29.94600
C  39.99200 1.04800 28.58400
C  38.57600 1.23800 28.29600
C  41.36800 1.54900 30.76200
C  41.07700 0.58500 27.63000
O  40.84200 0.47300 26.42700
C  42.46100 0.33200 28.18000
N  35.65000 1.45600 27.61900
C  36.65200 1.18200 26.73500
C  36.18600 1.06800 25.27400
C  34.67400 1.57200 25.41900
C  34.52100 1.75300 26.90600
C  36.99500 1.96100 24.33100
C  33.58800 0.71100 24.85500
C  33.40500 -0.70800 25.48700
N  33.90200 2.52200 29.70600
C  33.06100 2.78900 28.70800
C  31.82900 3.40300 29.14600
C  31.98500 3.49900 30.52900
C  33.29100 3.04700 30.77200
C  30.53100 3.68900 28.29100
C  31.36100 3.92100 31.72700
O  30.31600 4.48900 31.91400
C  32.45400 3.65800 32.82600
C  32.65600 5.00300 33.43700
O  33.21500 5.94200 32.94200
O  32.01100 5.03800 34.63300
C  31.89200 6.27700 35.33400
H  39.26900 2.35000 32.54600
H  38.67800 0.66400 26.34000
H  32.69800 2.74700 26.57800
H  35.09600 4.01800 34.36800
H  37.37300 2.08500 34.56300
H  38.60100 3.94700 35.14300
H  37.23400 4.97700 34.75500
H  38.39400 4.66800 33.56700
H  35.50700 1.16700 35.32300
H  33.97800 1.34500 34.43500
H  33.78300 1.51200 36.72800
H  33.17200 2.84200 35.85500
H  41.25900 1.86700 31.79900
H  41.99300 2.35100 30.37100
H  41.84000 0.56700 30.76000
H  42.80700 1.17800 28.77400
H  43.17100 0.18900 27.36500
H  42.43900 -0.61400 28.72100
H  36.16500 0.06700 24.84400
H  34.59300 2.56100 24.96800
H  36.81100 1.56900 23.33100
H  38.05300 1.93300 24.59200
H  36.66300 2.99600 24.41500
H  33.83200 0.52600 23.80900
H  32.65600 1.27500 24.85600
H  33.60700 -1.30000 24.59400
H  32.37100 -0.75700 25.82800
H  34.06400 -0.91200 26.33100
H  30.23600 4.70500 28.02600
H  29.65000 3.29100 28.79400
H  30.68600 3.18200 27.33900
H  32.02700 3.00900 33.59100
H  31.57100 6.10400 36.36200
H  31.19900 6.93400 34.80900
H  32.85900 6.76200 35.46200
Mg 47.20200 16.98200 28.62400
C  44.95100 16.48600 31.43800
C  48.96200 19.19800 30.50100
C  48.66900 17.89900 25.74600
C  44.87400 15.19000 26.74700
N  46.95900 17.73900 30.78700
C  46.10600 17.30000 31.77400
C  46.45500 17.84800 33.16900
C  47.62600 18.75100 32.73300
C  47.91000 18.58400 31.26200
C  47.35600 20.28700 32.92500
C  46.75100 16.65000 34.05600
C  46.11200 16.61900 35.46500
H  45.81700 18.00400 36.13900
N  48.55900 18.40200 28.22100
C  49.17600 19.21400 29.10800
C  50.09800 20.03300 28.32200
C  50.07600 19.60200 27.00300
C  49.02300 18.64900 26.94000
C  51.09400 20.92300 29.00000
C  50.95300 19.97300 25.78800
O  50.87300 19.43100 24.69700
C  52.00500 20.95100 25.86500
N  46.73800 16.61900 26.62200
C  47.58600 17.04800 25.64700
C  47.38200 16.39400 24.33500
C  46.13200 15.46800 24.56300
C  45.86500 15.78600 26.03300
C  47.30500 17.30500 23.03500
C  46.41500 14.02900 24.11700
C  45.41300 13.36400 23.11300
N  45.30800 15.94000 28.96000
C  44.50900 15.24400 28.09900
C  43.39300 14.69500 28.83100
C  43.50900 15.15000 30.16500
C  44.72700 15.91600 30.18000
C  42.20100 13.99000 28.29500
C  42.84800 15.22800 31.43300
O  41.83100 14.70200 31.92800
C  43.78700 16.00200 32.41100
C  42.98700 17.14800 32.94400
O  42.39700 17.99200 32.28400
O  42.84300 17.00400 34.30900
C  42.12000 18.14700 34.88300
H  49.62000 19.78900 31.14100
H  49.31700 17.89700 24.86700
H  44.33900 14.56500 26.02900
H  45.60100 18.43400 33.50900
H  48.50800 18.49000 33.31800
H  46.43400 20.52500 33.45600
H  47.25800 20.70900 31.92500
H  48.18100 20.71000 33.49900
H  47.81800 16.54100 34.24800
H  46.37100 15.75100 33.57000
H  46.77900 16.04100 36.10400
H  45.11000 16.19400 35.39700
H  51.06600 21.13600 30.06900
H  51.06100 21.87100 28.46300
H  52.03700 20.43000 28.76600
H  51.56800 21.88400 26.21900
H  52.40800 21.15400 24.87300
H  52.84600 20.60800 26.46800
H  48.21300 15.74000 24.07000
H  45.36100 16.02100 24.02800
H  46.36800 17.26400 22.47900
H  48.16300 17.00200 22.43500
H  47.44800 18.37400 23.19100
H  46.70600 13.35300 24.92100
H  47.38100 14.04400 23.61200
H  44.46200 13.86200 23.30200
H  45.29900 12.29400 23.28800
H  45.75100 13.61300 22.10700
H  42.39200 13.65300 27.27600
H  41.29300 14.59200 28.27300
H  42.01000 13.04900 28.81200
H  44.10600 15.34000 33.21600
H  42.70700 19.03000 34.63300
H  42.03300 18.08000 35.96800
H  41.12700 18.23700 34.44400

