158

Mg 46.65500 25.53300 29.04100
C  48.02300 27.77400 31.53700
C  46.03500 23.43300 31.76600
C  46.03600 23.14400 26.85700
C  47.92900 27.68900 26.74700
N  46.92800 25.67200 31.43800
C  47.39500 26.69500 32.16200
C  47.14300 26.48700 33.67400
C  46.79400 24.96100 33.73400
C  46.52100 24.71000 32.21800
C  47.74300 24.08400 34.50300
C  46.10400 27.35400 34.28500
C  46.43800 27.99200 35.62000
H  45.44300 28.00900 36.82400
N  45.94000 23.62200 29.28900
C  45.80400 22.93900 30.44600
C  45.30100 21.58600 30.13000
C  45.29100 21.53100 28.73400
C  45.77300 22.80400 28.19500
C  44.70100 20.69000 31.10500
C  45.05500 20.34500 27.84600
O  45.12800 20.36500 26.64800
C  44.64000 19.05200 28.42100
N  46.91700 25.43300 27.02800
C  46.55200 24.36000 26.26600
C  46.79900 24.71800 24.81700
C  47.17100 26.16900 24.80100
C  47.40800 26.41500 26.29500
C  47.79700 23.74400 24.06600
C  46.10500 27.17000 24.21700
C  46.51000 27.83600 22.87500
N  47.70100 27.41400 29.05600
C  48.12700 28.18100 28.05000
C  48.70600 29.41900 28.52700
C  48.66700 29.28500 29.91900
C  48.14600 28.04000 30.15000
C  49.33500 30.54200 27.72100
C  48.96200 29.89700 31.10900
O  49.46400 30.99500 31.42400
C  48.58200 28.98400 32.23200
C  49.72200 28.47900 33.08100
O  50.47300 27.58300 32.88100
O  49.63400 29.17500 34.26300
C  50.45500 28.72800 35.40500
H  45.96800 22.70400 32.57600
H  45.62600 22.58000 26.01600
H  48.16000 28.35600 25.91400
H  48.12100 26.66800 34.12000
H  45.84700 24.87400 34.26600
H  47.30800 23.58300 35.36700
H  48.60300 24.59300 34.93800
H  48.15700 23.29300 33.87800
H  45.15400 26.83200 34.40300
H  45.82100 28.11000 33.55200
H  46.42200 29.02000 35.25600
H  47.46800 27.81200 35.92800
H  45.55800 20.08300 31.39500
H  43.82500 20.14600 30.75100
H  44.55300 21.15900 32.07800
H  43.56400 19.09800 28.59100
H  45.25900 18.77600 29.27400
H  44.87800 18.29000 27.67900
H  45.81200 24.58400 24.37400
H  48.14300 26.32800 24.33500
H  48.66400 24.30900 23.72300
H  47.28000 23.46700 23.14800
H  48.11100 22.88500 24.65900
H  46.00500 27.97700 24.94300
H  45.12200 26.71900 24.08600
H  47.55900 27.65300 22.64200
H  46.32300 28.90900 22.91100
H  45.88000 27.37200 22.11600
H  50.23900 30.12700 27.27600
H  49.62000 31.45200 28.24900
H  48.64400 30.71700 26.89600
H  47.89400 29.60000 32.81100
H  51.47900 29.10100 35.38900
H  50.56400 27.64300 35.43300
H  50.14600 29.16300 36.35500
Mg 1.69400 42.35600 25.22000
C  3.23400 42.49500 28.25700
C  -1.16900 41.34900 26.87900
C  0.06600 42.43900 22.24700
C  4.65200 43.25100 23.59500
N  1.14900 41.85000 27.32800
C  1.89500 42.07500 28.41400
C  1.17100 41.84000 29.71600
C  -0.24400 41.45900 29.21900
C  -0.14200 41.57500 27.70500
C  -0.83900 40.14000 29.80000
C  1.20300 43.03000 30.60300
C  2.03700 43.08700 31.99400
H  1.08200 43.16900 33.24100
N  -0.29500 41.91400 24.66900
C  -1.28400 41.48600 25.48600
C  -2.48500 41.39700 24.64700
C  -2.12700 41.71300 23.27700
C  -0.72700 42.02100 23.33300
C  -3.81100 40.85100 25.16500
C  -3.02500 41.82600 22.04800
O  -2.55700 41.93400 20.93100
C  -4.46300 41.80700 22.34500
N  2.29300 42.59900 23.17700
C  1.39700 42.74500 22.16400
C  2.14400 43.21100 20.87500
C  3.59400 43.53600 21.36700
C  3.49300 43.15900 22.82500
C  2.08000 42.14500 19.73900
C  3.85600 45.03500 21.27900
C  4.04300 45.56400 19.86000
N  3.60000 42.66300 25.76500
C  4.71600 42.99100 25.02300
C  5.87400 43.12000 25.88400
C  5.30800 42.96000 27.17900
C  3.96500 42.71000 27.04000
C  7.36000 43.33800 25.54200
C  5.69000 42.99700 28.56200
O  6.76200 43.29800 28.98900
C  4.36300 42.64500 29.37100
C  4.72600 41.31900 30.05300
O  4.94400 40.26500 29.51200
O  4.94200 41.54100 31.41700
C  5.19000 40.32900 32.23100
H  -2.05600 41.12100 27.47400
H  -0.43400 42.48700 21.27800
H  5.58900 43.64000 23.19400
H  1.62100 41.02700 30.28700
H  -0.93200 42.23300 29.55900
H  -0.29200 39.79600 30.67800
H  -0.86100 39.30200 29.10200
H  -1.83600 40.37100 30.17300
H  0.18300 43.13200 30.97200
H  1.51400 43.84800 29.95200
H  2.74400 43.90700 31.87000
H  2.57700 42.14800 32.10700
H  -4.54200 41.63200 24.95700
H  -3.83100 40.84400 26.25500
H  -4.01700 39.88300 24.70900
H  -4.94500 42.12000 21.41900
H  -4.77000 42.47800 23.14600
H  -4.77500 40.76400 22.40100
H  1.71700 44.12600 20.46500
H  4.34500 43.02400 20.76500
H  1.38300 41.33500 19.95300
H  3.11000 41.79600 19.67300
H  1.87700 42.48100 18.72200
H  4.81900 45.09200 21.78500
H  3.11500 45.65400 21.78600
H  3.36900 46.41300 19.74500
H  3.81600 44.80500 19.11100
H  5.06500 45.82600 19.58600
H  7.86500 43.96500 26.27700
H  7.49400 43.70300 24.52400
H  7.95700 42.44100 25.70500
H  4.19100 43.43800 30.09900
H  6.26500 40.14700 32.20100
H  4.50900 39.54700 31.89900
H  4.88900 40.41700 33.27500

