158

Mg 29.48100 59.93400 41.06900
C  26.28200 58.75500 40.04200
C  30.88300 57.09400 39.67000
C  32.36700 61.47000 41.22700
C  27.76700 63.12400 41.66000
N  28.65000 58.20300 39.96600
C  27.34600 57.92400 39.63200
C  27.28400 56.67200 38.88300
C  28.74600 56.03100 39.12600
C  29.44900 57.19000 39.68900
C  28.74000 54.97300 40.21200
C  26.85600 56.77600 37.40100
C  26.06600 55.56600 36.85700
H  26.42900 55.08300 35.53000
N  31.37000 59.29000 40.73600
C  31.78100 58.11300 40.17800
C  33.22700 58.04000 40.19600
C  33.69300 59.28500 40.63000
C  32.46000 60.07300 40.97500
C  34.00100 56.86400 39.72700
C  35.13500 59.64200 40.81500
O  36.02100 58.84200 40.55100
C  35.67500 60.93100 41.35700
N  30.02200 62.06500 41.32600
C  31.34000 62.31400 41.40900
C  31.60800 63.77900 41.61200
C  30.17700 64.28600 42.02900
C  29.18400 63.15200 41.61600
C  32.59500 64.11500 42.77800
C  29.83600 65.59000 41.27300
C  30.06200 66.87000 42.16100
N  27.48900 60.83400 40.99200
C  26.97900 62.07000 41.29200
C  25.50800 61.94400 41.35900
C  25.20900 60.66400 40.88500
C  26.43000 60.04500 40.63000
C  24.44400 63.00900 41.72000
C  24.18800 59.74300 40.55300
O  22.96100 59.83600 40.72500
C  24.77900 58.45800 39.98700
C  24.42300 57.17500 40.60900
O  24.20800 56.90100 41.77600
O  24.08700 56.32000 39.63400
C  23.44200 54.96700 39.96600
H  31.31200 56.12400 39.41000
H  33.35100 61.94200 41.26600
H  27.36300 64.08400 41.98800
H  26.48600 56.00400 39.20700
H  29.18200 55.76000 38.16400
H  27.77300 54.83300 40.69600
H  29.44900 55.07400 41.03400
H  28.94400 54.01200 39.73900
H  27.81400 56.93500 36.90600
H  26.30700 57.66000 37.07800
H  25.01600 55.84200 36.76700
H  26.18900 54.62300 37.39000
H  34.52500 57.10100 38.80100
H  33.38000 55.96900 39.70300
H  34.76200 56.73100 40.49700
H  35.57000 61.71500 40.60800
H  36.73300 60.81800 41.59200
H  35.21600 61.29900 42.27500
H  31.93200 64.19400 40.65700
H  29.97200 64.41400 43.09200
H  32.73300 63.28400 43.47000
H  32.32600 65.04900 43.27200
H  33.52000 64.30600 42.23300
H  28.80500 65.67800 40.93100
H  30.48900 65.71500 40.41000
H  31.04700 67.29500 41.97100
H  30.11900 66.59800 43.21500
H  29.26200 67.60900 42.10000
H  24.26000 63.44100 40.73600
H  24.78700 63.76900 42.42200
H  23.60900 62.44600 42.13600
H  24.39200 58.44800 38.96800
H  23.51900 54.37300 39.05500
H  22.37700 55.12600 40.13800
H  23.89200 54.41000 40.78900
Mg -4.97700 24.27600 25.90900
C  -3.44400 26.18000 28.48000
C  -6.21600 22.19800 28.42300
C  -6.65100 22.73600 23.60900
C  -3.71200 26.57800 23.64000
N  -4.91600 24.30700 28.12300
C  -4.25100 25.15700 28.91200
C  -4.65700 24.90600 30.36800
C  -5.06400 23.45200 30.38800
C  -5.41400 23.29200 28.87100
C  -4.11600 22.41800 30.92800
C  -5.67800 25.98700 30.87900
C  -5.48400 26.41200 32.29100
H  -4.92000 25.40600 33.31600
N  -6.33900 22.67200 26.07000
C  -6.58300 21.87900 27.11100
C  -7.44600 20.77500 26.67000
C  -7.59800 20.88500 25.22700
C  -6.86300 22.11100 24.91600
C  -7.97800 19.66900 27.66100
C  -8.20900 19.90600 24.20500
O  -8.30900 20.17800 23.02800
C  -8.41600 18.49700 24.77100
N  -5.19700 24.60900 23.90600
C  -6.05400 23.90300 23.15300
C  -6.16900 24.43000 21.72900
C  -5.15400 25.55400 21.70700
C  -4.69900 25.63800 23.16400
C  -5.87300 23.33200 20.64500
C  -5.65300 26.94500 21.19100
C  -4.81400 27.74800 20.23500
N  -3.75600 25.92800 25.91700
C  -3.25200 26.78800 24.94000
C  -2.55300 27.87600 25.49800
C  -2.52100 27.56000 26.86500
C  -3.32300 26.40100 27.10800
C  -1.82200 28.95800 24.85800
C  -2.00500 28.06700 28.10400
O  -1.28000 29.01800 28.44200
C  -2.66400 27.27700 29.18200
C  -1.64500 26.83000 30.21800
O  -0.54700 26.36400 29.95500
O  -2.07000 27.09200 31.49100
C  -1.09900 26.88500 32.57600
H  -6.68200 21.56300 29.18000
H  -7.12900 22.22200 22.77200
H  -3.28800 27.27200 22.91200
H  -3.78400 24.90500 31.02100
H  -5.94600 23.46200 31.02800
H  -3.39400 22.03700 30.20600
H  -4.78400 21.60100 31.20300
H  -3.59300 22.77100 31.81600
H  -6.68500 25.57700 30.80200
H  -5.60700 26.88100 30.25900
H  -6.37900 26.82800 32.75400
H  -4.81100 27.26600 32.21200
H  -8.98000 19.27800 27.48500
H  -8.11800 20.11500 28.64600
H  -7.33900 18.79800 27.80500
H  -7.45800 18.22900 25.21700
H  -8.43700 17.78200 23.94800
H  -9.32200 18.36600 25.36300
H  -7.12800 24.91100 21.53600
H  -4.28000 25.36700 21.08300
H  -5.26800 23.73700 19.83400
H  -6.80400 22.85100 20.34600
H  -5.47100 22.44500 21.13400
H  -6.00700 27.50900 22.05400
H  -6.53400 26.80400 20.56400
H  -4.83600 28.79700 20.53000
H  -5.25200 27.72500 19.23700
H  -3.72700 27.66900 20.18900
H  -0.75600 28.73300 24.88700
H  -1.94000 29.85200 25.47100
H  -2.09700 29.25800 23.84700
H  -3.38100 27.97000 29.62300
H  -0.75700 25.85900 32.71200
H  -1.70700 27.23000 33.41200
H  -0.27700 27.59300 32.67800

