158

Mg 35.86600 1.56300 30.44600
C  33.45300 2.25300 32.80500
C  38.24000 1.87000 32.92900
C  38.25800 1.15300 28.06400
C  33.45600 1.97300 27.85800
N  35.79300 2.06800 32.59300
C  34.70300 2.15500 33.38300
C  35.03500 2.24700 34.82400
C  36.58400 2.59600 34.83500
C  36.88300 2.10100 33.37000
C  36.82300 4.09900 35.15400
C  34.63900 1.00400 35.56500
C  33.95200 1.09500 36.91000
H  34.53700 2.24200 37.77700
N  37.93700 1.31800 30.54800
C  38.79400 1.41800 31.62700
C  40.19500 1.06200 31.21200
C  40.18400 0.92000 29.82400
C  38.73700 1.18500 29.39100
C  41.31100 1.09600 32.25500
C  41.35000 0.58600 28.88500
O  41.20600 0.42700 27.70600
C  42.77100 0.12100 29.49000
N  35.87400 1.81100 28.22400
C  36.95800 1.33600 27.56800
C  36.63000 1.22800 26.07900
C  35.10400 1.46400 25.98200
C  34.74900 1.70800 27.40200
C  37.57500 2.07100 25.10000
C  34.34200 0.34900 25.09700
C  33.70000 -0.76500 25.96400
N  33.87300 2.13100 30.28000
C  33.01500 2.13400 29.18200
C  31.67800 2.35100 29.67600
C  31.78900 2.39400 31.07000
C  33.12400 2.31700 31.38900
C  30.46500 2.59000 28.73100
C  31.05400 2.53500 32.26700
O  29.84500 2.71600 32.51500
C  32.15300 2.52600 33.48000
C  32.05900 3.87300 34.05700
O  32.69700 4.85400 33.73500
O  31.25400 3.80300 35.19600
C  31.27500 5.01200 36.15600
H  38.95300 2.07000 33.73200
H  39.01900 0.87900 27.32900
H  32.68200 1.77700 27.11200
H  34.44700 3.08100 35.20600
H  37.13800 1.95300 35.51800
H  37.09900 4.15000 36.20800
H  35.88900 4.64900 35.03900
H  37.62400 4.45800 34.50900
H  35.50900 0.40700 35.83900
H  34.23300 0.33200 34.80900
H  34.03700 0.12700 37.40500
H  32.92800 1.24900 36.57000
H  41.76800 0.11700 32.39900
H  40.84300 1.37500 33.19900
H  42.08500 1.81400 31.98300
H  43.28100 1.02000 29.83700
H  43.41600 -0.30500 28.72200
H  42.65200 -0.68200 30.21700
H  36.79100 0.16900 25.87300
H  34.93600 2.41900 25.48300
H  38.50500 2.38800 25.57100
H  37.04400 2.98300 24.82800
H  37.82700 1.53100 24.18700
H  34.97200 -0.04900 24.30200
H  33.43200 0.76900 24.66800
H  32.63800 -0.84100 25.73000
H  33.83500 -0.64500 27.03900
H  34.15500 -1.74000 25.79300
H  30.06700 1.64600 28.35700
H  30.73300 3.15900 27.84100
H  29.64300 3.10500 29.22700
H  31.94600 1.77800 34.24600
H  30.25500 5.34500 36.35200
H  31.82700 5.85700 35.74400
H  31.78200 4.73000 37.07900
Mg 9.20400 48.44300 25.27500
C  7.07100 48.20800 28.00900
C  11.68300 49.27800 27.43000
C  11.23800 48.36200 22.68200
C  6.49300 47.96800 23.11900
N  9.29100 48.60300 27.57800
C  8.30000 48.56000 28.43900
C  8.75300 48.89000 29.85100
C  10.17700 49.63000 29.53800
C  10.44700 49.07100 28.09700
C  10.20600 51.14900 29.69100
C  8.76900 47.65200 30.77000
C  9.68400 47.61800 32.01800
H  9.08200 47.61800 33.47700
N  11.25100 48.75200 25.06700
C  12.11300 49.15200 26.06300
C  13.46600 49.27200 25.44500
C  13.31000 48.92700 24.04800
C  11.86900 48.72000 23.87100
C  14.67800 49.42300 26.29400
C  14.34300 48.66900 23.01400
O  14.23300 48.36600 21.83600
C  15.75400 48.63900 23.50900
N  8.84200 48.22900 23.12700
C  9.82100 48.12600 22.27400
C  9.52600 47.56800 20.85600
C  7.94700 47.52500 21.02600
C  7.71700 47.88800 22.51100
C  9.90700 48.41500 19.63500
C  7.25400 46.18800 20.66000
C  5.77200 46.17500 20.27200
N  7.25900 48.19700 25.44500
C  6.25000 48.02600 24.49000
C  5.01400 47.88800 25.19600
C  5.29800 47.88600 26.54300
C  6.67900 48.07400 26.65800
C  3.60600 47.71600 24.48500
C  4.63500 47.89700 27.85300
O  3.45600 47.79300 28.22400
C  5.80200 48.03900 28.87700
C  5.75000 46.76000 29.64600
O  6.35400 45.77000 29.24700
O  5.07000 46.89600 30.83200
C  5.25200 45.67900 31.71000
H  12.42800 49.77800 28.05200
H  11.93400 48.39700 21.84100
H  5.63300 47.76400 22.47700
H  8.02100 49.63400 30.16400
H  11.05200 49.17200 29.99900
H  9.22600 51.60800 29.82000
H  10.70600 51.58700 28.82800
H  10.75300 51.47900 30.57400
H  9.00600 46.77800 30.16400
H  7.76700 47.62800 31.20000
H  10.35300 48.47600 31.95500
H  10.21800 46.67200 31.92200
H  14.48500 49.40900 27.36600
H  15.17700 50.34300 25.99000
H  15.34700 48.58700 26.09300
H  16.02100 47.82600 24.18400
H  15.82400 49.62200 23.97500
H  16.44500 48.60000 22.66700
H  9.91900 46.56500 20.68900
H  7.52900 48.30100 20.38600
H  10.02300 49.42700 20.02200
H  9.12600 48.55600 18.88700
H  10.86200 48.05400 19.25300
H  7.26700 45.66100 21.61400
H  7.80900 45.78600 19.81200
H  5.13300 45.50000 20.84100
H  5.62700 46.06200 19.19800
H  5.29800 47.12900 20.50100
H  3.59400 47.03000 23.63800
H  3.56500 48.76800 24.20400
H  2.79200 47.36400 25.11800
H  5.61800 48.99400 29.36900
H  4.95900 45.94600 32.72500
H  6.28600 45.35600 31.83000
H  4.58800 44.85500 31.44700

