158

Mg 6.45200 53.97800 42.69000
C  5.62200 50.69400 42.19600
C  9.31300 53.58600 40.69000
C  6.86400 57.42600 42.53800
C  3.10600 54.55400 43.83400
N  7.39000 52.33100 41.70800
C  6.86100 51.11000 41.54400
C  7.83200 50.19700 40.78500
C  9.16500 51.03800 40.72700
C  8.67000 52.41700 41.14900
C  10.39900 50.49800 41.57500
C  7.32400 49.64900 39.41100
C  6.52900 50.69900 38.50300
H  6.59200 50.54700 36.93400
N  8.01700 55.30000 41.93500
C  9.07000 54.91100 41.15300
C  9.89300 56.09500 40.97300
C  9.30200 57.19200 41.54600
C  7.99300 56.72000 42.08300
C  11.26000 56.03000 40.27200
C  9.92700 58.62300 41.59800
O  11.06200 58.84600 41.19600
C  9.26400 59.79700 42.40900
N  5.16100 55.68800 43.06800
C  5.55800 56.99800 42.96100
C  4.53000 58.01400 43.44000
C  3.25200 57.12600 43.47500
C  3.82500 55.71900 43.48400
C  5.03400 58.75200 44.82700
C  2.16400 57.32500 42.31700
C  0.99500 58.19700 42.64000
N  4.73000 52.92600 43.05300
C  3.53600 53.19400 43.69000
C  2.85200 51.96100 44.01200
C  3.57600 50.98500 43.32400
C  4.74800 51.60900 42.82000
C  1.60000 51.84400 44.80600
C  3.56900 49.52900 43.20600
O  2.88400 48.61000 43.59400
C  5.04600 49.22700 42.42400
C  4.59000 48.63600 41.10600
O  3.79000 49.16100 40.32800
O  5.27300 47.44900 40.82000
C  4.64500 46.61500 39.78900
H  10.19200 53.52200 40.04500
H  7.04400 58.50200 42.51100
H  2.05600 54.45800 44.12100
H  8.01200 49.23300 41.26200
H  9.59700 51.07300 39.72600
H  10.71000 51.29300 42.25200
H  11.18700 50.30200 40.84800
H  10.26900 49.56100 42.11700
H  6.72900 48.77300 39.67000
H  8.19600 49.30800 38.85300
H  6.85700 51.73100 38.62800
H  5.53000 50.73900 38.93700
H  11.42700 56.98500 39.77400
H  11.27000 55.33700 39.43000
H  12.04600 55.77700 40.98400
H  8.58400 60.23300 41.67800
H  10.04900 60.52000 42.63000
H  8.70000 59.42000 43.26300
H  4.43600 58.77400 42.66500
H  2.75500 57.33000 44.42400
H  4.74800 59.79800 44.94100
H  6.12100 58.67400 44.81500
H  4.68300 58.16100 45.67200
H  1.87100 56.29900 42.09600
H  2.70200 57.54600 41.39500
H  1.20400 58.71500 43.57600
H  0.13600 57.52900 42.70000
H  0.82200 58.80800 41.75400
H  1.33100 52.74300 45.36100
H  1.68700 51.09300 45.59100
H  0.78000 51.61000 44.12700
H  5.74000 48.53300 42.89800
H  4.35200 45.76000 40.39800
H  5.37700 46.31000 39.04100
H  3.74500 47.07000 39.37600
Mg -12.00500 16.45300 41.30200
C  -8.81000 15.12100 40.93500
C  -11.04000 19.37300 39.81700
C  -15.25400 17.40300 41.34900
C  -13.11400 13.23600 42.44000
N  -10.17300 17.06800 40.29400
C  -8.93600 16.42100 40.30800
C  -7.83000 17.22200 39.62400
C  -8.54500 18.62100 39.26200
C  -10.03100 18.33000 39.78600
C  -7.93300 19.87000 39.84500
C  -7.04200 16.48300 38.48500
C  -6.03700 17.33600 37.69600
H  -6.06700 17.27100 36.15200
N  -13.04700 18.17900 40.70300
C  -12.45400 19.31100 40.23400
C  -13.42900 20.39600 40.25100
C  -14.58800 19.82500 40.82500
C  -14.34500 18.44000 41.05800
C  -13.13400 21.86500 39.87300
C  -15.83000 20.62300 41.24200
O  -15.98000 21.84500 40.96400
C  -16.94300 19.95600 42.03100
N  -13.91900 15.33400 41.75900
C  -15.10300 15.99000 41.62800
C  -16.33400 15.18700 42.03200
C  -15.59100 13.87200 42.56100
C  -14.10200 14.14000 42.26200
C  -17.32000 15.80000 43.03800
C  -16.10300 12.54600 41.81300
C  -16.04900 11.23000 42.63300
N  -11.19300 14.50600 41.57700
C  -11.68800 13.33600 42.16900
C  -10.65900 12.40000 42.34600
C  -9.55100 13.01600 41.83200
C  -9.88900 14.28100 41.34000
C  -10.76400 10.95500 42.86500
C  -8.14400 12.95900 41.63800
O  -7.38500 12.02600 41.86600
C  -7.63500 14.24600 41.03300
C  -6.65500 14.77400 41.99700
O  -6.89900 15.54700 42.91600
O  -5.37400 14.21300 41.76200
C  -4.43900 14.59600 42.81900
H  -10.76900 20.35700 39.42900
H  -16.32100 17.63300 41.36700
H  -13.46200 12.26200 42.79000
H  -7.07900 17.33600 40.40700
H  -8.55700 18.72600 38.17700
H  -8.56100 20.30200 40.62400
H  -7.83400 20.56600 39.01200
H  -6.97000 19.67200 40.31500
H  -7.72400 15.83100 37.94000
H  -6.42200 15.74400 38.99300
H  -5.08600 16.98600 38.09800
H  -6.15900 18.34800 38.08300
H  -13.66300 22.31100 39.03000
H  -12.08300 21.99300 39.61400
H  -13.32300 22.46700 40.76200
H  -17.56400 20.79200 42.35000
H  -16.51600 19.53600 42.94200
H  -17.45600 19.32300 41.30700
H  -16.80200 15.01000 41.06400
H  -15.68600 13.72100 43.63700
H  -17.87700 14.86600 43.11500
H  -17.81500 16.69800 42.66900
H  -16.70000 16.07100 43.89300
H  -15.54600 12.43600 40.88300
H  -17.13000 12.79200 41.54400
H  -17.09500 10.97700 42.80700
H  -15.54200 11.39600 43.58400
H  -15.63800 10.43200 42.01400
H  -11.71800 10.53800 42.54500
H  -10.68200 11.05500 43.94800
H  -9.96800 10.33700 42.45000
H  -7.11000 14.02500 40.10400
H  -4.14200 15.63400 42.66800
H  -3.52900 13.99900 42.75700
H  -4.73800 14.54300 43.86500

