158

Mg 25.49600 0.68900 29.27800
C  27.14700 0.54200 32.39600
C  22.54800 1.43800 30.92400
C  23.80000 0.56700 26.37300
C  28.28300 -0.35000 27.53600
N  24.96400 0.98900 31.51800
C  25.78000 0.84800 32.60300
C  25.03200 1.27500 33.82600
C  23.54400 1.39600 33.35900
C  23.63100 1.23400 31.83300
C  22.59100 0.30800 33.91300
C  25.59700 2.65000 34.45100
C  26.19500 2.50400 35.88100
H  25.53700 3.31900 37.02800
N  23.50000 0.97700 28.65900
C  22.43700 1.23500 29.49900
C  21.27100 1.20200 28.71900
C  21.69400 1.05300 27.36700
C  23.05500 0.87000 27.39600
C  19.89500 1.27000 29.40400
C  20.71400 1.13900 26.19500
O  20.95400 0.74700 25.04500
C  19.24100 1.61000 26.37200
N  26.06400 0.10900 27.19900
C  25.12600 0.19000 26.29300
C  25.74800 -0.24300 24.92700
C  27.33100 -0.42300 25.18700
C  27.28100 -0.15900 26.66700
C  25.08600 -1.52600 24.32300
C  28.37400 0.41400 24.40200
C  28.00200 1.86200 23.97500
N  27.26200 0.08900 29.80700
C  28.35900 -0.22500 28.97800
C  29.51300 -0.46700 29.86600
C  29.13100 -0.12100 31.17400
C  27.73900 0.18000 31.11100
C  30.92300 -0.71600 29.33300
C  29.52900 -0.06700 32.55500
O  30.62800 -0.33800 33.04400
C  28.28500 0.44100 33.42000
C  28.12300 -0.46000 34.58100
O  27.43000 -1.46800 34.53400
O  28.81300 -0.04700 35.64800
C  28.70500 -0.71800 36.92100
H  21.64600 1.51200 31.53400
H  23.34100 0.51700 25.38300
H  29.25800 -0.67300 27.16500
H  25.14500 0.47700 34.55900
H  23.13200 2.34900 33.68800
H  23.10400 -0.38100 34.58400
H  22.29100 -0.30800 33.06500
H  21.79500 0.79200 34.47900
H  24.73800 3.31400 34.54700
H  26.33100 3.13400 33.80700
H  27.22400 2.86400 35.87100
H  26.24500 1.46100 36.19400
H  19.38200 2.17100 29.06700
H  19.83300 1.31300 30.49100
H  19.27900 0.41100 29.13700
H  18.63000 1.07800 27.10100
H  18.68000 1.58800 25.43700
H  19.22800 2.64600 26.70800
H  25.50800 0.52200 24.18800
H  27.70400 -1.43300 25.01800
H  24.02100 -1.33700 24.45800
H  25.28500 -2.50400 24.75900
H  25.26400 -1.55900 23.24800
H  28.53500 -0.14500 23.48100
H  29.28900 0.35900 24.99200
H  28.76000 2.49300 24.43800
H  27.03800 2.17600 24.37600
H  28.01500 2.12400 22.91700
H  31.13100 -0.06300 28.48600
H  31.03400 -1.77100 29.08400
H  31.58900 -0.50400 30.17000
H  28.53400 1.43800 33.78400
H  27.86600 -1.41300 36.91100
H  28.22600 -0.01300 37.60100
H  29.63100 -1.16200 37.28800
Mg -1.80600 34.29900 26.24400
C  -3.37000 32.71400 28.95800
C  -0.96300 36.88300 28.45400
C  -0.64800 36.02000 23.70000
C  -3.38600 32.02600 24.03900
N  -2.20100 34.71600 28.41300
C  -2.66000 33.81600 29.37700
C  -2.43900 34.29300 30.84500
C  -1.91800 35.76000 30.59000
C  -1.65400 35.82300 29.05400
C  -2.83100 36.97600 31.12900
C  -1.43600 33.28000 31.51800
C  -2.09000 32.51800 32.68300
H  -1.20800 32.40000 33.92000
N  -0.81100 36.09800 26.13200
C  -0.59300 37.01300 27.07200
C  0.25900 38.17800 26.56800
C  0.45500 37.92300 25.14100
C  -0.38200 36.65500 24.92200
C  0.62500 39.36300 27.49900
C  1.12000 38.71500 24.06000
O  1.07100 38.27700 22.96600
C  1.94500 39.91600 24.42000
N  -2.20900 34.21100 24.23300
C  -1.41200 34.86400 23.40000
C  -1.70500 34.51500 21.92300
C  -2.33200 33.09600 22.10100
C  -2.61200 33.07600 23.54500
C  -2.70200 35.59900 21.26000
C  -1.40600 31.98900 21.49900
C  -0.28100 31.55200 22.35900
N  -3.23100 32.74000 26.41500
C  -3.74700 31.87100 25.42100
C  -4.51300 30.89300 26.14500
C  -4.33900 31.11700 27.45800
C  -3.63300 32.29200 27.60000
C  -5.19000 29.70800 25.41200
C  -4.60300 30.58600 28.79300
O  -5.19900 29.55500 29.15700
C  -3.95600 31.54700 29.79200
C  -5.03400 31.95400 30.77600
O  -5.77000 32.94300 30.71200
O  -5.06100 30.95200 31.76800
C  -6.06400 31.23300 32.79900
H  -0.65400 37.69800 29.11000
H  -0.15000 36.41600 22.81200
H  -3.61700 31.33000 23.22900
H  -3.41800 34.20400 31.31700
H  -0.99900 35.92000 31.15400
H  -2.46200 37.56300 31.97100
H  -3.83800 36.65100 31.39100
H  -2.96500 37.76600 30.39000
H  -0.66700 33.93000 31.93500
H  -1.08100 32.55900 30.78200
H  -2.28800 31.49600 32.36000
H  -3.07100 32.83300 33.04000
H  1.51400 39.13100 28.08500
H  -0.16700 39.48400 28.23800
H  0.79500 40.27100 26.91900
H  2.73100 39.48200 25.03700
H  1.32900 40.67900 24.89600
H  2.29700 40.18600 23.42400
H  -0.75100 34.45600 21.39900
H  -3.32700 33.07400 21.65500
H  -2.23600 36.09700 20.40900
H  -2.83600 36.41500 21.97000
H  -3.63100 35.11200 20.96400
H  -1.11900 32.31100 20.49800
H  -2.10300 31.15300 21.53800
H  -0.43400 30.55100 22.76100
H  -0.20100 32.13700 23.27600
H  0.63400 31.45000 21.77600
H  -4.71100 29.66200 24.43400
H  -6.20200 30.07400 25.23800
H  -5.00200 28.82300 26.02100
H  -3.20900 30.98300 30.35100
H  -5.76600 32.07000 33.43100
H  -6.26600 30.38100 33.44700
H  -7.00000 31.49100 32.30400

