158

Mg 2.23000 -1.86900 44.29000
C  5.67100 -1.35800 43.96500
C  1.62900 0.72600 42.15800
C  -1.03200 -2.70400 44.36300
C  3.04200 -5.02300 45.73200
N  3.55400 -0.52600 43.09400
C  4.98600 -0.45800 43.17400
C  5.41900 0.68400 42.21200
C  4.10400 1.41100 41.71100
C  3.02500 0.49900 42.40300
C  3.89500 2.86300 41.98400
C  6.28500 0.15000 41.03800
C  7.62800 0.90600 40.90400
H  7.99300 1.24100 39.45600
N  0.53800 -1.09800 43.32000
C  0.53500 -0.01100 42.49600
C  -0.81400 0.22100 42.13400
C  -1.59100 -0.77300 42.79100
C  -0.72800 -1.58100 43.54800
C  -1.20800 1.35100 41.27100
C  -3.06600 -0.96500 42.44000
O  -3.54100 -0.29800 41.55200
C  -3.95400 -1.86100 43.19500
N  1.18700 -3.67000 44.85300
C  -0.17000 -3.67000 44.88200
C  -0.75300 -4.89900 45.56200
C  0.61200 -5.76100 45.56500
C  1.70400 -4.80600 45.33200
C  -1.43100 -4.71600 46.91200
C  0.74200 -7.09600 44.67400
C  0.23300 -8.36900 45.35100
N  3.93700 -3.00500 44.82100
C  4.12600 -4.21000 45.40300
C  5.56800 -4.43300 45.70100
C  6.18400 -3.24400 45.24600
C  5.17500 -2.49100 44.61700
C  6.17500 -5.61800 46.41900
C  7.39600 -2.46000 45.13500
O  8.52100 -2.79600 45.53300
C  7.14200 -1.32100 44.27000
C  7.35100 -0.01600 44.87800
O  6.89100 0.42100 45.93800
O  8.16400 0.77600 44.09000
C  8.21400 2.18000 44.40100
H  1.50500 1.56300 41.46700
H  -2.09300 -2.94600 44.44400
H  3.35400 -5.95600 46.20600
H  5.99200 1.42500 42.76900
H  4.01900 1.31500 40.62900
H  4.09900 3.42900 41.07500
H  4.59300 3.31100 42.69100
H  2.85300 3.06200 42.23500
H  5.74200 0.03200 40.10000
H  6.57800 -0.89600 41.12300
H  8.40900 0.20800 41.20400
H  7.61900 1.83000 41.48100
H  -2.18500 1.74100 41.55600
H  -1.35700 0.99700 40.25100
H  -0.59700 2.25300 41.26400
H  -4.98400 -1.67300 42.88900
H  -3.79200 -1.55300 44.22700
H  -3.65900 -2.88900 42.98400
H  -1.51300 -5.38800 44.95200
H  0.70000 -6.10300 46.59600
H  -2.32300 -4.09900 46.79600
H  -0.61500 -4.29000 47.49600
H  -1.67000 -5.62000 47.47200
H  1.78900 -7.20400 44.38900
H  0.09900 -6.97300 43.80300
H  1.05300 -8.71600 45.98000
H  0.15600 -9.22500 44.68000
H  -0.63500 -8.25300 46.00000
H  6.25000 -6.47200 45.74700
H  5.46300 -6.01700 47.14100
H  7.11600 -5.27800 46.85100
H  7.85100 -1.33800 43.44200
H  8.66500 2.37900 45.37300
H  7.25500 2.68800 44.29700
H  8.87000 2.74800 43.74100
Mg 31.08500 58.37700 40.31800
C  28.15700 56.51600 39.14800
C  32.99800 55.65200 39.20700
C  33.67100 60.43300 40.56200
C  28.90700 61.11000 40.80800
N  30.62800 56.32700 39.19200
C  29.39800 55.79100 38.88500
C  29.60800 54.40900 38.18100
C  31.06300 54.02800 38.68800
C  31.62000 55.43300 39.05300
C  31.10200 53.10600 39.99700
C  29.40000 54.65700 36.67500
C  28.59600 53.50700 36.00900
H  28.29000 53.69400 34.50500
N  33.10600 58.08400 39.90800
C  33.70200 56.88700 39.48600
C  35.09300 57.22400 39.24500
C  35.35400 58.53400 39.66700
C  34.00000 59.09200 40.05700
C  36.03100 56.19700 38.77100
C  36.70400 59.21900 39.69100
O  37.71100 58.59900 39.39200
C  36.84200 60.67700 40.10700
N  31.23600 60.48700 40.66000
C  32.46500 61.02900 40.80700
C  32.35000 62.60000 41.18500
C  30.75900 62.76800 41.19700
C  30.23700 61.37800 40.92100
C  33.17100 63.14400 42.39000
C  30.22500 63.84800 40.11500
C  29.28500 64.90600 40.52000
N  28.97700 58.68300 40.24600
C  28.26300 59.88200 40.34400
C  26.86000 59.72200 40.15500
C  26.80300 58.38600 39.61200
C  28.08000 57.81000 39.70300
C  25.75300 60.67400 40.30700
C  25.88000 57.36200 39.09100
O  24.66400 57.38800 39.00100
C  26.68900 56.08300 38.89000
C  26.22200 55.01900 39.82900
O  26.96000 54.58800 40.69800
O  24.94600 54.71500 39.56800
C  24.31000 53.64600 40.36200
H  33.59700 54.80200 38.87100
H  34.45400 61.17200 40.74300
H  28.16700 61.91300 40.81100
H  29.01900 53.58900 38.59200
H  31.67000 53.57000 37.90700
H  30.16400 52.55900 40.09600
H  31.06500 53.74600 40.87900
H  32.04700 52.56600 39.93100
H  30.40500 54.81800 36.28700
H  28.85100 55.58600 36.52000
H  27.60400 53.42300 36.45300
H  29.08900 52.55100 36.18700
H  37.01400 56.37900 39.20600
H  36.14700 56.33000 37.69500
H  35.60200 55.21700 38.97800
H  36.16900 61.24000 39.46100
H  37.88000 61.01000 40.06900
H  36.57900 60.70600 41.16500
H  32.64100 63.22600 40.34100
H  30.45500 63.18500 42.15800
H  32.60200 63.55300 43.22400
H  34.10000 63.58200 42.02600
H  33.55700 62.21900 42.82100
H  29.83300 63.38400 39.21000
H  31.06100 64.48600 39.82900
H  29.67100 65.90800 40.33700
H  29.39100 64.92500 41.60500
H  28.25900 64.68400 40.22600
H  25.70800 61.17100 39.33800
H  25.89000 61.28800 41.19700
H  24.81600 60.13300 40.44100
H  26.49800 55.81700 37.85000
H  23.95800 52.84400 39.71300
H  23.46200 54.04900 40.91600
H  24.90300 53.18000 41.14900

