158

Mg 44.99100 4.60600 47.18700
C  43.25400 7.63900 46.72200
C  42.00800 3.00500 46.41900
C  46.78700 1.80300 46.85800
C  47.93400 6.54300 47.06400
N  42.85400 5.30000 46.55200
C  42.38600 6.55700 46.61400
C  40.88400 6.60700 46.32100
C  40.50400 5.09400 46.33600
C  41.84500 4.40100 46.43200
C  39.54900 4.58200 47.40900
C  40.41700 7.54900 45.18900
C  41.13500 7.70200 43.84800
H  40.30300 7.32800 42.60100
N  44.44200 2.68800 46.78500
C  43.15800 2.18000 46.55800
C  43.20800 0.78300 46.31400
C  44.61500 0.44500 46.47100
C  45.30900 1.69800 46.74400
C  42.07600 -0.04600 45.73300
C  45.15200 -0.97500 46.21900
O  44.39900 -1.89700 46.02700
C  46.67500 -1.29600 46.24700
N  47.09400 4.25700 46.85400
C  47.55300 2.94300 47.05500
C  49.10200 2.88600 47.09300
C  49.43100 4.35800 47.02700
C  48.06600 5.12100 46.93100
C  49.58400 2.08100 48.38500
C  50.38500 4.86800 45.86600
C  51.56800 5.89600 46.17300
N  45.53900 6.70300 47.08700
C  46.75200 7.31000 47.12300
C  46.59400 8.79400 47.21100
C  45.22100 8.95300 47.08000
C  44.62000 7.63400 46.91800
C  47.72900 9.84500 47.23600
C  44.16900 9.92200 46.91300
O  44.23900 11.15600 46.99800
C  42.92200 9.09900 46.67700
C  41.96400 9.39300 47.76600
O  41.72400 8.68200 48.75000
O  41.33700 10.51200 47.47800
C  39.94400 10.41100 47.96100
H  41.07800 2.47000 46.22200
H  47.41600 0.91500 46.94300
H  48.83400 7.14800 47.19100
H  40.43600 7.12000 47.17200
H  40.17500 4.80100 45.33900
H  38.81500 5.27500 47.81900
H  40.16900 4.30600 48.26200
H  38.92800 3.73000 47.13400
H  40.22400 8.56800 45.52200
H  39.44700 7.20700 44.82900
H  42.07200 7.14600 43.79900
H  41.29500 8.77400 43.73100
H  42.38300 -0.50900 44.79500
H  41.20300 0.58900 45.58700
H  41.96900 -0.89200 46.41200
H  46.72700 -2.37600 46.11100
H  47.02600 -1.01600 47.24000
H  47.30000 -0.75100 45.53900
H  49.31300 2.42300 46.12900
H  49.86300 4.74900 47.94800
H  49.37300 1.01200 48.39900
H  49.14200 2.57800 49.24900
H  50.65200 2.26100 48.50500
H  49.83600 5.22200 44.99400
H  50.90900 3.98100 45.51100
H  51.38800 6.75100 45.52200
H  52.52700 5.48700 45.85600
H  51.50400 6.30400 47.18200
H  48.12500 10.19500 46.28300
H  48.46000 9.16000 47.66700
H  47.70600 10.64700 47.97300
H  42.41300 9.41600 45.76700
H  39.37900 11.25300 47.56000
H  39.84100 10.32100 49.04300
H  39.40300 9.56100 47.54600
Mg 0.74000 43.03200 25.37700
C  2.80700 43.08700 28.23900
C  -1.79900 41.92400 27.51000
C  -1.19400 41.97300 22.70700
C  3.58000 42.95900 23.45600
N  0.60100 42.50900 27.62800
C  1.51500 42.75600 28.61900
C  0.92600 42.64100 30.02200
C  -0.53300 42.11600 29.75700
C  -0.62200 42.15700 28.18700
C  -0.86300 40.66400 30.25700
C  0.82500 44.08200 30.73000
C  1.27800 43.99800 32.20200
H  0.08200 43.90200 33.20600
N  -1.25600 42.30200 25.16000
C  -2.11700 41.89600 26.12500
C  -3.37300 41.46300 25.51000
C  -3.20600 41.50400 24.14200
C  -1.86400 42.02900 23.89500
C  -4.57600 41.02700 26.37700
C  -4.19300 41.08900 23.02000
O  -3.98800 41.16900 21.79700
C  -5.54400 40.56000 23.41000
N  1.07400 42.63700 23.40800
C  0.15900 42.24900 22.47600
C  0.80700 42.07900 21.05400
C  2.25900 42.67600 21.23400
C  2.34600 42.72000 22.79700
C  0.84500 40.61200 20.50700
C  2.69200 43.95700 20.46100
C  2.45400 45.28600 21.24600
N  2.75900 43.16100 25.72700
C  3.82700 43.17600 24.86100
C  5.10300 43.39600 25.55000
C  4.72700 43.34200 26.89500
C  3.29600 43.23800 26.93700
C  6.46200 43.37000 24.91600
C  5.25600 43.20100 28.19600
O  6.43100 43.01000 28.65100
C  4.04900 43.22200 29.12100
C  4.15900 42.08700 30.02600
O  3.88700 40.88600 29.85900
O  4.60200 42.52600 31.33000
C  4.73600 41.47800 32.44100
H  -2.58700 41.49000 28.12900
H  -1.66000 41.63600 21.77900
H  4.46000 43.05600 22.81700
H  1.55500 41.92500 30.55100
H  -1.29300 42.76500 30.19200
H  -1.15000 39.95800 29.47800
H  -1.74200 40.72100 30.90000
H  -0.01100 40.19800 30.75200
H  -0.18800 44.44400 30.90500
H  1.43000 44.76100 30.12800
H  1.84300 44.89700 32.45000
H  1.99500 43.19900 32.39200
H  -5.06100 41.88700 26.83900
H  -4.32600 40.39000 27.22600
H  -5.24700 40.38800 25.80400
H  -5.34200 39.56700 23.81000
H  -6.23000 40.70000 22.57500
H  -5.90100 41.27500 24.15100
H  0.38500 42.72700 20.28500
H  2.95400 41.92800 20.85400
H  0.16100 40.04200 21.13500
H  1.79900 40.09800 20.62200
H  0.61900 40.56900 19.44100
H  2.13000 43.96900 19.52700
H  3.72100 43.89000 20.11000
H  2.53600 46.14100 20.57500
H  3.25500 45.36900 21.98000
H  1.51800 45.24900 21.80400
H  6.49100 42.95100 23.91000
H  7.03600 42.77600 25.62800
H  6.91000 44.35900 24.82600
H  4.03000 44.17300 29.65300
H  5.57300 40.80700 32.24500
H  3.83100 40.87600 32.35700
H  4.85100 41.98400 33.39900

