158

Mg 53.52600 23.33800 45.29700
C  51.02000 25.49900 44.30600
C  51.61700 20.70200 44.20900
C  56.39000 21.27800 45.13200
C  55.65200 26.02500 46.06700
N  51.50700 23.11700 44.22700
C  50.69900 24.15700 44.08200
C  49.34500 23.59600 43.53600
C  49.41400 22.12800 44.05800
C  50.94200 21.91400 44.21600
C  48.62400 21.82500 45.38700
C  49.41000 23.65400 41.94800
C  48.07400 24.02700 41.28500
H  47.95400 23.76100 39.73700
N  53.87500 21.26800 44.86700
C  52.93300 20.41400 44.42100
C  53.50900 19.10200 44.41100
C  54.93700 19.17400 44.77400
C  55.13700 20.58900 44.91700
C  52.66600 17.84400 43.94200
C  55.84000 17.99000 45.08900
O  55.41100 16.91500 44.75900
C  57.18400 18.07900 45.80600
N  55.84400 23.59800 45.53700
C  56.74500 22.64100 45.52000
C  58.14500 23.18000 45.83700
C  57.88200 24.72500 46.17100
C  56.40000 24.80800 45.82800
C  58.77700 22.32400 46.98900
C  58.78700 25.73700 45.39700
C  59.47700 26.80500 46.31000
N  53.41900 25.34900 45.29800
C  54.24700 26.32600 45.77000
C  53.56700 27.66200 45.74300
C  52.31100 27.37600 45.13900
C  52.25700 25.92600 44.87700
C  54.09500 28.96200 46.24200
C  51.08100 27.95900 44.69900
O  50.63300 29.11100 44.71500
C  50.16500 26.77100 44.11200
C  49.87900 27.03600 42.64800
O  50.82200 27.20200 41.87000
O  48.58700 27.19600 42.42400
C  48.20600 27.84400 41.14600
H  50.85600 19.92300 44.13200
H  57.29400 20.67500 45.03100
H  56.35200 26.82500 46.31800
H  48.48600 24.13600 43.93400
H  48.93200 21.41700 43.38700
H  48.21600 22.72800 45.84100
H  49.31500 21.34900 46.08200
H  47.86400 21.06600 45.19900
H  49.69400 22.68900 41.52900
H  50.12300 24.34300 41.49400
H  47.87600 25.07100 41.52700
H  47.23400 23.49500 41.73200
H  52.20000 17.39500 44.81900
H  53.30300 17.04000 43.57500
H  51.86000 18.06300 43.24100
H  56.93100 18.62300 46.71600
H  57.99400 18.56500 45.26300
H  57.44900 17.04900 46.04500
H  58.66500 23.06800 44.88600
H  57.99000 24.78600 47.25400
H  59.40300 22.96700 47.60800
H  59.32700 21.49700 46.53800
H  57.97400 21.88200 47.57900
H  58.29500 26.36900 44.65900
H  59.60200 25.33600 44.79400
H  58.67300 27.51700 46.50000
H  60.34800 27.35100 45.94700
H  59.90900 26.29700 47.17100
H  55.11900 28.71500 46.52200
H  53.60900 29.33500 47.14300
H  53.97900 29.78600 45.53700
H  49.25100 26.83700 44.70300
H  49.03200 27.88600 40.43500
H  47.92400 28.85500 41.44000
H  47.31200 27.40200 40.70700
Mg 46.81100 24.31100 28.58700
C  47.58800 26.77000 31.15400
C  46.27700 22.09300 31.20500
C  46.60100 21.90900 26.24500
C  48.19000 26.52200 26.27300
N  46.85500 24.45900 30.90600
C  47.06800 25.59500 31.69500
C  46.91600 25.26400 33.21600
C  46.60300 23.68400 33.17800
C  46.59100 23.33300 31.64000
C  47.60000 22.86300 34.06600
C  45.72300 26.10100 33.88000
C  45.99000 26.53700 35.28600
H  44.72500 27.01200 36.09100
N  46.39400 22.30100 28.67700
C  46.12000 21.57500 29.86100
C  45.75500 20.24300 29.41000
C  45.90200 20.11800 28.02700
C  46.33700 21.40900 27.52500
C  45.28600 19.25900 30.39200
C  45.88900 18.84000 27.17400
O  46.24700 18.93100 25.98500
C  45.41100 17.57700 27.75900
N  47.34400 24.17000 26.59000
C  47.01500 23.14200 25.78000
C  47.37800 23.35000 24.28300
C  48.02000 24.77400 24.38400
C  47.79400 25.23700 25.77300
C  48.47000 22.27500 23.63400
C  47.36700 25.86200 23.34000
C  47.89500 25.73300 21.85600
N  47.60000 26.26100 28.57100
C  48.22200 27.01300 27.58100
C  48.78400 28.21000 28.09200
C  48.49400 28.14800 29.46200
C  47.81900 26.98300 29.75600
C  49.61000 29.29400 27.36600
C  48.80000 28.87500 30.72700
O  49.44900 29.88800 30.88600
C  48.17800 27.99100 31.83700
C  49.14800 27.63200 32.83800
O  50.13700 26.95900 32.70400
O  48.77800 28.13200 34.04200
C  49.64500 27.93100 35.25300
H  46.09400 21.46700 32.08100
H  46.33000 21.21000 25.45100
H  48.75700 27.14700 25.58100
H  47.79600 25.55900 33.78700
H  45.64800 23.42700 33.63700
H  48.08500 23.58500 34.72200
H  48.32700 22.45200 33.36500
H  47.17500 22.01100 34.59700
H  44.84400 25.46300 33.79600
H  45.47500 26.98900 33.29800
H  46.64100 27.40500 35.19200
H  46.53800 25.72200 35.76000
H  45.05400 19.78500 31.31800
H  46.05000 18.51300 30.61300
H  44.36700 18.83400 29.98800
H  46.12100 17.14300 28.46300
H  45.30400 16.94400 26.87800
H  44.37600 17.73800 28.06100
H  46.47600 23.37600 23.67300
H  49.10200 24.85500 24.28000
H  49.17300 22.88800 23.07000
H  47.97300 21.56200 22.97600
H  48.99800 21.75000 24.43000
H  47.54700 26.87000 23.71300
H  46.27800 25.80600 23.31300
H  47.00600 25.59300 21.24200
H  48.60600 24.91400 21.74100
H  48.30900 26.70200 21.57900
H  50.19900 28.72600 26.64500
H  50.25100 29.59500 28.19400
H  49.10900 30.10000 26.83000
H  47.46100 28.51800 32.46600
H  49.17000 27.28900 35.99400
H  49.80000 28.89800 35.73200
H  50.58600 27.50300 34.90500

