158

Mg 29.21900 58.71700 41.57100
C  26.26200 57.07600 40.84600
C  30.88200 56.07700 39.96800
C  31.79000 60.69800 41.36200
C  27.15300 61.48700 42.61500
N  28.63000 56.79600 40.58000
C  27.39500 56.40300 40.30600
C  27.30700 55.15600 39.53900
C  28.79400 54.67500 39.57600
C  29.51200 55.91600 40.04300
C  28.99800 53.53100 40.60500
C  26.73700 55.43300 38.03400
C  26.28300 54.25100 37.21500
H  25.73000 54.60800 35.79500
N  31.15100 58.37100 40.97400
C  31.68200 57.23000 40.34000
C  33.07400 57.38600 40.13600
C  33.33300 58.74700 40.35000
C  32.04100 59.41500 40.91200
C  34.02500 56.31900 39.68100
C  34.59700 59.45600 40.06600
O  35.57400 58.82100 39.66200
C  34.76200 60.91600 40.07900
N  29.40700 60.89500 41.85800
C  30.65300 61.40200 41.86500
C  30.61300 62.84100 42.35100
C  29.18700 63.06900 42.87600
C  28.47400 61.77500 42.32500
C  31.68800 63.33600 43.28400
C  28.56500 64.47600 42.42600
C  28.07600 65.45900 43.54500
N  27.07500 59.19000 41.84600
C  26.43100 60.30900 42.32300
C  25.01900 60.06800 42.36500
C  24.89300 58.84200 41.75400
C  26.19300 58.36900 41.51800
C  23.97700 60.91700 42.99500
C  23.95700 57.77000 41.45600
O  22.71800 57.75500 41.47500
C  24.83500 56.60600 40.76900
C  24.54100 55.39700 41.52600
O  24.57600 55.27900 42.72600
O  23.94100 54.38100 40.76500
C  23.55100 53.12600 41.54800
H  31.34600 55.21100 39.49200
H  32.65400 61.35800 41.26000
H  26.62400 62.28000 43.14900
H  26.64300 54.42400 39.99900
H  29.13600 54.32400 38.60300
H  28.22300 53.71200 41.35000
H  29.98000 53.66900 41.05700
H  29.09100 52.51500 40.22100
H  27.57700 55.83000 37.46400
H  25.97200 56.20900 38.06600
H  25.43900 53.87100 37.79000
H  27.06800 53.49800 37.15100
H  33.39100 55.43200 39.68100
H  34.68800 56.18800 40.53600
H  34.45400 56.46900 38.69000
H  34.04700 61.39300 39.40800
H  35.70800 61.34400 39.74600
H  34.73700 61.32900 41.08800
H  30.81700 63.47000 41.48500
H  29.22600 63.09400 43.96500
H  32.56300 62.68700 43.31500
H  31.43600 63.33200 44.34400
H  32.02400 64.32000 42.95500
H  27.77000 64.37800 41.68700
H  29.33400 64.96300 41.82700
H  27.01400 65.65600 43.39400
H  28.62100 66.40200 43.54100
H  28.17000 64.93800 44.49800
H  24.13300 61.99300 42.92100
H  23.98100 60.82300 44.08100
H  23.03900 60.57500 42.55900
H  24.55700 56.49600 39.72100
H  24.08700 53.01400 42.49100
H  23.71900 52.26800 40.89700
H  22.48400 53.27600 41.70900
Mg -9.52200 40.72400 42.79100
C  -8.44800 37.44700 41.64800
C  -7.05100 41.89800 40.62800
C  -10.63800 43.69200 43.30600
C  -12.35600 39.18800 44.10200
N  -7.95900 39.75600 41.32500
C  -7.59400 38.42200 41.17000
C  -6.46500 38.25700 40.16500
C  -5.94400 39.72600 39.98600
C  -7.06000 40.51900 40.71200
C  -4.48200 40.00900 40.53100
C  -6.67500 37.45300 38.81200
C  -5.68600 36.41000 38.48600
H  -4.76100 36.55200 37.32800
N  -8.86400 42.64100 42.14600
C  -7.84900 42.87800 41.19800
C  -7.72700 44.29900 41.16400
C  -8.65000 44.87800 42.09400
C  -9.45600 43.78000 42.51100
C  -6.60400 44.97400 40.47200
C  -8.73400 46.35800 42.48800
O  -7.90400 47.11500 42.11200
C  -9.84000 46.87800 43.33000
N  -11.23200 41.31700 43.54900
C  -11.39100 42.63600 43.75200
C  -12.71800 42.96100 44.50400
C  -13.25900 41.51700 44.84700
C  -12.29000 40.61000 44.08500
C  -12.61400 44.01700 45.67900
C  -14.73500 41.17400 44.72800
C  -15.46900 40.55500 45.94400
N  -10.26800 38.70900 43.04500
C  -11.45700 38.26600 43.58100
C  -11.52400 36.81900 43.52000
C  -10.33300 36.48900 42.81700
C  -9.63200 37.64600 42.47500
C  -12.68300 35.97100 44.00800
C  -9.59800 35.33800 42.30700
O  -10.05400 34.21000 42.25300
C  -8.37800 35.92800 41.50600
C  -7.15600 35.33700 42.20800
O  -6.92300 35.37600 43.40200
O  -6.35700 34.82300 41.28000
C  -4.97700 34.44400 41.70400
H  -6.22200 42.29200 40.03600
H  -11.03300 44.63500 43.69100
H  -13.23400 38.63500 44.44400
H  -5.72600 37.74600 40.78300
H  -5.89000 40.00700 38.93400
H  -4.59300 40.76700 41.30600
H  -3.76600 40.31600 39.76900
H  -4.04900 39.11500 40.98100
H  -6.65600 38.21000 38.02800
H  -7.71600 37.13000 38.78900
H  -6.16100 35.43500 38.37300
H  -5.07100 36.31500 39.38100
H  -6.81600 45.94800 40.03200
H  -5.98600 44.41400 39.77100
H  -5.86200 45.11600 41.25800
H  -9.77300 46.31500 44.26200
H  -10.81400 46.78000 42.85200
H  -9.68400 47.94600 43.48100
H  -13.39600 43.38100 43.76100
H  -13.01200 41.49500 45.90900
H  -13.25300 44.85700 45.40700
H  -11.55100 44.25000 45.73500
H  -12.88200 43.51200 46.60600
H  -14.86600 40.51000 43.87400
H  -15.12500 42.16200 44.48200
H  -15.82200 39.53600 45.78500
H  -16.35300 41.18500 46.03500
H  -14.88900 40.61800 46.86500
H  -12.92200 36.30500 45.01800
H  -12.46100 34.90700 43.93300
H  -13.56600 36.13600 43.39100
H  -8.49200 35.54800 40.49100
H  -4.47100 35.29200 42.16500
H  -4.38200 34.11000 40.85400
H  -4.89500 33.58600 42.37100

