158

Mg 53.57900 23.75900 44.90300
C  51.19800 26.11600 44.01300
C  51.56900 21.26900 43.53900
C  56.20300 21.70900 45.26200
C  55.61200 26.43900 45.98000
N  51.71000 23.81600 43.74700
C  50.89500 24.84200 43.49000
C  49.71000 24.38500 42.62100
C  49.60200 22.86300 43.07200
C  51.05800 22.60200 43.47200
C  48.59000 22.55500 44.15000
C  49.97400 24.39400 41.05100
C  51.38700 24.76100 40.59900
H  51.55100 25.37500 39.17700
N  53.84000 21.70500 44.41400
C  52.90600 20.83000 43.92400
C  53.50800 19.48700 43.90700
C  54.79800 19.62900 44.46700
C  54.97400 21.05300 44.77400
C  52.87900 18.33100 43.33000
C  55.70000 18.44100 44.77900
O  55.44100 17.36400 44.29900
C  56.85300 18.46400 45.70000
N  55.70200 24.09600 45.43700
C  56.50000 23.03200 45.59300
C  57.86600 23.52000 46.22500
C  57.75500 25.08600 46.22900
C  56.23400 25.27800 45.86400
C  58.11900 22.88600 47.64100
C  58.82000 25.84100 45.26100
C  58.43800 25.96200 43.77800
N  53.47300 25.83500 45.07000
C  54.32600 26.74300 45.58600
C  53.72900 28.09900 45.62000
C  52.43500 27.85000 44.99300
C  52.38400 26.46700 44.66000
C  54.32800 29.32400 46.22700
C  51.26100 28.51500 44.50200
O  50.93300 29.69700 44.57700
C  50.45000 27.38600 43.81300
C  50.18600 27.86400 42.38900
O  51.02800 28.13200 41.55900
O  48.85000 27.81400 42.19800
C  48.33600 27.84600 40.83500
H  50.93600 20.39000 43.40100
H  57.10500 21.12500 45.45700
H  56.20300 27.25100 46.40700
H  48.69500 24.73000 42.82200
H  49.32200 22.21200 42.24300
H  47.61500 22.23800 43.78100
H  48.39900 23.46700 44.71500
H  48.99200 21.79900 44.82600
H  49.43500 25.27200 40.69500
H  49.72400 23.50000 40.47900
H  51.87100 23.78500 40.56200
H  51.77200 25.48600 41.31700
H  53.48800 17.99200 42.49300
H  51.88000 18.65400 43.03700
H  52.72800 17.46800 43.97800
H  56.83100 17.50400 46.21600
H  56.70600 19.23400 46.45700
H  57.78700 18.58400 45.15000
H  58.69300 23.21500 45.58400
H  57.87000 25.49000 47.23400
H  58.60200 23.69800 48.18400
H  58.76200 22.01100 47.54100
H  57.16300 22.58100 48.06600
H  59.80500 25.37600 45.31400
H  58.90800 26.86800 45.61400
H  57.94800 26.92900 43.66300
H  57.68100 25.23100 43.49500
H  59.22600 25.86500 43.03100
H  53.85900 30.22900 45.84000
H  55.32500 29.53100 45.84000
H  54.25700 29.27600 47.31400
H  49.47100 27.42400 44.29100
H  48.11500 28.88900 40.60900
H  47.49400 27.19100 40.61100
H  49.05400 27.44200 40.12200
Mg -10.81100 16.57200 42.55000
C  -7.80100 15.04100 42.50500
C  -9.46900 19.35200 41.07200
C  -14.06200 17.90700 42.14600
C  -12.38000 13.58000 43.54200
N  -8.83100 17.05500 41.70700
C  -7.72000 16.34100 42.06700
C  -6.47600 17.14600 41.65900
C  -7.02300 18.60700 41.53600
C  -8.53800 18.33800 41.39400
C  -6.60600 19.67200 42.58200
C  -5.80600 16.65900 40.32800
C  -4.36000 16.07200 40.41300
H  -4.19900 14.89100 39.44100
N  -11.64700 18.43800 41.85100
C  -10.87700 19.34300 41.18900
C  -11.79500 20.39100 40.71600
C  -13.09600 20.12300 41.14100
C  -12.99300 18.81000 41.78300
C  -11.30300 21.57600 39.94600
C  -14.28100 20.98000 40.98300
O  -14.16800 22.15200 40.54900
C  -15.69500 20.60300 41.36700
N  -12.95100 15.81400 42.92500
C  -14.05800 16.60400 42.67400
C  -15.34300 15.86600 42.92500
C  -14.82800 14.54700 43.63900
C  -13.34500 14.59300 43.32300
C  -16.47300 16.49500 43.66200
C  -15.44100 13.23400 43.18900
C  -15.77000 12.21800 44.22300
N  -10.29400 14.69900 42.83700
C  -10.98400 13.57500 43.28600
C  -10.03700 12.50300 43.53400
C  -8.81700 13.07000 43.29200
C  -8.99700 14.36600 42.87300
C  -10.35800 11.07700 43.99900
C  -7.38100 12.74000 43.25800
O  -6.88200 11.66000 43.57800
C  -6.62700 14.05900 42.78500
C  -5.80700 14.52900 43.95400
O  -6.16500 15.07400 44.97800
O  -4.52200 14.29000 43.62600
C  -3.54800 14.84500 44.59500
H  -8.88600 20.16900 40.64100
H  -15.06900 18.12000 41.78000
H  -12.79700 12.66400 43.96600
H  -5.71500 17.08900 42.43700
H  -6.73800 19.01000 40.56400
H  -7.49100 20.11000 43.04400
H  -6.06500 20.44300 42.03200
H  -5.85200 19.35400 43.30200
H  -5.89300 17.46400 39.59900
H  -6.47400 16.00100 39.77300
H  -4.04300 15.68600 41.38200
H  -3.66600 16.88300 40.19200
H  -11.31900 22.41700 40.64000
H  -11.93100 21.81800 39.08900
H  -10.28500 21.54900 39.55800
H  -16.33600 21.43000 41.06400
H  -15.73300 20.44000 42.44400
H  -16.01000 19.76200 40.74800
H  -15.75500 15.58600 41.95500
H  -14.95800 14.55800 44.72100
H  -17.36000 16.59000 43.03500
H  -16.15600 17.48700 43.98000
H  -16.68600 15.85200 44.51500
H  -14.84400 12.66800 42.47400
H  -16.27400 13.45500 42.52200
H  -16.85900 12.18700 44.26100
H  -15.38000 12.47200 45.20900
H  -15.51300 11.16900 44.07000
H  -10.55900 10.46400 43.12000
H  -11.21500 11.02200 44.67000
H  -9.42900 10.78400 44.48600
H  -5.99400 13.84400 41.92500
H  -3.07400 15.77200 44.27200
H  -2.65500 14.23400 44.71900
H  -3.93500 15.17500 45.56000

