158

Mg -0.34800 18.27700 27.19400
C  -1.11700 16.06900 29.88700
C  -1.41800 20.89000 29.19400
C  -0.06700 20.23900 24.75100
C  -0.23800 15.44900 25.08100
N  -1.19400 18.37300 29.32200
C  -1.17300 17.42900 30.26600
C  -1.51200 18.07800 31.67600
C  -1.83300 19.56500 31.26900
C  -1.45200 19.59500 29.82100
C  -3.28700 19.97400 31.66000
C  -0.37600 17.84000 32.67000
C  -0.94600 17.23700 34.01300
H  0.01300 16.89000 35.13000
N  -0.65900 20.30300 26.99100
C  -0.97700 21.21100 27.93700
C  -0.98200 22.53700 27.42800
C  -0.36500 22.35300 26.11600
C  -0.36000 20.91200 25.88200
C  -1.59500 23.63100 28.21700
C  0.11500 23.49500 25.02700
O  0.59700 23.20100 23.89800
C  -0.00900 24.94500 25.36100
N  -0.35600 17.86600 25.08300
C  -0.08000 18.89800 24.36300
C  0.12000 18.51700 22.92800
C  0.31400 16.97800 23.04100
C  -0.10900 16.70700 24.48900
C  -1.06600 18.95500 21.91200
C  1.75400 16.44700 22.65400
C  2.78400 16.31100 23.74700
N  -0.57100 16.18200 27.34500
C  -0.50200 15.20100 26.45300
C  -0.60000 13.96900 27.10800
C  -0.90300 14.24800 28.44900
C  -0.84000 15.63900 28.55000
C  -0.50100 12.53800 26.45900
C  -1.07200 13.61900 29.78300
O  -1.13700 12.46700 30.21300
C  -1.21200 14.84300 30.79400
C  -0.07000 14.68700 31.75100
O  1.02700 15.15900 31.60000
O  -0.44900 13.95600 32.92300
C  0.73300 13.54200 33.77500
H  -1.64000 21.74800 29.83200
H  0.30500 20.79700 23.88900
H  -0.14500 14.57600 24.43200
H  -2.41800 17.50500 31.87400
H  -1.16900 20.20800 31.84800
H  -4.01000 19.90200 30.84800
H  -3.28600 21.02700 31.94300
H  -3.55600 19.48500 32.59600
H  -0.03300 18.79200 33.07700
H  0.54000 17.32500 32.38300
H  -1.62800 16.42000 33.77600
H  -1.60500 18.04700 34.32500
H  -1.17900 23.77300 29.21400
H  -2.59100 23.35100 28.55800
H  -1.45700 24.56800 27.67700
H  0.23900 25.02000 26.42000
H  -1.00400 25.31300 25.11200
H  0.77200 25.48800 24.83000
H  1.09600 18.95400 22.71600
H  -0.46300 16.46300 22.47600
H  -2.04200 19.02000 22.39500
H  -1.30100 18.15700 21.20800
H  -0.80400 19.85000 21.34800
H  2.18100 17.23100 22.02900
H  1.80400 15.62500 21.94000
H  3.73700 16.74200 23.44000
H  3.08500 15.30800 24.05000
H  2.63000 16.85500 24.67900
H  -1.50600 12.12100 26.39500
H  0.10300 11.94900 27.15000
H  0.01800 12.47200 25.50300
H  -2.15800 14.82100 31.33500
H  1.69600 13.83700 33.35700
H  0.66700 12.45600 33.83200
H  0.68700 13.93800 34.78900
Mg -10.45400 39.20000 40.21700
C  -8.66200 36.31700 39.07800
C  -7.58100 41.15400 39.60800
C  -12.44300 41.93800 40.22800
C  -13.32400 37.16700 40.19900
N  -8.37900 38.77800 39.53000
C  -7.97400 37.60300 38.99000
C  -6.69400 37.75200 38.24700
C  -6.16200 39.09300 38.86600
C  -7.41800 39.74000 39.39100
C  -5.21500 38.89300 40.10500
C  -6.76300 37.84000 36.72100
C  -6.17200 36.70800 35.89100
H  -7.00300 36.16100 34.69800
N  -10.06000 41.26900 39.97600
C  -8.81500 41.90200 39.71800
C  -8.99200 43.32300 39.61100
C  -10.34900 43.58800 39.85400
C  -11.02700 42.24500 40.05400
C  -7.82200 44.26800 39.24100
C  -10.98900 44.93000 39.83000
O  -10.29500 45.88200 39.53900
C  -12.48600 45.13500 39.94900
N  -12.57000 39.52200 40.17500
C  -13.11800 40.73300 40.34100
C  -14.64200 40.71600 40.38200
C  -14.89300 39.11400 40.18000
C  -13.54700 38.56800 40.17300
C  -15.09900 41.16300 41.74600
C  -15.70100 38.89100 38.91500
C  -16.58600 37.57900 38.82800
N  -10.88500 37.12000 39.99600
C  -12.06800 36.47700 40.12500
C  -11.78300 35.08000 40.14500
C  -10.47400 34.95500 39.66100
C  -9.97200 36.24700 39.62300
C  -12.75300 34.08300 40.57300
C  -9.37600 34.02300 39.26300
O  -9.34000 32.79200 39.40400
C  -8.21500 34.92000 38.73400
C  -6.89000 34.53000 39.41500
O  -6.61200 34.67800 40.59100
O  -6.02700 33.96300 38.50700
C  -4.72700 33.51100 38.98700
H  -6.67600 41.73000 39.40400
H  -13.18500 42.72700 40.36400
H  -14.21200 36.53300 40.24900
H  -6.12500 36.87500 38.55400
H  -5.65800 39.66000 38.08400
H  -4.22500 39.19800 39.76500
H  -5.24800 37.85700 40.44300
H  -5.41400 39.53300 40.96500
H  -6.44700 38.81000 36.33500
H  -7.81200 37.83100 36.42300
H  -6.01700 35.88700 36.59100
H  -5.14500 36.89000 35.57400
H  -8.14800 45.09000 38.60400
H  -7.09000 43.65900 38.71000
H  -7.20300 44.66900 40.04300
H  -12.82100 46.17100 39.89600
H  -12.92400 44.69300 40.84400
H  -13.02500 44.69800 39.10900
H  -14.95400 41.34600 39.54900
H  -15.34200 38.67600 41.07100
H  -15.58000 42.14100 41.72100
H  -14.28400 41.29000 42.45800
H  -15.81300 40.41500 42.09100
H  -14.99300 38.95700 38.08900
H  -16.35800 39.75700 38.83700
H  -16.07400 36.72900 38.37600
H  -17.57500 37.82700 38.44200
H  -16.78800 37.32400 39.86800
H  -12.92000 34.23100 41.64000
H  -12.28600 33.10500 40.45400
H  -13.67400 34.21700 40.00600
H  -8.15300 34.80800 37.65100
H  -4.44300 32.75700 38.25300
H  -4.95800 33.10300 39.97100
H  -3.97100 34.28100 39.13900

