158

Mg 6.56800 55.97300 42.23400
C  5.80700 52.53500 42.38800
C  9.79700 54.98700 41.01400
C  7.21900 59.07500 41.38400
C  3.19900 56.72800 42.70900
N  7.63200 53.97400 41.73700
C  7.08100 52.71900 41.86800
C  8.11900 51.65800 41.45300
C  9.45100 52.46500 41.40600
C  8.96600 53.90700 41.34300
C  10.52800 52.12500 42.46000
C  7.78800 50.78600 40.22600
C  7.34200 51.53100 38.99800
H  6.16400 50.87800 38.25400
N  8.25900 56.88200 41.43800
C  9.45200 56.35200 41.03900
C  10.31000 57.35500 40.56600
C  9.59200 58.60100 40.67200
C  8.31400 58.25000 41.24000
C  11.74800 57.06300 40.20500
C  10.20900 59.94000 40.38700
O  11.32600 60.07100 39.91500
C  9.43500 61.21700 40.64100
N  5.35300 57.64400 42.01600
C  5.96700 58.85400 41.89600
C  4.95000 59.95800 42.27100
C  3.52000 59.22400 42.33800
C  4.08200 57.73200 42.37000
C  5.23200 60.59500 43.66400
C  2.63600 59.55300 41.09400
C  1.61100 60.65700 41.40400
N  4.81800 54.94900 42.55400
C  3.51800 55.39000 42.87200
C  2.74200 54.25800 43.24700
C  3.55700 53.16100 43.19300
C  4.84600 53.56700 42.67600
C  1.35800 54.42300 43.70100
C  3.58900 51.73900 43.37000
O  2.75500 50.94700 43.84900
C  5.05500 51.26000 42.96100
C  4.81900 50.14100 42.13600
O  4.09000 50.07600 41.18800
O  5.62100 49.09600 42.55900
C  5.81200 47.88200 41.75800
H  10.81300 54.68100 40.75800
H  7.20300 60.12400 41.08200
H  2.16000 56.97400 42.94000
H  8.05800 50.96700 42.29400
H  9.91900 52.17800 40.46400
H  10.11900 51.41300 43.17700
H  10.93000 52.99600 42.97900
H  11.44000 51.71100 42.02900
H  7.00300 50.06500 40.45200
H  8.73700 50.32700 39.94700
H  8.18800 51.79600 38.36300
H  7.08200 52.53800 39.32300
H  11.91200 56.99300 39.13000
H  12.11100 56.14000 40.65700
H  12.26800 57.88500 40.69800
H  9.01000 61.23000 41.64400
H  8.56500 61.25300 39.98500
H  10.02300 62.12100 40.47900
H  4.92400 60.81700 41.60100
H  3.10500 59.50600 43.30600
H  4.52600 61.38800 43.90900
H  6.21300 61.05200 43.54000
H  5.23500 59.82000 44.43100
H  2.01100 58.69000 40.86700
H  3.10500 59.77100 40.13500
H  0.56600 60.36900 41.28700
H  1.78300 61.40400 40.63000
H  1.52500 61.08200 42.40400
H  0.60300 54.65300 42.95000
H  1.27800 55.14500 44.51400
H  0.99700 53.51100 44.17600
H  5.68900 50.90900 43.77500
H  6.82000 47.84200 41.34500
H  5.08600 47.71200 40.96300
H  5.64200 47.00600 42.38300
Mg -2.30500 34.14300 26.15300
C  -3.47700 32.74600 29.13700
C  -0.30300 36.22100 27.98000
C  -1.31800 35.60700 23.30900
C  -4.38500 31.97100 24.34700
N  -1.98600 34.46400 28.37200
C  -2.56100 33.78200 29.40500
C  -1.97800 34.28600 30.74400
C  -0.91300 35.34500 30.26400
C  -1.06200 35.32800 28.78800
C  -1.01100 36.75800 31.03400
C  -1.39600 33.19800 31.78200
C  -1.85100 33.39400 33.25100
H  -1.33900 32.39500 34.28400
N  -0.91100 35.66900 25.69500
C  -0.21000 36.41200 26.60200
C  0.55900 37.38300 25.82100
C  0.35700 37.15100 24.48300
C  -0.68300 36.13300 24.39600
C  1.32900 38.50700 26.48600
C  1.14700 37.73500 23.31900
O  0.86100 37.52400 22.13400
C  2.38800 38.57500 23.58700
N  -2.89700 33.95200 24.13900
C  -2.27700 34.62300 23.11200
C  -2.73700 34.10500 21.75900
C  -3.31200 32.69300 22.06100
C  -3.52600 32.82200 23.62100
C  -3.71200 35.00900 21.01100
C  -2.34500 31.53700 21.71500
C  -0.76900 31.75600 21.93300
N  -3.73100 32.80000 26.62500
C  -4.44500 31.91200 25.78500
C  -5.30700 31.04600 26.55200
C  -4.82800 31.29000 27.90700
C  -3.94700 32.39100 27.88000
C  -6.29200 30.10100 26.00000
C  -4.96500 30.76600 29.19300
O  -5.61200 29.85000 29.68500
C  -4.11700 31.65900 30.06300
C  -5.05200 32.42900 30.95800
O  -5.82200 33.30800 30.58600
O  -4.91200 32.00500 32.27500
C  -5.76800 32.53000 33.28100
H  0.28200 36.90700 28.59600
H  -0.92800 35.97500 22.35700
H  -4.89000 31.26100 23.68800
H  -2.80600 34.83300 31.19600
H  0.08300 34.92000 30.39300
H  0.00900 37.11100 31.18600
H  -1.54700 36.72300 31.98300
H  -1.55400 37.33900 30.28900
H  -0.33700 33.45400 31.80000
H  -1.48900 32.22500 31.30100
H  -2.92000 33.54600 33.40100
H  -1.51700 34.38700 33.55300
H  2.40800 38.37400 26.40900
H  1.12400 38.60300 27.55200
H  0.98400 39.44000 26.04000
H  2.08300 39.53700 23.99900
H  2.88700 38.73900 22.63200
H  3.09500 38.03500 24.21700
H  -1.89000 33.92700 21.09600
H  -4.32100 32.49800 21.69500
H  -3.47000 34.92200 19.95200
H  -3.49700 36.04200 21.28600
H  -4.74600 34.68900 21.14500
H  -2.58700 31.34300 20.67000
H  -2.68900 30.59800 22.14900
H  -0.29500 32.10300 21.01500
H  -0.35000 30.78100 22.18400
H  -0.59200 32.52300 22.68700
H  -5.84400 29.11300 26.10500
H  -6.42800 30.38400 24.95600
H  -7.23000 30.07700 26.55500
H  -3.46200 31.07500 30.70900
H  -5.17400 33.08200 34.00800
H  -6.26900 31.65000 33.68500
H  -6.51200 33.29400 33.05700

