158

Mg -1.88100 17.67900 26.90200
C  -2.36200 15.26400 29.33500
C  -2.26900 20.02500 29.37000
C  -1.74400 20.03700 24.43200
C  -1.99000 15.20000 24.43500
N  -2.21600 17.55300 29.19600
C  -2.24700 16.45900 29.98700
C  -2.44000 16.87100 31.43000
C  -2.60000 18.41000 31.31600
C  -2.34500 18.71100 29.86000
C  -4.08600 18.87600 31.75100
C  -1.30800 16.32900 32.38800
C  -0.91900 17.04300 33.63800
H  -0.75600 16.17000 34.76600
N  -1.88400 19.67600 26.91700
C  -2.07800 20.46100 28.00300
C  -1.91400 21.84500 27.63700
C  -1.75700 21.88500 26.23200
C  -1.79400 20.49000 25.81400
C  -2.04200 23.08500 28.60700
C  -1.55300 23.03600 25.22800
O  -1.50900 22.96100 24.00700
C  -1.47600 24.38100 25.79700
N  -2.04900 17.58500 24.72400
C  -1.79900 18.70800 23.92200
C  -1.50400 18.30400 22.45800
C  -1.73700 16.77100 22.45200
C  -1.89100 16.49200 23.97800
C  -2.31600 19.10300 21.37600
C  -0.46900 15.89200 21.85500
C  0.87500 15.96000 22.59800
N  -2.13400 15.67300 26.81600
C  -2.18000 14.80100 25.79600
C  -2.34900 13.48400 26.23100
C  -2.47800 13.65000 27.61800
C  -2.30100 14.97600 27.92500
C  -2.45500 12.16200 25.43900
C  -2.63800 12.88800 28.93100
O  -2.88100 11.68200 29.12500
C  -2.66300 13.89100 30.04400
C  -1.70300 13.40600 31.09300
O  -0.48800 13.48800 30.98300
O  -2.38700 12.81700 32.16200
C  -1.59600 12.06600 33.09100
H  -2.27500 20.77800 30.16100
H  -1.70300 20.77000 23.62300
H  -1.84600 14.36200 23.74900
H  -3.34500 16.37800 31.78500
H  -1.81400 18.94900 31.84500
H  -4.75000 18.02700 31.91100
H  -4.61200 19.40900 30.96000
H  -4.05900 19.48200 32.65700
H  -0.35000 16.29600 31.86900
H  -1.76300 15.36800 32.62500
H  -1.58000 17.84400 33.96900
H  0.06900 17.46900 33.46200
H  -2.50300 24.02000 28.28700
H  -1.01900 23.38700 28.83200
H  -2.55100 22.78800 29.52400
H  -2.43700 24.66300 26.22600
H  -1.17500 25.02700 24.97100
H  -0.73400 24.54500 26.57800
H  -0.46600 18.63500 22.41800
H  -2.60200 16.62300 21.80600
H  -2.88200 19.83800 21.94900
H  -3.05500 18.47300 20.88200
H  -1.56700 19.60800 20.76700
H  -0.26000 16.14600 20.81600
H  -0.68500 14.82500 21.78600
H  0.65300 16.07800 23.65900
H  1.45300 16.79500 22.20200
H  1.49100 15.07000 22.47100
H  -1.80500 11.48600 25.99500
H  -2.05900 12.15800 24.42400
H  -3.41200 11.64500 25.36200
H  -3.66800 13.96900 30.45800
H  -2.18700 11.23000 33.46400
H  -1.24800 12.82400 33.79200
H  -0.69300 11.66300 32.63200
Mg 47.91500 16.53900 28.66000
C  45.89100 16.48800 31.38700
C  50.24400 18.46200 30.34200
C  49.82700 16.74800 25.84100
C  45.40600 14.75400 26.83700
N  47.94500 17.48200 30.57400
C  47.06700 17.21800 31.56900
C  47.54500 17.89300 32.91800
C  48.83800 18.71400 32.46200
C  49.05100 18.12500 31.06600
C  48.84600 20.30000 32.52900
C  47.77700 16.88000 34.07800
C  47.27500 17.21700 35.45800
H  47.26000 18.71500 35.75200
N  49.82800 17.44900 28.15700
C  50.57200 18.16300 29.01900
C  51.83000 18.50400 28.43100
C  51.80600 17.90200 27.06000
C  50.49700 17.34100 26.97100
C  52.95600 19.16700 29.18900
C  52.82200 17.99900 25.83400
O  52.47800 17.54600 24.72200
C  54.08700 18.83800 25.96000
N  47.67600 15.84400 26.66900
C  48.61200 16.04400 25.69900
C  48.17100 15.33400 24.38500
C  46.92600 14.56700 24.81100
C  46.59300 15.04700 26.18700
C  47.75200 16.35300 23.23700
C  47.11500 12.96000 24.80800
C  46.22600 12.15300 23.93100
N  45.93300 15.83700 28.94300
C  45.03900 15.15400 28.13200
C  43.84900 14.85700 28.97700
C  44.17000 15.35800 30.28500
C  45.40100 15.93500 30.18700
C  42.56100 14.25200 28.49000
C  43.64500 15.51300 31.63700
O  42.56400 15.17700 32.10000
C  44.82000 16.23600 32.51000
C  44.29200 17.40700 33.24400
O  44.20100 18.49400 32.71200
O  43.80700 17.03700 34.44800
C  43.15300 18.14200 35.23800
H  50.98800 19.12900 30.78200
H  50.37000 16.60600 24.90400
H  44.71500 14.16600 26.22900
H  46.85600 18.62300 33.34300
H  49.67200 18.36500 33.07000
H  48.13300 20.72000 33.23800
H  48.71000 20.75400 31.54700
H  49.81100 20.58300 32.95100
H  48.80100 16.50800 34.07000
H  47.18200 15.99100 33.86700
H  47.97000 16.71700 36.13200
H  46.30900 16.71300 35.51000
H  53.87200 18.62100 28.96500
H  53.00000 18.98100 30.26200
H  53.07200 20.21000 28.89500
H  54.85400 18.44900 26.63100
H  53.88800 19.79900 26.43400
H  54.48200 18.78000 24.94600
H  48.96900 14.69600 24.00400
H  46.03300 14.76100 24.21700
H  48.24000 17.31400 23.39700
H  46.69300 16.61000 23.26300
H  48.02000 15.98000 22.24800
H  47.02400 12.70800 25.86400
H  48.15900 12.73400 24.59100
H  46.81100 11.25500 23.73200
H  45.89600 12.58900 22.98900
H  45.35800 11.84000 24.51100
H  42.47100 13.21700 28.81800
H  42.59000 14.30500 27.40200
H  41.76100 14.95000 28.73600
H  45.19500 15.53300 33.25400
H  42.13000 17.81500 35.41900
H  43.05200 19.04900 34.64100
H  43.71300 18.22100 36.17100

