158

Mg 9.42200 3.53300 28.23700
C  10.75500 1.88600 31.08100
C  7.45900 5.47600 30.39100
C  7.72200 4.58200 25.60900
C  10.80600 0.94900 26.22900
N  9.20600 3.66800 30.51700
C  9.90900 2.98300 31.44400
C  9.56200 3.50900 32.90800
C  8.46600 4.58900 32.60000
C  8.31700 4.61600 31.03800
C  7.07700 4.38700 33.29400
C  10.77900 4.13400 33.71200
C  11.10100 3.53400 35.07600
H  11.23400 4.48600 36.31100
N  7.82100 4.84400 27.99400
C  7.22400 5.59900 28.98100
C  6.31200 6.54900 28.29700
C  6.37800 6.34800 26.89700
C  7.35200 5.20200 26.79000
C  5.44000 7.49800 29.10000
C  5.58400 7.02200 25.76700
O  5.85100 6.83400 24.60300
C  4.52400 8.10300 26.09300
N  9.35500 2.90200 26.23100
C  8.62100 3.54000 25.35800
C  8.96800 3.10700 23.94000
C  9.79800 1.90200 24.12800
C  10.04300 1.90000 25.60800
C  7.76700 2.90800 23.00000
C  11.11700 1.86500 23.33200
C  11.48400 0.58500 22.49500
N  10.59600 1.80500 28.55500
C  11.09800 0.87600 27.64400
C  11.88800 -0.07600 28.32100
C  11.72400 0.21700 29.64100
C  11.00800 1.44400 29.77000
C  12.57600 -1.29100 27.77400
C  12.10500 -0.25700 30.99100
O  12.60400 -1.31000 31.29300
C  11.50700 0.87900 31.98300
C  10.62300 0.26900 33.07900
O  9.41800 -0.00300 32.95900
O  11.31300 -0.02000 34.22100
C  10.50100 -0.47700 35.34100
H  6.89400 6.15000 31.03800
H  7.15700 4.90000 24.73100
H  11.15800 0.16800 25.55200
H  9.12800 2.60100 33.32600
H  8.84000 5.54700 32.96100
H  7.22100 3.46600 33.85900
H  6.33600 4.38200 32.49400
H  6.92800 5.18600 34.01900
H  10.62700 5.21100 33.77900
H  11.61400 3.96500 33.03300
H  12.01600 2.97400 34.88300
H  10.29300 2.81700 35.21900
H  5.47000 7.40700 30.18600
H  4.41200 7.19300 28.90900
H  5.79800 8.50500 28.88600
H  3.76900 7.56100 26.66400
H  4.20700 8.47600 25.11900
H  5.02800 8.92100 26.60700
H  9.61000 3.86200 23.48700
H  9.32100 0.94100 23.93400
H  6.88500 2.98000 23.63500
H  7.81400 1.87900 22.64400
H  7.49500 3.54900 22.16100
H  11.94200 2.10700 24.00200
H  11.00900 2.62600 22.56000
H  10.67200 0.26000 21.84500
H  11.66700 -0.27800 23.13500
H  12.41600 0.76600 21.96000
H  13.22700 -1.83000 28.46200
H  13.03900 -1.14500 26.79800
H  11.85100 -2.06700 27.52900
H  12.23800 1.47400 32.52900
H  10.12100 -1.40200 34.90700
H  9.65100 0.17100 35.55800
H  11.01000 -0.66300 36.28700
Mg 35.59200 1.53000 30.06500
C  33.54100 2.93000 32.64600
C  38.25800 2.03200 32.35300
C  37.73900 0.92300 27.56100
C  32.94900 1.93500 27.89500
N  35.80400 2.12400 32.33700
C  34.80300 2.57600 33.14500
C  35.29300 2.64700 34.60500
C  36.85400 2.74600 34.39200
C  37.02000 2.28000 32.89600
C  37.47400 4.11700 34.70400
C  34.71700 1.53600 35.53500
C  34.75900 1.79200 37.07300
H  35.47700 3.04300 37.47900
N  37.67400 1.28300 30.01400
C  38.56300 1.61400 30.95900
C  39.88000 1.42200 30.37500
C  39.79500 1.07500 28.99900
C  38.33900 1.10100 28.78100
C  41.15600 1.50800 31.11100
C  40.86700 0.94600 27.91100
O  40.52600 0.46800 26.80700
C  42.39000 1.19100 28.04300
N  35.35500 1.35200 28.07500
C  36.38700 0.97600 27.18700
C  35.87700 0.81900 25.71700
C  34.30300 0.95300 25.92200
C  34.14800 1.44900 27.41300
C  36.54700 1.92800 24.89700
C  33.46800 -0.37200 25.71200
C  32.35800 -0.29500 24.71500
N  33.65700 2.22500 30.20300
C  32.64900 2.32400 29.21700
C  31.42400 2.84200 29.72800
C  31.72100 3.17400 31.09800
C  33.06300 2.80900 31.28700
C  30.20700 3.24900 28.97000
C  31.18200 3.64900 32.35600
O  30.13700 4.19900 32.56200
C  32.34100 3.46700 33.41300
C  32.64500 4.75100 34.09600
O  33.13800 5.66000 33.46600
O  32.36600 4.84700 35.41700
C  32.69200 6.14700 36.06300
H  39.12800 2.33700 32.94000
H  38.29300 0.83800 26.62400
H  32.08000 1.96100 27.23400
H  34.86500 3.60000 34.91800
H  37.36500 2.06900 35.07700
H  37.49900 4.61900 33.73700
H  38.52800 3.93200 34.91000
H  36.86000 4.65500 35.42700
H  35.34900 0.66700 35.35000
H  33.72000 1.36900 35.12700
H  35.18100 0.90200 37.53900
H  33.73600 1.83700 37.44900
H  41.61200 0.52600 30.98700
H  41.02500 1.78700 32.15700
H  41.80000 2.20400 30.57200
H  42.86600 0.90100 27.10700
H  42.79700 0.72100 28.93800
H  42.51800 2.26700 27.92400
H  36.13500 -0.16200 25.32000
H  33.89200 1.69900 25.24200
H  36.75000 2.81900 25.49200
H  35.86700 2.28300 24.12300
H  37.47300 1.65000 24.39500
H  33.01100 -0.72500 26.63700
H  34.23200 -1.11000 25.46800
H  32.08400 0.73500 24.48700
H  31.41300 -0.67400 25.10500
H  32.51400 -0.78100 23.75200
H  29.53300 2.40500 28.82600
H  30.48600 3.72400 28.03000
H  29.70800 4.05100 29.51500
H  31.86800 2.82800 34.15800
H  31.78200 6.71100 36.27100
H  33.48200 6.58500 35.45500
H  33.15600 5.80500 36.98800

