158

Mg 24.22700 -5.43000 46.22900
C  26.40800 -2.96800 44.59400
C  21.70800 -4.20400 44.13600
C  22.59100 -8.06200 46.82200
C  27.07700 -6.59200 47.78800
N  24.12300 -3.74000 44.65600
C  25.05100 -2.85600 44.16000
C  24.45700 -1.84800 43.13800
C  22.91800 -2.08200 43.37500
C  22.86700 -3.40800 44.09700
C  22.23700 -0.99500 44.18800
C  25.00800 -2.23200 41.69800
C  25.46800 -1.03600 40.87100
H  24.98000 -0.87400 39.44800
N  22.33000 -6.00500 45.70200
C  21.47200 -5.41000 44.83100
C  20.25400 -6.19300 44.70100
C  20.39200 -7.37100 45.49900
C  21.78900 -7.22800 46.06300
C  19.21400 -5.80800 43.70900
C  19.31400 -8.40000 45.80300
O  18.18600 -8.34100 45.24500
C  19.50700 -9.67200 46.67700
N  24.76800 -7.08300 47.08800
C  23.82200 -8.00800 47.39000
C  24.40000 -9.11600 48.22100
C  25.73600 -8.46900 48.77000
C  25.90100 -7.29800 47.81100
C  23.45400 -9.79200 49.31800
C  26.87800 -9.39700 48.94400
C  27.45900 -9.62800 50.34000
N  26.29800 -4.92500 46.19500
C  27.31800 -5.45300 47.01500
C  28.56700 -4.79900 46.76200
C  28.26500 -3.77600 45.79100
C  26.87500 -3.99300 45.50400
C  29.89600 -5.04000 47.51700
C  28.72300 -2.68700 45.00600
O  29.85200 -2.26300 44.91000
C  27.54800 -2.11700 44.13800
C  27.54400 -0.64900 44.48000
O  27.65400 -0.16800 45.60100
O  27.53600 0.16100 43.33700
C  27.91500 1.59700 43.58300
H  20.99300 -3.58600 43.58900
H  22.00900 -8.91800 47.17000
H  27.92200 -6.93500 48.38800
H  24.77100 -0.81900 43.31400
H  22.42400 -2.25400 42.41900
H  21.46100 -0.48100 43.62000
H  22.92700 -0.21100 44.49700
H  21.68500 -1.36100 45.05300
H  24.17000 -2.64400 41.13700
H  25.86800 -2.89800 41.63100
H  26.55000 -1.15900 40.91900
H  25.16600 -0.13700 41.40800
H  19.60200 -5.09800 42.97900
H  18.42600 -5.35000 44.30800
H  18.72700 -6.68200 43.27600
H  20.00900 -9.36700 47.59500
H  20.05400 -10.49200 46.21200
H  18.48100 -9.92700 46.94100
H  24.50700 -9.97800 47.56300
H  25.54200 -8.03100 49.74900
H  23.50000 -10.87900 49.25100
H  22.40900 -9.49600 49.23200
H  23.76200 -9.68400 50.35800
H  27.69900 -9.15700 48.26900
H  26.56800 -10.42700 48.76800
H  26.58600 -9.63300 50.99200
H  27.98900 -8.71400 50.60800
H  28.07000 -10.53100 50.31100
H  30.29100 -4.09800 47.89700
H  30.63500 -5.55800 46.90400
H  29.66200 -5.72900 48.32900
H  27.80000 -2.14900 43.07800
H  28.59400 1.70800 44.42800
H  26.99000 2.11200 43.84200
H  28.37000 2.04000 42.69700
Mg -1.96000 33.35900 26.69500
C  -3.63200 31.76700 29.20800
C  -0.75200 35.68100 28.96300
C  -0.75100 35.11900 24.17300
C  -3.62700 31.25400 24.39400
N  -2.21000 33.76600 28.86300
C  -2.84100 32.87400 29.65500
C  -2.76800 33.34500 31.16500
C  -1.84800 34.67400 31.09400
C  -1.69100 34.84100 29.52000
C  -2.46400 35.92400 31.76400
C  -2.31300 32.19400 32.06600
C  -1.61000 32.53400 33.39600
H  -1.93200 31.62000 34.54300
N  -0.66200 35.05200 26.53200
C  -0.30300 35.83900 27.58700
C  0.63000 36.83400 27.03700
C  0.59000 36.74900 25.66100
C  -0.31800 35.58800 25.39700
C  1.34200 37.71700 28.01600
C  1.26300 37.58700 24.58700
O  1.16700 37.39100 23.35900
C  2.10000 38.81200 25.02300
N  -2.47800 33.43400 24.65100
C  -1.60500 34.14000 23.82300
C  -1.71000 33.70500 22.37000
C  -2.23500 32.21000 22.58000
C  -2.80900 32.27600 23.97300
C  -2.35300 34.66600 21.36400
C  -1.24900 31.03900 22.27600
C  -0.59300 30.25200 23.40500
N  -3.40300 31.78600 26.73900
C  -3.97000 31.03800 25.72700
C  -4.82600 30.09700 26.26900
C  -4.74100 30.29800 27.66200
C  -3.88100 31.41500 27.85200
C  -5.68100 29.07400 25.48200
C  -5.22900 29.94300 28.98800
O  -5.85500 28.98200 29.31900
C  -4.38100 30.79700 30.02300
C  -5.34700 31.45900 30.92600
O  -5.97000 32.47500 30.74500
O  -5.69100 30.57900 31.93600
C  -6.69300 31.19300 32.85200
H  -0.38400 36.48800 29.59900
H  -0.31100 35.67100 23.34000
H  -3.80900 30.42600 23.70600
H  -3.75000 33.72700 31.44400
H  -0.83900 34.37800 31.38300
H  -1.63700 36.35500 32.32800
H  -3.23500 35.47700 32.39200
H  -2.93300 36.59100 31.04100
H  -1.82500 31.34600 31.58600
H  -3.30200 31.85700 32.37800
H  -1.70900 33.55800 33.75500
H  -0.55100 32.37100 33.19500
H  2.35500 37.81800 27.62700
H  1.20800 37.37600 29.04300
H  0.82600 38.67500 27.95900
H  1.39600 39.43000 25.58000
H  2.54400 39.27800 24.14400
H  2.98300 38.49600 25.57900
H  -0.72100 33.66900 21.91300
H  -3.06800 32.22100 21.87700
H  -2.58800 35.57500 21.91700
H  -3.23100 34.27000 20.85300
H  -1.62500 34.83500 20.57100
H  -0.49100 31.40700 21.58500
H  -1.87800 30.29900 21.78000
H  0.49200 30.20400 23.30700
H  -0.85100 29.19600 23.32800
H  -0.84800 30.62500 24.39600
H  -5.20000 28.70500 24.57600
H  -6.59200 29.63400 25.27000
H  -5.79500 28.24400 26.17900
H  -3.64500 30.21800 30.58100
H  -7.24600 30.45000 33.42500
H  -7.55800 31.62900 32.35300
H  -6.29400 31.91100 33.57000

