158

Mg 30.53300 58.82100 38.88300
C  27.92300 56.72100 37.60700
C  32.63300 56.26900 38.01400
C  33.01000 61.02000 39.10800
C  28.13100 61.42000 38.96400
N  30.28200 56.74500 37.70700
C  29.15600 56.13500 37.40400
C  29.41100 54.74900 36.81700
C  31.02700 54.60400 37.04900
C  31.32100 55.89300 37.77200
C  31.42500 53.35000 37.83100
C  29.00300 54.54600 35.36200
C  29.31700 55.66800 34.32200
H  28.31600 56.18300 33.26500
N  32.60900 58.59000 38.74500
C  33.24400 57.42500 38.36000
C  34.67900 57.64000 38.51100
C  34.79800 59.07900 38.88800
C  33.43000 59.65000 38.87600
C  35.76000 56.62200 38.27700
C  36.00800 59.79800 39.29500
O  37.03900 59.23500 39.12900
C  36.06400 61.12800 39.80100
N  30.52300 60.92400 39.12500
C  31.69300 61.54100 39.22800
C  31.48800 63.03600 39.56900
C  29.92000 63.20600 39.23400
C  29.45900 61.77500 39.17000
C  31.89700 63.47600 41.03200
C  29.68800 64.07700 37.92600
C  29.82600 65.62900 37.81500
N  28.42300 59.04700 38.54100
C  27.63200 60.13700 38.68300
C  26.25400 59.81300 38.39400
C  26.30900 58.48000 37.97000
C  27.67300 58.08400 38.01100
C  25.04400 60.75600 38.40000
C  25.58600 57.34500 37.48000
O  24.39400 57.17000 37.30700
C  26.55400 56.16100 37.31500
C  26.07400 54.91400 38.07700
O  26.24300 54.69400 39.28000
O  25.25000 54.14400 37.24100
C  24.49100 53.07700 37.96100
H  33.35800 55.48300 37.79600
H  33.73600 61.83200 39.18700
H  27.43500 62.26100 38.99500
H  28.79300 54.05100 37.38200
H  31.64500 54.55700 36.15200
H  31.70400 53.63700 38.84500
H  32.18700 52.72900 37.36100
H  30.65400 52.58000 37.87000
H  27.92700 54.37400 35.32200
H  29.56400 53.66800 35.04100
H  30.23200 55.36600 33.81300
H  29.61200 56.59900 34.80700
H  36.41600 56.63500 39.14700
H  36.20800 56.66400 37.28500
H  35.29100 55.63900 38.32500
H  37.08600 61.25700 40.15700
H  35.42000 61.24600 40.67200
H  35.80200 61.79500 38.97900
H  32.07600 63.69800 38.93300
H  29.42300 63.68100 40.08000
H  32.76800 64.12400 40.94100
H  32.25500 62.59300 41.56100
H  31.20500 63.95100 41.72700
H  28.60900 63.97500 37.81100
H  30.20000 63.63900 37.06900
H  30.26300 66.02400 38.73200
H  28.87500 66.09500 37.55800
H  30.53200 65.86300 37.01800
H  24.16900 60.10600 38.41900
H  24.91900 61.42100 37.54500
H  25.10500 61.38100 39.29100
H  26.61400 56.02700 36.23400
H  24.03000 53.32200 38.91700
H  25.13500 52.21900 38.15300
H  23.69000 52.83600 37.26200
Mg 6.06700 55.63200 39.35500
C  5.41500 52.23300 39.77900
C  9.47000 55.03500 38.61800
C  6.45200 58.83900 38.06600
C  2.56500 56.31700 39.60400
N  7.15000 53.82800 38.98000
C  6.72900 52.53500 39.38600
C  7.93600 51.57000 39.19600
C  9.18600 52.53400 39.25900
C  8.57200 53.91900 38.94500
C  10.02300 52.49700 40.56600
C  7.86400 50.67000 37.95700
C  7.53400 51.31200 36.57000
H  6.08100 51.02500 36.12300
N  7.73700 56.75700 38.49800
C  9.04100 56.33900 38.33600
C  9.86600 57.43900 37.96700
C  8.98900 58.53700 37.69700
C  7.62400 58.06500 38.03700
C  11.42800 57.32800 37.84800
C  9.43700 59.94500 37.42100
O  10.57800 60.15600 37.05800
C  8.54300 61.13800 37.42500
N  4.67200 57.29900 38.87000
C  5.15100 58.46800 38.43400
C  3.99900 59.57500 38.41200
C  2.78100 58.67700 38.73300
C  3.40700 57.39900 39.24400
C  4.16400 60.69000 39.41300
C  1.89000 58.49300 37.44600
C  1.10700 59.76800 37.08100
N  4.28500 54.57000 39.67200
C  2.95300 54.95800 39.80700
C  2.14700 53.82900 40.23600
C  3.06000 52.75600 40.32300
C  4.31700 53.21000 39.90600
C  0.72100 53.76800 40.45700
C  3.18000 51.30100 40.62400
O  2.49000 50.42200 41.11400
C  4.67900 50.89000 40.20600
C  4.58100 49.90600 39.19300
O  3.75900 50.00600 38.27400
O  5.36000 48.77900 39.50400
C  4.96800 47.64000 38.73400
H  10.47500 54.66300 38.40700
H  6.49800 59.83100 37.61100
H  1.49400 56.51900 39.68300
H  7.91100 50.93500 40.08100
H  9.90000 52.21400 38.50000
H  9.71200 51.85500 41.39000
H  10.15900 53.51900 40.91900
H  10.99800 52.09800 40.28500
H  7.09100 49.93000 38.16200
H  8.78900 50.09900 37.87700
H  8.35900 51.03200 35.91500
H  7.62200 52.39900 36.56700
H  11.60400 57.33300 36.77300
H  11.77800 56.41500 38.32900
H  11.88400 58.17700 38.35800
H  9.08100 62.04300 37.14200
H  7.98100 61.19800 38.35700
H  7.92600 60.87700 36.56500
H  3.88600 60.03400 37.43000
H  2.07700 59.10100 39.44900
H  5.22800 60.90600 39.51200
H  3.91200 60.27200 40.38700
H  3.49100 61.54400 39.35300
H  1.17500 57.67200 37.49400
H  2.54500 58.24700 36.60900
H  0.05200 59.60600 37.30300
H  1.19100 59.90900 36.00300
H  1.49800 60.63900 37.60700
H  0.15600 53.36900 39.61400
H  0.28300 54.65000 40.92500
H  0.45600 52.91500 41.08300
H  5.15300 50.34900 41.02500
H  5.90800 47.22000 38.37600
H  4.22800 47.68000 37.93500
H  4.48300 46.94800 39.42300

