158

Mg 35.25700 1.74300 30.82500
C  32.66100 3.09600 32.78800
C  37.03000 1.39000 33.61400
C  37.77900 0.75700 28.84500
C  33.18100 1.99200 27.96600
N  34.80000 2.07900 33.03100
C  33.69700 2.67200 33.57200
C  33.88100 2.77500 35.14100
C  35.40700 2.37100 35.31400
C  35.75200 1.91100 33.89500
C  36.28100 3.44800 35.92800
C  32.99900 1.76100 35.85500
C  32.11100 2.34700 36.98500
H  32.62100 3.48500 37.89500
N  37.16200 1.11700 31.18800
C  37.75400 1.05700 32.39200
C  39.15700 0.64400 32.25600
C  39.41700 0.55600 30.83500
C  38.06100 0.76100 30.22600
C  40.05700 0.38500 33.45300
C  40.69900 0.19300 30.07700
O  40.71000 -0.06200 28.90700
C  41.98900 0.18900 30.84400
N  35.40500 1.27500 28.68600
C  36.59500 0.94800 28.13000
C  36.49900 1.03100 26.56300
C  34.98000 0.98300 26.38300
C  34.44300 1.46100 27.75600
C  37.18300 2.26900 25.91100
C  34.42300 -0.40000 25.96100
C  32.98900 -0.93500 26.34700
N  33.36300 2.45700 30.42600
C  32.68200 2.50400 29.23300
C  31.36800 3.11600 29.45500
C  31.33200 3.46300 30.81500
C  32.53500 2.93000 31.38600
C  30.27000 3.22700 28.40900
C  30.56400 4.04500 31.85700
O  29.50900 4.62800 31.79900
C  31.41600 3.90700 33.21600
C  31.78000 5.22300 33.69100
O  32.72800 5.87100 33.33700
O  30.86700 5.61800 34.68200
C  31.22000 6.97400 35.25400
H  37.67200 1.28700 34.49200
H  38.57300 0.55300 28.12300
H  32.69700 2.02800 26.98700
H  33.59600 3.81600 35.29400
H  35.60200 1.44700 35.86000
H  35.71700 4.17900 36.50700
H  36.77700 3.91400 35.07700
H  36.92400 2.86600 36.58800
H  33.59300 0.99800 36.35900
H  32.30800 1.30500 35.14600
H  31.91300 1.55700 37.71000
H  31.20000 2.57400 36.43200
H  39.56700 0.29300 34.42200
H  40.87100 1.10800 33.51400
H  40.43600 -0.61000 33.22100
H  41.94900 -0.40500 31.75700
H  42.23700 1.18600 31.20900
H  42.87100 -0.09900 30.27300
H  37.02800 0.16700 26.16200
H  34.63800 1.65200 25.59300
H  38.09900 1.92200 25.43300
H  37.39200 2.99000 26.70100
H  36.54700 2.74600 25.16500
H  35.10400 -1.09900 26.44700
H  34.65200 -0.63500 24.92200
H  32.24100 -0.18400 26.59700
H  33.10200 -1.65900 27.15400
H  32.69000 -1.56000 25.50600
H  29.58100 4.02400 28.68900
H  29.74400 2.28500 28.26000
H  30.68900 3.52000 27.44600
H  30.72800 3.44100 33.92100
H  30.33600 7.25000 35.83000
H  31.55000 7.69400 34.50500
H  32.09300 6.83300 35.89100
Mg 26.77000 50.28100 27.02400
C  24.68100 51.42600 29.57000
C  29.06900 49.59900 29.47100
C  28.89700 49.44200 24.60400
C  24.57000 51.58500 24.60600
N  26.84700 50.55700 29.17500
C  25.83200 50.91200 30.02700
C  26.21600 50.67800 31.44100
C  27.75600 50.43100 31.43400
C  27.97700 50.25500 29.91600
C  28.69300 51.52600 32.11500
C  25.27100 49.63100 32.05600
C  24.74800 50.13700 33.41900
H  25.78200 50.50400 34.54700
N  28.70400 49.51600 27.06800
C  29.46900 49.23300 28.12600
C  30.73900 48.61300 27.66000
C  30.69800 48.58700 26.26800
C  29.40300 49.20300 25.92700
C  31.83900 48.09200 28.67600
C  31.81400 48.22500 25.20700
O  31.75000 48.41200 24.04100
C  33.07100 47.54600 25.66100
N  26.62900 50.30600 24.90000
C  27.68500 49.93000 24.15200
C  27.31400 49.96400 22.63000
C  25.81100 50.48600 22.67300
C  25.64500 50.85300 24.14400
C  28.29500 50.74000 21.79500
C  24.71500 49.49000 22.09300
C  23.52100 50.03800 21.33100
N  24.98600 51.30400 27.01000
C  24.16700 51.65700 25.94700
C  22.93700 52.23200 26.40700
C  23.07100 52.19700 27.86000
C  24.40200 51.67000 28.15200
C  21.81100 52.77500 25.56700
C  22.50900 52.53500 29.18400
O  21.54400 53.11100 29.52000
C  23.52200 52.09000 30.32700
C  23.98300 53.15500 31.25300
O  25.10600 53.70500 31.26000
O  23.02800 53.35500 32.17100
C  23.46400 54.34700 33.21900
H  29.78200 49.20900 30.20200
H  29.62500 49.17700 23.83300
H  23.86200 52.00900 23.89100
H  26.01300 51.61400 31.96100
H  27.93300 49.54900 32.04900
H  29.20100 51.00200 32.92500
H  28.04300 52.32300 32.47600
H  29.46300 51.93900 31.46300
H  25.71400 48.64800 32.21500
H  24.40000 49.48900 31.41600
H  24.13400 49.36000 33.87400
H  24.06300 50.95600 33.19700
H  31.61700 48.35900 29.71000
H  32.77800 48.62100 28.51500
H  32.17200 47.07600 28.46400
H  33.79100 48.35400 25.79600
H  33.47100 46.92800 24.85700
H  33.02200 46.92000 26.55200
H  27.35500 48.88900 22.45200
H  25.83200 51.46400 22.19100
H  29.14500 51.07700 22.38700
H  27.88500 51.47500 21.10300
H  28.61400 49.98100 21.08100
H  24.21400 49.12200 22.98900
H  25.12000 48.75300 21.40000
H  23.52700 49.49900 20.38400
H  23.73800 51.07500 21.07100
H  22.55400 49.82200 21.78500
H  21.48300 52.18000 24.71500
H  22.10800 53.75600 25.19700
H  20.97900 52.88500 26.26300
H  23.01700 51.31400 30.90200
H  23.82000 55.26100 32.74300
H  24.28300 53.92900 33.80400
H  22.59800 54.58900 33.83400

