158

Mg 41.31800 7.77500 30.37100
C  43.08100 9.36800 33.00900
C  39.05400 6.48000 32.63400
C  39.71900 6.03100 27.88400
C  43.59800 8.88400 28.05800
N  41.21900 7.88700 32.55400
C  41.97200 8.57500 33.48000
C  41.54300 8.40400 34.89600
C  40.40300 7.30600 34.66500
C  40.20700 7.18500 33.19100
C  40.50600 5.93800 35.44800
C  41.00400 9.74900 35.33500
C  41.61500 10.41500 36.58500
H  40.69800 10.80800 37.76400
N  39.58900 6.53600 30.21400
C  38.77300 6.14800 31.27700
C  37.63000 5.33600 30.71500
C  37.82500 5.34600 29.32600
C  39.07900 5.96800 29.10100
C  36.50000 4.72500 31.49700
C  36.86400 4.68400 28.31500
O  37.27100 4.54900 27.16300
C  35.41800 4.25400 28.62000
N  41.68300 7.38000 28.28200
C  40.91200 6.60800 27.48300
C  41.45400 6.53300 25.99900
C  42.53700 7.70800 26.04300
C  42.63700 8.02100 27.58300
C  41.90100 5.17700 25.55300
C  42.27300 8.92500 25.09800
C  41.09700 9.82800 25.41200
N  43.02500 8.86200 30.42400
C  43.86500 9.23800 29.40200
C  44.92100 10.09700 29.96100
C  44.60300 10.17100 31.35100
C  43.52200 9.37700 31.59000
C  46.07600 10.70000 29.21100
C  45.10000 10.73100 32.59400
O  46.05800 11.49500 32.79800
C  44.07400 10.29900 33.67600
C  44.98200 9.47200 34.58800
O  45.58400 8.46300 34.26400
O  45.08600 10.00000 35.79100
C  45.99700 9.37500 36.78800
H  38.31000 6.01600 33.28400
H  39.29900 5.42900 27.07500
H  44.20800 9.31800 27.26300
H  42.39700 7.96000 35.40700
H  39.47300 7.82900 34.88900
H  40.33300 5.10800 34.76300
H  39.67700 5.90700 36.15600
H  41.44900 5.78000 35.97100
H  39.94500 9.68400 35.58900
H  41.05400 10.53800 34.58500
H  41.97200 11.40300 36.29200
H  42.55400 9.90300 36.79700
H  35.58600 5.31500 31.42500
H  36.68400 4.83900 32.56500
H  36.55400 3.65500 31.30100
H  35.29600 3.52600 29.42200
H  34.99300 3.89200 27.68400
H  34.89600 5.17400 28.88600
H  40.61200 6.76600 25.34700
H  43.52200 7.31500 25.79300
H  42.80300 4.84200 26.06500
H  42.08100 5.20400 24.47800
H  41.21800 4.33600 25.67400
H  42.11300 8.41100 24.15000
H  43.19600 9.50200 25.03900
H  40.67500 9.59500 26.39000
H  40.31200 9.71000 24.66500
H  41.36700 10.87600 25.54500
H  46.20000 11.75900 29.43900
H  45.93200 10.52100 28.14600
H  47.05500 10.31800 29.50300
H  43.72100 11.18800 34.19900
H  46.05100 8.28700 36.83800
H  45.68000 9.63600 37.79700
H  47.03100 9.66400 36.60000
Mg 45.81100 24.68900 28.59000
C  46.30400 26.80800 31.32700
C  45.87500 22.04800 30.80400
C  46.10300 22.73000 25.90000
C  46.46100 27.53900 26.50300
N  46.10500 24.53800 30.79600
C  46.17500 25.50300 31.70800
C  46.06600 24.99200 33.16600
C  46.04600 23.40300 32.98700
C  45.87300 23.27300 31.42200
C  47.32500 22.75800 33.55600
C  44.87000 25.60500 33.97900
C  45.18800 26.00800 35.43200
H  44.26300 25.65800 36.59100
N  45.87700 22.60200 28.37600
C  45.83100 21.70900 29.37800
C  45.74100 20.37800 28.85400
C  45.81600 20.51800 27.39100
C  45.96300 22.00600 27.16300
C  45.68900 19.25100 29.73900
C  45.72000 19.51800 26.31100
O  45.92000 19.80400 25.09600
C  45.31200 18.14800 26.68200
N  46.11500 25.07600 26.54400
C  46.08500 24.09900 25.59100
C  45.95600 24.66700 24.07700
C  46.00700 26.22900 24.41500
C  46.27100 26.32600 25.90000
C  47.17800 24.28800 23.14400
C  44.76800 27.13500 23.93300
C  43.40000 26.70500 24.37400
N  46.07000 26.77500 28.79000
C  46.40900 27.75800 27.89700
C  46.69900 28.99000 28.57400
C  46.71400 28.63600 29.92800
C  46.23600 27.31300 30.01100
C  46.97400 30.32600 27.93800
C  46.94000 29.16000 31.24000
O  47.34200 30.30700 31.52400
C  46.61700 28.05100 32.24000
C  47.83800 27.84100 33.10300
O  48.94000 27.33900 32.81800
O  47.56300 28.39400 34.33900
C  48.55300 28.11200 35.40500
H  45.81300 21.27500 31.57200
H  46.12800 22.15200 24.97400
H  46.60000 28.40500 25.85300
H  46.94100 25.37700 33.69000
H  45.21200 22.94200 33.51600
H  48.00300 22.41100 32.77600
H  46.97800 21.88800 34.11300
H  47.89600 23.39900 34.22800
H  44.17800 24.77700 34.13300
H  44.35300 26.42000 33.47200
H  45.15200 27.08800 35.28700
H  46.19500 25.64500 35.63900
H  45.45500 18.29200 29.27700
H  44.90300 19.37200 30.48400
H  46.67300 19.23200 30.20800
H  45.37500 17.46800 25.83200
H  44.28000 18.17400 27.03200
H  46.01400 17.69500 27.38200
H  45.00900 24.32500 23.66000
H  46.92000 26.61800 23.96300
H  48.05300 24.86900 23.43600
H  46.86500 24.60300 22.14800
H  47.50400 23.26500 23.33000
H  44.72600 27.06400 22.84600
H  44.97900 28.16800 24.20800
H  43.68000 25.93700 25.09400
H  42.71100 26.19400 23.70200
H  42.91900 27.55300 24.86300
H  48.06000 30.38900 27.87300
H  46.66000 31.07900 28.66000
H  46.49000 30.45700 26.97100
H  45.67500 28.32100 32.71800
H  49.48000 28.61300 35.12700
H  48.69500 27.03200 35.36500
H  48.39800 28.44200 36.43200

