158

Mg 0.85400 7.89100 25.66400
C  1.49200 10.03500 28.37800
C  1.08200 5.16000 27.80600
C  0.84000 5.86900 23.00100
C  1.24900 10.67800 23.55100
N  1.26500 7.62200 27.79400
C  1.35300 8.71200 28.77100
C  1.54200 8.11600 30.22500
C  1.55900 6.51700 29.93300
C  1.27900 6.40400 28.40800
C  2.90900 5.77400 30.37400
C  0.33700 8.53700 31.11900
C  0.48300 8.50900 32.60900
H  1.73200 7.89500 33.20000
N  0.69500 5.85100 25.46900
C  0.84200 4.90000 26.46600
C  0.87300 3.59300 25.86400
C  0.85600 3.74500 24.45700
C  0.79000 5.17600 24.24400
C  0.97300 2.34800 26.73800
C  0.80300 2.73700 23.33800
O  0.60400 3.05200 22.19100
C  0.91100 1.34400 23.63800
N  1.11700 8.24700 23.63400
C  0.90100 7.24200 22.72300
C  0.94000 7.73500 21.24600
C  1.05100 9.31800 21.44000
C  1.09200 9.44200 22.97900
C  2.01800 7.11200 20.32700
C  -0.04800 10.14200 20.75400
C  -1.40000 10.19800 21.44800
N  1.20500 9.98400 25.86800
C  1.39900 10.95300 24.91100
C  1.73800 12.22700 25.53700
C  1.76200 11.92300 26.93700
C  1.48600 10.53400 27.06500
C  2.10600 13.57000 24.99000
C  1.91900 12.49500 28.23200
O  2.09200 13.68200 28.53600
C  1.74600 11.22700 29.23100
C  2.89700 11.13700 30.26100
O  4.08300 11.20900 29.97800
O  2.34900 11.10700 31.48900
C  3.25000 11.30500 32.58700
H  1.26000 4.38100 28.55000
H  0.94600 5.18000 22.16000
H  1.29800 11.52000 22.85800
H  2.44400 8.56400 30.64000
H  0.67200 6.03200 30.34200
H  3.52300 6.36900 31.05000
H  3.49300 5.43500 29.51800
H  2.66800 4.84000 30.88100
H  -0.47500 7.83900 30.91600
H  -0.09400 9.52200 30.94300
H  -0.45200 8.15700 33.04600
H  0.52500 9.55200 32.92100
H  1.59400 1.57600 26.28400
H  -0.06000 1.99900 26.76900
H  1.30000 2.55200 27.75800
H  0.60500 0.82500 22.73000
H  0.20000 1.05300 24.41100
H  1.97200 1.13900 23.77700
H  -0.02800 7.56000 20.77500
H  2.01600 9.69600 21.10400
H  2.79400 6.85700 21.05000
H  2.50400 7.79300 19.62900
H  1.57100 6.24800 19.83500
H  -0.10500 9.62700 19.79500
H  0.20200 11.17300 20.50500
H  -2.30300 9.96100 20.88400
H  -1.49600 11.19100 21.88800
H  -1.50000 9.42700 22.21100
H  2.88100 13.48200 24.22800
H  2.49100 14.20800 25.78600
H  1.26000 14.02700 24.47800
H  0.86700 11.45500 29.83400
H  2.62500 11.19500 33.47400
H  3.74500 12.27100 32.49000
H  4.03600 10.56800 32.75000
Mg 43.44700 4.19200 47.84700
C  41.41600 6.92100 47.74300
C  40.61900 2.19900 47.63500
C  45.44600 1.63000 47.10900
C  46.25800 6.40400 47.66400
N  41.26900 4.54700 47.51700
C  40.67700 5.77100 47.67800
C  39.19100 5.58600 47.76800
C  39.04700 4.08200 48.00300
C  40.38700 3.55800 47.68300
C  38.51500 3.41100 49.31800
C  38.42800 6.17600 46.54700
C  39.29200 6.15700 45.19700
H  38.45700 6.07700 43.86800
N  43.09800 2.16100 47.43500
C  41.86600 1.53100 47.45700
C  41.99300 0.14800 47.22900
C  43.36900 -0.05200 46.87200
C  44.05900 1.28300 47.12900
C  40.84300 -0.85600 47.14400
C  43.93100 -1.39500 46.42200
O  43.18600 -2.32000 46.22500
C  45.48000 -1.53800 46.06800
N  45.60500 4.05900 47.29600
C  46.17500 2.87100 47.14000
C  47.64500 2.98400 47.24400
C  47.91600 4.53500 47.54000
C  46.52800 5.04400 47.46300
C  48.31300 1.94200 48.11200
C  49.04000 5.12700 46.65500
C  50.44200 5.20200 47.31600
N  43.84000 6.28000 47.81400
C  44.97500 7.03200 47.81100
C  44.66500 8.39400 47.80000
C  43.22500 8.45200 47.78200
C  42.80000 7.13900 47.77100
C  45.58500 9.57500 47.76400
C  42.05400 9.32000 47.71300
O  41.83800 10.53900 47.61800
C  40.79600 8.34700 47.76600
C  40.04600 8.64400 48.98100
O  40.22700 8.13200 50.10800
O  39.11900 9.61200 48.71800
C  37.96700 9.91900 49.58700
H  39.65600 1.68400 47.61700
H  46.11200 0.80200 46.85800
H  47.15600 7.01700 47.76600
H  38.79900 6.03900 48.67900
H  38.38000 3.71000 47.22500
H  38.06500 4.17600 49.95000
H  39.38600 2.93300 49.76800
H  37.70800 2.69700 49.15200
H  38.19200 7.21600 46.77200
H  37.54300 5.57600 46.33700
H  40.06600 5.39000 45.18100
H  39.73000 7.15300 45.13900
H  40.69000 -1.18000 46.11500
H  39.95300 -0.29300 47.42300
H  41.02100 -1.71600 47.78900
H  46.10500 -1.21500 46.90100
H  45.58000 -0.94200 45.16100
H  45.68400 -2.59000 45.86600
H  47.97700 2.79700 46.22300
H  48.02400 4.77800 48.59700
H  48.71900 1.19300 47.43100
H  47.54700 1.49400 48.74400
H  49.14400 2.43200 48.61900
H  48.72800 6.07900 46.22500
H  49.14300 4.48700 45.77800
H  50.64700 6.26400 47.45200
H  51.14900 4.75200 46.61900
H  50.38400 4.80000 48.32800
H  45.09300 10.47900 47.40600
H  46.22300 9.28300 46.92900
H  46.28700 9.73900 48.58100
H  40.19000 8.55300 46.88400
H  38.33700 10.70600 50.24500
H  37.79000 8.99100 50.12900
H  37.09600 10.19100 48.99100

