158

Mg 24.99500 1.36100 29.38200
C  27.00400 1.51000 32.12200
C  22.17100 1.26700 31.29500
C  23.12300 1.17500 26.52500
C  27.90600 1.29900 27.33000
N  24.64300 1.05900 31.53300
C  25.61600 1.48900 32.43100
C  25.02200 1.78000 33.80900
C  23.48000 1.61900 33.56200
C  23.37700 1.31000 32.06000
C  22.75500 0.51400 34.39500
C  25.44300 3.10000 34.32100
C  24.76300 3.49600 35.67400
H  25.16400 2.83600 37.06700
N  23.00700 1.26300 28.96000
C  21.93900 1.14900 29.91300
C  20.71100 1.09900 29.22500
C  20.93200 1.07000 27.79000
C  22.39000 1.18200 27.73300
C  19.41200 1.02200 30.02800
C  19.84200 0.83800 26.70700
O  20.10000 1.09600 25.56900
C  18.37000 0.50400 27.01700
N  25.47600 1.30700 27.20500
C  24.47600 1.29800 26.29900
C  25.04500 1.37000 24.80200
C  26.59300 1.48000 25.08200
C  26.70200 1.37900 26.63200
C  24.65200 0.04100 24.01500
C  27.22800 2.74200 24.46900
C  26.46200 4.11400 24.64800
N  27.10500 1.10200 29.58800
C  28.11000 1.22700 28.74800
C  29.30200 0.94600 29.45400
C  28.98900 1.21300 30.79000
C  27.59900 1.22600 30.80600
C  30.64600 0.62600 28.83600
C  29.46100 1.38100 32.09100
O  30.59000 1.30400 32.52000
C  28.22200 1.80400 32.99400
C  28.40800 0.89100 34.21600
O  28.12600 -0.30200 34.30300
O  29.00800 1.63500 35.30200
C  28.89800 1.01100 36.62500
H  21.28600 1.30400 31.93300
H  22.34000 1.13200 25.76500
H  28.83700 1.12600 26.78700
H  25.48200 0.95300 34.35200
H  22.95200 2.55500 33.74100
H  21.70300 0.67500 34.63000
H  23.19600 0.38300 35.38400
H  22.87500 -0.42100 33.84800
H  25.33200 3.90600 33.59500
H  26.51700 3.00900 34.48100
H  23.68500 3.34700 35.74600
H  24.99400 4.55500 35.78100
H  18.70700 0.24400 29.73600
H  18.91000 1.98400 30.13200
H  19.68100 0.66600 31.02200
H  18.51700 -0.41300 27.58700
H  17.94400 0.22400 26.05400
H  17.93100 1.26600 27.66200
H  24.64500 2.24500 24.28800
H  27.16900 0.60900 24.77000
H  25.42100 -0.22000 23.28900
H  23.74500 0.14600 23.41900
H  24.25900 -0.75400 24.64900
H  27.33500 2.64700 23.38800
H  28.22300 2.90600 24.88100
H  25.64200 4.11100 25.36600
H  26.07900 4.31400 23.64700
H  27.21600 4.84000 24.95000
H  30.91600 1.37500 28.09100
H  30.62100 -0.38000 28.41800
H  31.32500 0.77900 29.67400
H  28.19100 2.86100 33.25600
H  27.99400 1.33300 37.14200
H  29.75900 1.27600 37.23900
H  28.86800 -0.06000 36.42700
Mg 9.48000 47.40000 26.77300
C  7.64700 47.32300 29.81900
C  12.20700 48.68900 28.55500
C  10.99400 47.44800 23.92900
C  6.45200 46.42700 25.13800
N  9.90400 47.83100 28.84900
C  8.99500 47.69300 29.92000
C  9.63600 48.10700 31.24400
C  10.77900 48.99400 30.70100
C  11.01600 48.49300 29.30500
C  10.43800 50.49900 30.68900
C  10.04100 46.92700 32.10100
C  9.56500 47.07100 33.60700
H  9.32300 45.83000 34.49000
N  11.39000 47.99500 26.32600
C  12.37400 48.44100 27.12600
C  13.53500 48.50100 26.27300
C  13.24800 48.09700 24.95700
C  11.81000 47.89200 25.01600
C  14.85200 49.08500 26.85500
C  14.19900 47.92800 23.65200
O  13.86600 47.57500 22.50900
C  15.64000 48.21500 23.78000
N  8.75500 46.92800 24.77800
C  9.63600 47.02100 23.78500
C  9.01700 46.62100 22.40100
C  7.57600 46.09600 22.90200
C  7.55100 46.56700 24.31500
C  9.12400 47.83400 21.43600
C  7.33700 44.59200 22.78500
C  8.24900 43.52000 23.40900
N  7.37700 47.09900 27.30400
C  6.26900 46.70900 26.52100
C  5.07300 46.74900 27.29500
C  5.58300 46.94900 28.65900
C  6.99700 47.12600 28.54300
C  3.69200 46.45500 26.76700
C  5.22900 46.99200 30.00900
O  4.12300 46.92800 30.62100
C  6.61500 47.11100 30.83600
C  6.61800 45.77200 31.59800
O  7.06600 44.69000 31.15100
O  5.97900 45.97600 32.73900
C  5.61200 44.75100 33.46100
H  13.09400 48.93000 29.14500
H  11.50500 47.43700 22.96400
H  5.51900 46.18000 24.62800
H  8.99100 48.80500 31.77900
H  11.71800 48.82800 31.22900
H  11.15400 51.19500 31.12500
H  9.52300 50.66900 31.25700
H  10.23800 50.83400 29.67100
H  11.12500 46.81400 32.06200
H  9.67300 46.01400 31.63500
H  8.68500 47.70500 33.71100
H  10.47600 47.48100 34.04300
H  14.83400 49.35200 27.91200
H  15.14300 49.94800 26.25700
H  15.64300 48.33900 26.78100
H  15.94900 47.88500 24.77300
H  15.81600 49.29000 23.76300
H  16.15900 47.60800 23.03800
H  9.53700 45.83900 21.84800
H  6.78000 46.61400 22.36800
H  9.39500 48.72600 22.00100
H  8.19500 48.04100 20.90500
H  9.90700 47.66100 20.69800
H  7.27900 44.36100 21.72200
H  6.32900 44.26900 23.04400
H  8.69100 44.00500 24.27900
H  8.91100 43.15700 22.62300
H  7.72400 42.65500 23.81400
H  3.27700 47.17400 26.06100
H  2.98600 46.22200 27.56400
H  3.68400 45.52100 26.20500
H  6.56600 47.96600 31.50900
H  5.59600 44.95400 34.53200
H  6.33300 43.95900 33.25500
H  4.62000 44.43000 33.14400

