158

Mg 45.95700 4.72100 48.19800
C  44.23500 7.62700 47.31600
C  43.11800 2.95300 47.46700
C  47.71600 1.75100 48.48700
C  48.91900 6.63400 48.52700
N  43.99400 5.26400 47.30600
C  43.45300 6.51100 47.07700
C  41.97600 6.50800 46.57200
C  41.65200 5.01900 46.82100
C  43.01200 4.35900 47.16400
C  40.57900 4.60800 47.92900
C  41.73700 7.01000 45.12200
C  40.67100 8.05500 44.73400
H  39.54000 7.66100 43.71600
N  45.50000 2.68200 48.05600
C  44.27900 2.15900 47.73600
C  44.32700 0.73900 47.87900
C  45.68700 0.34100 48.18500
C  46.36400 1.63300 48.32200
C  43.19900 -0.25000 47.72600
C  46.29900 -1.06800 48.28400
O  45.61100 -2.06800 48.28300
C  47.77400 -1.28000 48.41900
N  48.08200 4.22100 48.51700
C  48.52700 2.94000 48.52400
C  50.02600 2.93200 48.84700
C  50.47100 4.50500 48.66400
C  49.08500 5.19000 48.63300
C  50.39300 2.43800 50.29600
C  51.31800 4.96400 47.47700
C  52.56100 5.84500 47.65300
N  46.52600 6.74700 48.15400
C  47.77400 7.40900 48.27100
C  47.57700 8.80200 48.16000
C  46.23300 8.98000 47.82200
C  45.62900 7.68000 47.80200
C  48.65200 9.80200 48.15000
C  45.23300 9.90000 47.30000
O  45.30300 11.12300 47.07100
C  43.81600 9.07500 47.03200
C  42.72500 9.53800 47.90500
O  42.53600 9.11900 49.02100
O  42.02800 10.51100 47.27700
C  40.79500 10.96700 47.95800
H  42.18700 2.38400 47.41700
H  48.34100 0.89300 48.74500
H  49.87600 7.15700 48.59000
H  41.46100 7.17400 47.26400
H  41.24100 4.58600 45.91000
H  39.74000 4.09000 47.46500
H  40.14800 5.56200 48.23400
H  41.03100 4.12800 48.79700
H  41.52000 6.18500 44.44300
H  42.74400 7.37900 44.92400
H  41.30600 8.82000 44.28700
H  40.37100 8.47300 45.69500
H  42.74900 -0.41600 48.70400
H  43.52900 -1.24900 47.44100
H  42.49500 0.08900 46.96600
H  48.02600 -2.34000 48.46500
H  47.93400 -0.88300 49.42100
H  48.22900 -0.79400 47.55600
H  50.44200 2.33300 48.03700
H  51.01200 4.76900 49.57300
H  51.31000 2.98200 50.52300
H  50.51700 1.35500 50.29100
H  49.59700 2.68200 51.00000
H  50.67700 5.65500 46.93000
H  51.54800 4.11800 46.83000
H  52.89000 5.94700 48.68700
H  52.31200 6.88800 47.45700
H  53.41200 5.51600 47.05700
H  48.39000 10.70300 48.70400
H  48.93800 10.02800 47.12300
H  49.57000 9.35500 48.53200
H  43.48800 9.16200 45.99600
H  40.68800 10.48900 48.93100
H  39.99900 10.70000 47.26300
H  40.94200 12.04400 48.04200
Mg 0.64800 42.63400 25.75500
C  1.87500 42.68600 29.03400
C  -2.31300 41.46700 27.01500
C  -0.48100 42.18900 22.64600
C  3.85000 43.40700 24.58400
N  -0.17500 42.35500 27.78700
C  0.53500 42.58800 28.97400
C  -0.38600 42.27200 30.16600
C  -1.77600 41.81500 29.50400
C  -1.42500 41.88900 27.98900
C  -2.33500 40.39400 29.90100
C  -0.54900 43.63500 31.02900
C  -0.97900 43.49000 32.47200
H  -1.41000 42.07100 33.05600
N  -1.21800 42.01500 24.94400
C  -2.28700 41.57600 25.62900
C  -3.37100 41.36600 24.66000
C  -2.84200 41.41100 23.32100
C  -1.42400 41.81200 23.54900
C  -4.67400 40.71800 25.03200
C  -3.43100 41.08900 22.05300
O  -2.92300 41.15700 20.95600
C  -4.79900 40.49300 22.00400
N  1.60000 42.63200 23.91500
C  0.84500 42.61900 22.77900
C  1.64500 43.03000 21.52400
C  3.00300 43.45500 22.19000
C  2.78700 43.23300 23.67300
C  1.72300 41.89900 20.45900
C  3.65500 44.78900 21.73900
C  2.89300 46.14700 21.59000
N  2.52900 42.96600 26.62300
C  3.76300 43.21800 26.02200
C  4.74500 43.15900 27.06700
C  4.09800 43.01600 28.27600
C  2.72000 42.91000 27.94600
C  6.18300 43.40600 26.89100
C  4.25900 42.99800 29.75600
O  5.25300 43.26500 30.35500
C  2.84400 42.59200 30.30000
C  2.91900 41.24100 30.74400
O  3.42600 40.31500 30.10800
O  2.33700 41.10200 31.96200
C  1.98700 39.76600 32.47400
H  -3.23700 41.03400 27.40500
H  -0.83100 42.05800 21.62000
H  4.87600 43.65900 24.30600
H  -0.15500 41.40600 30.78700
H  -2.59600 42.48900 29.75300
H  -1.61600 39.91300 30.56500
H  -2.51300 39.79200 29.01000
H  -3.18700 40.53000 30.56800
H  -1.29400 44.32100 30.62900
H  0.37500 44.21300 31.06200
H  -1.81700 44.10500 32.80000
H  -0.11500 43.72100 33.09500
H  -5.02900 39.94700 24.34900
H  -5.46300 41.47100 25.02700
H  -4.59800 40.09200 25.92100
H  -5.55600 41.08000 22.52400
H  -4.88600 39.44400 22.28800
H  -5.12100 40.48700 20.96300
H  1.15100 43.93000 21.16000
H  3.76500 42.71100 21.95500
H  1.13100 42.25200 19.61400
H  1.28600 41.00100 20.89400
H  2.77000 41.69600 20.23200
H  4.08900 44.49600 20.78300
H  4.47500 44.95100 22.43900
H  2.92600 46.42800 20.53800
H  3.44500 46.95800 22.06600
H  1.86300 46.05000 21.93200
H  6.33900 44.48000 26.98300
H  6.63200 43.11400 25.94200
H  6.65200 42.81400 27.67800
H  2.50700 43.24500 31.10500
H  2.26800 39.57100 33.50900
H  2.47500 38.95900 31.92800
H  0.89900 39.72000 32.45100

