158

Mg 9.09900 3.41200 27.38100
C  10.19000 2.09900 30.37900
C  6.87600 5.36300 29.02800
C  7.99300 4.60300 24.34900
C  10.61300 0.75100 25.71900
N  8.52600 3.64700 29.53400
C  9.26400 3.13100 30.61700
C  8.69300 3.71200 31.92200
C  7.42100 4.58500 31.46900
C  7.50700 4.48300 29.92600
C  6.05100 4.17300 32.06200
C  9.81100 4.35000 32.78400
C  9.44700 4.89300 34.13500
H  10.37300 4.64100 35.33200
N  7.70700 4.96500 26.73800
C  6.94300 5.64700 27.63800
C  6.19400 6.57800 26.88700
C  6.45000 6.40300 25.50500
C  7.49700 5.35600 25.40700
C  5.17100 7.52900 27.54400
C  5.94700 7.07400 24.27000
O  6.35500 6.83300 23.09000
C  4.87300 8.04300 24.39800
N  9.30900 2.76500 25.36300
C  8.79800 3.47800 24.24900
C  9.22200 2.76600 22.92400
C  10.01800 1.51900 23.40100
C  9.97600 1.67800 24.92300
C  8.04700 2.48000 22.03700
C  11.40800 1.43800 22.67600
C  11.45800 0.36600 21.55500
N  10.10100 1.72300 27.89900
C  10.74100 0.76900 27.08200
C  11.51700 -0.12000 27.88900
C  11.32100 0.43500 29.15500
C  10.47500 1.55300 29.06600
C  12.37600 -1.24700 27.50800
C  11.82900 0.27600 30.45200
O  12.48600 -0.58100 30.88800
C  11.16600 1.39600 31.33600
C  10.61400 0.79200 32.52600
O  9.61300 0.09900 32.63100
O  11.26200 1.35200 33.56400
C  10.66400 1.01600 34.86800
H  6.23100 6.03500 29.59900
H  7.81300 5.05000 23.37000
H  11.28400 0.13400 25.11800
H  8.37400 2.81200 32.44700
H  7.51400 5.65000 31.68200
H  6.16900 3.60300 32.98300
H  5.47500 3.59900 31.33600
H  5.43900 5.03500 32.32500
H  10.31600 5.03500 32.10300
H  10.56600 3.61300 33.05800
H  8.45700 4.51000 34.38300
H  9.46000 5.98100 34.07200
H  4.16500 7.27100 27.21500
H  5.32500 8.57300 27.27200
H  5.27800 7.50300 28.62900
H  4.52700 8.32100 23.40300
H  5.42600 8.81000 24.94000
H  3.95500 7.78900 24.92800
H  10.00900 3.35000 22.44700
H  9.57000 0.53300 23.28000
H  7.19400 2.57800 22.70700
H  8.14700 1.45400 21.68200
H  8.10000 3.23300 21.25000
H  12.18200 1.11800 23.37400
H  11.74400 2.39100 22.26700
H  11.51100 0.89100 20.60100
H  10.63100 -0.34300 21.51200
H  12.26000 -0.37100 21.60500
H  13.00400 -1.58400 28.33300
H  12.93900 -0.87400 26.65200
H  11.73100 -2.06000 27.17500
H  12.01300 2.04600 31.55800
H  11.47300 0.92900 35.59400
H  10.11000 0.08300 34.96500
H  10.07300 1.88000 35.17200
Mg 35.14200 2.93800 28.41800
C  33.16200 4.08800 31.12800
C  37.66500 2.40200 30.66400
C  37.28100 2.67500 25.75400
C  32.59900 3.95900 26.19800
N  35.43900 3.35700 30.60400
C  34.44400 3.63900 31.52300
C  34.97600 3.38900 32.93000
C  36.47000 3.25400 32.76500
C  36.54100 2.90600 31.26100
C  37.36400 4.41800 33.25700
C  34.19600 2.30300 33.79200
C  33.55500 2.79300 35.08100
H  34.33200 3.82400 35.88800
N  37.16300 2.37600 28.24300
C  38.01000 2.29400 29.29700
C  39.28100 1.73500 28.78200
C  39.21300 1.79400 27.34600
C  37.86900 2.39400 27.07900
C  40.48500 1.45200 29.58500
C  40.23100 1.37900 26.30800
O  40.08200 1.48700 25.06900
C  41.51000 0.79600 26.73600
N  34.96200 3.10400 26.37300
C  35.95500 2.90700 25.44900
C  35.39800 2.96600 23.97900
C  33.88700 3.18800 24.17200
C  33.74400 3.38800 25.70900
C  36.06700 4.06700 23.16100
C  33.01000 2.07600 23.54400
C  32.32600 1.07900 24.48400
N  33.20800 3.93800 28.54500
C  32.28100 4.21600 27.59300
C  31.02200 4.67100 28.27200
C  31.36000 4.65200 29.64100
C  32.68400 4.23300 29.76100
C  29.64500 4.83800 27.65300
C  30.84800 4.76900 30.96600
O  29.71500 4.92100 31.43600
C  32.03200 4.56700 31.95300
C  32.39200 5.68200 32.83000
O  33.34300 6.42500 32.64600
O  31.47600 5.88000 33.86700
C  31.74300 6.97500 34.83700
H  38.48100 2.17700 31.35400
H  37.97200 2.57700 24.91400
H  31.80000 4.07700 25.46300
H  34.88100 4.33400 33.46300
H  36.79300 2.36500 33.30800
H  38.33000 3.97700 33.50200
H  36.88900 4.95600 34.07700
H  37.41600 5.09300 32.40200
H  34.83000 1.47900 34.12000
H  33.46500 1.82800 33.13700
H  33.43600 1.94700 35.75700
H  32.50300 3.05200 34.95500
H  40.90900 0.50400 29.25600
H  40.30100 1.11200 30.60400
H  41.27400 2.19600 29.46900
H  42.00300 0.68700 25.77000
H  41.50500 -0.22400 27.11800
H  42.12200 1.49300 27.30800
H  35.69800 1.99500 23.58300
H  33.59900 4.10900 23.66500
H  36.86400 3.61500 22.57000
H  36.51700 4.82000 23.80700
H  35.40800 4.65700 22.52500
H  33.76500 1.49100 23.01800
H  32.24500 2.52800 22.91300
H  31.33900 1.39000 24.82800
H  33.03800 0.82900 25.27000
H  32.12000 0.18200 23.90000
H  29.65400 4.49600 26.61800
H  29.26900 5.85400 27.77900
H  29.02100 4.17000 28.24700
H  31.61500 3.79800 32.60300
H  32.21700 7.84900 34.39000
H  32.39800 6.72600 35.67200
H  30.78100 7.24900 35.27100

