158

Mg 24.18200 -6.87400 46.62800
C  25.85800 -4.20100 45.33700
C  21.50000 -5.98800 44.32600
C  22.68100 -9.85000 47.14900
C  26.85800 -7.84800 48.34700
N  23.75300 -5.27500 44.98800
C  24.63800 -4.25400 44.70600
C  24.03700 -3.35600 43.62400
C  22.51700 -3.80600 43.52600
C  22.58100 -5.08900 44.31900
C  21.45000 -2.73600 43.91800
C  24.86800 -3.48800 42.31100
C  25.14300 -2.20500 41.47900
H  24.65100 -2.17600 40.02200
N  22.25100 -7.82100 45.99300
C  21.32200 -7.30400 45.00200
C  20.16800 -8.15600 45.05000
C  20.46300 -9.21300 45.96600
C  21.81100 -8.99800 46.42000
C  18.93500 -7.91900 44.18200
C  19.49100 -10.33200 46.37200
O  18.40400 -10.45200 45.77300
C  19.84000 -11.32800 47.49600
N  24.66600 -8.59800 47.62200
C  23.83900 -9.62000 47.77300
C  24.42500 -10.63900 48.79000
C  25.82700 -10.05000 49.12600
C  25.77300 -8.72600 48.36000
C  23.53900 -11.01800 49.96200
C  27.13700 -10.92800 48.85700
C  28.03000 -11.16700 50.14500
N  25.99100 -6.26200 46.76300
C  27.05900 -6.70400 47.55300
C  28.10700 -5.71100 47.56800
C  27.68000 -4.74600 46.68500
C  26.37200 -5.11800 46.24000
C  29.31400 -5.76700 48.49200
C  28.02100 -3.43600 46.18500
O  28.90100 -2.62700 46.41800
C  26.85300 -3.06100 45.23500
C  26.35600 -1.79300 45.68400
O  26.87400 -0.71900 45.26900
O  25.17100 -1.90900 46.37300
C  24.73400 -0.68500 47.11300
H  20.61900 -5.77800 43.71500
H  22.28300 -10.84000 47.38200
H  27.68500 -8.09600 49.01500
H  24.01900 -2.29200 43.85700
H  22.27800 -4.07300 42.49700
H  20.88500 -3.11200 44.77000
H  20.73100 -2.58600 43.11300
H  21.84500 -1.80300 44.32100
H  24.37600 -4.18500 41.63300
H  25.80100 -3.99800 42.55200
H  26.22400 -2.27500 41.36400
H  24.99100 -1.29500 42.06100
H  18.83700 -8.78700 43.52900
H  19.02400 -7.11600 43.45100
H  17.98800 -7.82100 44.71300
H  20.40600 -12.07000 46.93200
H  18.94200 -11.79100 47.90600
H  20.40900 -10.78700 48.25300
H  24.55000 -11.59100 48.27600
H  25.75500 -9.81700 50.18900
H  22.73900 -10.28000 50.03200
H  23.99200 -11.05200 50.95200
H  23.13100 -12.00600 49.74900
H  27.82300 -10.52400 48.11300
H  26.70300 -11.86400 48.50500
H  28.00400 -12.23700 50.35300
H  27.66300 -10.66200 51.03800
H  29.05500 -10.82500 50.00100
H  29.35200 -4.83400 49.05500
H  30.21000 -5.87400 47.88100
H  29.12200 -6.56000 49.21400
H  27.18100 -3.02500 44.19600
H  24.07500 -0.07600 46.49400
H  25.59700 -0.06600 47.36000
H  24.28800 -1.00400 48.05500
Mg 46.61500 44.86400 43.00900
C  43.38000 43.83800 43.13500
C  47.62500 41.66200 42.66300
C  49.71700 46.02000 42.77200
C  45.47700 48.30200 42.91400
N  45.58300 43.00300 42.79100
C  44.27200 42.73100 42.91700
C  43.96300 41.21600 42.92500
C  45.35500 40.56200 43.04200
C  46.25400 41.79300 42.85200
C  45.58600 39.69100 44.30500
C  43.19200 40.73700 41.73000
C  43.53600 41.34600 40.40500
H  44.00800 40.45900 39.20800
N  48.37900 43.95800 42.66800
C  48.58800 42.62000 42.59500
C  49.96700 42.31900 42.46400
C  50.67800 43.61100 42.50900
C  49.61700 44.59800 42.68100
C  50.61600 40.89500 42.31300
C  52.19600 43.78800 42.39200
O  52.91400 42.81600 42.28600
C  52.85200 45.16300 42.29000
N  47.46500 46.91100 42.77600
C  48.77600 47.00200 42.93900
C  49.17400 48.47500 43.10300
C  47.87300 49.28300 43.10900
C  46.83100 48.09800 42.89500
C  50.07600 48.95300 44.30500
C  47.80000 50.50000 42.10900
C  47.38800 51.86500 42.76100
N  44.87300 45.90300 42.92000
C  44.54400 47.25400 42.86100
C  43.09800 47.37000 42.71900
C  42.61200 46.08000 42.98000
C  43.70800 45.20900 43.04600
C  42.25800 48.60000 42.61200
C  41.38500 45.27600 43.13800
O  40.21200 45.59100 43.29800
C  41.84600 43.79100 43.31600
C  41.41100 43.28800 44.66900
O  41.40800 43.96600 45.70400
O  41.00000 41.95300 44.64500
C  40.37600 41.54400 45.86400
H  47.80900 40.60000 42.49100
H  50.73600 46.39500 42.89100
H  45.02600 49.23800 43.25000
H  43.43000 41.05600 43.86200
H  45.63100 39.92900 42.19900
H  44.59400 39.32000 44.56200
H  46.03800 40.28400 45.10100
H  46.26500 38.84200 44.23500
H  42.11600 40.83700 41.86800
H  43.43300 39.67700 41.65200
H  44.32800 42.09400 40.45200
H  42.76700 42.08800 40.19300
H  51.02200 40.71500 41.31700
H  49.89400 40.09900 42.49700
H  51.46300 40.81400 42.99400
H  52.30200 45.79300 41.59100
H  53.89500 45.01700 42.01200
H  52.85500 45.54800 43.31000
H  49.64200 48.81200 42.17800
H  47.65000 49.53900 44.14400
H  51.11800 48.79900 44.02400
H  49.81400 48.38700 45.19900
H  49.79900 49.97600 44.56000
H  47.10900 50.38600 41.27300
H  48.74300 50.73300 41.61400
H  48.10400 52.67000 42.59300
H  47.40800 51.83700 43.85100
H  46.43600 52.20400 42.35300
H  41.96000 48.57000 41.56400
H  42.71300 49.58000 42.75300
H  41.41300 48.49200 43.29200
H  41.40400 43.10400 42.59400
H  39.55900 42.19500 46.17600
H  41.08700 41.33100 46.66200
H  39.82700 40.61800 45.69300

