158

Mg -11.03600 17.14000 42.07500
C  -7.58000 18.05000 41.99200
C  -11.87200 20.38100 41.89100
C  -14.24100 16.06400 42.04100
C  -9.97300 13.79100 42.04500
N  -9.80900 18.99200 41.82200
C  -8.46800 19.17600 41.88900
C  -8.06900 20.64400 41.98800
C  -9.42800 21.30000 42.30600
C  -10.42100 20.16600 42.06600
C  -9.53300 21.86700 43.80200
C  -7.37200 21.14300 40.70300
C  -5.83600 21.45400 40.82600
H  -4.98800 20.81200 39.72200
N  -12.82000 18.05500 41.80400
C  -12.99300 19.43000 41.74600
C  -14.39600 19.73000 41.47900
C  -15.15000 18.48500 41.52700
C  -14.09500 17.45900 41.85200
C  -14.94800 21.11500 41.35200
C  -16.62600 18.33000 41.27400
O  -17.39700 19.26600 40.91800
C  -17.22900 17.03600 41.22200
N  -11.98300 15.21100 42.07500
C  -13.29500 15.05700 42.25300
C  -13.72800 13.57800 42.40700
C  -12.28800 12.89200 42.41800
C  -11.36500 13.98900 42.06300
C  -14.68600 13.20900 43.59800
C  -12.16800 11.63700 41.56900
C  -12.13100 10.35000 42.29500
N  -9.19500 16.08600 42.02500
C  -8.94000 14.73900 41.98600
C  -7.51400 14.44000 42.08800
C  -6.99800 15.74400 42.03500
C  -8.01500 16.73700 41.99600
C  -6.67800 13.18300 42.02500
C  -5.76200 16.43600 42.06800
O  -4.65000 15.96000 42.07600
C  -6.09000 17.93000 42.13400
C  -5.57700 18.46400 43.40000
O  -5.95400 18.20200 44.50600
O  -4.36000 19.14400 43.12100
C  -3.45900 19.54300 44.25500
H  -12.10200 21.43600 42.04900
H  -15.30800 15.83100 42.06800
H  -9.62600 12.77400 42.23800
H  -7.33700 20.77000 42.78600
H  -9.74300 22.14100 41.68800
H  -10.27500 21.29400 44.35800
H  -9.80800 22.92000 43.75000
H  -8.55600 21.88000 44.28600
H  -7.94300 21.97200 40.28400
H  -7.45600 20.36600 39.94200
H  -5.46700 21.17800 41.81300
H  -5.64700 22.52800 40.81500
H  -15.28500 21.43000 40.36400
H  -14.28400 21.83800 41.82700
H  -15.90000 21.14500 41.88100
H  -18.21500 17.10600 40.76200
H  -17.35000 16.59800 42.21300
H  -16.68100 16.51600 40.43500
H  -14.29200 13.34700 41.50300
H  -11.95900 12.65300 43.43000
H  -15.66000 13.11100 43.12000
H  -14.69200 14.11500 44.20300
H  -14.39700 12.26200 44.05500
H  -11.38800 11.73700 40.81400
H  -13.06300 11.66800 40.94800
H  -11.48400 9.60600 41.83000
H  -13.10000 9.85900 42.19600
H  -11.79100 10.31800 43.33000
H  -6.15800 12.91700 42.94500
H  -5.98800 13.18600 41.18000
H  -7.33600 12.35900 41.74900
H  -5.63300 18.47000 41.30400
H  -3.01000 20.50700 44.01200
H  -2.57500 18.90600 44.26800
H  -3.93100 19.52600 45.23800
Mg -5.33000 25.20100 25.60700
C  -3.69400 26.68400 28.27100
C  -6.95900 23.07100 27.96200
C  -6.70800 23.52800 22.99200
C  -3.39700 27.12400 23.38100
N  -5.20900 24.82400 27.93300
C  -4.59100 25.66100 28.80900
C  -5.10900 25.48200 30.24200
C  -5.89500 24.12400 30.13500
C  -6.03600 23.96900 28.57200
C  -5.05900 22.98300 30.73600
C  -5.78100 26.68200 30.96300
C  -6.09500 26.45700 32.50900
H  -5.47600 25.30300 33.31500
N  -6.58800 23.49300 25.51900
C  -7.17100 22.85900 26.62200
C  -8.19200 21.95700 26.08100
C  -8.21200 22.17200 24.66300
C  -7.04800 23.02300 24.31900
C  -9.11100 21.22400 27.03400
C  -9.29000 21.67700 23.69900
O  -9.12600 21.72900 22.49700
C  -10.56800 21.09200 24.25100
N  -5.01000 25.20600 23.46000
C  -5.79700 24.50600 22.58800
C  -5.34500 24.74700 21.14100
C  -4.46400 26.01000 21.29800
C  -4.27500 26.10900 22.80900
C  -4.59200 23.52500 20.55800
C  -5.00000 27.33500 20.67600
C  -4.10400 28.19500 19.73400
N  -3.91600 26.61700 25.76300
C  -3.27500 27.36200 24.79900
C  -2.43700 28.34200 25.40800
C  -2.54700 28.04300 26.79100
C  -3.46700 27.02200 26.96100
C  -1.55600 29.32100 24.71300
C  -2.00400 28.48500 28.07900
O  -1.11000 29.34100 28.29500
C  -2.76900 27.60500 29.08900
C  -1.85100 27.02000 30.09600
O  -0.76200 26.47300 29.82100
O  -2.17600 27.44300 31.35300
C  -1.44300 26.87900 32.45300
H  -7.44800 22.51200 28.76200
H  -7.15800 23.09600 22.09600
H  -3.02500 27.80800 22.61600
H  -4.23500 25.46200 30.89400
H  -6.85900 24.18200 30.64100
H  -4.29900 23.34600 31.42800
H  -4.49000 22.46100 29.96700
H  -5.68600 22.22500 31.20500
H  -6.73800 26.73600 30.44400
H  -5.17500 27.56700 30.77100
H  -7.15800 26.41500 32.74500
H  -5.62700 27.30300 33.01100
H  -8.40500 20.81800 27.75800
H  -9.45100 20.32800 26.51400
H  -9.98300 21.80500 27.33500
H  -10.95200 21.69500 25.07400
H  -10.48600 20.05000 24.56000
H  -11.27700 21.02300 23.42600
H  -6.19900 24.88800 20.47800
H  -3.52800 25.70600 20.83100
H  -3.58200 23.83300 20.29000
H  -5.05500 23.11300 19.66100
H  -4.39300 22.87200 21.40800
H  -5.16700 27.96700 21.54800
H  -5.90800 26.98200 20.18700
H  -4.63000 28.38600 18.79800
H  -3.22200 27.56600 19.61400
H  -3.80200 29.15900 20.14300
H  -2.09300 30.24600 24.50500
H  -1.25300 28.73200 23.84700
H  -0.63600 29.53300 25.25800
H  -3.27400 28.45900 29.54000
H  -0.37200 27.08500 32.45100
H  -1.72100 25.82700 32.51200
H  -1.75700 27.13000 33.46600

