158

Mg 17.47600 -1.36600 27.56500
C  16.35700 0.77900 30.00400
C  19.54000 -2.90200 30.03500
C  18.57300 -3.55500 25.16400
C  15.59800 0.31100 25.24400
N  17.93500 -0.98400 29.70600
C  17.27100 -0.23000 30.54300
C  17.52700 -0.45400 32.01200
C  18.63500 -1.59100 31.96000
C  18.76700 -1.85200 30.46400
C  19.93300 -1.29300 32.64100
C  16.25300 -0.77400 32.93900
C  16.02800 0.15600 34.21400
H  17.22100 0.55200 34.93400
N  18.92900 -2.89300 27.58200
C  19.63000 -3.39600 28.68500
C  20.45800 -4.47700 28.25500
C  20.21200 -4.69900 26.83500
C  19.21700 -3.65700 26.46200
C  21.53500 -5.03700 29.13300
C  20.86300 -5.57100 25.82500
O  20.71300 -5.41100 24.64300
C  21.84200 -6.65500 26.20400
N  17.25300 -1.53500 25.47100
C  17.77300 -2.50700 24.76200
C  17.01900 -2.53600 23.32500
C  15.90200 -1.45100 23.55000
C  16.28500 -0.81900 24.82300
C  18.02300 -2.36100 22.16300
C  14.42500 -1.94000 23.46700
C  13.60300 -1.12600 22.47300
N  16.30700 0.30300 27.56000
C  15.54200 0.88700 26.53800
C  14.73700 1.92300 27.07900
C  15.00900 1.93800 28.41500
C  15.98500 0.93800 28.66200
C  13.87200 2.83800 26.25000
C  14.75500 2.67000 29.64400
O  13.91300 3.59900 29.82000
C  15.51500 1.91600 30.70900
C  16.43800 2.84600 31.38600
O  17.54800 3.02700 30.98800
O  15.78200 3.48500 32.46300
C  16.60300 4.63100 32.93800
H  20.15700 -3.49200 30.71600
H  18.58700 -4.47400 24.57400
H  14.85400 0.72900 24.56200
H  17.99400 0.41100 32.48300
H  18.19900 -2.52100 32.32600
H  20.69700 -1.30500 31.86400
H  20.07500 -2.04100 33.42000
H  19.97300 -0.28100 33.04300
H  16.16300 -1.81200 33.25900
H  15.41100 -0.51100 32.29900
H  15.44200 -0.36200 34.97300
H  15.48400 1.07300 33.98800
H  20.86700 -5.68800 29.69800
H  22.05500 -4.42700 29.87100
H  22.33000 -5.48000 28.53300
H  21.97000 -7.38000 25.40000
H  21.31600 -7.16000 27.01500
H  22.77900 -6.32400 26.65000
H  16.59100 -3.52700 23.16800
H  16.05900 -0.67800 22.79800
H  18.34300 -3.34400 21.81700
H  18.92900 -1.78000 22.33500
H  17.33200 -1.96600 21.41800
H  14.01900 -1.93700 24.47800
H  14.32600 -2.97400 23.13700
H  14.14800 -0.22400 22.19600
H  12.71200 -0.78800 23.00200
H  13.20800 -1.56500 21.55600
H  12.83300 2.51000 26.28000
H  14.24400 2.83500 25.22500
H  13.81800 3.86200 26.62000
H  14.82500 1.50700 31.44700
H  15.92100 4.99400 33.70700
H  16.78900 5.42600 32.21600
H  17.48600 4.27500 33.46800
Mg 46.28200 16.09400 28.95800
C  44.40100 15.57200 31.87300
C  48.22400 18.14800 30.78500
C  47.75200 16.97300 26.10300
C  43.66700 14.59500 27.15000
N  46.15400 16.87900 31.10900
C  45.51700 16.34400 32.16400
C  46.06600 16.79500 33.50800
C  47.10500 17.84400 33.08500
C  47.15400 17.66300 31.52300
C  46.93700 19.34900 33.54400
C  46.43800 15.64600 34.45300
C  46.37700 15.89600 35.99000
H  46.44000 17.29900 36.54500
N  47.86100 17.27000 28.53900
C  48.53300 17.99400 29.40900
C  49.69700 18.55800 28.72900
C  49.60100 18.22900 27.41400
C  48.40300 17.43900 27.29800
C  50.73600 19.19700 29.59900
C  50.65400 18.53800 26.29600
O  50.47700 18.13900 25.15400
C  51.90000 19.33000 26.62400
N  45.81600 15.74800 26.94500
C  46.59600 16.21300 25.95600
C  46.01300 15.78800 24.60100
C  44.88300 14.81200 24.97200
C  44.71600 15.14300 26.42200
C  45.61400 17.07900 23.82200
C  45.13300 13.37800 24.57400
C  46.01800 12.55300 25.48300
N  44.44200 15.17200 29.40300
C  43.45700 14.58200 28.50000
C  42.37600 14.11500 29.30800
C  42.71600 14.40800 30.65700
C  43.91300 15.13300 30.61800
C  41.03200 13.56400 28.77400
C  42.23900 14.37900 32.02600
O  41.23500 13.97600 32.59100
C  43.29400 15.22800 32.81300
C  42.72900 16.43300 33.48200
O  42.30000 17.37100 32.84200
O  42.74000 16.27900 34.84500
C  42.07500 17.37400 35.49900
H  49.03600 18.56100 31.38800
H  48.25100 17.12400 25.14400
H  42.86400 14.05600 26.64200
H  45.23600 17.30100 34.00200
H  48.07200 17.56700 33.50700
H  47.88100 19.70600 33.95600
H  46.11000 19.48000 34.24100
H  46.68300 19.98400 32.69500
H  47.47700 15.32500 34.38100
H  45.84200 14.82400 34.05500
H  47.02400 15.24800 36.58200
H  45.38500 15.51800 36.23700
H  50.28900 19.67900 30.46900
H  51.37300 19.95300 29.13800
H  51.38600 18.37500 29.89900
H  52.67300 19.20100 25.86600
H  52.45200 18.72500 27.34300
H  51.65200 20.29500 27.06600
H  46.86900 15.41300 24.04000
H  43.94000 15.12600 24.52400
H  44.66300 17.41900 24.23200
H  45.47600 16.97500 22.74600
H  46.34200 17.86900 24.00600
H  45.49800 13.24500 23.55500
H  44.10200 13.02600 24.53400
H  46.60600 13.18900 26.14400
H  46.66200 11.77900 25.06700
H  45.28300 12.08300 26.13700
H  40.32900 13.98500 29.49200
H  41.04500 12.47500 28.72700
H  40.74700 13.97200 27.80500
H  43.62900 14.60500 33.64200
H  41.88700 17.30700 36.57000
H  41.07100 17.45400 35.08100
H  42.67100 18.27300 35.34300

