158

Mg 50.50800 45.62000 42.30300
C  47.49100 47.05000 41.04100
C  49.54300 42.59600 41.23400
C  53.70200 44.62700 42.78300
C  51.62300 48.96800 42.82000
N  48.84200 44.99200 41.13600
C  47.71100 45.69600 40.83300
C  46.63500 44.73100 40.31900
C  47.19100 43.38200 40.53500
C  48.62200 43.64900 41.06900
C  46.33200 42.43100 41.50900
C  46.39200 45.05800 38.81000
C  44.91200 45.11800 38.37400
H  44.29500 43.91000 37.59700
N  51.53000 43.77500 42.03500
C  50.88500 42.64000 41.67800
C  51.87600 41.57800 41.70100
C  53.12500 42.15200 42.09100
C  52.85100 43.59200 42.30500
C  51.52600 40.14300 41.30700
C  54.43800 41.42700 42.25700
O  54.48800 40.20800 42.22000
C  55.74500 42.12500 42.46200
N  52.37200 46.75200 42.65000
C  53.48500 46.03200 42.95700
C  54.65300 46.87300 43.46500
C  54.00800 48.20400 43.36800
C  52.51200 48.00200 43.09000
C  55.29800 46.56900 44.89200
C  54.66900 49.30800 42.42500
C  55.64300 50.32200 42.99800
N  49.72400 47.58500 42.04900
C  50.30600 48.86100 42.30200
C  49.36900 49.95600 42.01900
C  48.21700 49.24000 41.66900
C  48.49400 47.83900 41.63100
C  49.61100 51.40600 42.15300
C  46.80200 49.41500 41.34300
O  46.06700 50.38200 41.28400
C  46.37800 48.04100 40.80400
C  45.10300 47.63400 41.55600
O  44.96400 47.44900 42.74500
O  44.11600 47.41600 40.58800
C  42.86700 47.16500 41.21100
H  48.98900 41.71800 40.89400
H  54.71300 44.40800 43.13200
H  52.07600 49.88000 43.21400
H  45.81000 44.84300 41.02300
H  47.41600 42.83200 39.62200
H  45.44200 42.92700 41.89500
H  46.97100 42.05900 42.31000
H  45.95100 41.61900 40.88900
H  46.94200 44.27700 38.28600
H  46.75700 46.04600 38.52800
H  44.73800 46.13900 38.03400
H  44.33800 45.01900 39.29500
H  52.09400 39.78100 40.45000
H  50.48100 39.94900 41.06900
H  51.79300 39.48800 42.13700
H  55.93300 42.57700 43.43600
H  55.84200 42.96300 41.77300
H  56.55800 41.42700 42.26000
H  55.34400 46.63800 42.65500
H  53.90500 48.58100 44.38600
H  56.30000 46.21600 44.65100
H  54.76100 45.64900 45.12400
H  55.14700 47.36100 45.62600
H  53.93100 49.77100 41.77000
H  55.30000 48.72100 41.75700
H  56.61700 50.14700 42.54000
H  55.78000 50.15000 44.06600
H  55.17700 51.28800 42.80300
H  48.72800 52.01300 41.95500
H  50.40500 51.71000 41.47100
H  49.96500 51.67000 43.15000
H  46.07600 48.15200 39.76200
H  42.66700 47.79300 42.07800
H  42.66600 46.12300 41.45900
H  42.16600 47.42600 40.41800
Mg 35.01500 48.47500 25.09800
C  35.16600 46.70700 28.10500
C  33.55000 51.05700 26.82100
C  34.66400 50.07700 22.19600
C  36.27700 45.54700 23.45400
N  34.52800 48.88900 27.20500
C  34.70500 48.00700 28.25600
C  34.37000 48.65400 29.58700
C  33.62300 49.93200 29.15100
C  33.91400 49.98700 27.62500
C  32.12700 49.94900 29.50900
C  35.71900 48.97500 30.32500
C  35.73200 48.49500 31.80700
H  34.49100 48.54600 32.68100
N  34.23900 50.26600 24.58400
C  33.69400 51.23500 25.41900
C  33.38900 52.38800 24.72900
C  33.94000 52.21300 23.44500
C  34.39100 50.79800 23.33600
C  32.70100 53.57600 25.40300
C  34.06700 53.21800 22.27600
O  34.68400 52.98500 21.24500
C  33.38000 54.57600 22.46400
N  35.44100 47.90600 23.16900
C  35.07200 48.72000 22.11500
C  35.40300 48.00900 20.78000
C  36.26100 46.78400 21.15500
C  35.81100 46.62800 22.68000
C  34.09900 47.45800 20.02300
C  37.81600 46.99400 20.92900
C  38.55100 45.87500 20.14500
N  35.58000 46.54000 25.63000
C  36.04100 45.46900 24.91600
C  36.18200 44.30700 25.75900
C  35.91200 44.76800 27.03100
C  35.43900 46.10300 26.87200
C  36.73800 42.97200 25.31600
C  35.81100 44.38900 28.41900
O  35.97300 43.30700 28.95800
C  35.35300 45.60900 29.26100
C  34.10900 45.22900 29.92600
O  32.96200 45.36300 29.53800
O  34.45600 44.74100 31.14200
C  33.30900 44.42600 32.01700
H  33.07400 51.76400 27.50400
H  34.60100 50.57700 21.22700
H  36.63900 44.74000 22.81400
H  33.79600 47.93800 30.17500
H  34.11300 50.76900 29.64800
H  31.79800 48.91800 29.64000
H  31.59200 50.40700 28.67700
H  32.05200 50.58800 30.38900
H  35.74400 50.06500 30.33100
H  36.56800 48.58900 29.76200
H  36.24000 49.25300 32.40400
H  36.31400 47.58400 31.94900
H  31.80400 53.76600 24.81300
H  33.28200 54.48300 25.57100
H  32.33300 53.31500 26.39500
H  32.30500 54.44100 22.57900
H  33.47600 55.16200 21.55000
H  33.88800 55.13900 23.24700
H  35.94100 48.67400 20.10400
H  35.90700 45.86700 20.68400
H  34.11200 47.76200 18.97600
H  33.26000 47.84300 20.60300
H  33.88800 46.38900 19.99400
H  38.35800 47.22400 21.84600
H  37.89500 47.92600 20.36800
H  37.86400 45.10400 19.79500
H  39.14500 45.30100 20.85600
H  39.23600 46.23600 19.37700
H  37.65500 43.11700 24.74500
H  36.00000 42.61300 24.59900
H  36.84100 42.30100 26.16900
H  36.12200 46.07700 29.87500
H  33.58400 44.17400 33.04100
H  32.60500 43.74200 31.54400
H  32.69900 45.32300 32.12700

