158

Mg 1.54400 7.68100 25.94600
C  2.31200 9.64500 28.78400
C  1.67800 4.89100 28.09100
C  0.83700 5.56600 23.35700
C  1.94800 10.35300 23.88300
N  1.85700 7.29700 28.25900
C  2.13300 8.30400 29.16300
C  2.18200 7.70300 30.58400
C  2.24300 6.15100 30.34300
C  1.95000 6.04900 28.81200
C  3.57300 5.38100 30.71800
C  0.94300 8.07500 31.48600
C  1.06200 8.24900 32.97100
H  2.34600 7.87800 33.77000
N  1.16700 5.48500 25.75800
C  1.30400 4.57100 26.76400
C  0.98200 3.25700 26.25000
C  0.68300 3.39000 24.82500
C  0.77100 4.85000 24.59500
C  0.92600 2.05500 27.07700
C  0.45800 2.35700 23.71100
O  0.68400 2.63300 22.58400
C  0.08400 1.03300 24.07500
N  1.69700 7.84500 23.91100
C  1.24300 6.87800 23.05300
C  1.25400 7.36600 21.60300
C  1.32700 8.94200 21.83700
C  1.79500 9.06800 23.36200
C  2.46700 6.77600 20.79000
C  -0.05800 9.72700 21.44800
C  0.01300 10.55500 20.15000
N  2.11600 9.54500 26.20200
C  2.07000 10.60400 25.27300
C  2.22400 11.86000 25.92800
C  2.39700 11.58000 27.32200
C  2.27600 10.10700 27.41700
C  2.10000 13.23800 25.29800
C  2.65600 12.15100 28.60800
O  2.99000 13.31000 28.86500
C  2.55700 10.91900 29.58700
C  3.86600 10.87600 30.32800
O  4.79700 10.10100 30.14300
O  3.85500 11.81800 31.30500
C  4.74800 11.51800 32.44100
H  1.87900 4.00800 28.70100
H  0.46700 4.94200 22.54100
H  2.06600 11.23000 23.24200
H  3.16100 7.85900 31.03900
H  1.48100 5.63700 30.92800
H  3.99500 5.81200 31.62500
H  4.33600 5.59800 29.97000
H  3.37800 4.38000 31.10400
H  0.03100 7.54900 31.20500
H  0.80000 9.11100 31.17600
H  0.27700 7.67100 33.45700
H  0.76000 9.27900 33.16100
H  1.27200 1.12200 26.63100
H  -0.10900 1.82500 27.33200
H  1.58200 2.14200 27.94200
H  0.97300 0.52900 24.45400
H  -0.27400 0.53700 23.17300
H  -0.61200 1.16900 24.90300
H  0.27700 7.06500 21.22500
H  2.16400 9.18300 21.18200
H  3.20400 6.36700 21.48200
H  2.92000 7.55300 20.17500
H  2.03600 5.95500 20.21600
H  -0.36000 10.31000 22.31800
H  -0.83100 8.97700 21.28300
H  -0.61200 10.09000 19.38800
H  1.03200 10.63900 19.77100
H  -0.37300 11.54700 20.38600
H  1.29000 13.73700 25.82900
H  1.77200 13.00500 24.28500
H  3.02900 13.80800 25.32500
H  1.72000 11.14400 30.24900
H  5.35300 12.42200 32.50300
H  5.34400 10.61300 32.33000
H  4.21200 11.33800 33.37400
Mg 47.43300 44.48200 42.87000
C  44.09900 43.38900 42.53300
C  48.41300 41.25500 42.44100
C  50.72500 45.55100 42.38900
C  46.41300 47.75400 42.78700
N  46.40100 42.56800 42.45000
C  45.04200 42.32800 42.50100
C  44.78900 40.77200 42.41700
C  46.15600 40.21800 42.70600
C  47.07700 41.44100 42.57600
C  46.25100 39.46000 44.04000
C  44.04900 40.29800 41.14400
C  44.11600 41.21100 39.82400
H  44.20700 40.54200 38.45300
N  49.26000 43.47000 42.64100
C  49.49600 42.13300 42.55800
C  50.91100 41.86300 42.44600
C  51.59300 43.07500 42.42300
C  50.54000 44.18200 42.47000
C  51.46900 40.50700 42.11200
C  53.11900 43.22700 42.28000
O  53.81600 42.24800 42.03200
C  53.92000 44.49500 42.50100
N  48.34100 46.44900 42.22900
C  49.75000 46.53800 42.31800
C  50.02900 48.07700 42.47000
C  48.68100 48.77800 42.62000
C  47.73500 47.60200 42.54600
C  51.22300 48.57900 43.38200
C  48.29400 49.96000 41.66800
C  47.81700 51.23800 42.30400
N  45.64900 45.42200 42.65900
C  45.33400 46.75600 42.72000
C  43.88900 46.90100 42.80900
C  43.36400 45.61600 42.60100
C  44.48900 44.75300 42.55700
C  43.17800 48.20700 43.11200
C  42.12900 44.86000 42.41800
O  40.96500 45.24200 42.35500
C  42.55300 43.31400 42.55400
C  42.08400 42.89300 43.92500
O  42.16000 43.59100 44.95500
O  41.68700 41.48500 43.95600
C  41.64700 40.94500 45.35700
H  48.65400 40.19200 42.50200
H  51.73300 45.96700 42.45000
H  46.11400 48.77800 43.01700
H  44.14700 40.71400 43.29600
H  46.49600 39.63600 41.84900
H  45.41200 38.80400 44.27100
H  46.66800 40.10000 44.81700
H  47.01700 38.75300 43.72000
H  43.01300 40.33000 41.48100
H  44.25500 39.24500 40.95200
H  45.05600 41.75800 39.89100
H  43.34500 41.97100 39.95100
H  52.20100 40.50700 41.30400
H  50.73300 39.71400 41.98100
H  51.99600 40.26300 43.03400
H  53.74000 45.09000 41.60500
H  54.97200 44.22800 42.60200
H  53.50600 44.84400 43.44700
H  50.33600 48.26200 41.44100
H  48.65300 49.16800 43.63700
H  51.35900 47.75100 44.07700
H  50.94400 49.47500 43.93900
H  52.16500 48.83800 42.89800
H  47.47000 49.59600 41.05400
H  49.12500 50.19700 41.00400
H  48.71900 51.85000 42.32300
H  47.35800 51.02100 43.26900
H  47.02900 51.77200 41.77300
H  43.69900 48.76300 43.89200
H  42.13100 47.92600 43.23200
H  43.28300 48.84700 42.23600
H  42.07000 42.65700 41.83100
H  40.65400 40.54000 45.55400
H  42.19500 41.51500 46.10800
H  42.25700 40.04800 45.25300

