158

Mg 47.66200 44.95400 42.94700
C  44.44300 43.98600 43.05300
C  48.48800 41.57100 42.21700
C  50.68000 45.83800 42.10900
C  46.66300 48.23600 42.96100
N  46.50600 43.09500 42.45600
C  45.22100 42.92600 42.72000
C  44.82800 41.46400 42.62300
C  46.14100 40.74600 42.37100
C  47.12800 41.85700 42.31500
C  46.49300 39.65800 43.44400
C  43.74900 41.18600 41.52100
C  43.50300 42.10900 40.31600
H  43.29500 41.56200 38.88800
N  49.37200 43.85700 42.39400
C  49.58300 42.49600 42.15900
C  50.94200 42.18700 41.86500
C  51.58800 43.41700 41.71700
C  50.56000 44.43700 42.10600
C  51.52700 40.77600 41.60700
C  53.03900 43.61900 41.17700
O  53.73600 42.69900 40.80500
C  53.58700 44.99800 40.96500
N  48.51800 46.70000 42.54700
C  49.83700 46.87700 42.37800
C  50.28400 48.30700 42.52200
C  48.94900 49.09500 42.52100
C  47.97500 47.90900 42.69500
C  51.13600 48.59600 43.75800
C  48.58400 49.84900 41.20900
C  48.71300 51.40100 41.20100
N  45.91800 45.97000 43.02300
C  45.64700 47.28500 43.07100
C  44.20700 47.48800 43.30000
C  43.76600 46.14400 43.39400
C  44.81800 45.30400 43.16900
C  43.41500 48.72700 43.49800
C  42.53900 45.39200 43.67900
O  41.42400 45.80600 44.05800
C  42.90000 43.92500 43.45300
C  42.69100 43.16400 44.72900
O  43.40800 43.24700 45.66100
O  41.58200 42.43800 44.68400
C  41.20900 41.77300 45.89700
H  48.59700 40.49000 42.11200
H  51.70600 46.19900 42.00900
H  46.50800 49.31600 42.94000
H  44.45700 41.12900 43.59100
H  46.30700 40.23300 41.42400
H  45.58500 39.07000 43.57500
H  46.69400 40.18400 44.37800
H  47.39000 39.05400 43.30700
H  42.80500 41.03800 42.04600
H  44.08000 40.23700 41.10100
H  44.11000 43.00400 40.18100
H  42.47400 42.41500 40.50600
H  52.06400 40.42700 42.49000
H  52.15900 40.69400 40.72300
H  50.73200 40.03200 41.57200
H  52.91400 45.57200 40.32700
H  54.61300 45.06300 40.60400
H  53.61900 45.46600 41.94900
H  50.89800 48.58400 41.66500
H  48.80900 49.75200 43.38000
H  51.31600 47.65000 44.26900
H  50.54700 49.09000 44.53000
H  52.10800 49.03300 43.53000
H  47.52000 49.72400 41.00700
H  49.04500 49.46900 40.29700
H  49.46300 51.73800 40.48400
H  48.96700 51.77900 42.19200
H  47.73500 51.82400 40.97000
H  43.33500 49.20900 42.52300
H  43.89500 49.35800 44.24600
H  42.41800 48.45700 43.84600
H  42.20200 43.43400 42.77600
H  40.53800 40.93600 45.70300
H  40.71500 42.49500 46.54700
H  42.07000 41.32500 46.39300
Mg 15.64400 51.10300 26.48500
C  17.91300 50.47500 29.14100
C  13.38200 52.09000 28.74200
C  13.55200 51.24200 23.96000
C  18.19400 50.04200 24.19900
N  15.77400 51.41000 28.67600
C  16.74700 51.01000 29.60000
C  16.35400 51.27100 31.02500
C  14.79100 51.57700 30.87500
C  14.59900 51.66300 29.34600
C  13.96700 50.34200 31.41100
C  17.15200 52.43900 31.62700
C  17.88000 52.13600 32.94700
H  17.00700 51.53900 34.00500
N  13.77500 51.65000 26.35400
C  12.99800 52.09400 27.38500
C  11.60700 52.27600 26.86000
C  11.64600 52.00300 25.48400
C  13.05400 51.61700 25.21800
C  10.51000 52.65500 27.82900
C  10.48900 52.15300 24.42500
O  10.61700 51.83400 23.22700
C  9.10200 52.43900 24.94400
N  15.88500 50.78200 24.30200
C  14.81900 50.84400 23.49200
C  15.14400 50.39400 22.05200
C  16.65800 50.00700 22.20300
C  16.98100 50.32300 23.66500
C  14.24800 49.33800 21.35000
C  17.58100 50.89000 21.26700
C  18.61800 50.10500 20.53300
N  17.49100 50.27600 26.58000
C  18.42900 49.96800 25.63100
C  19.68900 49.52600 26.20500
C  19.51700 49.64100 27.59500
C  18.17200 50.15100 27.78100
C  20.97300 49.01400 25.44100
C  20.12600 49.49300 28.87500
O  21.23900 49.19100 29.25000
C  19.06200 49.92000 29.94000
C  18.63500 48.73000 30.70400
O  17.98000 47.84500 30.22100
O  19.10900 48.83300 32.01200
C  18.58800 47.83200 32.94600
H  12.66000 52.31400 29.52900
H  12.88100 51.08300 23.11200
H  19.00500 49.69700 23.55500
H  16.47800 50.42800 31.70500
H  14.40800 52.49900 31.31300
H  13.57400 49.79400 30.55500
H  13.18400 50.73100 32.06100
H  14.59000 49.63200 31.95600
H  16.43300 53.23200 31.83300
H  17.86200 53.01400 31.03200
H  18.43500 52.98600 33.34300
H  18.58600 51.35400 32.66400
H  10.14200 51.76600 28.34200
H  9.70700 53.25900 27.40700
H  10.94200 53.22300 28.65400
H  8.96100 53.50500 25.12100
H  8.76900 51.87100 25.81300
H  8.37000 52.13400 24.19600
H  15.01100 51.24900 21.39000
H  16.72000 48.94100 21.98300
H  13.85600 48.63000 22.08000
H  14.80800 48.85300 20.55100
H  13.38500 49.86600 20.94600
H  17.98700 51.73000 21.83000
H  16.98100 51.42500 20.53100
H  18.60000 50.49500 19.51500
H  18.42700 49.03500 20.62400
H  19.52900 50.34800 21.07900
H  21.13900 49.81400 24.72000
H  20.78000 48.08400 24.90600
H  21.78800 48.85200 26.14600
H  19.33500 50.68700 30.66500
H  17.50200 47.90300 32.89000
H  18.92000 47.83200 33.98400
H  18.75000 46.80200 32.62800

