158

Mg 1.88800 -1.50600 43.21700
C  5.36600 -1.09300 42.83300
C  1.40100 1.37000 41.25900
C  -1.38600 -2.26500 42.90400
C  2.48200 -4.72700 44.54400
N  3.14000 -0.10100 42.14100
C  4.54000 -0.07800 42.18800
C  5.16200 1.05100 41.45700
C  3.85000 2.08600 41.33900
C  2.70700 1.05900 41.61800
C  3.86700 3.31300 42.29900
C  5.77200 0.71400 40.03200
C  6.69100 1.83800 39.50900
H  6.29400 2.51700 38.17500
N  0.24300 -0.56400 42.32900
C  0.25400 0.58000 41.50200
C  -1.13800 0.83700 41.07800
C  -1.96800 -0.14800 41.61600
C  -1.06200 -1.02800 42.39300
C  -1.60000 1.93400 40.20400
C  -3.46600 -0.19900 41.42300
O  -4.10000 0.65100 40.78800
C  -4.33200 -1.25700 42.08300
N  0.74500 -3.31200 43.61100
C  -0.60000 -3.24800 43.58000
C  -1.23500 -4.54300 43.94100
C  -0.02000 -5.36400 44.52100
C  1.16900 -4.45300 44.11700
C  -2.43900 -4.51300 44.99400
C  0.10300 -6.80600 43.91200
C  0.36100 -7.93200 44.91200
N  3.53500 -2.61800 43.80600
C  3.66800 -3.87600 44.36100
C  5.04200 -4.16600 44.60400
C  5.79500 -3.18100 44.01300
C  4.85200 -2.20100 43.54500
C  5.44100 -5.44400 45.27200
C  7.06200 -2.62400 43.62400
O  8.18400 -3.09100 43.81600
C  6.86100 -1.35900 42.85600
C  7.52300 -0.22200 43.43900
O  7.21900 0.44000 44.42800
O  8.68500 -0.00600 42.70900
C  9.13700 1.35400 42.81200
H  1.32200 2.27900 40.65900
H  -2.42100 -2.61400 42.93100
H  2.57500 -5.73300 44.95800
H  5.91000 1.54200 42.08100
H  3.81700 2.33900 40.27900
H  2.88900 3.49700 42.74400
H  4.04000 4.14700 41.61900
H  4.62300 3.17300 43.07200
H  4.96000 0.61400 39.31100
H  6.25000 -0.26500 40.02200
H  7.70000 1.42400 39.51800
H  6.69400 2.57400 40.31300
H  -0.78600 2.65100 40.10400
H  -2.38400 2.53900 40.65800
H  -1.91200 1.60500 39.21300
H  -5.38800 -1.17900 41.82800
H  -4.09200 -1.15600 43.14200
H  -3.92100 -2.19800 41.71800
H  -1.48900 -5.15200 43.07300
H  -0.08500 -5.32100 45.60800
H  -3.40400 -4.71900 44.53100
H  -2.41300 -3.53300 45.46900
H  -2.29900 -5.37800 45.64200
H  1.05200 -6.83700 43.37600
H  -0.80200 -6.99000 43.33300
H  1.30200 -8.44200 44.70400
H  -0.48000 -8.61500 44.79200
H  0.23300 -7.51700 45.91200
H  6.53000 -5.40400 45.25600
H  5.26900 -6.32200 44.65000
H  5.17400 -5.65300 46.30800
H  7.07200 -1.51900 41.79900
H  10.10100 1.39300 42.30500
H  9.23800 1.70100 43.84100
H  8.43200 2.10700 42.45800
Mg 0.64500 43.32800 26.59500
C  2.85900 42.69400 29.21600
C  -1.99600 42.61900 28.66700
C  -1.45000 43.58900 23.98400
C  3.49500 43.83500 24.39800
N  0.48000 42.63700 28.64800
C  1.47400 42.60400 29.58200
C  0.86900 42.44200 30.99400
C  -0.60100 42.09600 30.72200
C  -0.74700 42.45500 29.23900
C  -1.13300 40.70700 31.14900
C  1.14900 43.63200 31.89100
C  1.69800 43.37100 33.25800
H  1.35400 42.06300 34.04300
N  -1.48300 43.05800 26.35000
C  -2.37800 42.86600 27.30700
C  -3.72000 42.82700 26.74400
C  -3.54100 43.02800 25.36200
C  -2.12300 43.17600 25.16800
C  -4.91800 42.62100 27.67000
C  -4.63300 43.02200 24.26800
O  -4.26000 43.24100 23.11700
C  -6.07200 42.70300 24.58900
N  1.03000 43.47100 24.40300
C  -0.07100 43.74300 23.63000
C  0.37200 44.30300 22.26900
C  1.91700 44.66100 22.56300
C  2.18000 43.97800 23.85600
C  -0.00100 43.30500 21.10200
C  2.21000 46.19900 22.68700
C  1.55000 47.07500 21.56500
N  2.69000 43.18800 26.71800
C  3.68600 43.42100 25.76600
C  4.92600 43.28500 26.47500
C  4.67500 43.04800 27.82000
C  3.31800 42.97800 27.91800
C  6.25500 43.34200 25.77200
C  5.25300 42.68500 29.05700
O  6.40500 42.46500 29.41300
C  4.03700 42.51800 30.11500
C  4.28400 41.14900 30.77100
O  3.89100 40.04000 30.39700
O  5.05100 41.38500 31.91300
C  5.27000 40.20300 32.74000
H  -2.86600 42.43200 29.29900
H  -2.05500 43.90200 23.13000
H  4.38200 44.02200 23.79000
H  1.47300 41.58400 31.28900
H  -1.19500 42.81600 31.28500
H  -0.24200 40.20500 31.52700
H  -1.60400 40.18400 30.31600
H  -1.85500 40.78200 31.96200
H  0.27100 44.24000 32.11000
H  1.94800 44.30400 31.57700
H  1.34600 44.22500 33.83600
H  2.78700 43.42900 33.25600
H  -5.55100 43.48700 27.47500
H  -4.65500 42.51100 28.72200
H  -5.43600 41.70700 27.37600
H  -6.55400 42.22300 23.73700
H  -6.49100 43.70800 24.54800
H  -6.23700 42.15000 25.51300
H  -0.15500 45.24400 22.11200
H  2.47000 44.21300 21.73700
H  0.70200 43.41600 20.27700
H  -0.94200 43.59900 20.63700
H  -0.08100 42.33900 21.60000
H  3.25900 46.46700 22.55700
H  2.12900 46.60900 23.69300
H  0.61600 47.54100 21.87900
H  1.41100 46.44100 20.69000
H  2.16000 47.83300 21.07200
H  6.41500 44.41800 25.70200
H  6.37900 42.90600 24.78000
H  6.88500 42.92000 26.55500
H  4.06200 43.37000 30.79500
H  6.29000 40.16000 33.12200
H  5.24500 39.21100 32.28800
H  4.73500 40.17400 33.68900

