158

Mg 43.40100 3.83800 47.53200
C  41.48400 6.74400 47.22400
C  40.42000 1.97600 47.55800
C  45.27700 1.17100 47.27400
C  46.14600 5.90300 46.86700
N  41.17800 4.31400 47.44900
C  40.65000 5.57800 47.35300
C  39.11200 5.54300 47.30200
C  38.79500 4.08300 47.88600
C  40.17000 3.36100 47.57600
C  38.46100 4.01900 49.46700
C  38.57700 5.74500 45.90700
C  37.47400 6.80400 45.85400
H  36.85100 6.83000 44.46400
N  42.87900 1.80800 47.43900
C  41.60200 1.24600 47.45200
C  41.82200 -0.17800 47.42100
C  43.20900 -0.46100 47.15400
C  43.86800 0.85300 47.27200
C  40.64300 -1.18700 47.70400
C  43.87900 -1.76200 46.85300
O  43.31800 -2.86100 46.82400
C  45.36400 -1.92900 46.66500
N  45.38000 3.55600 47.10600
C  45.99800 2.35300 47.26400
C  47.59300 2.51400 47.32200
C  47.78900 3.92100 46.76900
C  46.31700 4.49700 47.00100
C  48.17500 2.23000 48.73600
C  48.18200 4.06300 45.26200
C  49.62200 4.67800 44.98500
N  43.82600 5.92000 47.27500
C  44.99300 6.59900 47.01200
C  44.76800 8.02400 47.06000
C  43.32700 8.11900 47.06100
C  42.86900 6.86000 47.19600
C  45.78700 9.16500 47.03700
C  42.16700 9.08700 47.09400
O  42.13900 10.33700 46.99000
C  40.90900 8.14600 47.14400
C  40.02600 8.47800 48.26800
O  40.17200 8.15500 49.44700
O  38.97700 9.15100 47.84300
C  38.02200 9.60500 48.81800
H  39.47900 1.43300 47.66700
H  45.86400 0.25000 47.26400
H  47.14000 6.34500 46.76600
H  38.77900 6.35700 47.94600
H  37.96800 3.62200 47.34500
H  38.22900 5.03300 49.79300
H  39.26300 3.57000 50.05400
H  37.57500 3.42900 49.70500
H  38.12700 4.81400 45.56200
H  39.28000 5.97600 45.10700
H  38.01800 7.72000 46.08300
H  36.70500 6.65000 46.61100
H  40.07000 -1.34200 46.78900
H  39.99200 -0.73600 48.45300
H  40.95000 -2.18500 48.01400
H  45.93900 -1.87000 47.58900
H  45.79400 -1.32600 45.86400
H  45.50400 -2.94000 46.28200
H  48.15900 1.80300 46.71900
H  48.33600 4.55800 47.46500
H  47.41000 1.66400 49.26700
H  48.37300 3.12800 49.32100
H  49.05600 1.60000 48.61900
H  47.46500 4.76000 44.82900
H  48.09200 3.09700 44.76400
H  50.07800 4.06300 44.21000
H  50.24400 4.62700 45.87900
H  49.51700 5.67700 44.56200
H  46.23000 9.17800 46.04100
H  46.52500 8.83900 47.77000
H  45.30100 10.10400 47.30100
H  40.27000 8.21600 46.26400
H  37.52800 8.81900 49.38900
H  37.25400 10.12600 48.24500
H  38.44600 10.28000 49.56200
Mg -5.21800 25.41000 24.73100
C  -3.82200 26.81800 27.50700
C  -6.84000 23.11100 26.76500
C  -6.53900 23.79500 21.96600
C  -3.36200 27.37700 22.64600
N  -5.10100 24.87600 26.83400
C  -4.59800 25.70800 27.86600
C  -5.12500 25.24500 29.26000
C  -5.74900 23.85700 28.91700
C  -5.89300 23.93200 27.37700
C  -4.85700 22.61500 29.34000
C  -6.02400 26.30800 29.88200
C  -5.70100 26.70600 31.35200
H  -5.41400 25.54100 32.15300
N  -6.48900 23.73100 24.40500
C  -7.16200 23.04000 25.35400
C  -8.31700 22.35500 24.83100
C  -8.15000 22.43100 23.42700
C  -7.03700 23.31100 23.17700
C  -9.38000 21.73500 25.64100
C  -8.92000 21.63700 22.32100
O  -8.53300 21.60100 21.15600
C  -10.07500 20.72500 22.60200
N  -5.00300 25.61400 22.59300
C  -5.63200 24.81000 21.64500
C  -5.27100 25.23300 20.22000
C  -4.38200 26.51800 20.50500
C  -4.19400 26.52800 21.98700
C  -4.67300 24.07200 19.38900
C  -4.95300 27.76900 19.86700
C  -6.08800 28.55700 20.71400
N  -3.81000 26.76300 24.99600
C  -3.18900 27.55800 24.04200
C  -2.33300 28.51200 24.75600
C  -2.54500 28.31000 26.16600
C  -3.37100 27.17700 26.18900
C  -1.46100 29.47000 23.99900
C  -2.12700 28.62300 27.56200
O  -1.32900 29.46800 27.98100
C  -3.07400 27.70700 28.48600
C  -2.17800 26.85500 29.29800
O  -1.41700 25.90600 28.95000
O  -2.12100 27.29200 30.60000
C  -1.39100 26.47600 31.50000
H  -7.46700 22.50300 27.42000
H  -7.03200 23.42000 21.06600
H  -2.72800 27.98900 22.00100
H  -4.23400 25.11300 29.87400
H  -6.77200 23.77100 29.28300
H  -3.79900 22.85600 29.45100
H  -4.97900 21.83100 28.59300
H  -5.23000 22.22300 30.28600
H  -6.97400 25.77400 29.89000
H  -6.15200 27.20500 29.27500
H  -6.51300 27.26100 31.82100
H  -4.83000 27.35800 31.29000
H  -10.17200 21.09100 25.25800
H  -9.90300 22.64300 25.94100
H  -8.93800 21.21300 26.48900
H  -10.25300 20.19700 21.66500
H  -11.00000 21.20500 22.92200
H  -9.75600 19.97000 23.32000
H  -6.20500 25.57700 19.77500
H  -3.42600 26.28800 20.03400
H  -4.43900 23.31300 20.13500
H  -3.73700 24.36200 18.91100
H  -5.48400 23.90600 18.68000
H  -5.43500 27.49600 18.92800
H  -4.11900 28.39600 19.55200
H  -6.55300 28.00700 21.53300
H  -6.91600 28.60900 20.00800
H  -5.73800 29.56200 20.95100
H  -1.20500 29.16300 22.98500
H  -0.62000 29.68000 24.66000
H  -2.04300 30.38600 23.89100
H  -3.74300 28.31000 29.09900
H  -1.51900 26.92800 32.48400
H  -0.33400 26.46000 31.23400
H  -1.80100 25.46600 31.47700

