158

Mg 2.59300 -2.04300 44.65400
C  5.52900 -0.68600 43.52600
C  0.83600 0.02100 42.58700
C  -0.26100 -3.85000 45.37900
C  4.50500 -4.48500 46.38900
N  3.12700 -0.62600 43.13100
C  4.44200 -0.17700 42.82800
C  4.42900 0.98800 41.82300
C  2.88000 1.36100 41.80200
C  2.24900 0.23200 42.61200
C  2.57800 2.80600 42.32300
C  5.02000 0.63300 40.43500
C  6.28400 1.37000 40.09100
H  6.59600 1.94100 38.66700
N  0.53500 -1.84600 44.08900
C  0.00100 -0.93500 43.18800
C  -1.32900 -1.19500 43.03900
C  -1.72800 -2.22200 43.93800
C  -0.43900 -2.71700 44.52600
C  -2.32000 -0.37400 42.14800
C  -3.13000 -2.68300 44.21400
O  -4.01000 -2.33100 43.42000
C  -3.55900 -3.77400 45.18800
N  2.23900 -3.93400 45.76100
C  0.96100 -4.37100 45.96000
C  0.92500 -5.66600 46.84700
C  2.44300 -5.99300 46.94500
C  3.10500 -4.76600 46.30700
C  0.27300 -5.65000 48.25200
C  2.93500 -7.27800 46.19600
C  3.22300 -8.40000 47.16400
N  4.64700 -2.49700 44.97600
C  5.23900 -3.44700 45.76700
C  6.66900 -3.20800 45.79000
C  6.82800 -2.14300 44.93400
C  5.55600 -1.73600 44.49700
C  7.76500 -3.94700 46.56100
C  7.84000 -1.28300 44.39700
O  9.03600 -1.21300 44.60300
C  7.06100 -0.31300 43.50500
C  7.22700 1.04600 44.07400
O  8.09100 1.79300 43.66300
O  6.38300 1.34500 45.07000
C  6.65300 2.55200 45.87600
H  0.27000 0.65400 41.90000
H  -1.15200 -4.45000 45.57400
H  5.05600 -5.17600 47.03000
H  4.95000 1.81200 42.30900
H  2.38000 1.32400 40.83400
H  2.67500 3.47900 41.47200
H  3.13900 3.16800 43.18400
H  1.53400 2.82300 42.63500
H  4.32700 0.65600 39.59400
H  5.35900 -0.39900 40.52500
H  7.14500 0.76500 40.37500
H  6.24400 2.22900 40.76100
H  -1.99800 0.66700 42.17300
H  -3.27400 -0.06800 42.57800
H  -2.52500 -0.77500 41.15600
H  -3.03500 -3.63100 46.13200
H  -3.32700 -4.71000 44.68000
H  -4.63100 -3.71700 45.37600
H  0.40800 -6.37400 46.19900
H  2.61100 -6.01000 48.02200
H  -0.81400 -5.62400 48.17300
H  0.55000 -4.73700 48.77900
H  0.50900 -6.54400 48.83000
H  3.90700 -7.09500 45.73900
H  2.20000 -7.52000 45.42800
H  2.46100 -9.17900 47.15000
H  3.23300 -8.02200 48.18600
H  4.18300 -8.85800 46.92300
H  8.29200 -4.58800 45.85300
H  7.27300 -4.49600 47.36400
H  8.41300 -3.23200 47.06800
H  7.59300 -0.33400 42.55400
H  7.68100 2.66600 46.22100
H  5.92100 2.66000 46.67600
H  6.50600 3.33500 45.13200
Mg 43.51700 4.22800 47.30900
C  41.20100 6.87200 47.19600
C  40.76700 2.10000 46.74500
C  45.65000 1.67100 46.78200
C  46.14400 6.52400 47.02000
N  41.22000 4.44300 47.01600
C  40.54300 5.59300 47.10000
C  39.03900 5.31500 47.20000
C  38.89400 3.76500 47.30700
C  40.37600 3.39200 46.95700
C  38.22500 3.22800 48.58200
C  38.27500 6.05800 46.05400
C  38.59500 5.60400 44.60300
H  39.30000 6.67900 43.71200
N  43.30100 2.14200 46.87600
C  42.05600 1.48500 46.69400
C  42.30100 0.08200 46.57200
C  43.67500 -0.16000 46.50200
C  44.29700 1.25200 46.74400
C  41.23900 -0.95900 46.25600
C  44.26500 -1.47600 46.08800
O  43.63000 -2.50500 45.91300
C  45.72900 -1.54900 45.90500
N  45.58900 4.11200 46.90500
C  46.21400 2.91800 46.83900
C  47.76500 3.09400 47.06400
C  47.95600 4.66500 47.09400
C  46.48800 5.16700 46.99600
C  48.30300 2.23600 48.29500
C  48.94100 5.21600 45.99200
C  50.35200 5.27900 46.48500
N  43.73900 6.26500 47.30500
C  44.84100 7.12600 47.21100
C  44.44100 8.52200 47.45100
C  43.03500 8.40800 47.40600
C  42.60600 7.09500 47.20700
C  45.27700 9.70200 47.73500
C  41.81900 9.22600 47.60300
O  41.76000 10.41900 47.84700
C  40.57700 8.26300 47.45900
C  39.71700 8.34900 48.71200
O  40.24700 8.19400 49.83400
O  38.37200 8.36800 48.44200
C  37.44700 8.24700 49.56100
H  39.92200 1.40900 46.74100
H  46.34500 0.83300 46.86700
H  47.01900 7.13700 47.24800
H  38.68100 5.64500 48.17500
H  38.31400 3.32800 46.49500
H  38.73700 2.34400 48.96400
H  37.18400 2.97900 48.37200
H  38.29400 3.91700 49.42400
H  38.35600 7.14500 46.06600
H  37.25800 5.71600 46.24700
H  37.60400 5.37700 44.21000
H  39.29200 4.77100 44.69800
H  41.37700 -1.84200 46.88000
H  41.42100 -1.11600 45.19300
H  40.26700 -0.54900 46.53000
H  46.21900 -1.25600 46.83400
H  45.95400 -0.79200 45.15300
H  46.21000 -2.46600 45.56400
H  48.21900 2.65500 46.17600
H  48.32300 5.02800 48.05400
H  47.42800 1.82500 48.79900
H  48.85600 2.98700 48.86000
H  48.88200 1.34700 48.04400
H  48.57100 6.20300 45.71300
H  48.93700 4.63100 45.07300
H  50.48600 5.20600 47.56500
H  50.73900 6.26200 46.21800
H  50.90200 4.48500 45.97900
H  45.18700 9.87000 48.80800
H  44.79500 10.51600 47.19400
H  46.31600 9.54600 47.44600
H  40.09900 8.65500 46.56100
H  37.81900 8.82200 50.41000
H  37.23200 7.20500 49.79900
H  36.45400 8.56800 49.24700

