158

Mg 0.34400 7.71900 25.66400
C  1.02600 9.59400 28.45700
C  0.33200 4.83100 27.68300
C  0.09900 5.87000 22.87300
C  0.38600 10.68700 23.75000
N  0.84200 7.21800 27.66900
C  1.00800 8.22500 28.69200
C  1.04700 7.57000 30.10100
C  1.07100 6.04700 29.81100
C  0.64300 6.03200 28.36300
C  2.46800 5.40900 30.24300
C  -0.22300 7.93500 30.90400
C  -0.09500 7.84100 32.40900
H  1.18300 7.42800 33.20900
N  0.27100 5.64300 25.28500
C  0.25100 4.68000 26.22800
C  0.16000 3.35000 25.52100
C  0.05800 3.66700 24.13200
C  0.08400 5.12300 24.06100
C  0.24400 1.96600 26.15700
C  0.12500 2.76000 22.96600
O  -0.12600 3.06200 21.79100
C  0.49300 1.24900 23.14200
N  0.34200 8.23100 23.53500
C  0.26300 7.27900 22.60600
C  0.08500 7.84800 21.20000
C  0.11400 9.40300 21.53300
C  0.29000 9.47100 22.99900
C  1.12200 7.39400 20.18100
C  -1.08700 10.22300 20.98800
C  -0.88400 10.78600 19.55900
N  0.48900 9.76600 25.98000
C  0.60000 10.81700 25.12000
C  0.94700 12.04700 25.86600
C  1.15200 11.59300 27.20300
C  0.81900 10.21700 27.20300
C  1.10800 13.42200 25.39500
C  1.54400 12.03100 28.53900
O  1.90300 13.14100 28.90300
C  1.32600 10.76300 29.46900
C  2.59100 10.47500 30.15800
O  3.59500 9.89900 29.72600
O  2.50600 11.03300 31.44300
C  3.71700 10.87000 32.27100
H  0.63900 3.90500 28.17400
H  -0.25100 5.40000 21.95100
H  0.40800 11.65900 23.25200
H  1.94200 7.96100 30.58600
H  0.23200 5.58300 30.33000
H  2.95800 4.78300 29.49700
H  2.37700 4.89500 31.20000
H  3.21900 6.19300 30.34000
H  -1.06300 7.25700 30.75200
H  -0.51600 8.93100 30.57200
H  -0.96300 7.35000 32.85000
H  -0.41100 8.83200 32.73500
H  1.06400 1.42200 25.68900
H  -0.69800 1.50800 25.85600
H  0.42900 1.88100 27.22800
H  -0.23500 0.92300 23.88500
H  1.48700 1.06500 23.55100
H  0.34000 0.64300 22.25000
H  -0.89900 7.63800 20.78100
H  0.95800 9.91500 21.07200
H  1.97300 6.97900 20.72200
H  1.43400 8.25300 19.58700
H  0.72100 6.62000 19.52700
H  -1.22500 11.07500 21.65500
H  -1.94000 9.55800 21.11800
H  -1.85000 10.69800 19.06000
H  -0.27400 10.13800 18.93100
H  -0.68800 11.85800 19.55900
H  0.11500 13.75000 25.70100
H  1.20400 13.50600 24.31200
H  1.86800 13.97700 25.94600
H  0.43500 10.82200 30.09400
H  4.47500 10.18200 31.89500
H  3.56400 10.62000 33.32100
H  4.26400 11.80800 32.36900
Mg 46.95900 25.54200 28.91900
C  47.64900 27.55700 31.66000
C  46.19700 22.90100 31.16600
C  46.95900 23.41900 26.34500
C  48.26500 28.12200 26.85600
N  46.82000 25.34300 31.09200
C  47.05200 26.37700 31.99900
C  46.71500 26.00700 33.38100
C  46.53000 24.47100 33.24000
C  46.55800 24.17800 31.76400
C  47.40500 23.54000 34.03100
C  45.62200 26.74600 34.15800
C  45.73800 26.62100 35.75000
H  44.40300 26.33400 36.50000
N  46.47600 23.50500 28.68200
C  46.10300 22.65400 29.71000
C  45.80100 21.35500 29.07500
C  46.11200 21.47100 27.65700
C  46.53800 22.88300 27.49000
C  45.29200 20.23800 29.90800
C  45.97300 20.41500 26.54900
O  46.36700 20.57100 25.42000
C  45.47800 19.01500 26.90700
N  47.62000 25.73900 26.91200
C  47.41300 24.72500 26.00700
C  47.92500 25.03800 24.55500
C  47.99200 26.56700 24.70700
C  47.95300 26.86100 26.26100
C  49.19800 24.25600 24.23800
C  46.84600 27.26300 23.90900
C  45.49100 27.29000 24.64900
N  47.86800 27.44100 29.15800
C  48.20100 28.44200 28.24000
C  48.60800 29.64500 28.97200
C  48.42000 29.32300 30.29000
C  47.95900 28.02000 30.37400
C  49.19300 30.93000 28.28800
C  48.46200 29.87100 31.62500
O  48.80100 30.95000 32.04300
C  47.97300 28.70300 32.63000
C  49.03800 28.31100 33.57500
O  50.15900 27.95500 33.18300
O  48.59400 28.20300 34.90300
C  49.63500 27.65700 35.72000
H  45.92000 22.16600 31.92500
H  46.93300 22.78100 25.45900
H  48.50000 28.91800 26.14700
H  47.63600 26.10900 33.95500
H  45.50800 24.20200 33.50700
H  48.13700 24.14800 34.56200
H  48.00100 22.84000 33.44600
H  46.86200 22.99900 34.80600
H  44.64700 26.42000 33.79500
H  45.68100 27.82100 33.98800
H  46.16700 27.50500 36.22200
H  46.40300 25.76500 35.85700
H  45.99700 19.40700 29.92400
H  44.32800 19.85700 29.57100
H  45.08200 20.61200 30.91000
H  45.81600 18.60500 27.85800
H  45.70100 18.26600 26.14700
H  44.39300 18.93300 26.85200
H  47.20500 24.79900 23.77200
H  48.97900 26.81500 24.31600
H  49.34000 23.78200 23.26600
H  49.40900 23.56100 25.05100
H  49.97500 25.02000 24.21900
H  46.72000 26.74500 22.95800
H  47.20700 28.28600 23.80200
H  45.34800 28.26900 25.10700
H  45.51100 26.59700 25.49000
H  44.61700 27.16300 24.01000
H  49.71700 30.69000 27.36200
H  49.85100 31.43000 28.99900
H  48.40500 31.62500 27.99800
H  47.07600 29.08300 33.11900
H  50.67000 27.99900 35.73500
H  49.74500 26.62000 35.40300
H  49.20000 27.68700 36.71900

