158

Mg -2.16900 17.63300 27.06200
C  -2.39600 15.21700 29.74300
C  -2.72500 20.04400 29.47300
C  -2.46100 19.87400 24.52600
C  -1.99400 14.97800 24.86700
N  -2.76000 17.65500 29.40100
C  -2.63300 16.56600 30.26500
C  -2.71900 16.90200 31.71700
C  -2.73900 18.46900 31.54500
C  -2.79900 18.77800 30.05900
C  -3.82300 19.30800 32.37100
C  -1.59600 16.34600 32.69900
C  -1.18400 17.23800 33.94300
H  -1.01500 16.57200 35.36000
N  -2.38800 19.66300 26.97800
C  -2.54500 20.45700 28.08700
C  -2.49900 21.84500 27.66800
C  -2.39700 21.83600 26.26100
C  -2.44200 20.38100 25.88500
C  -2.40800 23.02900 28.65000
C  -2.36600 23.03500 25.21100
O  -2.22500 22.87400 24.01200
C  -2.06600 24.37600 25.75600
N  -2.22600 17.42400 24.95100
C  -2.26200 18.54300 24.08200
C  -2.12800 18.08600 22.60900
C  -1.74900 16.56200 22.76300
C  -2.00900 16.29400 24.23900
C  -3.44900 18.32900 21.77900
C  -0.30900 16.28500 22.39900
C  0.79000 16.60500 23.40600
N  -2.20900 15.48700 27.18000
C  -2.12200 14.55200 26.16400
C  -2.02900 13.22400 26.72400
C  -2.12200 13.41500 28.10800
C  -2.34400 14.80500 28.34600
C  -1.81800 11.98000 26.00400
C  -2.12000 12.77500 29.34200
O  -1.95100 11.56700 29.61000
C  -2.20400 13.86200 30.45100
C  -0.91800 13.65000 31.16400
O  0.17800 14.02600 30.87000
O  -1.18000 12.98600 32.35800
C  -0.08800 12.71600 33.27400
H  -2.69600 20.82200 30.23900
H  -2.50200 20.54200 23.66300
H  -1.83000 14.12900 24.20000
H  -3.64100 16.50900 32.14500
H  -1.76500 18.82200 31.88300
H  -3.16200 19.99200 32.90300
H  -4.23700 18.63900 33.12500
H  -4.48300 19.79000 31.64800
H  -0.75500 16.15900 32.03100
H  -1.84600 15.35900 33.08900
H  -2.07800 17.86000 33.99700
H  -0.33900 17.89500 33.73700
H  -2.35700 22.64500 29.66800
H  -3.30800 23.64000 28.57300
H  -1.50200 23.56900 28.37400
H  -1.09900 24.47300 26.25000
H  -2.86900 24.68000 26.42700
H  -1.98700 25.02500 24.88300
H  -1.19400 18.50300 22.23300
H  -2.38500 15.99000 22.08800
H  -3.80100 19.31500 22.08200
H  -4.22900 17.57400 21.87400
H  -3.28300 18.41100 20.70500
H  -0.16900 17.00300 21.59100
H  -0.20100 15.29800 21.95000
H  0.41700 16.96400 24.36600
H  1.54400 17.25100 22.95500
H  1.45400 15.77300 23.64000
H  -1.33200 12.30700 25.08500
H  -2.72400 11.41000 25.79800
H  -1.04800 11.46100 26.57600
H  -3.03600 13.60800 31.10700
H  0.72200 12.25900 32.70600
H  -0.56900 12.07400 34.01200
H  0.24000 13.59000 33.83700
Mg 6.90100 54.12300 40.91000
C  6.55400 50.53000 40.52200
C  10.24100 53.61700 40.09900
C  7.20600 57.38800 40.25800
C  3.52400 54.34300 41.18400
N  8.19700 52.27600 40.35700
C  7.83300 50.95100 40.18900
C  9.08300 50.10200 39.72500
C  10.25900 51.06500 40.08700
C  9.56300 52.47200 40.15000
C  11.08400 50.73000 41.36600
C  8.98500 49.55200 38.26000
C  8.14400 50.25500 37.14900
H  7.25100 49.38100 36.13100
N  8.58800 55.40700 40.42700
C  9.87100 54.99400 40.17600
C  10.64700 56.18400 39.98400
C  9.77800 57.30100 39.96100
C  8.48900 56.74400 40.28800
C  12.17300 56.08200 39.76500
C  10.15000 58.77600 39.63700
O  11.30700 59.03800 39.36800
C  9.29100 59.86100 39.62100
N  5.56900 55.54900 40.55200
C  5.92900 56.89300 40.47600
C  4.69100 57.74500 40.59600
C  3.64600 56.90800 41.30200
C  4.27700 55.51700 41.04300
C  4.95900 59.19700 41.26100
C  2.24000 57.08600 40.72700
C  1.15800 57.41100 41.71200
N  5.34000 52.70100 40.89200
C  3.94200 52.97600 41.04700
C  3.22900 51.73900 41.18900
C  4.26100 50.76500 41.05000
C  5.47500 51.36700 40.83200
C  1.79600 51.58000 41.50600
C  4.49400 49.28600 41.06700
O  3.77400 48.38000 41.31000
C  5.99900 49.14300 40.65600
C  5.83400 48.43200 39.34700
O  5.45600 49.03000 38.32200
O  5.98300 47.10200 39.48300
C  5.67600 46.29800 38.29400
H  11.30800 53.44000 39.94200
H  7.28800 58.42700 39.93200
H  2.45500 54.40900 41.39300
H  9.09700 49.19000 40.32200
H  10.96800 51.12100 39.26100
H  10.67000 49.86500 41.88300
H  10.96500 51.61900 41.98600
H  12.10700 50.47900 41.08400
H  8.70400 48.50100 38.32800
H  9.98000 49.49300 37.81900
H  8.82200 50.83700 36.52600
H  7.48800 51.01000 37.58200
H  12.73400 56.69600 40.46900
H  12.44200 56.30800 38.73300
H  12.47900 55.03600 39.77100
H  9.77100 60.79600 39.33300
H  8.80700 60.02500 40.58300
H  8.54500 59.79000 38.82900
H  4.44700 57.91500 39.54800
H  3.64600 57.16300 42.36200
H  4.16400 59.32100 41.99600
H  5.02200 59.93500 40.46100
H  5.84400 59.26900 41.89300
H  1.93800 56.19400 40.17700
H  2.12100 57.89300 40.00400
H  0.75200 58.42200 41.71800
H  1.48400 57.20300 42.73200
H  0.32400 56.74900 41.48100
H  1.27400 51.76200 40.56600
H  1.49800 52.29200 42.27500
H  1.46300 50.57600 41.76900
H  6.53800 48.60800 41.43700
H  6.43600 46.40800 37.52000
H  4.74900 46.51500 37.76300
H  5.61100 45.27300 38.66000

