158

Mg 24.42900 1.33800 29.19100
C  26.47900 0.88200 32.11700
C  21.86700 1.63600 31.33300
C  22.53100 1.35500 26.44900
C  27.25300 0.76400 27.21400
N  24.23800 1.22600 31.50000
C  25.17700 1.18500 32.47300
C  24.63200 1.55000 33.89300
C  23.10900 1.51600 33.62500
C  23.03900 1.43700 32.06900
C  22.22200 0.46900 34.16900
C  25.20300 2.81200 34.45800
C  26.13100 2.69100 35.61900
H  25.78500 3.54000 36.85200
N  22.49800 1.38600 28.89900
C  21.56900 1.59100 29.95900
C  20.27200 1.44300 29.30400
C  20.45100 1.26400 27.90600
C  21.83700 1.36100 27.67100
C  19.04100 1.37900 30.18300
C  19.34900 0.89300 26.88900
O  19.57700 0.69500 25.68800
C  17.93800 0.77700 27.30800
N  24.83600 0.98800 27.07600
C  23.87100 1.26100 26.14800
C  24.52800 1.30700 24.76500
C  26.05300 1.45400 25.07800
C  26.04900 1.06200 26.54500
C  24.15800 0.08600 23.86900
C  26.80800 2.72100 24.69800
C  26.91500 3.84200 25.73900
N  26.40100 0.71700 29.51200
C  27.40100 0.51000 28.57500
C  28.66100 0.28700 29.29800
C  28.30800 0.43500 30.66500
C  26.92700 0.69700 30.82100
C  29.94800 0.09500 28.73100
C  28.85400 0.56400 31.98000
O  30.01000 0.45800 32.34500
C  27.69800 0.93100 33.00100
C  27.68400 0.05000 34.19200
O  27.03300 -1.01200 34.21700
O  28.42300 0.47200 35.26700
C  28.13600 -0.40600 36.48100
H  21.08000 1.90400 32.04100
H  21.97200 1.39000 25.51200
H  28.14000 0.70000 26.58000
H  24.87200 0.72300 34.56100
H  22.78300 2.52300 33.88400
H  21.64200 0.09200 33.32700
H  21.43900 0.87300 34.81100
H  22.67300 -0.37600 34.69000
H  24.38200 3.46400 34.75400
H  25.72700 3.38200 33.69100
H  27.12500 3.04900 35.35000
H  26.17100 1.65200 35.94500
H  19.20500 1.29500 31.25700
H  18.34200 0.57000 29.97000
H  18.54900 2.30300 29.88200
H  17.98200 -0.16600 27.85400
H  17.17200 0.67300 26.53900
H  17.71700 1.57500 28.01600
H  24.17500 2.16700 24.19600
H  26.56800 0.64600 24.55700
H  23.25700 -0.34800 24.30300
H  24.99600 -0.61000 23.87800
H  24.07200 0.37100 22.82000
H  26.29500 3.15200 23.83800
H  27.81300 2.46200 24.36700
H  26.41500 3.45500 26.62700
H  26.36300 4.71600 25.39500
H  27.94700 4.07200 26.00600
H  30.46700 -0.68000 29.29700
H  30.52500 1.01900 28.69700
H  29.77500 -0.23800 27.70800
H  27.95900 1.97000 33.19800
H  27.17100 -0.17100 36.93100
H  28.84000 -0.19400 37.28600
H  28.21000 -1.46700 36.24000
Mg 46.86400 17.20300 28.62600
C  44.80400 17.03700 31.49800
C  49.26300 18.67200 30.62300
C  48.68500 17.63900 25.77400
C  44.19200 15.91700 26.82200
N  47.00500 17.88700 30.80300
C  46.01500 17.62000 31.80800
C  46.56600 18.04500 33.21200
C  47.90200 18.80800 32.81200
C  48.05600 18.50100 31.28700
C  47.93700 20.34600 33.02500
C  46.78700 16.87800 34.21900
C  47.36700 17.25700 35.62100
H  46.91100 18.61900 36.26700
N  48.74700 17.90400 28.29300
C  49.62400 18.47700 29.20400
C  50.88000 18.73500 28.63700
C  50.78300 18.39800 27.21600
C  49.36700 17.93600 27.06100
C  51.99800 19.42400 29.27500
C  51.84900 18.42700 26.14200
O  51.65300 18.24800 24.94500
C  53.23400 18.76700 26.55700
N  46.40300 16.95900 26.57800
C  47.36600 17.19600 25.61500
C  46.73900 16.96800 24.25600
C  45.38200 16.17200 24.59700
C  45.31800 16.29300 26.06800
C  46.54200 18.20900 23.29300
C  45.27900 14.70600 23.99500
C  44.04800 14.35900 23.15600
N  44.88300 16.63800 28.96200
C  44.01200 16.07500 28.15600
C  42.77900 15.70800 28.89900
C  43.09700 16.09100 30.16800
C  44.38400 16.64100 30.18800
C  41.49700 15.20800 28.29500
C  42.60400 16.05500 31.55300
O  41.53800 15.55700 31.96000
C  43.69800 16.58200 32.37500
C  43.19600 17.72600 33.18600
O  42.95200 18.84800 32.80400
O  42.99700 17.26100 34.41700
C  42.67100 18.18800 35.45800
H  50.00100 19.25800 31.17400
H  49.30500 17.76100 24.88400
H  43.30400 15.61400 26.26500
H  45.75300 18.66300 33.59500
H  48.67600 18.36700 33.44100
H  48.32300 20.86100 32.14600
H  48.47200 20.63800 33.92800
H  46.94300 20.79000 33.06800
H  47.58800 16.32100 33.73400
H  46.01400 16.18600 34.55300
H  48.45600 17.22900 35.57200
H  47.08900 16.41600 36.25600
H  52.84400 18.80500 29.57300
H  51.67100 19.89300 30.20300
H  52.21700 20.33100 28.71100
H  53.60300 18.30600 27.47400
H  53.26200 19.85600 26.60000
H  53.91700 18.56100 25.73300
H  47.39100 16.22000 23.80400
H  44.61500 16.85900 24.23900
H  45.52700 18.43500 22.96500
H  47.21900 18.27600 22.44100
H  46.90800 19.02200 23.91900
H  45.27000 14.00100 24.82600
H  46.16300 14.42600 23.42200
H  44.26400 13.83900 22.22200
H  43.33900 15.16300 22.96000
H  43.46700 13.67700 23.77800
H  41.43700 14.12000 28.28800
H  41.47400 15.47300 27.23800
H  40.61400 15.52100 28.85300
H  44.08900 15.86500 33.09700
H  42.87200 19.24300 35.27000
H  43.23500 17.97400 36.36600
H  41.60800 18.13800 35.69200

