158

Mg 46.49300 45.14600 43.58000
C  42.97400 44.88300 43.36700
C  46.66600 41.72900 42.74400
C  49.88300 45.45600 43.45900
C  46.13500 48.65800 43.69700
N  45.00400 43.56500 42.76100
C  43.59700 43.67900 42.99300
C  42.98900 42.29900 42.88800
C  44.15100 41.30600 42.68700
C  45.36800 42.24200 42.68200
C  44.25500 40.18900 43.77500
C  41.81100 42.17200 41.89100
C  42.12800 42.70200 40.44700
H  41.88900 41.70300 39.22000
N  48.04600 43.75300 43.26400
C  47.94600 42.42500 42.97700
C  49.31900 41.86300 42.97600
C  50.19000 42.94900 43.04400
C  49.36400 44.11200 43.30900
C  49.68100 40.29600 42.85400
C  51.71100 42.75700 42.85300
O  52.18500 41.70400 42.49500
C  52.64300 43.96000 42.70100
N  47.81300 46.72900 43.55400
C  49.15800 46.68100 43.62800
C  49.83700 48.03400 43.90800
C  48.65700 49.03900 43.62800
C  47.41500 48.07600 43.58000
C  50.46400 48.08000 45.30100
C  48.79300 49.98000 42.44300
C  48.59200 51.47000 42.72200
N  44.92500 46.53100 43.51700
C  44.93800 47.89800 43.67100
C  43.60800 48.35800 43.93100
C  42.77500 47.21900 43.80000
C  43.64500 46.11900 43.60300
C  43.16700 49.80600 44.18100
C  41.33500 46.67400 43.67800
O  40.27700 47.24700 43.61500
C  41.49900 45.19000 43.43500
C  40.73600 44.48700 44.53800
O  39.49800 44.41300 44.46300
O  41.52300 44.17000 45.58500
C  40.93000 43.22500 46.56000
H  46.83800 40.65400 42.65200
H  50.96800 45.58400 43.48600
H  45.98400 49.69700 44.00000
H  42.61100 42.19300 43.90500
H  44.00300 40.89200 41.68900
H  43.31100 40.03000 44.29700
H  45.04500 40.43300 44.48500
H  44.37400 39.20700 43.31700
H  40.85100 42.56900 42.22000
H  41.71800 41.08900 41.81600
H  43.08900 43.20900 40.36100
H  41.33700 43.43000 40.26900
H  49.83200 39.97200 41.82400
H  48.83500 39.69600 43.18900
H  50.52200 40.09100 43.51700
H  52.21400 44.48600 41.84800
H  53.62200 43.68900 42.30600
H  52.81100 44.66200 43.51800
H  50.53300 48.27700 43.10600
H  48.61400 49.64900 44.53000
H  51.48600 48.41300 45.12000
H  50.53400 47.07200 45.71000
H  49.95800 48.79500 45.94800
H  48.01500 49.70300 41.73200
H  49.78000 49.78500 42.02300
H  49.44900 52.08900 42.45600
H  48.36800 51.61200 43.77900
H  47.69700 51.76400 42.17300
H  43.03600 50.35500 43.24800
H  43.85900 50.35600 44.81700
H  42.19100 49.74000 44.66300
H  41.02000 44.84500 42.51900
H  41.41100 43.38400 47.52500
H  40.95900 42.18800 46.22500
H  39.89900 43.43000 46.84800
Mg -8.45400 40.63300 42.45100
C  -7.56400 37.31100 41.48400
C  -5.61700 41.77600 40.68200
C  -9.74500 43.71500 42.50600
C  -11.64300 39.20300 43.27400
N  -6.80500 39.58300 41.23200
C  -6.68300 38.26700 40.91900
C  -5.40700 37.99400 40.03500
C  -4.71100 39.45600 39.95600
C  -5.78100 40.37700 40.64800
C  -3.30400 39.54700 40.51900
C  -5.76000 37.32000 38.66000
C  -5.16500 35.94700 38.42200
H  -3.98900 35.93500 37.34700
N  -7.69800 42.52000 41.93200
C  -6.51200 42.77800 41.20400
C  -6.29300 44.22500 41.14000
C  -7.54500 44.78700 41.65200
C  -8.40000 43.63800 42.09400
C  -5.20600 44.98000 40.47400
C  -7.75000 46.30900 41.72100
O  -6.94200 47.11400 41.27900
C  -8.95000 46.87500 42.34900
N  -10.37900 41.32800 43.08200
C  -10.63900 42.69300 42.92200
C  -12.18900 42.98700 43.04900
C  -12.76200 41.51000 43.31300
C  -11.52000 40.60000 43.16500
C  -12.55200 44.04600 44.18400
C  -13.90200 41.14900 42.34800
C  -15.13900 40.52500 42.93100
N  -9.35800 38.61900 42.54500
C  -10.62800 38.24100 42.91500
C  -10.69400 36.81800 43.06800
C  -9.44400 36.36000 42.51400
C  -8.74600 37.50100 42.18800
C  -11.86600 36.02700 43.62000
C  -8.56100 35.21800 42.25700
O  -8.77900 34.02100 42.43500
C  -7.30500 35.78400 41.58700
C  -6.10500 35.52000 42.36300
O  -5.71900 36.17100 43.36200
O  -5.39800 34.43900 41.80100
C  -4.27500 33.96200 42.52000
H  -4.80400 42.16400 40.06400
H  -10.38200 44.56100 42.23800
H  -12.64000 38.86900 43.56900
H  -4.76600 37.32300 40.60600
H  -4.69100 39.70900 38.89600
H  -3.17800 38.70800 41.20300
H  -3.11100 40.53500 40.93900
H  -2.55800 39.44100 39.73100
H  -5.48900 37.95700 37.81900
H  -6.83800 37.17300 38.59300
H  -5.91300 35.23200 38.07900
H  -4.86300 35.51100 39.37400
H  -4.65600 45.52600 41.24000
H  -5.60600 45.59000 39.66300
H  -4.42800 44.30300 40.12000
H  -8.92100 47.90400 42.70500
H  -9.05700 46.36800 43.30800
H  -9.77700 46.76200 41.64700
H  -12.69800 43.30900 42.14000
H  -13.12100 41.50900 44.34200
H  -11.56500 44.39900 44.48400
H  -13.18200 43.71900 45.01100
H  -12.97900 44.96300 43.77600
H  -13.30400 40.63100 41.59900
H  -14.30500 42.05100 41.88800
H  -15.51600 40.96300 43.85500
H  -15.03200 39.45300 43.09900
H  -16.01800 40.57600 42.28900
H  -12.18700 36.20200 44.64600
H  -11.53800 34.98800 43.65600
H  -12.71700 36.08400 42.94100
H  -7.22000 35.44200 40.55500
H  -4.31800 32.87300 42.55300
H  -4.35200 34.26300 43.56500
H  -3.37600 34.19000 41.94800

