158

Mg 53.69500 23.91800 44.65500
C  51.40200 26.46000 43.54800
C  51.50300 21.58900 43.36400
C  56.15800 21.59000 44.96700
C  55.89800 26.41100 45.64500
N  51.79700 24.07100 43.37700
C  51.01600 25.16700 43.15200
C  49.63700 24.73900 42.54300
C  49.52700 23.28200 43.20100
C  51.01200 22.89800 43.26700
C  48.76900 23.33800 44.62700
C  49.66900 24.70900 41.01200
C  50.92000 25.03100 40.21100
H  50.79900 25.59500 38.81500
N  53.84900 21.85600 44.10900
C  52.83300 21.06200 43.61400
C  53.25500 19.64300 43.47900
C  54.67800 19.64900 43.80200
C  54.99500 21.08500 44.35300
C  52.31900 18.53100 43.03700
C  55.59600 18.47300 43.63200
O  55.21400 17.38900 43.17300
C  57.07700 18.62800 43.86900
N  55.73100 23.92800 45.27300
C  56.50300 22.83300 45.36100
C  58.00400 23.20000 45.67100
C  57.88300 24.78300 45.94100
C  56.38500 25.09900 45.61800
C  58.62500 22.32700 46.73900
C  58.94200 25.65600 45.18200
C  59.63600 26.71100 46.03500
N  53.69600 26.01500 44.74600
C  54.63000 26.86600 45.26200
C  54.12900 28.19000 45.13600
C  52.90700 28.08100 44.54400
C  52.64700 26.69700 44.26200
C  54.59900 29.30500 45.87300
C  51.69000 28.80400 44.17600
O  51.40700 30.00400 44.22600
C  50.63600 27.73800 43.55200
C  50.13900 28.25000 42.28500
O  50.75300 28.55100 41.29100
O  48.78800 28.31500 42.35000
C  48.16300 28.70900 41.08900
H  50.68300 20.93900 43.05000
H  56.94300 20.83700 45.06200
H  56.50500 27.21800 46.06000
H  48.87300 25.42400 42.91100
H  49.06300 22.64700 42.44600
H  47.92400 22.66100 44.75400
H  48.29100 24.30200 44.80200
H  49.60800 23.23300 45.31500
H  48.90700 25.45900 40.80000
H  49.18300 23.83800 40.57300
H  51.54700 24.14000 40.23500
H  51.46900 25.77300 40.79100
H  51.32000 18.93200 42.86500
H  52.37100 17.80000 43.84300
H  52.60500 18.25600 42.02200
H  57.26000 18.67500 44.94200
H  57.51100 19.46900 43.32900
H  57.61900 17.90400 43.26000
H  58.60000 23.02000 44.77600
H  58.14600 24.84800 46.99700
H  58.11600 21.36500 46.78800
H  58.77500 22.82200 47.69900
H  59.63700 22.17800 46.36100
H  58.46400 26.06300 44.29100
H  59.75600 25.04200 44.79700
H  59.21800 26.79600 47.03800
H  59.53000 27.65100 45.49300
H  60.68400 26.41300 46.05700
H  55.35600 29.91300 45.37600
H  54.98600 28.97000 46.83500
H  53.73600 29.94200 46.06500
H  49.87800 27.68500 44.33300
H  48.35000 29.73400 40.77100
H  47.08200 28.61500 41.18900
H  48.42200 28.09300 40.22800
Mg 47.20900 16.00400 28.35700
C  45.09000 15.94800 31.26000
C  49.44900 17.89800 30.38000
C  49.19700 16.15400 25.77000
C  44.71100 14.49900 26.57300
N  47.19400 16.94400 30.50700
C  46.38000 16.52400 31.52000
C  46.81100 17.01900 32.84100
C  48.06400 17.89500 32.57200
C  48.27000 17.59100 31.06700
C  48.03500 19.37400 32.96800
C  47.07300 15.84300 33.82300
C  46.64200 16.00000 35.29000
H  46.10300 17.38300 35.80800
N  49.07900 16.84400 28.10100
C  49.83700 17.63900 29.02400
C  51.04500 18.02600 28.37500
C  51.00900 17.58100 27.03400
C  49.71600 16.85200 26.87400
C  52.23700 18.72900 29.05900
C  52.02200 17.78300 25.91600
O  51.91600 17.18900 24.86800
C  53.10400 18.80300 25.94400
N  46.95000 15.37900 26.48200
C  47.89000 15.61400 25.53300
C  47.47100 15.16400 24.14100
C  46.08100 14.59800 24.42600
C  45.88800 14.78900 25.94600
C  47.46600 16.28900 23.03700
C  45.90100 13.08200 24.05200
C  46.36300 12.03700 25.07700
N  45.26300 15.26600 28.80600
C  44.36600 14.64500 27.90600
C  43.29600 14.24800 28.73100
C  43.47300 14.76500 30.03700
C  44.74400 15.39400 30.01200
C  42.11800 13.49700 28.12600
C  42.83100 14.99100 31.28800
O  41.72100 14.73800 31.66000
C  43.89300 15.69300 32.18400
C  43.32200 16.99000 32.66500
O  43.42600 18.05600 32.06700
O  42.60400 16.69800 33.81300
C  41.87200 17.81300 34.36600
H  50.31700 18.31400 30.89500
H  49.79500 16.26800 24.86400
H  43.92200 13.98700 26.01900
H  46.09300 17.73100 33.24800
H  48.88200 17.41300 33.10700
H  47.18200 19.67400 33.57600
H  48.07400 20.11000 32.16500
H  48.90100 19.56200 33.60300
H  48.12800 15.56900 33.83300
H  46.50600 15.01500 33.39700
H  47.50300 15.79500 35.92700
H  45.91100 15.23400 35.54700
H  52.96700 17.92100 29.10100
H  52.11300 18.81300 30.13900
H  52.73600 19.61200 28.65900
H  53.91800 18.32500 26.49000
H  52.77200 19.75400 26.36000
H  53.53500 19.03600 24.97100
H  48.08900 14.32800 23.81300
H  45.36100 15.21900 23.89200
H  47.01400 15.88600 22.13100
H  48.49700 16.53700 22.78400
H  47.09000 17.25800 23.36500
H  46.11400 12.91200 22.99700
H  44.83500 12.87400 24.14700
H  45.55600 11.48900 25.56300
H  46.95700 12.45900 25.88900
H  47.10000 11.35000 24.66100
H  41.88400 12.71000 28.84300
H  42.39200 13.05600 27.16800
H  41.27300 14.16500 27.96000
H  44.11600 15.02600 33.01700
H  41.41500 18.48700 33.64100
H  42.35000 18.46300 35.09800
H  41.09300 17.35200 34.97400

