158

Mg 16.77600 -2.36000 27.93800
C  16.02300 -0.28000 30.61600
C  18.33800 -4.52400 30.04400
C  17.87200 -3.97400 25.20800
C  15.45800 0.12500 25.78700
N  17.21100 -2.34700 30.08100
C  16.81200 -1.38500 31.00300
C  17.43000 -1.73500 32.45100
C  18.26000 -2.99000 32.15200
C  17.76700 -3.37500 30.66300
C  19.80300 -2.90900 32.21500
C  16.19000 -1.97100 33.49900
C  16.61000 -1.79700 35.00900
H  17.91200 -1.05100 35.37600
N  17.85000 -4.01700 27.66200
C  18.36400 -4.81300 28.72300
C  19.06700 -5.86500 28.09700
C  18.92000 -5.84300 26.71700
C  18.19500 -4.56400 26.48900
C  19.81400 -6.90500 28.84100
C  19.36600 -6.84900 25.64300
O  18.98500 -6.66100 24.45500
C  20.19000 -8.08900 25.90000
N  16.85900 -1.90300 25.81300
C  17.31100 -2.76700 24.93900
C  17.15200 -2.25500 23.52600
C  16.20100 -1.01100 23.68400
C  16.15300 -0.89400 25.17400
C  18.52000 -1.91000 22.87700
C  14.78700 -1.23700 23.02000
C  14.76500 -1.24000 21.48400
N  15.80600 -0.51600 28.06200
C  15.24500 0.31900 27.15100
C  14.46600 1.36800 27.83500
C  14.78200 1.20800 29.24400
C  15.65900 0.08100 29.27200
C  13.83500 2.58600 27.30900
C  14.57800 1.71000 30.56200
O  13.89100 2.66700 30.92400
C  15.38700 0.74300 31.55500
C  16.41000 1.64200 32.21500
O  17.47700 1.93900 31.74800
O  15.99300 1.95400 33.43800
C  16.72500 2.98200 34.14000
H  18.70300 -5.29200 30.72900
H  18.32900 -4.41500 24.32000
H  14.81400 0.79200 25.20900
H  18.15600 -0.96000 32.69600
H  17.79700 -3.73900 32.79500
H  20.08700 -1.89100 31.95100
H  20.27100 -3.60000 31.51400
H  20.10900 -3.13700 33.23600
H  15.92300 -3.02800 33.49400
H  15.26100 -1.45000 33.27000
H  16.84400 -2.76300 35.45800
H  15.75000 -1.30100 35.46000
H  20.75900 -7.05200 28.31800
H  19.27600 -7.85200 28.80900
H  20.12700 -6.49800 29.80300
H  19.71400 -8.64000 26.71200
H  21.22600 -7.77900 26.04100
H  19.98900 -8.68500 25.01000
H  16.56400 -2.82200 22.80500
H  16.66800 -0.09700 23.31800
H  18.85800 -0.89400 23.08300
H  18.54100 -2.00900 21.79100
H  19.31600 -2.54900 23.25800
H  14.17600 -0.37900 23.30000
H  14.31500 -2.13400 23.42200
H  15.74800 -1.25000 21.01400
H  14.34300 -0.27600 21.20000
H  14.12100 -2.05400 21.15000
H  12.77400 2.39700 27.14800
H  14.30300 2.89300 26.37400
H  13.98300 3.40800 28.00900
H  14.66400 0.33500 32.26000
H  16.78000 3.88300 33.52900
H  17.70000 2.55900 34.38500
H  16.24300 3.22400 35.08700
Mg 15.63100 51.84600 25.94100
C  17.60500 50.77000 28.63900
C  13.02500 52.42300 28.10700
C  13.71800 52.66100 23.32200
C  18.24400 50.91400 23.71400
N  15.43000 51.66000 28.11000
C  16.41700 51.42100 29.04000
C  15.93200 51.77400 30.49700
C  14.34500 51.85600 30.26400
C  14.20800 51.97400 28.73800
C  13.52200 50.66900 30.81900
C  16.49600 53.10600 31.00300
C  16.42700 53.35400 32.54400
H  15.44300 52.55400 33.41600
N  13.68100 52.55900 25.71800
C  12.76700 52.61500 26.73200
C  11.45000 53.00100 26.14300
C  11.64100 53.24200 24.75200
C  13.07100 52.82900 24.55700
C  10.12600 53.14500 26.92000
C  10.74200 53.79800 23.71400
O  11.18400 54.02300 22.61700
C  9.24200 54.03000 23.98700
N  15.95000 51.83700 23.79800
C  14.96700 52.20000 22.92300
C  15.45900 52.16800 21.48700
C  16.92500 51.67300 21.56800
C  17.06800 51.47200 23.11600
C  14.61300 51.25500 20.67800
C  18.11200 52.59300 21.22800
C  19.43900 51.97100 20.58600
N  17.54700 50.93100 26.05000
C  18.48200 50.54100 25.05400
C  19.65900 49.89300 25.71900
C  19.26400 49.91200 27.11400
C  18.04700 50.61000 27.26100
C  21.00200 49.52600 25.05400
C  19.75400 49.56700 28.41300
O  20.82100 49.00500 28.82000
C  18.76700 50.24000 29.47400
C  18.40600 49.22600 30.54700
O  17.58200 48.30700 30.38700
O  19.05700 49.50900 31.71400
C  18.71600 48.59400 32.77400
H  12.25800 52.70800 28.83000
H  13.11100 52.94000 22.45900
H  19.08400 50.70100 23.05000
H  16.32400 51.04600 31.20600
H  13.93400 52.79300 30.64100
H  13.00200 50.32600 29.92400
H  12.83000 50.93500 31.61800
H  14.16800 49.87000 31.18200
H  16.01800 53.90800 30.44000
H  17.56000 53.16000 30.77200
H  16.13600 54.39400 32.69200
H  17.41000 53.10900 32.94500
H  9.81100 54.18900 26.91500
H  10.30200 52.67800 27.88900
H  9.41700 52.45700 26.46100
H  9.22500 54.93200 24.59900
H  8.79600 53.15300 24.45700
H  8.81700 54.09300 22.98600
H  15.37300 53.22500 21.23200
H  17.15500 50.74800 21.03900
H  15.16200 50.51700 20.09200
H  14.20600 51.92300 19.91900
H  13.67800 50.95700 21.15300
H  18.55400 53.05900 22.10900
H  17.67300 53.44600 20.71000
H  20.16600 51.79200 21.37900
H  19.91000 52.60500 19.83400
H  19.00900 51.03700 20.22700
H  21.83900 49.76400 25.71200
H  21.16400 50.01600 24.09500
H  21.13400 48.45500 24.89500
H  19.31500 51.11200 29.83100
H  19.00900 47.62900 32.35900
H  17.67300 48.71700 33.06500
H  19.43600 48.61000 33.59200

