158

Mg 8.72600 3.89400 27.55200
C  9.84100 2.31100 30.48300
C  6.66900 5.92600 29.49800
C  7.57600 5.30800 24.70800
C  10.55400 1.57200 25.68700
N  8.44900 4.13700 29.75300
C  8.98000 3.36300 30.80400
C  8.40600 3.84600 32.18800
C  7.35900 4.93600 31.74900
C  7.44500 4.96900 30.19400
C  5.89300 4.75000 32.25700
C  9.47900 4.41200 33.12200
C  9.49100 3.70500 34.55200
H  10.85300 3.90200 35.40000
N  7.35400 5.49100 27.20400
C  6.53700 6.15700 28.08300
C  5.71400 7.17100 27.46600
C  6.02100 7.01800 26.05500
C  7.06900 5.91400 25.90200
C  4.80600 8.08100 28.21200
C  5.51400 7.92100 24.87800
O  5.87000 7.75300 23.68000
C  4.53600 8.93100 25.16700
N  8.85800 3.42700 25.50000
C  8.46500 4.31000 24.53300
C  8.99100 3.82200 23.12700
C  9.81400 2.53300 23.49800
C  9.78300 2.55000 25.01700
C  7.94400 3.51400 22.01300
C  11.19600 2.33800 22.83900
C  11.32900 0.89500 22.08000
N  9.84100 2.18700 27.89300
C  10.52400 1.34400 27.08700
C  11.22300 0.32700 27.83300
C  11.04400 0.69900 29.11900
C  10.17200 1.84600 29.15300
C  12.10500 -0.76600 27.33700
C  11.46500 0.41900 30.46600
O  12.30400 -0.44300 30.90100
C  10.67900 1.43100 31.38800
C  9.77600 0.71900 32.32200
O  8.65500 0.32400 31.99000
O  10.32700 0.53400 33.60500
C  9.41800 -0.20200 34.45100
H  5.96900 6.52000 30.09000
H  7.18600 5.81000 23.82000
H  11.07500 0.75500 25.18200
H  7.84800 3.02100 32.63100
H  7.62000 5.97700 31.93900
H  5.35900 4.12100 31.54300
H  5.51000 5.76400 32.37000
H  5.96800 4.24900 33.22200
H  9.21100 5.45200 33.30700
H  10.43600 4.34700 32.60500
H  9.15300 2.67200 34.47100
H  8.73400 4.18500 35.17300
H  5.07300 9.13300 28.10900
H  4.77800 7.90400 29.28700
H  3.79600 7.90900 27.83900
H  4.14700 9.20700 24.18700
H  4.99300 9.79900 25.64200
H  3.71700 8.42800 25.68300
H  9.64900 4.53800 22.63500
H  9.30400 1.62500 23.17700
H  6.90400 3.71700 22.26900
H  7.96400 2.48100 21.66500
H  8.29300 4.17200 21.21800
H  12.05700 2.47300 23.49300
H  11.38800 3.15100 22.13800
H  11.71900 0.99700 21.06700
H  10.45700 0.24700 22.16300
H  12.17600 0.39700 22.55200
H  13.15900 -0.49000 27.32100
H  11.93600 -1.06000 26.30100
H  11.95600 -1.66100 27.94000
H  11.50200 1.87000 31.95100
H  8.37800 0.10400 34.33800
H  9.58000 -0.12500 35.52600
H  9.35000 -1.18300 33.98100
Mg 16.99400 52.75800 26.23500
C  18.91400 51.28800 28.68600
C  14.69400 53.70500 28.65000
C  14.99400 53.75900 23.88000
C  19.11200 51.31500 23.86000
N  16.80600 52.41300 28.37600
C  17.76900 51.94400 29.18500
C  17.49400 52.19500 30.69100
C  15.98300 52.59000 30.64900
C  15.76200 52.93600 29.12100
C  15.05800 51.46200 31.14100
C  18.40300 53.34600 31.26200
C  18.82500 53.34000 32.75200
H  17.94300 52.57000 33.68600
N  15.12000 53.58400 26.25600
C  14.40700 53.96000 27.30000
C  13.25300 54.65200 26.89700
C  13.38800 54.79400 25.47500
C  14.58300 54.04900 25.15400
C  12.19000 55.14100 27.87100
C  12.42600 55.47300 24.50600
O  12.62900 55.50600 23.27500
C  11.23000 56.09800 25.01300
N  16.91500 52.31400 24.28300
C  16.04200 53.00200 23.41400
C  16.30100 52.68700 21.98100
C  17.64700 52.02800 22.10400
C  17.96000 51.91600 23.52200
C  15.28000 51.64700 21.42100
C  18.74800 52.70500 21.30300
C  19.22800 54.04900 21.89400
N  18.71900 51.59900 26.23200
C  19.48400 51.03900 25.21200
C  20.60000 50.27400 25.78500
C  20.41300 50.43500 27.11300
C  19.21600 51.14800 27.37400
C  21.68300 49.62900 24.97000
C  20.99700 50.18900 28.41900
O  22.09600 49.67100 28.66300
C  20.00700 50.71600 29.45900
C  19.68200 49.63100 30.39800
O  18.67500 48.97100 30.36800
O  20.72500 49.51300 31.32800
C  20.50400 48.59400 32.45700
H  14.09100 53.96700 29.52200
H  14.52100 54.20700 23.00300
H  19.77700 51.03800 23.04000
H  17.76700 51.29800 31.24800
H  15.73400 53.52900 31.14400
H  14.86300 51.52700 32.21100
H  15.63700 50.54800 31.00600
H  14.06800 51.44200 30.68600
H  17.94800 54.32000 31.08200
H  19.22800 53.46000 30.55900
H  18.99400 54.33500 33.16500
H  19.82200 52.90000 32.78800
H  12.63600 55.59900 28.75400
H  11.82900 54.18600 28.25400
H  11.36500 55.77000 27.53700
H  11.53000 56.90000 25.68700
H  10.73200 55.27700 25.52900
H  10.54500 56.49400 24.26300
H  16.27400 53.63000 21.43500
H  17.63600 50.97000 21.84400
H  15.59000 51.16800 20.49200
H  14.37000 52.13200 21.06800
H  14.98100 50.93200 22.18800
H  18.31300 52.94900 20.33400
H  19.66000 52.16700 21.04700
H  18.35000 54.62800 22.17900
H  19.71900 54.55100 21.05900
H  19.96800 53.78300 22.64900
H  22.40500 50.36700 24.62200
H  21.27000 49.24000 24.03900
H  22.10600 48.83000 25.57800
H  20.52800 51.48700 30.02700
H  19.57900 48.87000 32.96300
H  21.24200 48.79900 33.23200
H  20.40000 47.55000 32.15900

