158

Mg 41.44800 41.66000 26.63900
C  40.70000 43.93700 29.27500
C  42.88400 39.54800 29.05600
C  42.30800 39.69200 24.22300
C  40.44400 44.19400 24.33400
N  41.57200 41.72600 28.85300
C  41.12500 42.64100 29.76100
C  41.21900 42.14700 31.18300
C  41.92700 40.75200 31.04300
C  42.21500 40.67500 29.49400
C  43.21300 40.57100 31.97700
C  39.90300 42.17200 32.01300
C  39.89100 43.36700 33.10800
H  39.47300 43.03400 34.54500
N  42.41600 39.86200 26.63900
C  42.96500 39.11700 27.69100
C  43.43000 37.82200 27.19400
C  43.13400 37.79300 25.81100
C  42.62700 39.12700 25.48000
C  44.00300 36.82900 28.15900
C  43.30900 36.73600 24.75600
O  43.05400 36.88600 23.59200
C  43.85800 35.47600 25.25800
N  41.49900 42.00400 24.51600
C  41.79600 40.95500 23.81900
C  41.53300 41.18200 22.32200
C  40.60800 42.39600 22.38000
C  40.90300 42.98300 23.79800
C  42.82300 41.40800 21.49800
C  39.05900 42.13000 22.13600
C  38.45800 40.85100 22.72700
N  40.72800 43.69500 26.70100
C  40.46100 44.52700 25.69400
C  40.04900 45.81800 26.28900
C  40.18200 45.68700 27.65800
C  40.54400 44.28000 27.89400
C  39.43500 46.91200 25.53900
C  39.95400 46.28200 28.95700
O  39.57800 47.39100 29.15000
C  40.30300 45.23200 30.03900
C  41.46100 45.78600 30.71600
O  42.59700 45.60800 30.40200
O  41.10100 46.34200 31.91000
C  42.12700 46.59700 32.92900
H  43.19700 38.71500 29.69000
H  42.49500 39.18000 23.27700
H  40.04900 44.91300 23.61400
H  41.93900 42.85800 31.58700
H  41.33900 39.87700 31.32100
H  43.39800 41.41100 32.64600
H  44.03800 40.57500 31.26500
H  43.16200 39.65400 32.56400
H  39.81500 41.18200 32.46000
H  39.07500 42.43000 31.35300
H  39.11600 44.07300 32.81200
H  40.83500 43.91200 33.10800
H  44.55600 36.03500 27.65700
H  43.24700 36.43800 28.83800
H  44.74500 37.33600 28.77600
H  43.90400 34.79800 24.40600
H  43.20700 35.05200 26.02300
H  44.85800 35.67200 25.64300
H  41.12700 40.27200 21.88000
H  40.86400 43.23100 21.72800
H  42.88000 40.76100 20.62200
H  43.76600 41.28900 22.03200
H  42.91600 42.44200 21.16600
H  38.83900 42.01900 21.07500
H  38.59500 42.98600 22.62600
H  38.66300 40.02300 22.04800
H  37.40300 41.12300 22.75900
H  38.85400 40.72900 23.73500
H  38.70600 47.39700 26.18800
H  38.96000 46.57900 24.61600
H  40.23700 47.59600 25.26100
H  39.58100 44.89700 30.78300
H  42.24800 47.67900 32.98300
H  43.11700 46.17900 32.74500
H  41.71100 46.28000 33.88600
Mg 30.20500 59.39600 39.73800
C  27.40900 57.64900 38.78800
C  32.19300 56.67300 38.68700
C  32.93700 61.34500 39.73900
C  28.26800 62.33500 39.81100
N  29.83400 57.36800 38.76200
C  28.60100 56.87500 38.56300
C  28.74300 55.54700 37.86000
C  30.21200 55.07300 38.07600
C  30.80100 56.46700 38.60400
C  30.35100 53.90800 39.09200
C  28.37400 55.67700 36.29600
C  27.45000 54.63600 35.76200
H  26.55600 55.07800 34.54300
N  32.29700 58.98800 39.56400
C  32.83600 57.80600 39.10900
C  34.27500 57.98400 39.19400
C  34.55900 59.27300 39.60800
C  33.20000 59.90700 39.69400
C  35.30200 56.98900 38.68100
C  35.91800 59.82300 39.83800
O  36.92100 59.17200 39.62200
C  36.13400 61.12100 40.59100
N  30.48900 61.53400 39.65600
C  31.74100 62.06200 39.74700
C  31.74700 63.55600 39.97700
C  30.20300 63.92500 40.01800
C  29.65400 62.48600 39.88400
C  32.54900 64.07900 41.18200
C  29.76800 64.76300 38.82100
C  28.81400 65.90400 39.09600
N  28.19000 59.86900 39.56400
C  27.50500 61.05600 39.61300
C  26.07200 60.87800 39.36900
C  26.02600 59.51600 39.07500
C  27.31900 58.97100 39.16600
C  24.92100 61.88700 39.20600
C  25.17700 58.49000 38.48100
O  24.00500 58.55100 38.14100
C  26.02200 57.18900 38.25500
C  25.45900 56.12200 39.06500
O  25.41100 56.09000 40.28800
O  24.89000 55.18100 38.19300
C  24.33900 54.02100 38.85000
H  32.90400 55.85400 38.56200
H  33.76900 62.05000 39.78500
H  27.63600 63.22400 39.86700
H  28.12700 54.81400 38.38100
H  30.71700 54.70300 37.18400
H  31.37400 53.64300 39.36000
H  29.93000 53.06200 38.54900
H  29.72200 54.17600 39.94100
H  29.28000 55.55300 35.70300
H  27.99500 56.69300 36.18600
H  26.76500 54.29000 36.53700
H  28.07200 53.79000 35.47100
H  35.78200 57.42000 37.80200
H  34.93900 55.98600 38.45800
H  36.06400 56.90400 39.45600
H  37.18200 61.17600 40.88500
H  35.37100 60.99500 41.36000
H  35.85700 61.93300 39.91900
H  32.12000 64.01400 39.06100
H  29.95900 64.40600 40.96500
H  33.55600 64.38900 40.90200
H  32.59300 63.26800 41.91000
H  31.96600 64.82500 41.72200
H  29.39100 64.10600 38.03800
H  30.57100 65.19100 38.22200
H  29.27200 66.87100 38.88800
H  28.40000 65.85600 40.10300
H  27.94400 65.81800 38.44500
H  24.20800 61.75600 40.01900
H  24.45800 61.67800 38.24200
H  25.13800 62.95500 39.21300
H  26.09300 56.74700 37.26100
H  23.78100 54.30500 39.74200
H  25.10900 53.32100 39.17300
H  23.68700 53.54900 38.11400

