158

Mg 7.15700 1.68900 28.15700
C  8.96400 0.51200 30.89900
C  5.66300 4.01900 30.22500
C  5.55000 2.96900 25.49100
C  8.40400 -0.85900 26.18000
N  7.36500 2.27600 30.26200
C  8.00500 1.52000 31.26100
C  7.81800 2.11700 32.68700
C  6.51700 3.04800 32.39000
C  6.48800 3.12100 30.88000
C  5.20000 2.39100 33.02600
C  9.04500 2.83400 33.28900
C  9.49100 2.43900 34.70700
H  9.92100 3.57200 35.65900
N  5.81200 3.30600 27.86200
C  5.38300 4.15500 28.86100
C  4.58300 5.18500 28.25700
C  4.65400 5.00700 26.84500
C  5.37800 3.71300 26.67000
C  3.90400 6.35100 28.94200
C  4.08600 5.88800 25.66100
O  4.13800 5.51400 24.54000
C  3.20100 7.20800 25.89100
N  6.93600 1.02100 26.16100
C  6.26400 1.77700 25.24900
C  6.38600 1.11300 23.80800
C  7.45100 -0.06000 24.05300
C  7.49000 -0.05000 25.53900
C  5.06700 0.60800 23.12900
C  8.83100 0.20000 23.43700
C  9.50500 -0.96900 22.65900
N  8.39600 0.17800 28.40500
C  8.83000 -0.77900 27.49600
C  9.90800 -1.56700 28.15300
C  9.96100 -1.14600 29.46800
C  8.99600 -0.10300 29.60500
C  10.77700 -2.56500 27.45800
C  10.64500 -1.28200 30.70000
O  11.55000 -2.04700 30.92600
C  10.01000 -0.29000 31.73100
C  9.52200 -0.99300 32.94800
O  8.60300 -1.84100 32.83400
O  10.19900 -0.58300 34.05900
C  9.42100 -0.90200 35.26800
H  5.20400 4.75100 30.89300
H  5.16000 3.23900 24.50700
H  8.79400 -1.75900 25.70000
H  7.47000 1.24200 33.23700
H  6.52600 4.10100 32.67300
H  4.78000 3.13000 33.70700
H  5.43200 1.44000 33.50600
H  4.55100 2.17800 32.17700
H  8.77100 3.88900 33.31000
H  9.90200 2.62700 32.64900
H  10.39000 1.82500 34.66400
H  8.67500 1.90500 35.19400
H  4.24000 7.30100 28.52600
H  4.21600 6.38300 29.98600
H  2.82300 6.21600 28.92000
H  3.09300 7.77100 24.96400
H  3.58000 7.86200 26.67700
H  2.23300 6.82800 26.21600
H  6.77500 1.95100 23.22900
H  7.22800 -1.04100 23.63400
H  4.55600 0.21800 24.00900
H  5.13500 -0.14000 22.34000
H  4.49400 1.45300 22.74500
H  9.54900 0.40300 24.23200
H  8.88700 1.09800 22.82200
H  10.32800 -1.32200 23.28000
H  9.94800 -0.53300 21.76300
H  8.91900 -1.85700 22.41800
H  11.28000 -2.07800 26.62300
H  10.32900 -3.50900 27.15100
H  11.71800 -2.78700 27.96100
H  10.73500 0.47600 32.00900
H  10.00300 -0.73000 36.17300
H  8.97700 -1.89500 35.19700
H  8.57100 -0.24600 35.45900
Mg 52.91700 23.44600 44.91200
C  50.64700 25.57000 43.50700
C  51.34300 20.78700 43.39900
C  55.59600 21.37100 45.48200
C  54.76700 26.21300 45.81200
N  51.28300 23.31300 43.53400
C  50.41900 24.24300 43.15800
C  49.21600 23.70900 42.41700
C  49.30500 22.22500 42.65800
C  50.76000 22.03200 43.23900
C  48.19900 21.73600 43.65600
C  49.10500 23.99500 40.88300
C  50.46700 24.33300 40.22500
H  51.62100 23.30200 40.15400
N  53.37500 21.30400 44.53300
C  52.50300 20.36300 44.04400
C  53.19500 19.06600 44.11200
C  54.43000 19.20200 44.78700
C  54.50900 20.64400 45.01900
C  52.61200 17.84600 43.58000
C  55.42400 18.05900 45.06700
O  55.11300 16.90500 44.81700
C  56.80600 18.21500 45.69600
N  54.93300 23.73100 45.30300
C  55.86100 22.73700 45.52600
C  57.16500 23.31100 46.09000
C  56.87700 24.84100 46.11400
C  55.43300 25.00800 45.75300
C  57.74400 22.83100 47.39400
C  57.77500 25.71500 45.11100
C  57.41600 25.80600 43.64500
N  52.71800 25.42100 44.90800
C  53.46800 26.42600 45.43400
C  52.68700 27.64000 45.46400
C  51.60300 27.34700 44.69800
C  51.66600 26.04400 44.30200
C  53.04900 28.95800 46.19200
C  50.39000 27.95200 44.17100
O  49.86500 29.02000 44.34900
C  49.80600 26.80700 43.29200
C  49.69100 27.38100 41.91700
O  50.62000 28.02600 41.45100
O  48.46900 27.21500 41.31800
C  48.42400 27.78900 39.90400
H  50.78400 19.97700 42.92500
H  56.32600 20.60900 45.76100
H  55.22200 27.13600 46.17700
H  48.33200 24.13200 42.89400
H  49.22500 21.60200 41.76700
H  47.97100 22.37900 44.50600
H  48.47400 20.72600 43.95900
H  47.21600 21.60400 43.20400
H  48.32900 24.72600 40.65700
H  48.80700 23.13800 40.28000
H  50.97000 25.14200 40.75400
H  50.21400 24.85300 39.30100
H  53.42700 17.29500 43.11100
H  51.93800 18.18000 42.79100
H  52.11300 17.29500 44.37700
H  57.35000 17.27700 45.79900
H  56.87000 18.81700 46.60300
H  57.38900 18.66900 44.89400
H  57.86800 23.15700 45.27100
H  56.94800 25.27100 47.11300
H  57.76400 21.74100 47.40400
H  57.23500 23.21500 48.27800
H  58.82900 22.92800 47.43900
H  58.76500 25.25900 45.10100
H  57.76600 26.74400 45.47000
H  58.33600 26.12500 43.15600
H  56.56200 26.42000 43.36000
H  57.14400 24.80200 43.32000
H  53.61800 28.75700 47.09900
H  52.10500 29.50000 46.26100
H  53.61700 29.55400 45.47900
H  48.81400 26.66600 43.72200
H  49.19400 28.43400 39.48200
H  47.48300 28.32700 40.01800
H  48.08000 26.98700 39.25000

