158

Mg 1.94500 -1.85400 44.35900
C  5.37100 -1.26800 44.35000
C  1.46600 1.23800 42.89600
C  -1.23100 -2.81800 43.76100
C  2.67300 -5.06300 45.40800
N  3.29600 -0.22300 43.57000
C  4.65000 -0.25100 43.69300
C  5.17200 1.11900 43.20400
C  3.90900 2.04500 43.05700
C  2.78300 0.98000 43.28600
C  3.78500 3.14700 44.11200
C  5.89400 1.09100 41.86600
C  5.52300 0.11900 40.75500
H  5.46300 0.62700 39.32600
N  0.31800 -0.85200 43.47400
C  0.32500 0.36800 42.90100
C  -1.01300 0.64200 42.49000
C  -1.90000 -0.38300 42.93800
C  -0.92400 -1.42800 43.39500
C  -1.46700 1.96400 41.84800
C  -3.49300 -0.48500 42.77200
O  -4.14100 0.50800 42.37500
C  -4.22600 -1.61900 43.31000
N  0.85400 -3.68400 44.61000
C  -0.49200 -3.81200 44.39300
C  -1.00300 -5.16100 44.80400
C  0.27100 -5.87200 45.20300
C  1.36200 -4.84100 45.06500
C  -2.21700 -5.06200 45.77800
C  0.58600 -7.05700 44.32500
C  -0.54800 -8.06700 44.07900
N  3.62500 -2.98800 44.88000
C  3.78100 -4.24200 45.34200
C  5.17200 -4.51800 45.75100
C  5.85800 -3.37700 45.30400
C  4.87500 -2.51800 44.78600
C  5.61600 -5.92200 46.33500
C  7.16300 -2.75300 45.10800
O  8.31000 -3.15400 45.36100
C  6.87700 -1.36300 44.47600
C  7.42300 -0.28700 45.35000
O  7.03200 0.14400 46.41900
O  8.38700 0.27900 44.53600
C  8.98600 1.51000 45.13800
H  1.24800 2.20000 42.42700
H  -2.21500 -3.24800 43.56500
H  2.89500 -6.08100 45.73500
H  5.80200 1.42400 44.03900
H  3.72900 2.47600 42.07200
H  4.61700 3.05100 44.80900
H  2.83800 3.14100 44.65200
H  3.79100 4.14400 43.67100
H  6.90300 0.88300 42.22000
H  5.87100 2.05700 41.36100
H  4.58700 -0.39100 40.98500
H  6.35100 -0.59000 40.75000
H  -0.54200 2.19500 41.32000
H  -1.58000 2.73100 42.61400
H  -2.38800 1.86600 41.27400
H  -5.28600 -1.37300 43.37200
H  -4.04200 -1.77000 44.37300
H  -4.06200 -2.48400 42.66800
H  -1.51000 -5.59200 43.94000
H  0.21500 -6.30600 46.20100
H  -2.35500 -4.01900 46.06300
H  -1.92300 -5.65800 46.64200
H  -3.09600 -5.38200 45.21900
H  1.44300 -7.53000 44.80400
H  0.92800 -6.73000 43.34400
H  -1.37900 -7.82400 44.74100
H  -0.14500 -9.04600 44.33800
H  -0.97400 -8.10000 43.07600
H  4.85700 -6.34300 46.99500
H  6.59900 -5.80500 46.79000
H  5.66900 -6.64600 45.52100
H  7.15900 -1.28400 43.42600
H  8.25500 2.31600 45.20900
H  9.82000 1.80200 44.50000
H  9.29500 1.30000 46.16200
Mg 0.24700 8.38600 27.71900
C  0.88400 10.45800 30.52800
C  -0.15700 5.75300 29.73000
C  -0.08000 6.58000 24.88600
C  1.04100 11.23000 25.64200
N  0.57200 8.11300 29.88600
C  0.67800 9.05200 30.82900
C  0.28500 8.53700 32.23900
C  0.32500 6.96100 31.96000
C  0.26500 6.90700 30.48300
C  1.49100 6.16500 32.56400
C  -0.99300 9.04400 32.80500
C  -1.00300 9.32200 34.29600
H  -0.02000 8.49800 35.17300
N  -0.12900 6.46700 27.38500
C  -0.34400 5.54200 28.31700
C  -0.87800 4.34000 27.78300
C  -0.83600 4.54900 26.37400
C  -0.29200 5.91700 26.11200
C  -1.29200 3.12400 28.62000
C  -1.34900 3.60500 25.23500
O  -1.20900 3.82900 23.99200
C  -2.08600 2.41600 25.68000
N  0.38400 8.76800 25.66200
C  0.29900 7.86300 24.68100
C  0.75700 8.38500 23.34700
C  0.76300 9.94100 23.55800
C  0.74700 9.99100 25.06000
C  2.06300 7.75700 22.71300
C  -0.42200 10.66200 22.98700
C  -1.84100 10.27000 23.50800
N  0.90700 10.46300 27.97900
C  1.10300 11.43800 27.06000
C  1.31800 12.72900 27.77000
C  1.14900 12.39500 29.13400
C  1.00400 11.01900 29.16300
C  1.58500 14.10000 27.21700
C  1.14100 12.89100 30.43800
O  1.23300 14.00000 30.90500
C  0.85000 11.66900 31.33700
C  1.82000 11.64800 32.46700
O  3.04500 11.41500 32.29900
O  1.25400 12.14800 33.68400
C  2.07100 12.06000 34.88800
H  -0.47600 4.96900 30.42100
H  -0.05300 6.01700 23.95100
H  1.23100 12.12200 25.04100
H  1.12100 8.61800 32.93300
H  -0.59200 6.56000 32.39200
H  2.10400 5.74900 31.76500
H  1.08200 5.28000 33.05200
H  2.14800 6.76600 33.19400
H  -1.81500 8.33900 32.67700
H  -1.16300 9.97600 32.26600
H  -2.02700 9.20000 34.64900
H  -0.67500 10.31100 34.61500
H  -0.71200 2.32500 28.15900
H  -2.36900 2.98500 28.52400
H  -1.00300 3.14900 29.67100
H  -1.54000 1.60400 26.16000
H  -2.67300 2.06400 24.83200
H  -2.85800 2.67100 26.40600
H  -0.09300 8.28800 22.67200
H  1.68100 10.40600 23.19800
H  3.01400 8.28700 22.76300
H  1.74300 7.41300 21.72900
H  2.28600 6.88500 23.32800
H  -0.38400 10.64000 21.89800
H  -0.24900 11.71100 23.23000
H  -2.36300 11.15300 23.87600
H  -1.93400 9.59200 24.35600
H  -2.45800 9.86700 22.70500
H  2.51000 14.15800 26.64300
H  1.57500 14.78000 28.06900
H  0.81700 14.38700 26.49900
H  -0.09700 11.65000 31.87800
H  2.33400 12.98200 35.40700
H  3.06800 11.65300 34.71800
H  1.48400 11.56400 35.66100

