158

Mg 0.81100 7.56800 25.45000
C  1.15200 9.64900 28.31800
C  1.07200 4.98800 27.45900
C  0.72200 5.65500 22.65500
C  1.11900 10.49300 23.43800
N  1.16700 7.42200 27.73600
C  1.03700 8.30500 28.71600
C  1.04100 7.67500 30.09900
C  1.45200 6.20400 29.80000
C  1.20300 6.15100 28.20200
C  2.91900 5.85000 30.20900
C  -0.25000 7.83500 30.88100
C  -0.42700 7.83200 32.43900
H  0.76200 7.65300 33.39900
N  1.01000 5.59500 25.06900
C  0.99200 4.70400 26.07700
C  0.93900 3.39800 25.54800
C  0.73500 3.48000 24.14100
C  0.78200 4.98600 23.86700
C  1.31000 2.20400 26.34300
C  0.62600 2.37100 23.09000
O  0.47400 2.53100 21.87100
C  0.44800 0.95900 23.61000
N  0.90500 8.02900 23.39500
C  0.87400 7.03900 22.46100
C  0.72400 7.59200 21.07800
C  0.86600 9.18100 21.27400
C  1.02800 9.24000 22.78700
C  1.82700 7.05700 20.11800
C  -0.19100 10.03000 20.67200
C  -1.49600 10.05600 21.46300
N  1.03200 9.68700 25.77700
C  1.09300 10.69500 24.82500
C  1.16300 11.93500 25.52900
C  1.23600 11.61200 26.91000
C  1.06800 10.21200 27.02700
C  1.15600 13.26700 24.96300
C  1.39600 12.11500 28.27200
O  1.59200 13.27200 28.57100
C  1.16200 10.90400 29.24000
C  2.18800 10.67600 30.34100
O  3.24200 10.02500 30.20900
O  1.71400 11.27400 31.45700
C  2.53000 11.26800 32.76800
H  0.86400 4.08600 28.03800
H  0.67100 4.92400 21.84500
H  1.23100 11.35600 22.77800
H  1.78900 8.18800 30.70300
H  0.74200 5.56800 30.33000
H  3.59300 6.70600 30.21600
H  3.30400 5.15500 29.46300
H  3.02500 5.41900 31.20500
H  -0.96400 7.14200 30.43600
H  -0.53100 8.83300 30.54500
H  -1.14500 7.07800 32.76200
H  -0.87300 8.80100 32.66100
H  1.78000 1.43800 25.72600
H  0.50900 1.81600 26.97200
H  2.08000 2.41600 27.08500
H  1.38200 0.42600 23.79100
H  -0.16100 0.39600 22.90300
H  -0.18800 0.97100 24.49400
H  -0.19400 7.34100 20.54700
H  1.80000 9.54400 20.84400
H  2.26500 7.82500 19.48100
H  1.46900 6.30900 19.40900
H  2.62900 6.59300 20.69300
H  -0.34300 9.68700 19.64800
H  0.27000 11.00500 20.52100
H  -1.64500 9.31700 22.25000
H  -2.34300 9.97900 20.78100
H  -1.65600 11.04100 21.90300
H  0.32400 13.36500 24.26600
H  2.13600 13.46000 24.52700
H  0.79200 13.94900 25.73100
H  0.11700 10.95900 29.54400
H  3.45600 10.70400 32.65100
H  1.93700 10.92400 33.61500
H  2.82300 12.29900 32.96500
Mg 25.54200 1.81500 28.97300
C  27.57700 1.53200 31.78800
C  22.86700 1.87200 31.19200
C  23.52200 1.82900 26.29100
C  28.33300 1.32700 26.95200
N  25.22800 1.65100 31.25100
C  26.28600 1.68700 32.15900
C  25.67700 1.72100 33.61200
C  24.08700 1.67300 33.43100
C  24.04000 1.73200 31.86700
C  23.28000 0.52600 34.18400
C  26.12500 2.96100 34.43200
C  26.72300 2.62700 35.84800
H  26.35400 3.58800 37.01200
N  23.51900 1.91200 28.80700
C  22.57100 1.95000 29.77000
C  21.22200 2.02600 29.16200
C  21.40400 1.91200 27.77300
C  22.84200 1.91000 27.57600
C  19.83500 2.20500 29.92200
C  20.34800 1.82500 26.65300
O  20.69800 1.63500 25.49700
C  18.87600 2.25000 26.97300
N  25.83100 1.31900 26.87600
C  24.81300 1.61600 25.96600
C  25.41100 1.72800 24.54700
C  27.01500 1.61200 24.72400
C  27.08900 1.52500 26.29100
C  24.71500 0.63200 23.67500
C  27.84700 2.83800 24.24800
C  28.98200 2.57900 23.28500
N  27.58100 1.41800 29.22400
C  28.60200 1.24100 28.33400
C  29.82800 0.95800 29.10700
C  29.45400 1.16500 30.47400
C  28.10700 1.41000 30.45900
C  31.17100 0.67900 28.44200
C  29.96200 1.25000 31.76100
O  31.11900 1.05200 32.16100
C  28.85200 1.51700 32.72500
C  28.74900 0.46400 33.69600
O  28.14800 -0.61100 33.60500
O  29.40600 0.94300 34.85400
C  29.24600 0.06600 35.99300
H  22.05700 1.93700 31.92100
H  22.92200 2.00300 25.39500
H  29.21300 1.15900 26.32800
H  25.98800 0.83800 34.17000
H  23.67900 2.57800 33.88200
H  23.55600 0.38100 35.22800
H  23.29200 -0.42400 33.65000
H  22.24000 0.80300 34.35500
H  25.32000 3.69500 34.46400
H  26.95000 3.53700 34.01300
H  27.79100 2.80300 35.72400
H  26.49800 1.58900 36.09200
H  19.99200 2.28500 30.99700
H  19.14200 1.41000 29.64800
H  19.44100 3.18800 29.66300
H  18.28500 1.63100 27.64800
H  18.34600 2.28600 26.02100
H  18.97600 3.23000 27.44100
H  25.22400 2.71800 24.13200
H  27.33000 0.63700 24.35100
H  24.17600 0.03700 24.41200
H  25.39200 -0.03300 23.13800
H  24.04400 1.12800 22.97400
H  28.34500 3.28900 25.10700
H  27.15500 3.53600 23.77600
H  29.86500 3.15900 23.55700
H  28.64800 2.94400 22.31400
H  29.19000 1.52200 23.12300
H  31.16500 1.15300 27.46100
H  31.31300 -0.33100 28.05800
H  31.94400 1.08100 29.09700
H  29.06500 2.48900 33.17000
H  29.15800 -0.99200 35.74600
H  28.38000 0.38000 36.57600
H  30.13600 -0.04100 36.61300

