158

Mg 24.86600 -4.18400 46.52800
C  26.64300 -1.61400 45.01300
C  22.20800 -3.48600 44.38900
C  23.36100 -7.07500 47.46900
C  27.74700 -5.27400 48.19000
N  24.45400 -2.78600 44.87000
C  25.34600 -1.74900 44.49600
C  24.70200 -0.86500 43.50700
C  23.19100 -1.23200 43.71700
C  23.26900 -2.55100 44.38900
C  22.41400 -0.15900 44.48900
C  25.28800 -0.97300 42.02600
C  25.49600 0.37300 41.28800
H  25.14000 0.46500 39.77800
N  23.02700 -5.12100 46.04100
C  22.08700 -4.65800 45.12200
C  20.96100 -5.57000 45.12300
C  21.22900 -6.67000 46.00800
C  22.58900 -6.30000 46.61700
C  19.73000 -5.39000 44.34300
C  20.35900 -7.86200 46.24800
O  19.30500 -7.97000 45.63800
C  20.77700 -8.99600 47.08900
N  25.45300 -5.89200 47.67900
C  24.65700 -6.93900 47.97100
C  25.41000 -8.04000 48.63500
C  26.79800 -7.46000 48.97700
C  26.70500 -6.14200 48.14900
C  24.63400 -8.58600 49.85400
C  27.91400 -8.40900 48.63700
C  28.61800 -8.26000 47.24800
N  26.77500 -3.50400 46.78300
C  27.85200 -3.96300 47.53800
C  28.88300 -2.98900 47.45700
C  28.53300 -2.10600 46.39900
C  27.20000 -2.42700 46.02400
C  30.20800 -3.10900 48.14600
C  28.96200 -0.95600 45.56400
O  30.04800 -0.39100 45.56400
C  27.71200 -0.62200 44.63100
C  27.33500 0.80000 44.90200
O  27.18200 1.26200 45.98400
O  27.35100 1.49900 43.77300
C  27.22600 2.89800 43.79700
H  21.32400 -3.42700 43.75100
H  22.97500 -8.04900 47.77600
H  28.57900 -5.59700 48.81900
H  24.90800 0.08200 44.00500
H  22.56300 -1.39200 42.84100
H  22.73200 0.82500 44.14300
H  22.46700 -0.34300 45.56200
H  21.38100 -0.26400 44.15800
H  24.57500 -1.45600 41.35800
H  26.09200 -1.70700 41.96900
H  26.55300 0.62200 41.37400
H  24.90900 1.14800 41.78100
H  19.63400 -6.08600 43.50900
H  19.63100 -4.35800 44.00700
H  18.92400 -5.66100 45.02500
H  20.85500 -8.53900 48.07600
H  21.75000 -9.33600 46.73500
H  19.97900 -9.73500 47.15800
H  25.47700 -8.87000 47.93200
H  26.79100 -7.06100 49.99100
H  25.16800 -8.64800 50.80300
H  24.37600 -9.58500 49.50500
H  23.67800 -8.06400 49.88800
H  27.51600 -9.42200 48.56400
H  28.65100 -8.32700 49.43500
H  28.50900 -9.19800 46.70200
H  29.65700 -7.94300 47.32900
H  28.14700 -7.55700 46.56000
H  30.95200 -2.68700 47.47000
H  30.43100 -4.13900 48.42300
H  30.22300 -2.60900 49.11500
H  28.00100 -0.70000 43.58300
H  26.48100 3.32600 44.46800
H  26.97500 3.28100 42.80700
H  28.15600 3.38800 44.08100
Mg 8.90600 47.88100 26.43700
C  6.88500 47.73200 29.22700
C  11.52000 49.01200 28.39300
C  10.85100 48.02900 23.71600
C  6.06400 47.06300 24.50700
N  9.08200 48.34400 28.56000
C  8.14200 48.13100 29.52500
C  8.72300 48.49000 30.89300
C  10.11000 49.16300 30.55000
C  10.27200 48.83500 29.09500
C  10.26500 50.64900 30.84400
C  8.73600 47.14300 31.67500
C  9.79000 46.94700 32.80000
H  9.23200 46.42500 34.08400
N  10.93900 48.36000 26.08900
C  11.87300 48.71000 27.03300
C  13.17700 48.73500 26.44300
C  12.98700 48.60900 25.04700
C  11.51500 48.36600 24.89100
C  14.42500 49.17700 27.24400
C  13.97600 48.48500 23.93400
O  13.62400 48.48200 22.76400
C  15.42900 48.38700 24.31500
N  8.46000 47.63300 24.36100
C  9.49900 47.70700 23.47800
C  8.94700 47.24700 22.04100
C  7.50500 46.78000 22.33000
C  7.29600 47.11500 23.82700
C  8.97000 48.28300 20.82100
C  7.28400 45.27700 22.08100
C  7.92300 44.08500 22.92700
N  6.82100 47.59300 26.78200
C  5.76700 47.29800 25.89300
C  4.54700 47.03300 26.57700
C  4.92600 47.26200 27.94000
C  6.33700 47.47600 27.99000
C  3.22800 46.57100 25.94800
C  4.48900 47.30300 29.34100
O  3.37200 47.27200 29.88300
C  5.77200 47.39900 30.17900
C  5.89400 46.04300 30.74000
O  6.38300 45.04500 30.26100
O  5.50700 45.99100 32.03900
C  5.73800 44.75600 32.81900
H  12.35600 49.35900 29.00400
H  11.39500 48.00300 22.77000
H  5.18500 46.63600 24.02000
H  8.06300 49.15500 31.44800
H  11.00500 48.67800 30.93900
H  10.91500 50.95100 31.66500
H  9.29100 51.01200 31.17300
H  10.63500 51.27100 30.02900
H  8.88900 46.34000 30.95500
H  7.74200 47.00900 32.10100
H  10.20400 47.92500 33.04400
H  10.59200 46.31700 32.41500
H  14.98400 48.25600 27.41100
H  14.22000 49.67000 28.19400
H  15.08800 49.78800 26.63100
H  15.85000 49.33100 24.66300
H  16.03800 48.13900 23.44600
H  15.55800 47.55200 25.00400
H  9.51500 46.37800 21.71200
H  6.71800 47.40500 21.91000
H  8.01300 48.52800 20.36000
H  9.53200 47.89000 19.97500
H  9.51800 49.15900 21.16800
H  7.34600 44.96500 21.03800
H  6.23800 45.32300 22.38400
H  7.47200 44.07500 23.91900
H  8.98700 44.15400 23.15400
H  7.97000 43.26700 22.20800
H  2.94300 47.19000 25.09700
H  2.41300 46.76800 26.64500
H  3.26100 45.53500 25.60900
H  5.69100 48.05200 31.04800
H  6.79700 44.78000 33.07700
H  5.38700 43.78800 32.46300
H  5.28200 44.77700 33.81000

