158

Mg 9.31000 2.92700 27.76000
C  10.63800 1.59100 30.58000
C  7.21100 4.93100 29.75200
C  7.54200 3.95900 25.02300
C  10.86400 0.58000 25.83300
N  9.05400 3.17500 29.93600
C  9.70200 2.53000 30.90200
C  9.30300 3.12400 32.23800
C  8.10500 4.05800 31.90000
C  8.13000 4.07900 30.38600
C  6.69500 3.70800 32.56900
C  10.49600 3.83300 32.90600
C  10.96400 3.42900 34.28700
H  9.93200 3.18600 35.44500
N  7.66400 4.35900 27.37700
C  6.98400 5.04800 28.36900
C  5.96500 5.92000 27.71600
C  6.10000 5.69000 26.33800
C  7.11000 4.62500 26.19700
C  5.27000 7.09500 28.50600
C  5.41700 6.32400 25.11100
O  5.66200 6.08700 23.93200
C  4.26700 7.25000 25.46500
N  9.29000 2.42400 25.67400
C  8.45400 2.99100 24.72000
C  8.75500 2.37900 23.34800
C  9.90000 1.25800 23.60800
C  10.07000 1.41600 25.12000
C  7.53700 2.01300 22.58200
C  11.13500 1.41800 22.77000
C  11.32700 0.16600 21.92800
N  10.57300 1.40700 28.07900
C  11.21900 0.50600 27.17800
C  12.13600 -0.29600 27.90100
C  11.96800 0.09000 29.24900
C  10.96400 1.06400 29.30400
C  13.13400 -1.25100 27.36300
C  12.36000 -0.17800 30.58100
O  13.11400 -0.97700 31.00600
C  11.59100 0.81200 31.45600
C  10.87200 0.05000 32.66200
O  9.81400 -0.51300 32.64200
O  11.67400 0.12200 33.81300
C  11.37700 -0.68100 35.00000
H  6.78400 5.65800 30.44700
H  7.21500 4.51700 24.14300
H  11.33700 -0.19000 25.22000
H  8.96000 2.35000 32.92400
H  8.29900 5.04800 32.31400
H  6.50300 4.59000 33.18000
H  6.90700 2.89100 33.25900
H  5.94200 3.36700 31.85800
H  10.22200 4.88200 33.02100
H  11.35100 3.81800 32.23000
H  11.62000 4.21900 34.65200
H  11.59100 2.56900 34.05300
H  5.65000 8.06500 28.18600
H  5.45100 7.19400 29.57600
H  4.23600 7.10000 28.16000
H  3.47300 6.68700 25.95500
H  3.72500 7.61200 24.59200
H  4.58400 8.14400 26.00100
H  9.23400 3.21500 22.83900
H  9.35700 0.34200 23.37700
H  7.34300 1.05200 22.10500
H  7.54700 2.69900 21.73500
H  6.67500 2.22500 23.21400
H  12.04500 1.47800 23.36700
H  10.97500 2.28900 22.13400
H  11.19600 0.38500 20.86800
H  10.75400 -0.72600 22.18300
H  12.36100 -0.17600 21.96900
H  13.27900 -1.08400 26.29500
H  12.77700 -2.28000 27.39000
H  14.07300 -1.14700 27.90700
H  12.34200 1.49800 31.84700
H  11.53100 -0.03600 35.86600
H  12.12600 -1.45800 35.15300
H  10.33400 -0.98700 35.09000
Mg 29.51000 59.21600 40.79600
C  26.38100 57.87000 39.90600
C  31.04800 56.56700 39.37000
C  32.39500 60.74800 41.38300
C  27.80600 62.14600 41.86800
N  28.77700 57.51700 39.67800
C  27.48800 57.13200 39.51600
C  27.43000 55.83100 38.68400
C  28.87000 55.28400 38.82900
C  29.62200 56.54600 39.35300
C  29.04900 54.08700 39.75400
C  27.04000 56.20100 37.21800
C  25.93100 55.41100 36.45800
H  26.30700 55.00400 34.96400
N  31.51200 58.78700 40.38800
C  31.93800 57.60600 39.78500
C  33.37900 57.52100 39.81000
C  33.81000 58.77500 40.36100
C  32.57800 59.56500 40.70900
C  34.23300 56.43400 39.30600
C  35.27100 59.15100 40.60600
O  36.16100 58.32900 40.36600
C  35.72900 60.43900 41.23600
N  30.03900 61.17100 41.40600
C  31.27500 61.53500 41.69900
C  31.39800 63.02000 42.16800
C  29.88400 63.52800 42.20200
C  29.22400 62.20200 41.82800
C  32.10400 63.17300 43.58800
C  29.54300 64.59100 41.09200
C  28.38000 65.53600 41.48000
N  27.52100 59.92000 40.92800
C  26.99700 61.07400 41.45800
C  25.52800 60.97600 41.45600
C  25.28500 59.82000 40.76400
C  26.53400 59.12100 40.54600
C  24.55000 62.03600 41.93000
C  24.26000 58.91600 40.31100
O  23.09000 59.00100 40.44800
C  24.86700 57.67200 39.64700
C  24.46400 56.39200 40.28600
O  24.65500 56.10200 41.45700
O  23.80500 55.59600 39.43300
C  23.31000 54.25600 39.83300
H  31.50700 55.61400 39.09700
H  33.35000 61.23100 41.60100
H  27.27300 63.00900 42.27300
H  26.62500 55.20100 39.06400
H  29.29100 55.19500 37.82800
H  29.38900 54.19100 40.78400
H  29.68300 53.36100 39.24500
H  28.09300 53.56400 39.70300
H  27.93500 56.25800 36.60000
H  26.66700 57.22300 37.27900
H  25.11100 56.12400 36.37600
H  25.68000 54.55400 37.08300
H  34.53700 55.82100 40.15500
H  35.03700 56.87600 38.71900
H  33.63500 55.84100 38.61400
H  36.81500 60.45400 41.14800
H  35.40700 60.56300 42.27000
H  35.33100 61.26800 40.65100
H  31.92400 63.60300 41.41100
H  29.46900 63.86400 43.15200
H  33.18300 63.01500 43.59200
H  31.60100 62.43900 44.21700
H  32.02600 64.16900 44.02400
H  29.45500 63.99700 40.18200
H  30.37600 65.22400 40.78500
H  28.02400 65.28500 42.47900
H  27.47100 65.51300 40.87900
H  28.77000 66.55200 41.54100
H  24.68600 62.96900 41.38500
H  24.45800 62.23500 42.99800
H  23.57700 61.61200 41.68400
H  24.60300 57.61800 38.59000
H  22.60800 54.51400 40.62500
H  24.10000 53.56800 40.13300
H  22.72800 53.85900 39.00100

