158

Mg 26.11500 0.89800 29.21600
C  28.14900 0.77700 32.05800
C  23.32900 1.37000 31.39000
C  24.05400 1.07200 26.59000
C  28.73200 -0.04000 27.30500
N  25.83400 1.09000 31.48600
C  26.85200 1.14100 32.41000
C  26.19500 1.55100 33.78700
C  24.58000 1.50200 33.52700
C  24.60700 1.31700 31.99000
C  23.76500 0.47800 34.34800
C  26.73000 2.86000 34.28400
C  27.75400 2.78200 35.44000
H  27.57300 3.74100 36.60000
N  23.99800 1.28800 28.99600
C  23.06000 1.36600 29.98700
C  21.77800 1.42100 29.37300
C  21.92200 1.46900 27.94700
C  23.36800 1.27300 27.75900
C  20.48100 1.42000 30.13200
C  20.97200 1.72300 26.83300
O  21.28100 1.74000 25.61800
C  19.51400 2.04800 27.06600
N  26.37900 0.71100 27.20600
C  25.40000 0.78900 26.27100
C  26.01700 0.60400 24.87000
C  27.49800 0.21000 25.10500
C  27.56100 0.32300 26.64600
C  25.24900 -0.44500 24.05000
C  28.57100 1.07300 24.41400
C  28.54500 1.07600 22.87200
N  28.02400 0.33700 29.53500
C  29.04700 0.04500 28.66500
C  30.23300 -0.26400 29.36500
C  29.93600 0.00100 30.76500
C  28.62500 0.49500 30.77700
C  31.54100 -0.74800 28.79300
C  30.46100 0.06000 32.11200
O  31.56000 -0.31500 32.50500
C  29.38700 0.60100 32.95200
C  29.25100 -0.37800 34.04800
O  28.65500 -1.43800 34.06700
O  29.87500 0.16800 35.17900
C  29.61700 -0.48300 36.44800
H  22.48200 1.60000 32.04000
H  23.41400 1.11000 25.70700
H  29.59600 -0.32000 26.70000
H  26.46000 0.75000 34.47800
H  24.06900 2.46000 33.61500
H  24.38400 0.16000 35.18700
H  23.57900 -0.39800 33.72700
H  22.85600 0.98200 34.67700
H  25.98800 3.60300 34.57800
H  27.32800 3.23700 33.45400
H  28.75200 2.97100 35.04500
H  27.82900 1.76100 35.81400
H  20.63300 0.92800 31.09300
H  19.73700 0.81900 29.60900
H  20.32900 2.48900 30.27500
H  19.04300 1.16500 27.49900
H  19.02300 2.31200 26.12900
H  19.44200 2.82200 27.83000
H  25.93000 1.58800 24.40900
H  27.61900 -0.85500 24.90400
H  24.64300 0.15100 23.36800
H  24.63200 -1.06000 24.70500
H  25.83400 -1.05700 23.36300
H  29.55800 0.74200 24.73700
H  28.32800 2.05500 24.82000
H  29.54700 0.98700 22.45100
H  28.05400 1.93600 22.41700
H  27.88700 0.27200 22.54200
H  32.34800 -0.34700 29.40600
H  31.62100 -0.44600 27.74900
H  31.58600 -1.82200 28.97800
H  29.65500 1.53100 33.45300
H  29.57200 -1.56700 36.33500
H  28.75900 0.00200 36.91300
H  30.52600 -0.37100 37.03900
Mg 50.73400 45.12700 42.62700
C  47.61800 46.28000 41.34800
C  50.10200 42.15200 40.90100
C  53.94000 44.33000 43.18500
C  51.41400 48.51600 43.52900
N  49.12400 44.38500 41.10400
C  47.92100 44.95600 40.96800
C  46.98600 44.05200 40.11300
C  47.73200 42.66500 40.14500
C  49.03600 43.10000 40.73300
C  46.91600 41.53500 40.85300
C  46.71700 44.66200 38.73300
C  45.21400 44.93900 38.46600
H  44.65300 43.89500 37.40400
N  51.88300 43.47700 42.18700
C  51.45400 42.33100 41.42200
C  52.58100 41.42900 41.31300
C  53.63900 41.99100 42.04400
C  53.20000 43.28400 42.56500
C  52.55700 40.13000 40.58200
C  54.96500 41.25600 42.29700
O  55.20200 40.27000 41.60400
C  55.95300 41.65100 43.36700
N  52.38700 46.25500 43.38300
C  53.59100 45.68600 43.42700
C  54.62400 46.71800 43.92000
C  53.77200 48.00300 44.24300
C  52.44600 47.56700 43.63000
C  55.61700 46.33900 45.01100
C  54.41300 49.38400 43.76500
C  55.38600 50.09500 44.71300
N  49.69500 46.94900 42.63900
C  50.11400 48.18700 43.11100
C  49.00200 49.16000 42.91600
C  48.04400 48.42100 42.23600
C  48.44800 47.09500 42.16800
C  48.97500 50.66400 43.27700
C  46.69400 48.54500 41.61300
O  45.89600 49.54200 41.34000
C  46.31300 47.12100 41.02200
C  45.09400 46.59200 41.72100
O  45.01200 45.90000 42.72700
O  44.00200 46.82600 40.94400
C  42.67500 46.38600 41.33600
H  50.03300 41.14600 40.48000
H  54.98700 44.02500 43.24200
H  51.55100 49.53400 43.90000
H  46.09800 43.87700 40.72200
H  47.86400 42.33100 39.11600
H  46.55600 40.85600 40.08000
H  46.09700 41.93400 41.45200
H  47.52700 40.92900 41.52200
H  47.07900 44.08000 37.88500
H  47.29600 45.57600 38.60800
H  45.14500 45.94600 38.05400
H  44.52500 44.82000 39.30200
H  53.27100 39.94500 39.77900
H  51.56300 39.98900 40.15900
H  52.65900 39.30200 41.28300
H  55.39600 42.02900 44.22400
H  56.60900 42.42400 42.96700
H  56.54100 40.74900 43.53900
H  55.30100 46.95300 43.09800
H  53.61400 48.06300 45.32000
H  55.55000 46.72800 46.02700
H  56.60300 46.45400 44.56000
H  55.49700 45.27400 45.20600
H  53.65900 50.08000 43.39900
H  54.90200 49.37000 42.79100
H  55.86600 49.45300 45.45100
H  54.92700 50.84700 45.35500
H  56.00900 50.66900 44.02800
H  48.13300 50.99400 43.88500
H  48.83900 51.13200 42.30200
H  49.90600 51.09000 43.65400
H  46.22900 47.12300 39.93500
H  42.30700 47.02200 42.14100
H  42.72500 45.38800 41.77100
H  41.97800 46.32100 40.50000

