158

Mg 7.71300 2.34400 27.83400
C  8.87700 1.21900 30.93600
C  5.37900 4.34000 29.59300
C  6.61500 3.56700 24.90800
C  9.71200 0.07600 26.25200
N  7.04000 2.58300 30.08100
C  7.87300 2.17100 31.12900
C  7.54200 2.98900 32.40500
C  6.20200 3.70700 31.95100
C  6.20100 3.54800 30.44200
C  4.82400 3.16000 32.70600
C  8.74000 3.96800 32.77500
C  8.51600 5.04900 33.95100
H  9.34400 4.82900 35.18800
N  6.26600 3.76900 27.31700
C  5.34600 4.40500 28.14100
C  4.40900 5.21400 27.34300
C  4.94300 5.16400 26.01400
C  5.96700 4.12700 26.01100
C  3.34500 6.05200 27.92400
C  4.51900 5.86600 24.76900
O  5.15700 5.81800 23.78100
C  3.40400 6.87200 24.81900
N  8.08300 1.88200 25.98800
C  7.55900 2.54500 24.90400
C  7.95100 1.88000 23.58500
C  8.98200 0.88700 23.95900
C  8.92900 0.89300 25.46600
C  6.72200 1.38600 22.69600
C  10.47300 1.21900 23.42000
C  11.31500 0.01000 22.95800
N  8.96300 0.92000 28.43300
C  9.73000 0.02800 27.67100
C  10.66200 -0.67400 28.47400
C  10.37700 -0.29500 29.77600
C  9.35100 0.74200 29.69100
C  11.62300 -1.60700 27.98200
C  10.72700 -0.43300 31.17300
O  11.61100 -1.14300 31.65100
C  9.88800 0.62200 31.99200
C  9.25500 -0.07600 33.11000
O  8.79400 -1.21300 32.96300
O  9.56800 0.44600 34.31300
C  9.10000 -0.48000 35.41300
H  4.68900 4.94400 30.18600
H  6.30100 3.87800 23.91000
H  10.55500 -0.52100 25.89800
H  7.31900 2.32300 33.23800
H  6.25500 4.78500 32.09900
H  4.21700 2.61700 31.98200
H  4.22400 4.00900 33.03400
H  5.04100 2.44700 33.50100
H  8.85600 4.49800 31.82900
H  9.61100 3.35900 33.01500
H  7.45500 5.04600 34.19900
H  8.73600 6.04400 33.56400
H  3.45300 7.05100 27.50000
H  3.37100 6.04700 29.01400
H  2.31600 5.73800 27.74700
H  2.59200 6.35400 25.33000
H  3.21800 7.17200 23.78800
H  3.82900 7.71900 25.35800
H  8.42000 2.67400 23.00500
H  8.69100 -0.14300 23.75100
H  5.76200 1.73200 23.07800
H  6.70300 0.30200 22.81000
H  6.89000 1.60300 21.64100
H  10.95400 1.80000 24.20700
H  10.27500 1.84600 22.55100
H  12.20000 -0.20200 23.55900
H  11.74100 0.23400 21.98000
H  10.68100 -0.86500 22.81600
H  12.37800 -1.81000 28.74100
H  12.05000 -1.19700 27.06600
H  11.07000 -2.53500 27.84200
H  10.54400 1.43300 32.30700
H  9.57000 -1.45200 35.26100
H  8.01600 -0.51300 35.51600
H  9.55100 -0.23000 36.37400
Mg 35.08600 3.47500 30.40000
C  32.70700 4.55400 32.71600
C  37.40100 3.59500 32.98800
C  37.29900 2.74500 28.16600
C  32.58800 3.73600 27.90500
N  35.00800 4.03500 32.59000
C  33.92200 4.35900 33.31300
C  34.25600 4.25300 34.86600
C  35.85800 4.29900 34.88100
C  36.08800 3.90400 33.38200
C  36.39500 5.72300 35.13900
C  33.72200 2.95700 35.59200
C  34.01300 2.76000 37.08900
H  34.44900 3.98100 37.91300
N  37.10400 3.12200 30.60500
C  37.93600 3.14500 31.72600
C  39.28900 2.72800 31.36600
C  39.30700 2.76200 29.92000
C  37.86800 2.85900 29.50500
C  40.41400 2.66200 32.46200
C  40.39800 2.61300 28.94100
O  40.15500 2.83300 27.76500
C  41.73300 2.08800 29.38700
N  34.94300 3.37000 28.29900
C  35.99400 2.99300 27.61300
C  35.77400 3.06600 26.01400
C  34.23100 3.29200 25.98600
C  33.86700 3.47200 27.48700
C  36.55200 4.18800 25.19300
C  33.50700 2.13900 25.26500
C  33.10700 0.94400 26.07200
N  33.07100 4.11900 30.27700
C  32.18800 4.08900 29.17400
C  30.84000 4.27000 29.66900
C  31.02100 4.50900 31.05300
C  32.41000 4.41000 31.38800
C  29.61900 4.28900 28.78200
C  30.37300 4.75500 32.29700
O  29.18700 4.93300 32.47900
C  31.39100 4.74600 33.46000
C  31.21100 6.02800 34.12100
O  30.98400 7.13200 33.56100
O  31.27900 5.81700 35.46600
C  31.49600 7.08400 36.14100
H  38.12100 3.70500 33.80200
H  38.03200 2.45200 27.41100
H  31.78400 3.67100 27.16900
H  33.78900 5.11300 35.34600
H  36.20400 3.64300 35.68000
H  36.91600 5.71400 36.09600
H  35.65900 6.52100 35.22400
H  37.15800 5.86900 34.37400
H  34.12400 2.05600 35.12900
H  32.63500 2.93400 35.51100
H  34.64300 1.87000 37.10700
H  33.15100 2.33600 37.60400
H  40.13700 3.22000 33.35600
H  41.23900 3.20800 32.00400
H  40.85700 1.70800 32.74900
H  41.50000 1.28700 30.08800
H  42.28500 2.94700 29.76800
H  42.36500 1.73800 28.57100
H  36.16700 2.13800 25.59700
H  34.01000 4.18800 25.40700
H  37.12200 4.71900 25.95600
H  35.81600 4.84100 24.72500
H  37.17700 3.63200 24.49400
H  34.18700 1.77600 24.49500
H  32.66200 2.58600 24.74200
H  33.63700 0.88000 27.02300
H  33.20300 0.08800 25.40500
H  32.04600 0.98700 26.32200
H  29.00200 3.39200 28.81300
H  29.88300 4.35100 27.72600
H  28.95300 5.11400 29.03400
H  31.06800 3.99000 34.17500
H  32.27800 7.61900 35.60100
H  31.96000 6.83200 37.09400
H  30.63200 7.74900 36.12800

