158

Mg 1.75700 -2.16900 45.13600
C  5.02400 -1.05500 44.64500
C  0.72100 0.67000 43.37200
C  -1.47000 -3.45900 44.92900
C  2.88500 -5.28700 46.08400
N  2.78200 -0.39900 44.22400
C  4.13600 -0.08700 44.14800
C  4.39900 1.34600 43.68700
C  2.98700 1.78600 43.28000
C  2.10500 0.63100 43.64000
C  2.48800 3.21300 43.73000
C  5.55400 1.39700 42.60700
C  5.63300 0.39200 41.38200
H  5.42500 1.03200 39.99800
N  -0.12100 -1.41200 44.37900
C  -0.31500 -0.23300 43.68700
C  -1.72100 -0.04600 43.35900
C  -2.37700 -1.15200 43.91600
C  -1.33700 -2.11900 44.47200
C  -2.13200 1.13000 42.50900
C  -3.91900 -1.36800 43.90500
O  -4.62900 -0.54900 43.30600
C  -4.60900 -2.44500 44.63400
N  0.76400 -4.14000 45.47500
C  -0.53500 -4.37500 45.51100
C  -0.82000 -5.81800 45.97500
C  0.62900 -6.36200 46.24200
C  1.51100 -5.15500 45.94800
C  -1.85700 -5.95200 47.07100
C  0.97500 -7.58800 45.37600
C  0.87500 -8.91600 46.20000
N  3.57400 -3.02800 45.46400
C  3.88500 -4.26000 45.90800
C  5.38700 -4.36900 46.01200
C  5.88500 -3.12300 45.57800
C  4.72400 -2.36400 45.23600
C  6.06700 -5.62200 46.31500
C  7.02800 -2.33700 45.41800
O  8.19500 -2.65300 45.58200
C  6.52200 -0.98600 44.80600
C  6.88300 0.16100 45.79600
O  6.48700 0.27000 46.94900
O  7.80400 1.01200 45.23500
C  8.21400 2.24400 45.99500
H  0.41000 1.56900 42.83600
H  -2.49000 -3.84800 44.94400
H  3.32200 -6.25000 46.35800
H  4.62100 1.86500 44.61900
H  3.09600 1.77200 42.19600
H  1.61100 3.08400 44.36500
H  2.35300 3.85300 42.85800
H  3.25700 3.72600 44.30800
H  6.57000 1.48000 42.99000
H  5.34900 2.37400 42.17100
H  4.93400 -0.42700 41.55400
H  6.64300 -0.01000 41.30700
H  -2.07000 0.91600 41.44200
H  -1.54300 2.03300 42.67000
H  -3.18000 1.34600 42.71500
H  -5.63000 -2.13000 44.84600
H  -4.11100 -2.76300 45.55000
H  -4.63800 -3.21900 43.86700
H  -1.31700 -6.30200 45.13500
H  0.58500 -6.62300 47.30000
H  -2.78900 -6.32400 46.64500
H  -2.09500 -5.02800 47.59800
H  -1.63300 -6.77700 47.74700
H  1.98100 -7.48500 44.97000
H  0.25200 -7.65300 44.56300
H  0.46100 -8.74000 47.19200
H  1.81500 -9.44400 46.36200
H  0.21500 -9.60500 45.67300
H  6.22300 -6.28600 45.46400
H  5.41000 -5.98100 47.10600
H  7.06400 -5.36200 46.67100
H  7.03500 -0.91600 43.84700
H  7.30700 2.79600 46.24300
H  8.78100 2.88600 45.32000
H  8.59000 1.96200 46.97900
Mg 55.41400 24.45800 45.41000
C  52.91700 26.58000 44.22700
C  53.98100 21.84300 43.73300
C  58.26700 22.75200 45.66200
C  56.99600 27.28100 46.81800
N  53.77600 24.37400 43.84900
C  52.77600 25.30100 43.67700
C  51.47800 24.60600 43.10400
C  51.82300 23.07500 43.22300
C  53.26900 23.04800 43.64400
C  50.79600 22.31900 44.14100
C  51.23100 24.97300 41.64300
C  49.71100 24.88300 41.21500
H  49.36400 24.24700 39.82800
N  56.00100 22.49800 44.96400
C  55.26100 21.56600 44.28100
C  55.89800 20.33500 44.24500
C  57.19000 20.51500 44.90700
C  57.20500 21.98800 45.16100
C  55.20900 19.12000 43.75000
C  58.17500 19.46600 45.14400
O  58.08600 18.28700 44.73400
C  59.41900 19.73500 45.94500
N  57.33700 24.97000 46.09100
C  58.37900 24.08000 46.05300
C  59.67800 24.73700 46.66100
C  59.16600 26.12500 47.13100
C  57.78400 26.19100 46.53000
C  60.56000 23.98400 47.69400
C  60.15300 27.25500 46.69300
C  60.27800 27.69800 45.26700
N  55.00700 26.54900 45.64100
C  55.68400 27.55400 46.33200
C  54.86000 28.75000 46.30700
C  53.79300 28.42100 45.45800
C  53.95200 27.09800 45.07800
C  55.17500 30.08400 46.88600
C  52.59100 28.93000 44.87700
O  52.03600 29.97900 45.15900
C  51.99600 27.81700 44.01000
C  51.62500 28.29000 42.60900
O  52.36000 28.77400 41.69400
O  50.22700 28.30500 42.40000
C  49.82600 28.81700 41.07700
H  53.39700 20.96100 43.46600
H  59.20000 22.20700 45.81900
H  57.44900 28.18900 47.22100
H  50.68900 24.96900 43.76300
H  51.78900 22.57600 42.25500
H  51.32600 21.66700 44.83600
H  50.02300 21.76100 43.61400
H  50.24100 23.05600 44.72300
H  51.75800 24.28300 40.98400
H  51.56600 25.99700 41.47700
H  49.34900 25.88600 41.44100
H  49.23700 24.25800 41.97300
H  55.85500 18.30200 43.43100
H  54.70900 19.41200 42.82600
H  54.50100 18.61200 44.40500
H  60.15900 20.27100 45.35200
H  59.85300 18.74700 46.10100
H  59.14000 20.14600 46.91500
H  60.36400 24.91800 45.83400
H  59.05200 26.15100 48.21400
H  60.85200 24.70200 48.46100
H  61.45700 23.57200 47.23000
H  60.09100 23.11400 48.15200
H  61.15000 26.92800 46.98900
H  59.78800 28.04400 47.35000
H  59.64700 27.14500 44.57100
H  61.26200 27.57600 44.81400
H  60.04800 28.76300 45.28800
H  54.86500 30.11800 47.93100
H  54.67800 30.85500 46.29700
H  56.25300 30.24600 46.86700
H  51.03300 27.51900 44.42600
H  49.58600 29.87600 41.17000
H  49.04200 28.20500 40.63100
H  50.57700 28.64900 40.30500

