158

Mg 25.61600 1.58800 29.57100
C  27.40800 1.46500 32.56800
C  22.69800 1.67000 31.52200
C  23.89700 1.76900 26.88300
C  28.55200 0.94300 27.87500
N  25.08900 1.45500 31.79400
C  26.03000 1.64400 32.79100
C  25.33000 1.73500 34.17600
C  23.80900 1.44200 33.84100
C  23.83800 1.49100 32.32100
C  23.05900 0.12700 34.28900
C  25.62600 3.09500 34.93100
C  26.11000 2.91300 36.41000
H  25.86200 3.97300 37.43200
N  23.59200 1.72300 29.24400
C  22.59500 1.81500 30.13900
C  21.34300 1.96200 29.41600
C  21.69700 1.89600 28.05700
C  23.11200 1.85100 28.00400
C  19.96800 2.12100 30.00500
C  20.77700 1.81800 26.87600
O  21.18000 1.79100 25.70800
C  19.25800 1.68700 27.02700
N  26.20700 1.45100 27.65700
C  25.27400 1.71600 26.66800
C  25.91800 1.73800 25.25400
C  27.49400 1.64700 25.62000
C  27.42700 1.34200 27.14900
C  25.47100 0.49800 24.40100
C  28.29200 2.88600 25.25000
C  27.96800 4.21000 25.96800
N  27.56500 1.17100 30.05900
C  28.66700 0.82300 29.28800
C  29.82000 0.46500 30.10200
C  29.39700 0.81900 31.38000
C  28.01700 1.19700 31.31900
C  31.09300 -0.07900 29.56200
C  29.77500 0.93100 32.79100
O  30.84400 0.66500 33.30300
C  28.51900 1.43800 33.56700
C  28.39600 0.48800 34.65700
O  27.92700 -0.64000 34.59500
O  29.11100 0.98900 35.72800
C  28.93000 0.13100 36.90900
H  21.72600 1.84500 31.98700
H  23.51300 1.88000 25.86700
H  29.45600 0.71600 27.30400
H  25.55900 0.84800 34.76800
H  23.24500 2.30700 34.19100
H  22.05400 0.38200 34.62500
H  23.57000 -0.26100 35.17000
H  22.99300 -0.68100 33.56100
H  24.81400 3.82000 34.98200
H  26.44100 3.55300 34.37000
H  27.11000 2.50000 36.28500
H  25.62400 2.04400 36.85400
H  19.25500 2.81900 29.56600
H  20.08300 2.38500 31.05700
H  19.51200 1.13200 30.03600
H  18.80400 1.40600 26.07600
H  18.96000 2.69300 27.32300
H  19.00500 1.01100 27.84400
H  25.69500 2.64700 24.69500
H  27.88300 0.77300 25.09800
H  24.38500 0.43300 24.33200
H  25.64900 -0.35300 25.05900
H  25.94100 0.49200 23.41800
H  28.03800 3.08800 24.20900
H  29.35500 2.69600 25.40100
H  27.37800 4.88600 25.34900
H  28.74700 4.84500 26.39100
H  27.28800 3.94700 26.77800
H  31.73500 0.60800 29.01100
H  30.84700 -1.01900 29.06800
H  31.48600 -0.37200 30.53600
H  28.71200 2.47300 33.85000
H  29.05300 -0.93700 36.73100
H  28.06100 0.44200 37.48800
H  29.75000 0.37100 37.58600
Mg 36.10200 48.73200 24.72800
C  36.48800 46.87000 27.54500
C  34.57200 51.19400 26.51300
C  35.39400 50.30500 21.84300
C  37.32700 45.84400 22.76500
N  35.59500 48.95700 26.77800
C  36.00500 48.14800 27.84000
C  35.71500 48.77900 29.20700
C  34.89400 50.08300 28.81600
C  35.02000 50.08200 27.29300
C  33.39300 50.08200 29.25300
C  37.03500 49.14400 29.97700
C  36.88600 49.90200 31.31400
H  35.49000 49.85100 32.11800
N  35.18400 50.53500 24.24900
C  34.61100 51.42800 25.09100
C  34.21300 52.63000 24.36300
C  34.31800 52.30600 22.97900
C  34.94800 50.97600 22.97200
C  33.67600 53.79100 25.16400
C  33.94600 53.18200 21.83100
O  34.13800 52.87400 20.66900
C  33.28300 54.47500 22.11400
N  36.46700 48.18500 22.59400
C  36.10800 49.04400 21.63700
C  36.27500 48.41700 20.23700
C  36.86200 46.97300 20.58200
C  36.88200 46.95500 22.07200
C  35.04100 48.42100 19.28500
C  38.15700 46.74400 19.80200
C  39.39100 47.41100 20.42200
N  36.88200 46.88300 25.02600
C  37.27900 45.81300 24.20500
C  37.69500 44.65000 25.00400
C  37.38400 45.06400 26.32400
C  36.90200 46.39700 26.29100
C  38.13100 43.25300 24.54000
C  37.44200 44.62300 27.67500
O  37.81100 43.57200 28.17800
C  36.90400 45.83700 28.57300
C  35.62700 45.48200 29.34700
O  34.47000 45.45200 28.88300
O  35.91700 45.19500 30.68200
C  34.77400 44.58300 31.38300
H  34.18300 51.95500 27.19200
H  35.03300 50.67600 20.88100
H  37.82800 45.07600 22.17200
H  35.11100 48.04200 29.73700
H  35.40400 50.95300 29.23000
H  33.11300 49.32800 29.98900
H  32.63000 50.03300 28.47600
H  33.25700 51.02300 29.78700
H  37.64700 49.71000 29.27400
H  37.56100 48.23400 30.26500
H  37.05000 50.94400 31.04100
H  37.73800 49.70100 31.96400
H  33.59200 54.71300 24.59000
H  34.41200 54.08400 25.91300
H  32.74100 53.70600 25.71900
H  33.03300 55.00000 21.19200
H  34.09300 54.98500 22.63700
H  32.39500 54.39800 22.74100
H  37.14100 48.94100 19.83300
H  36.11000 46.29200 20.18200
H  34.22900 48.11400 19.94500
H  35.12200 47.72500 18.45100
H  34.91300 49.45100 18.95100
H  38.00000 47.18200 18.81600
H  38.35100 45.70600 19.53400
H  39.39200 47.40600 21.51200
H  39.53000 48.42100 20.03700
H  40.27900 46.81100 20.22300
H  39.13600 42.92800 24.80900
H  38.16700 43.39100 23.45900
H  37.39800 42.54700 24.92900
H  37.65200 46.25100 29.24900
H  34.14700 45.36200 31.81700
H  35.28000 43.97000 32.12900
H  34.09500 43.92400 30.84100

