158

Mg -11.40000 38.31700 41.58500
C  -9.00600 35.75900 41.08300
C  -9.51400 40.41700 39.70100
C  -14.08500 40.32900 41.41100
C  -13.56500 35.72000 42.92900
N  -9.53900 38.06400 40.42800
C  -8.74400 36.93000 40.47900
C  -7.44700 37.22100 39.71500
C  -7.59300 38.74400 39.26900
C  -8.97100 39.11700 39.79400
C  -6.42900 39.74500 39.57800
C  -7.01900 36.21300 38.60600
C  -5.71700 35.48200 38.80600
H  -4.62600 35.60300 37.68300
N  -11.68900 40.23300 40.87400
C  -10.83500 40.92500 40.01300
C  -11.42600 42.12900 39.59300
C  -12.67000 42.20800 40.25500
C  -12.88500 40.90600 40.93400
C  -10.63600 43.05900 38.70400
C  -13.59000 43.44600 40.12800
O  -13.10700 44.48700 39.64900
C  -15.00300 43.45200 40.63200
N  -13.53400 38.05200 42.14900
C  -14.37100 39.06100 42.01300
C  -15.79700 38.69500 42.36100
C  -15.63900 37.25200 42.91100
C  -14.14900 36.97400 42.69400
C  -16.58500 39.66700 43.27300
C  -16.50500 36.33500 41.96200
C  -18.07300 36.66600 41.84700
N  -11.25900 36.23300 42.13100
C  -12.18600 35.36600 42.73700
C  -11.54500 34.10100 43.00500
C  -10.29400 34.19500 42.40900
C  -10.18100 35.49700 41.81900
C  -12.22100 32.98200 43.63500
C  -9.10800 33.57000 42.20500
O  -8.81800 32.44800 42.59800
C  -8.12600 34.57600 41.45500
C  -6.88400 34.81000 42.27600
O  -5.91800 34.08200 42.32400
O  -6.87200 36.07000 42.92300
C  -5.71800 36.44400 43.62900
H  -8.79200 41.07200 39.21000
H  -14.99800 40.92300 41.32400
H  -14.21000 34.97000 43.39200
H  -6.68000 37.17000 40.48800
H  -7.75900 38.64100 38.19600
H  -5.48100 39.25300 39.79500
H  -6.56000 40.54200 40.31100
H  -6.15000 40.28400 38.67200
H  -6.96500 36.63500 37.60200
H  -7.80400 35.45700 38.55900
H  -6.03300 34.44400 38.90500
H  -5.19900 35.80500 39.70900
H  -11.08200 43.96900 38.30500
H  -10.33700 42.43600 37.86100
H  -9.83500 43.34700 39.38600
H  -14.94800 43.17800 41.68500
H  -15.63700 42.90800 39.93200
H  -15.33200 44.48800 40.54200
H  -16.25300 38.70000 41.37100
H  -15.99500 37.12200 43.93300
H  -17.12700 39.02200 43.96400
H  -17.30100 40.25000 42.69300
H  -15.84800 40.32600 43.73300
H  -16.35300 35.30800 42.29500
H  -16.14100 36.46300 40.94300
H  -18.30500 37.53900 42.45700
H  -18.71600 35.85700 42.19200
H  -18.37200 36.99300 40.85200
H  -12.59700 33.24100 44.62500
H  -11.61700 32.07500 43.60700
H  -13.07300 32.74000 42.99900
H  -7.84600 34.00100 40.57200
H  -5.61600 37.52800 43.66100
H  -4.80400 36.06900 43.16900
H  -5.82200 36.14200 44.67200
Mg 1.54000 41.83500 25.63000
C  2.57700 42.23400 29.02800
C  -1.56100 40.89400 26.88700
C  0.47800 41.63500 22.52700
C  4.75500 42.77500 24.57400
N  0.60000 41.76900 27.73900
C  1.21900 41.89000 28.94800
C  0.25000 41.74800 30.09600
C  -1.00900 40.99100 29.42000
C  -0.66400 41.17400 27.91400
C  -1.28700 39.47800 29.86500
C  0.00900 43.05300 30.77400
C  -0.74100 43.01600 32.13200
H  -1.47100 41.74600 32.60200
N  -0.33600 41.34100 24.80100
C  -1.48000 41.02500 25.49200
C  -2.40700 40.59200 24.50500
C  -1.93100 40.92100 23.24500
C  -0.58100 41.38200 23.48200
C  -3.82700 40.15500 24.84800
C  -2.54000 40.69400 21.83800
O  -2.03500 41.25900 20.85200
C  -3.81700 39.90500 21.67100
N  2.51200 42.06800 23.84000
C  1.85000 41.89700 22.68500
C  2.84100 42.05100 21.47800
C  4.19500 42.35800 22.19700
C  3.81300 42.51800 23.61300
C  2.71800 40.84900 20.50500
C  4.94500 43.56100 21.63600
C  5.02700 43.60500 20.13000
N  3.33000 42.39300 26.54600
C  4.56000 42.80800 25.98000
C  5.50500 43.06600 27.11200
C  4.82000 42.77000 28.27400
C  3.48800 42.42400 27.91300
C  6.94300 43.39100 26.99400
C  4.91900 42.65400 29.72300
O  5.87300 42.85100 30.48400
C  3.49000 42.23100 30.27700
C  3.57300 40.87600 30.91700
O  4.28200 39.95200 30.56300
O  2.65800 40.75000 31.95600
C  2.54100 39.41600 32.50600
H  -2.51000 40.48800 27.24200
H  0.17100 41.68700 21.48000
H  5.81500 42.93000 24.36200
H  0.58000 41.03300 30.85000
H  -1.87800 41.60300 29.66300
H  -1.31900 38.73100 29.07100
H  -2.25400 39.49300 30.36800
H  -0.57200 39.11400 30.60300
H  -0.57600 43.65000 30.07500
H  1.00700 43.48400 30.85100
H  -1.31200 43.94400 32.13100
H  0.14300 43.15400 32.75500
H  -4.58600 40.45000 24.12400
H  -4.21500 40.56800 25.77900
H  -3.79300 39.10000 25.11800
H  -3.81700 39.02900 22.32000
H  -3.84700 39.58200 20.63000
H  -4.71000 40.49100 21.88900
H  2.46000 42.84400 20.83400
H  4.86200 41.49700 22.22700
H  3.35500 40.03300 20.84500
H  2.89800 41.11500 19.46300
H  1.68700 40.49600 20.54700
H  5.94800 43.31800 21.98700
H  4.62800 44.51200 22.06500
H  4.71300 44.49900 19.59100
H  4.46900 42.79200 19.66500
H  6.06400 43.32600 19.94500
H  7.27600 43.30300 25.96000
H  7.55400 42.66700 27.53200
H  7.16200 44.33200 27.49800
H  3.07500 42.90700 31.02500
H  2.20600 38.64800 31.80900
H  1.83700 39.44300 33.33700
H  3.51000 39.15500 32.93300

