158

Mg 48.96700 35.21600 28.48400
C  46.68000 33.87800 30.95000
C  49.12700 38.01600 30.61800
C  50.15500 37.03700 25.96200
C  48.20800 32.58100 26.44300
N  48.01400 35.78800 30.63000
C  47.24300 35.04200 31.47000
C  47.27900 35.56900 32.89600
C  47.71100 37.08400 32.61200
C  48.37200 36.98700 31.18400
C  46.51100 37.98700 32.61600
C  48.11400 34.66800 33.84600
C  49.09500 35.44700 34.96400
H  48.55500 36.54500 35.85300
N  49.73000 37.13400 28.34800
C  49.70100 38.08700 29.30700
C  50.46500 39.18100 28.88200
C  50.75700 39.01100 27.50900
C  50.16700 37.70800 27.19100
C  50.87300 40.18100 29.86200
C  51.36400 39.80700 26.46400
O  51.45500 39.45800 25.29600
C  52.16400 41.03800 26.85900
N  49.12500 34.90000 26.47400
C  49.70500 35.77100 25.62700
C  49.67200 35.22400 24.14800
C  49.16500 33.72900 24.32900
C  48.80800 33.69000 25.83800
C  48.85700 36.03500 23.06400
C  50.27800 32.64300 24.15800
C  49.98000 31.44300 23.25500
N  47.81800 33.57000 28.62500
C  47.68000 32.54600 27.74700
C  46.90700 31.46000 28.24300
C  46.44900 32.03400 29.41100
C  47.05900 33.29100 29.66600
C  46.52700 30.23000 27.57500
C  45.52400 31.69300 30.53000
O  44.89400 30.71000 30.78200
C  45.53800 32.96600 31.46900
C  45.71700 32.61700 32.91300
O  46.63400 31.95800 33.33500
O  44.65100 33.03100 33.68500
C  44.48600 32.64000 35.07400
H  49.01400 38.93300 31.19900
H  50.58900 37.54500 25.09800
H  48.06400 31.66600 25.86500
H  46.23500 35.69700 33.18400
H  48.42200 37.51200 33.31900
H  45.92200 37.60300 31.78300
H  46.80800 39.03000 32.50300
H  46.09200 37.90800 33.62000
H  48.81500 34.08500 33.24800
H  47.49600 34.12400 34.56100
H  49.95300 35.91800 34.48400
H  49.46400 34.71600 35.68400
H  51.15600 39.64800 30.76900
H  50.08400 40.86900 30.16800
H  51.63200 40.89700 29.54800
H  52.43500 41.78600 26.11400
H  53.02300 40.79000 27.48300
H  51.43300 41.64400 27.39400
H  50.73700 35.26200 23.92000
H  48.21500 33.45200 23.87400
H  49.57200 36.22300 22.26300
H  48.32600 36.93600 23.36900
H  48.20400 35.23700 22.71100
H  50.48700 32.24300 25.15000
H  51.17500 33.05400 23.69500
H  49.08400 31.66400 22.67500
H  49.51300 30.57900 23.72700
H  50.76300 31.26200 22.51900
H  46.67600 29.41400 28.28300
H  47.13900 30.05400 26.69000
H  45.47300 30.42200 27.37200
H  44.60600 33.52900 31.43700
H  44.78100 33.49000 35.68800
H  45.17400 31.82500 35.29800
H  43.45500 32.40400 35.33800
Mg -12.43900 38.92800 41.50200
C  -10.71800 35.95900 40.58000
C  -9.71900 40.80400 40.34300
C  -14.23900 41.64300 41.97900
C  -15.14400 36.88700 42.46900
N  -10.46200 38.45000 40.60500
C  -9.93400 37.15000 40.31100
C  -8.67700 37.19400 39.49200
C  -8.27100 38.65700 39.66900
C  -9.56300 39.41000 40.17400
C  -7.01300 38.80000 40.61700
C  -8.82500 36.71900 38.08800
C  -7.90600 35.60000 37.55500
H  -7.01900 36.04900 36.41100
N  -12.02800 41.03600 41.26100
C  -10.87800 41.58900 40.80000
C  -11.06400 43.03300 40.64600
C  -12.34700 43.37400 41.11700
C  -12.91500 41.96800 41.52000
C  -10.06500 43.96500 39.89800
C  -13.04100 44.68900 41.04800
O  -12.48400 45.71700 40.64100
C  -14.37800 44.79100 41.60000
N  -14.42600 39.19800 42.04000
C  -14.84000 40.41800 42.38200
C  -16.18600 40.42500 43.13000
C  -16.51200 38.91800 43.09700
C  -15.28000 38.27300 42.52300
C  -16.24900 41.17900 44.52800
C  -17.79800 38.39100 42.32700
C  -18.72600 37.61400 43.23400
N  -12.83200 36.92000 41.75900
C  -13.98300 36.25100 42.04900
C  -13.78900 34.81500 41.98100
C  -12.53800 34.69900 41.38000
C  -11.93300 36.01200 41.30000
C  -14.78200 33.78400 42.38800
C  -11.58800 33.67700 40.81800
O  -11.59800 32.46900 40.65900
C  -10.31100 34.50900 40.50700
C  -9.35700 34.02800 41.56600
O  -9.63900 33.48800 42.63900
O  -8.12400 34.27500 41.15400
C  -7.11600 34.35900 42.24400
H  -8.83000 41.37100 40.05800
H  -14.96900 42.40100 42.27100
H  -15.91800 36.29500 42.96300
H  -7.97100 36.52800 39.98800
H  -7.98600 39.11900 38.72400
H  -6.67200 37.81000 40.91800
H  -7.34400 39.28900 41.53300
H  -6.28300 39.43100 40.11100
H  -8.58800 37.58100 37.46400
H  -9.84800 36.41200 37.86900
H  -8.63900 34.85500 37.24700
H  -7.21900 35.18200 38.29100
H  -10.30800 44.29300 38.88700
H  -9.08400 43.52500 39.71900
H  -9.87000 44.80100 40.56900
H  -14.72100 45.82500 41.64100
H  -14.23300 44.39900 42.60700
H  -15.12400 44.13500 41.15200
H  -16.85300 40.89300 42.40600
H  -16.52800 38.58300 44.13400
H  -15.53600 40.64700 45.15800
H  -17.22500 41.21600 45.01100
H  -15.82900 42.17500 44.38100
H  -17.50600 37.76500 41.48400
H  -18.16200 39.32800 41.90400
H  -19.06700 36.83600 42.55100
H  -19.59500 38.19900 43.53300
H  -18.22400 37.20900 44.11300
H  -15.80100 34.06800 42.12700
H  -14.77500 33.64200 43.46900
H  -14.54800 32.81300 41.95300
H  -9.96200 34.15500 39.53700
H  -7.14500 33.43100 42.81500
H  -7.32200 35.11400 43.00200
H  -6.09000 34.52700 41.91500

