158

Mg 45.23000 3.47100 47.25800
C  42.88100 5.89000 46.64900
C  42.89300 1.03700 46.71100
C  47.73900 1.23300 46.99800
C  47.60900 6.04200 47.67300
N  43.16100 3.50000 46.65500
C  42.33500 4.57900 46.45900
C  40.83200 4.19400 46.13300
C  40.90000 2.64000 46.53300
C  42.41300 2.34800 46.59300
C  40.16200 2.27800 47.80100
C  40.47900 4.60300 44.72300
C  39.22300 5.54900 44.57600
H  38.51200 5.50400 43.20400
N  45.32500 1.46100 47.03700
C  44.22500 0.56200 46.91100
C  44.58500 -0.77400 46.71900
C  46.02000 -0.69800 46.68500
C  46.42400 0.72700 46.87600
C  43.62400 -1.99900 46.66200
C  46.85300 -1.89800 46.54600
O  46.33400 -2.97500 46.42600
C  48.34400 -1.81200 46.37200
N  47.39800 3.63400 47.26200
C  48.17000 2.55200 47.21000
C  49.65900 2.85900 47.44700
C  49.63200 4.46900 47.66200
C  48.16800 4.75000 47.48700
C  50.33300 1.87700 48.52200
C  50.38500 5.34000 46.69100
C  51.89400 5.11500 46.46300
N  45.27700 5.58900 47.20300
C  46.27000 6.45700 47.50200
C  45.78900 7.86100 47.54200
C  44.43300 7.67100 47.20900
C  44.19200 6.22900 46.97500
C  46.68300 9.11100 47.72800
C  43.12200 8.27100 46.87000
O  42.79100 9.44300 46.75500
C  42.10200 7.13100 46.61400
C  41.01200 7.23500 47.67100
O  41.18100 6.91300 48.80300
O  39.89900 7.82400 47.14800
C  38.78200 7.83800 48.11700
H  42.19500 0.20400 46.60800
H  48.59900 0.56200 47.03600
H  48.36600 6.75000 48.01700
H  40.20800 4.65000 46.90200
H  40.58000 1.95400 45.74800
H  39.32200 2.93000 48.04000
H  40.93300 2.32800 48.57000
H  39.82600 1.24400 47.88000
H  40.28300 3.72800 44.10400
H  41.27300 5.07200 44.14100
H  39.68900 6.52600 44.70600
H  38.60800 5.46000 45.47100
H  44.00100 -2.90500 47.13600
H  43.31900 -2.13200 45.62400
H  42.71100 -1.82800 47.23300
H  48.74700 -1.54700 47.35000
H  48.42100 -1.11500 45.53800
H  48.72400 -2.74500 45.95500
H  50.20700 2.77500 46.50900
H  49.86300 4.72000 48.69800
H  49.68400 1.30900 49.18900
H  51.06600 2.41000 49.12600
H  50.78600 1.13900 47.86000
H  50.30400 6.31700 47.16700
H  49.81200 5.24900 45.76800
H  52.18000 5.17000 45.41300
H  52.20300 4.09100 46.67700
H  52.54500 5.84500 46.94400
H  46.13700 9.96700 47.33000
H  47.60800 8.99500 47.16400
H  47.02400 9.27700 48.75000
H  41.56900 7.42200 45.70900
H  39.10800 8.33100 49.03200
H  38.49300 6.84300 48.45700
H  37.91800 8.33600 47.67600
Mg 47.14900 24.77800 28.84900
C  47.76100 26.97600 31.49000
C  45.66600 22.62400 31.17300
C  46.43400 22.56400 26.38500
C  48.84500 26.80700 26.72600
N  46.89400 24.75200 31.13300
C  47.11100 25.84900 31.94500
C  46.73800 25.58300 33.38100
C  46.14000 24.18100 33.26200
C  46.17600 23.84200 31.79700
C  46.91700 23.12700 34.16300
C  45.64800 26.64800 33.91100
C  46.03200 27.48600 35.13900
H  45.11500 27.48800 36.43000
N  46.17000 22.84500 28.79000
C  45.65400 22.12500 29.80900
C  45.02600 20.89200 29.31300
C  45.21200 20.91200 27.89700
C  45.99000 22.14000 27.61600
C  44.18400 19.92300 30.21800
C  44.72000 19.98300 26.80800
O  44.93600 20.09700 25.56300
C  43.70700 18.91300 27.18900
N  47.46400 24.73600 26.90600
C  47.18800 23.72600 26.04800
C  47.69900 23.94900 24.63600
C  48.13600 25.41100 24.72800
C  48.19900 25.64100 26.21400
C  48.77600 22.94400 24.06600
C  47.19200 26.45300 23.96700
C  45.79200 26.53200 24.55600
N  48.10200 26.50600 29.00500
C  48.77500 27.28300 28.05400
C  49.29400 28.51600 28.64800
C  48.93600 28.41200 30.01200
C  48.22100 27.12600 30.21200
C  50.00600 29.65100 27.91100
C  48.92200 29.09700 31.23800
O  49.26400 30.19000 31.44200
C  48.19500 28.19600 32.29200
C  49.22100 27.96100 33.34100
O  50.09700 27.09500 33.32200
O  49.12500 28.95800 34.30200
C  50.05500 28.82600 35.44200
H  45.22000 21.91100 31.87000
H  46.33200 21.91100 25.51600
H  49.41100 27.42100 26.02300
H  47.65900 25.61400 33.96500
H  45.10300 24.20300 33.59800
H  46.92200 22.16400 33.65200
H  46.35400 23.02700 35.09000
H  47.91300 23.49200 34.41400
H  44.64400 26.23800 34.01800
H  45.64900 27.33200 33.06200
H  45.92200 28.51800 34.80500
H  47.08000 27.29400 35.37200
H  43.23900 19.75000 29.70400
H  43.90300 20.36900 31.17300
H  44.71900 18.98500 30.36400
H  42.84100 19.24900 27.75900
H  44.18400 18.04100 27.63700
H  43.26100 18.55800 26.26000
H  46.83200 23.83700 23.98500
H  49.16800 25.43800 24.37700
H  48.56200 21.94900 24.45700
H  49.82000 23.23200 24.18700
H  48.57900 22.94500 22.99400
H  47.01100 26.01100 22.98700
H  47.71100 27.41100 23.96700
H  45.82600 27.30600 25.32300
H  45.44100 25.55500 24.88900
H  45.10800 26.88700 23.78500
H  49.78000 29.67700 26.84500
H  51.08600 29.56800 28.03400
H  49.70600 30.61900 28.31100
H  47.38000 28.79400 32.69800
H  49.67600 28.06800 36.12800
H  50.19000 29.78500 35.94200
H  51.05700 28.51700 35.14500

