158

Mg 53.32600 23.96100 44.37300
C  51.07500 26.35700 43.29500
C  51.38500 21.54100 42.94800
C  55.92500 21.85000 44.46000
C  55.39600 26.52200 45.43600
N  51.50000 23.96500 43.21500
C  50.75900 25.05100 42.83100
C  49.55700 24.55200 41.90900
C  49.43800 23.11500 42.38000
C  50.88400 22.79400 42.85400
C  48.32000 22.78400 43.40900
C  49.71600 24.85900 40.37400
C  51.16300 25.26000 39.88600
H  51.37100 25.83100 38.50200
N  53.57500 21.99500 43.92800
C  52.65200 21.15400 43.40800
C  53.06800 19.77100 43.43100
C  54.37100 19.78500 43.93900
C  54.69200 21.25500 44.11600
C  52.29800 18.56300 42.83800
C  55.24500 18.54800 44.19800
O  54.76200 17.41900 43.91600
C  56.51500 18.66100 44.97400
N  55.38600 24.21500 44.64800
C  56.22500 23.17300 44.79500
C  57.63500 23.58800 45.05200
C  57.49800 25.04800 45.50500
C  55.96200 25.29900 45.18700
C  58.52100 22.69700 46.07100
C  58.52600 26.10700 44.98000
C  58.35700 26.73500 43.65400
N  53.18000 25.99000 44.60900
C  54.09400 26.93500 45.15000
C  53.47400 28.22100 45.15900
C  52.24600 28.03700 44.55600
C  52.15400 26.70000 44.15700
C  54.02400 29.47600 45.80200
C  51.01500 28.61900 44.13100
O  50.54400 29.77700 44.36700
C  50.19800 27.52400 43.22800
C  49.95300 28.02000 41.85400
O  50.83700 28.57700 41.16900
O  48.59600 27.88800 41.53600
C  48.20400 28.39600 40.20900
H  50.74500 20.77000 42.51300
H  56.80500 21.20300 44.47200
H  56.12200 27.22000 45.85900
H  48.80800 25.26400 42.25700
H  49.22700 22.46600 41.53000
H  47.30400 22.83400 43.01800
H  48.32600 23.64300 44.08000
H  48.68000 21.94500 44.00500
H  48.87900 25.49500 40.08500
H  49.57400 23.90300 39.87100
H  51.83500 24.42900 40.09900
H  51.51800 26.04300 40.55600
H  51.91300 18.13900 43.76600
H  52.94100 17.82900 42.35200
H  51.53100 18.89600 42.13900
H  56.50500 17.78000 45.61600
H  56.61800 19.52200 45.63400
H  57.39800 18.67900 44.33500
H  57.94700 23.53800 44.00900
H  57.29500 25.13500 46.57200
H  58.80200 23.39200 46.86300
H  59.48800 22.35900 45.69900
H  57.95400 21.85200 46.46300
H  59.54300 25.90600 45.31600
H  58.18700 26.87000 45.68200
H  59.33100 26.83900 43.17700
H  57.66900 27.58000 43.65200
H  57.80700 26.04500 43.01400
H  54.15100 30.13000 44.94000
H  55.02000 29.49100 46.24400
H  53.27400 29.80300 46.52200
H  49.25400 27.40100 43.75800
H  48.22600 29.48600 40.20600
H  47.17300 28.05000 40.14500
H  48.76100 27.93500 39.39300
Mg 36.35400 48.85300 25.05900
C  36.72500 47.05700 28.15800
C  35.14200 51.61500 26.74500
C  35.62700 50.24000 22.07900
C  37.65500 46.01700 23.49600
N  35.97200 49.24100 27.12500
C  36.26400 48.41700 28.27800
C  36.05100 49.18200 29.58900
C  35.20100 50.41400 29.12700
C  35.54500 50.46900 27.56500
C  33.67500 50.33300 29.54800
C  37.38200 49.37000 30.53200
C  37.22100 48.84300 31.97000
H  35.94500 49.18200 32.74700
N  35.59100 50.66500 24.53700
C  35.24900 51.64500 25.37900
C  34.93600 52.86000 24.58100
C  34.93700 52.46400 23.18100
C  35.38600 51.06900 23.20100
C  34.76100 54.22600 25.29800
C  34.66700 53.34000 21.91300
O  34.67500 52.83100 20.75000
C  34.13200 54.73600 22.08700
N  36.53400 48.13900 23.11900
C  36.16000 48.94700 22.03000
C  36.55300 48.36500 20.70500
C  37.56200 47.16500 21.12800
C  37.25200 47.05500 22.65300
C  35.44300 47.96000 19.70800
C  39.03600 47.39000 20.73100
C  39.90500 46.22600 20.34200
N  36.97700 46.90300 25.61100
C  37.47900 45.87200 24.85400
C  37.70700 44.74800 25.66100
C  37.45400 45.19200 26.98000
C  37.04000 46.48300 26.87500
C  38.13100 43.33700 25.11300
C  37.41400 44.75500 28.33800
O  37.68400 43.69400 28.81900
C  37.01800 46.00900 29.20000
C  35.93600 45.69300 30.15500
O  34.71800 45.68300 29.96600
O  36.39800 45.33100 31.37200
C  35.46700 45.15800 32.52300
H  34.64800 52.37200 27.35800
H  35.48000 50.71100 21.10500
H  37.97300 45.17600 22.87600
H  35.37100 48.43800 30.00400
H  35.62300 51.34000 29.51600
H  33.08500 50.30300 28.63200
H  33.27600 51.27300 29.93000
H  33.39900 49.57100 30.27700
H  37.80100 50.37600 30.50100
H  38.11300 48.74400 30.02100
H  38.09400 49.27400 32.46000
H  37.63900 47.84300 32.08500
H  35.44600 54.92500 24.81800
H  35.12200 54.13500 26.32200
H  33.73600 54.58200 25.18900
H  34.94800 55.35800 22.45300
H  33.30300 54.75800 22.79400
H  33.85200 55.33900 21.22300
H  37.09100 49.18700 20.23200
H  37.19200 46.20400 20.77100
H  35.47700 46.97300 19.24700
H  35.51100 48.68200 18.89500
H  34.43000 47.93900 20.11100
H  39.55000 47.70200 21.64000
H  39.07500 48.16100 19.96200
H  40.28700 45.71800 21.22700
H  40.69000 46.81900 19.87500
H  39.39700 45.59900 19.60900
H  38.04500 43.27500 24.02800
H  37.67300 42.48100 25.60800
H  39.18800 43.37800 25.37600
H  37.91900 46.24700 29.76700
H  35.67900 44.16300 32.91300
H  34.39200 45.21200 32.34600
H  35.80900 45.90000 33.24400

