158

Mg 45.54600 4.95800 48.24600
C  43.89500 7.74600 47.10600
C  42.77200 3.13600 47.26600
C  47.38000 2.11900 48.71100
C  48.43700 6.79300 48.65700
N  43.52500 5.44800 47.30400
C  43.01500 6.67400 46.97200
C  41.60800 6.57700 46.39000
C  41.21600 5.08900 46.76100
C  42.63400 4.51700 47.05000
C  40.15500 5.00900 47.90100
C  41.64200 7.02700 44.85300
C  40.74100 8.23800 44.31900
H  39.71900 7.97300 43.17400
N  45.15600 2.92900 48.09100
C  43.94100 2.35800 47.60700
C  44.03500 0.94200 47.78900
C  45.31900 0.60300 48.05300
C  46.06900 1.89300 48.27800
C  42.82100 0.08600 47.56800
C  45.89900 -0.81700 48.01000
O  45.16000 -1.80700 47.81500
C  47.31100 -1.08800 48.20200
N  47.65000 4.55000 48.43700
C  48.14600 3.33600 48.76800
C  49.62900 3.32600 49.18300
C  50.01300 4.78700 48.84600
C  48.60500 5.45900 48.58800
C  49.89300 2.87400 50.71300
C  50.92200 5.10200 47.64100
C  52.35300 4.33000 47.60000
N  46.08700 6.82900 47.94600
C  47.26700 7.47400 48.30500
C  47.10500 8.87700 48.26300
C  45.79500 9.02800 47.79000
C  45.22200 7.77100 47.64000
C  48.18900 9.93300 48.44000
C  44.84100 10.07000 47.34800
O  44.99000 11.27300 47.29100
C  43.57300 9.22100 46.78700
C  42.25500 9.71000 47.26800
O  41.55600 9.33300 48.22700
O  41.93400 10.74800 46.36000
C  40.55800 11.22600 46.74300
H  41.87900 2.56800 46.99400
H  47.87800 1.17800 48.95400
H  49.39600 7.29300 48.81000
H  40.92900 7.19300 46.98000
H  40.76400 4.59600 45.90000
H  39.95400 5.92900 48.45000
H  40.53500 4.27900 48.61700
H  39.30200 4.55700 47.39600
H  41.24600 6.13300 44.37100
H  42.58900 7.28000 44.37700
H  41.51700 8.93700 44.00600
H  40.15800 8.65200 45.14200
H  42.76500 -0.70700 48.31300
H  42.96800 -0.35800 46.58300
H  41.86200 0.58700 47.44100
H  47.47600 -1.88300 47.47500
H  47.63600 -1.24100 49.23000
H  47.84500 -0.28300 47.69600
H  50.27700 2.72000 48.55100
H  50.50700 5.18200 49.73400
H  50.86900 3.20000 51.07100
H  49.87600 1.78500 50.74900
H  49.20400 3.38500 51.38700
H  51.16600 6.14200 47.85800
H  50.32100 5.05700 46.73200
H  52.54400 3.57400 48.36200
H  53.06700 5.14700 47.70500
H  52.47800 3.83800 46.63500
H  49.16200 9.48200 48.63500
H  47.93000 10.64100 49.22700
H  48.28100 10.40100 47.46000
H  43.57700 9.21700 45.69700
H  40.76700 11.82100 47.63300
H  39.83800 10.40800 46.77300
H  40.10400 11.91300 46.02800
Mg -12.95200 16.97200 41.42900
C  -10.02300 15.30200 40.40600
C  -11.34800 19.95200 40.76200
C  -15.90000 18.27400 41.57500
C  -14.30300 13.58800 41.84800
N  -10.82700 17.56500 40.52100
C  -9.83500 16.67700 40.24500
C  -8.57500 17.52500 39.84800
C  -8.93600 18.97000 40.25800
C  -10.45200 18.84900 40.60400
C  -8.03600 19.59500 41.36800
C  -8.23600 17.33100 38.31800
C  -7.15900 16.34800 37.83400
H  -6.16800 16.76900 36.69300
N  -13.56100 18.97000 41.20900
C  -12.81200 20.04400 40.95400
C  -13.65300 21.25700 40.98600
C  -14.98800 20.78800 41.19400
C  -14.93700 19.26800 41.38800
C  -13.08600 22.62600 40.76600
C  -16.23300 21.71100 41.18100
O  -16.10200 22.89800 40.88300
C  -17.59800 21.23800 41.61600
N  -14.76300 16.08300 41.72500
C  -15.89400 16.88200 41.72500
C  -17.20800 16.05200 41.88500
C  -16.65300 14.54200 42.15100
C  -15.12800 14.73200 41.83500
C  -18.03800 16.54000 43.10400
C  -17.37800 13.48700 41.35200
C  -17.37400 12.01600 41.94000
N  -12.34800 14.86300 41.28600
C  -12.99800 13.66200 41.53600
C  -12.08500 12.58000 41.51900
C  -10.91600 13.13900 40.92700
C  -11.10800 14.51400 40.90300
C  -12.32900 11.10900 41.87500
C  -9.54000 12.88700 40.53600
O  -8.93600 11.85800 40.44700
C  -8.86200 14.32700 40.15900
C  -7.63900 14.53800 41.13400
O  -7.73300 14.79700 42.30600
O  -6.39900 14.34700 40.44500
C  -5.14100 14.56000 41.15900
H  -10.79500 20.88000 40.60200
H  -16.84200 18.82400 41.54500
H  -14.83000 12.63700 41.95200
H  -7.71400 17.26300 40.46400
H  -8.78300 19.60800 39.38800
H  -7.06200 19.86900 40.96100
H  -7.92900 18.93600 42.23000
H  -8.58000 20.45600 41.75600
H  -7.81600 18.29900 38.04400
H  -9.09500 17.13700 37.67600
H  -7.68100 15.51600 37.36200
H  -6.59500 16.10100 38.73300
H  -12.95700 22.86600 39.71100
H  -12.25500 22.95900 41.38800
H  -13.85000 23.26600 41.20700
H  -17.98200 20.55900 40.85400
H  -18.23000 22.12600 41.61500
H  -17.48300 20.69800 42.55600
H  -17.78300 16.18700 40.96900
H  -16.65400 14.19800 43.18500
H  -18.91400 17.08000 42.74400
H  -17.55400 17.25900 43.76500
H  -18.33100 15.73300 43.77500
H  -16.91000 13.44800 40.36800
H  -18.36500 13.94000 41.25000
H  -18.41500 11.69400 41.90800
H  -17.00500 11.90800 42.96000
H  -16.88100 11.41800 41.17300
H  -11.37400 10.59100 41.78900
H  -13.02300 10.47900 41.31800
H  -12.64500 10.97600 42.91000
H  -8.62700 14.43400 39.10000
H  -5.11800 15.59700 41.49400
H  -4.28100 14.43900 40.50100
H  -5.07800 13.80200 41.94000

