158

Mg 6.80600 54.44900 40.23600
C  6.28300 51.04400 39.85400
C  10.11900 53.94600 39.14000
C  6.99100 57.73300 39.40500
C  3.26600 54.84000 40.39600
N  8.03700 52.76200 39.54500
C  7.58500 51.42600 39.58000
C  8.75200 50.48200 39.12600
C  9.98900 51.37600 39.29900
C  9.35100 52.83000 39.22200
C  10.66200 51.32200 40.69500
C  8.66400 49.92500 37.68700
C  8.23100 50.85600 36.57900
H  6.89900 50.60800 35.84500
N  8.36000 55.66400 39.38400
C  9.68600 55.31600 39.19200
C  10.49000 56.48400 38.92100
C  9.61700 57.59500 39.06700
C  8.25400 57.04200 39.24200
C  11.93300 56.43400 38.48900
C  10.06600 59.12900 39.04100
O  11.20600 59.46400 38.79200
C  9.05400 60.21000 39.29300
N  5.31600 56.07300 39.91300
C  5.71300 57.28900 39.65900
C  4.54700 58.25800 39.98700
C  3.38100 57.34500 40.32500
C  4.04200 56.01600 40.15300
C  4.89400 59.38800 41.04700
C  2.12200 57.54500 39.37400
C  0.74200 57.37900 40.04400
N  5.04000 53.16200 40.35200
C  3.71600 53.47600 40.40100
C  2.95900 52.26000 40.50400
C  3.96500 51.25600 40.33000
C  5.18600 51.90200 40.12700
C  1.43400 52.21800 40.69800
C  4.17000 49.81700 40.29400
O  3.39700 48.90400 40.37000
C  5.64300 49.63800 39.86700
C  5.59700 48.92800 38.62700
O  5.01300 49.30300 37.63400
O  6.32200 47.73500 38.69200
C  6.14300 46.83100 37.47900
H  11.17800 53.70800 39.01700
H  6.96200 58.82500 39.39300
H  2.22000 55.07500 40.60500
H  8.67000 49.68100 39.86000
H  10.84100 51.22400 38.63600
H  10.89200 52.31200 41.08800
H  11.64700 50.86600 40.59800
H  10.06400 50.68000 41.34000
H  7.99800 49.06300 37.65500
H  9.59700 49.51400 37.30400
H  8.90500 50.81800 35.72300
H  8.17600 51.85900 37.00100
H  12.13200 56.99100 37.57400
H  12.21500 55.43700 38.14900
H  12.56700 56.83300 39.28000
H  9.52300 61.19300 39.27600
H  8.50800 59.88300 40.17800
H  8.35900 60.35600 38.46600
H  4.28600 58.84000 39.10300
H  3.03100 57.48400 41.34700
H  5.88800 59.37900 41.49300
H  4.25600 59.28200 41.92400
H  4.69300 60.40100 40.69700
H  2.17500 56.81200 38.56900
H  1.98500 58.55600 38.99000
H  0.38100 56.38100 39.79400
H  0.10800 58.17400 39.65300
H  0.62000 57.44700 41.12500
H  1.04600 52.32800 39.68500
H  1.14900 53.13200 41.21900
H  1.06800 51.30700 41.17000
H  6.12700 48.99200 40.60000
H  5.16600 46.35600 37.39300
H  6.85800 46.06100 37.76800
H  6.35700 47.28500 36.51200
Mg -2.53200 34.28000 26.62500
C  -4.44100 32.89700 29.25900
C  -1.72900 36.94500 28.64400
C  -0.88700 35.73200 24.07300
C  -4.06900 31.98000 24.55800
N  -3.21500 34.81200 28.68000
C  -3.76700 33.99200 29.63600
C  -3.75400 34.73200 30.98700
C  -2.97300 36.09600 30.62100
C  -2.65300 35.97400 29.17200
C  -3.75800 37.36100 30.97400
C  -3.09600 34.02600 32.15700
C  -2.67200 34.84800 33.42500
H  -3.19700 34.53000 34.83800
N  -1.45300 36.12100 26.37100
C  -1.22100 37.06000 27.29400
C  -0.29000 38.09400 26.82300
C  0.00600 37.71800 25.48200
C  -0.83400 36.53300 25.20900
C  0.30800 39.23400 27.72000
C  0.93500 38.34900 24.42200
O  1.03500 37.96100 23.28500
C  1.76000 39.51200 24.86600
N  -2.62500 33.98500 24.63600
C  -1.79300 34.67700 23.79600
C  -1.69100 33.95400 22.40900
C  -2.65800 32.73100 22.57400
C  -3.15200 32.93000 24.04700
C  -2.02300 34.75800 21.10300
C  -1.82300 31.40800 22.46500
C  -2.59600 30.24800 21.90200
N  -3.99300 32.75400 26.80900
C  -4.49100 31.87500 25.88500
C  -5.38100 30.85500 26.50000
C  -5.40200 31.27800 27.89900
C  -4.56200 32.40300 27.98200
C  -6.03000 29.71000 25.76700
C  -5.94600 30.95600 29.21600
O  -6.67400 30.04100 29.47700
C  -5.26900 31.93700 30.19500
C  -6.29900 32.60200 31.04700
O  -7.11100 33.40200 30.57600
O  -6.26900 32.15700 32.32600
C  -7.39400 32.50700 33.25200
H  -1.41400 37.72600 29.34000
H  -0.31000 36.01100 23.18900
H  -4.45400 31.19800 23.90000
H  -4.81200 34.89900 31.18700
H  -2.00200 36.14500 31.11300
H  -3.47800 38.19000 30.32400
H  -3.56900 37.63900 32.01000
H  -4.81900 37.19900 30.77900
H  -2.35600 33.31200 31.79500
H  -3.78200 33.29500 32.58600
H  -2.84900 35.91900 33.33100
H  -1.58800 34.77100 33.50500
H  1.34100 38.94800 27.91400
H  -0.30700 39.32100 28.61700
H  0.23000 40.19500 27.21200
H  2.21100 39.35900 25.84600
H  1.11400 40.38500 24.95600
H  2.55500 39.75700 24.16100
H  -0.65400 33.65200 22.26100
H  -3.55800 32.78300 21.96200
H  -2.37100 35.78000 21.25500
H  -2.68900 34.27300 20.39000
H  -1.14400 34.90200 20.47500
H  -1.54700 31.21800 23.50200
H  -0.87700 31.55500 21.94600
H  -1.96100 29.72500 21.18700
H  -3.55800 30.49500 21.45200
H  -2.73500 29.56100 22.73700
H  -7.02500 29.90300 25.36600
H  -6.10200 28.86600 26.45400
H  -5.38500 29.55400 24.90300
H  -4.57600 31.45500 30.88400
H  -8.03200 33.19800 32.70000
H  -7.04400 32.89100 34.21000
H  -7.98300 31.61600 33.47200

