158

Mg 47.79600 16.21500 28.53300
C  45.96400 15.78400 31.49500
C  50.09100 18.08500 30.42900
C  49.26300 17.04100 25.67100
C  45.44400 14.37900 26.79400
N  47.99200 16.85200 30.73300
C  47.21100 16.44200 31.72900
C  47.70400 17.00000 33.10500
C  48.86100 17.94500 32.69700
C  49.02100 17.57000 31.18400
C  48.49100 19.39600 33.05500
C  48.04300 15.73800 34.06100
C  47.77600 15.89700 35.58800
H  47.64600 17.28200 36.23400
N  49.52100 17.34200 28.10900
C  50.27400 18.01100 28.97300
C  51.34500 18.66100 28.24500
C  51.21500 18.30600 26.88700
C  49.95300 17.55000 26.81800
C  52.47700 19.35100 28.87500
C  52.04700 18.80700 25.69900
O  51.79700 18.37300 24.56000
C  53.12300 19.87000 25.88200
N  47.50100 15.60100 26.53500
C  48.22100 16.14800 25.52000
C  47.79300 15.62600 24.14000
C  46.70300 14.60800 24.56800
C  46.54300 14.82000 26.03300
C  47.26500 16.79800 23.21700
C  46.85900 13.14000 24.23200
C  45.71800 12.55400 23.43800
N  46.05600 15.35900 29.01700
C  45.23500 14.55500 28.18300
C  44.02600 14.30300 28.84400
C  44.27900 14.64800 30.16000
C  45.53500 15.29200 30.22300
C  42.74300 13.82900 28.29300
C  43.72100 14.62800 31.51300
O  42.71600 14.13000 31.90900
C  44.82300 15.39200 32.45800
C  44.30200 16.52300 33.24900
O  43.94900 17.61300 32.80700
O  44.15000 16.17900 34.57800
C  43.41600 17.19500 35.40500
H  50.65200 18.80100 31.03300
H  49.66300 17.24800 24.67500
H  44.69900 13.70000 26.37500
H  46.89900 17.48600 33.65700
H  49.83600 17.69200 33.11400
H  48.74100 19.52000 34.10900
H  47.40400 19.46900 33.01100
H  49.01400 20.10100 32.40900
H  49.08400 15.47500 33.87500
H  47.41600 14.89000 33.78500
H  48.68300 15.40700 35.94300
H  46.94600 15.26400 35.89900
H  52.34000 20.42800 28.77600
H  53.42700 19.03600 28.44400
H  52.56200 19.02000 29.91000
H  53.40100 20.42200 24.98400
H  54.07100 19.47600 26.24900
H  52.63700 20.61200 26.51600
H  48.62600 15.16200 23.61200
H  45.81700 15.18100 24.29300
H  46.31700 16.40700 22.84700
H  47.87800 16.90600 22.32200
H  47.05700 17.73800 23.72900
H  46.94500 12.59900 25.17400
H  47.79300 12.92100 23.71300
H  46.13200 11.78500 22.78600
H  45.13300 13.24200 22.82800
H  45.04100 12.17500 24.20400
H  42.34000 14.38200 27.44400
H  41.95700 13.89200 29.04500
H  42.61500 12.77300 28.05600
H  45.20400 14.64200 33.15100
H  42.34200 17.33200 35.28100
H  43.89800 18.17300 35.40600
H  43.51500 16.85500 36.43600
Mg 16.62000 51.08800 26.75100
C  18.60500 49.60200 29.40100
C  14.43500 52.25700 29.13100
C  14.62900 52.07800 24.36300
C  18.88900 49.66000 24.44100
N  16.59100 51.07200 29.04900
C  17.44700 50.35200 29.88000
C  17.11700 50.68800 31.35200
C  15.71600 51.35500 31.23700
C  15.54000 51.60100 29.73100
C  14.51100 50.54500 31.76900
C  18.23200 51.52800 32.04600
C  18.32900 51.44900 33.60300
H  17.30500 50.67500 34.42400
N  14.75200 52.05600 26.78500
C  14.05700 52.54400 27.84800
C  12.89200 53.32900 27.36700
C  12.91400 53.27600 25.93700
C  14.09100 52.42600 25.63700
C  11.92500 54.04800 28.28900
C  12.01100 54.10200 24.94700
O  12.20600 54.08700 23.79300
C  10.97600 54.93200 25.49200
N  16.76400 50.90300 24.74200
C  15.78000 51.41800 23.97300
C  16.02300 51.12100 22.42800
C  17.50900 50.57300 22.51100
C  17.72600 50.29100 23.96000
C  14.89600 50.15900 21.98800
C  18.54200 51.68000 21.88600
C  19.40900 52.66400 22.83800
N  18.32600 49.83000 26.86500
C  19.15400 49.39500 25.78700
C  20.32200 48.65400 26.39300
C  20.10700 48.75500 27.80200
C  18.92100 49.46000 28.04000
C  21.36500 47.88200 25.61900
C  20.55800 48.21000 29.03400
O  21.45700 47.43800 29.33000
C  19.71100 48.95800 30.21800
C  19.22800 48.01000 31.21000
O  18.23500 47.32000 31.10800
O  20.05200 47.99700 32.35500
C  19.58700 47.01800 33.35500
H  13.70400 52.60100 29.86600
H  14.08900 52.34700 23.45300
H  19.56500 49.35900 23.63700
H  17.25500 49.67000 31.71700
H  15.76200 52.33100 31.72000
H  14.67500 49.50500 32.05000
H  13.70300 50.48900 31.04000
H  14.09900 51.16000 32.56900
H  17.88500 52.52700 31.78100
H  19.19100 51.23800 31.61700
H  18.45800 52.39900 34.12200
H  19.26500 50.91700 33.76800
H  11.88300 55.13300 28.20200
H  12.18300 53.89800 29.33800
H  10.90200 53.68000 28.21000
H  10.13600 54.37900 25.91200
H  10.53700 55.43800 24.63200
H  11.43300 55.66900 26.15300
H  16.00600 52.03500 21.83300
H  17.62000 49.68000 21.89600
H  14.05700 50.14900 22.68300
H  15.40000 49.19400 21.93300
H  14.48300 50.57900 21.07100
H  18.13600 52.35300 21.13000
H  19.27200 51.02900 21.40400
H  18.91700 52.90200 23.78100
H  19.63000 53.57500 22.28100
H  20.33300 52.09100 22.90900
H  22.07700 47.63200 26.40500
H  21.82500 48.53500 24.87600
H  20.95200 46.96300 25.20400
H  20.42400 49.57900 30.76100
H  19.75100 45.98900 33.03700
H  18.57600 47.09200 33.75700
H  20.11500 47.23000 34.28500

