158

Mg 48.45400 45.13900 43.83400
C  45.29300 45.73000 42.31700
C  48.51200 41.99200 42.40300
C  51.80800 45.05800 44.45400
C  48.48600 48.55500 44.79700
N  47.05000 44.08200 42.42100
C  45.83200 44.46800 42.09400
C  45.08400 43.26400 41.47900
C  46.04300 42.00200 41.65800
C  47.28900 42.72500 42.20700
C  45.52900 40.85800 42.65800
C  44.67800 43.50000 39.96800
C  43.67000 42.45500 39.45400
H  44.06700 41.73400 38.12800
N  49.97500 43.69800 43.54200
C  49.73000 42.46400 42.92800
C  50.97700 41.83700 42.91200
C  51.96500 42.56400 43.65400
C  51.29600 43.81900 43.92200
C  51.14100 40.48000 42.25500
C  53.40600 42.13900 43.94000
O  53.94900 41.22600 43.32300
C  54.26600 42.84000 44.88100
N  50.00700 46.71600 44.37400
C  51.26000 46.27400 44.72400
C  52.14400 47.47700 45.10600
C  51.07200 48.54200 45.45400
C  49.75100 47.93800 44.83700
C  53.11700 47.17700 46.31000
C  51.41500 49.95600 44.89300
C  51.22500 51.00900 46.03000
N  47.17200 46.80500 43.75200
C  47.30300 48.04000 44.24900
C  46.01500 48.77100 44.06900
C  45.22800 47.84100 43.36600
C  45.99100 46.68700 43.09300
C  45.68300 50.15300 44.63500
C  43.89000 47.65000 42.64000
O  43.00800 48.45400 42.52100
C  43.90700 46.18500 41.94400
C  42.75800 45.40000 42.43000
O  42.64200 45.13300 43.63300
O  41.90000 45.05000 41.43300
C  40.75500 44.23400 41.87200
H  48.47000 40.91300 42.24200
H  52.89600 45.07400 44.54800
H  48.47000 49.60000 45.11600
H  44.16200 43.05800 42.02300
H  46.26100 41.53000 40.70000
H  46.34800 40.52500 43.29700
H  45.21100 40.12400 41.91800
H  44.64000 41.24000 43.16000
H  45.53600 43.27900 39.33400
H  44.46900 44.51200 39.62000
H  42.71000 42.95500 39.32100
H  43.54700 41.72500 40.25400
H  52.08300 40.53200 41.70900
H  50.36700 40.17300 41.55200
H  51.20700 39.76300 43.07300
H  53.81400 42.89600 45.87200
H  54.49100 43.78100 44.37900
H  55.20400 42.31900 45.07400
H  52.64200 47.68800 44.16000
H  50.92100 48.63800 46.53000
H  53.19300 48.05200 46.95600
H  54.13700 46.98800 45.97500
H  52.77200 46.29500 46.85000
H  50.82900 50.10100 43.98600
H  52.45200 50.04900 44.56900
H  50.17300 51.23700 46.20200
H  51.78400 51.93900 45.92800
H  51.48300 50.64400 47.02400
H  46.63400 50.68400 44.67700
H  45.13900 50.02100 45.57000
H  45.09800 50.73800 43.92500
H  43.70400 46.50400 40.92200
H  40.96700 43.50600 42.65600
H  40.41100 43.57000 41.07900
H  40.02400 44.93000 42.28400
Mg -10.33000 17.45200 41.58700
C  -6.75800 17.43100 41.63800
C  -9.94700 20.84500 40.83900
C  -13.50000 17.43000 40.61500
C  -10.25300 13.99600 41.80200
N  -8.55200 18.83700 41.18700
C  -7.23700 18.60900 41.17200
C  -6.37900 19.79900 40.80500
C  -7.47000 20.89800 41.04500
C  -8.77500 20.12200 41.08600
C  -7.25900 21.80700 42.29200
C  -5.92900 19.54000 39.33500
C  -4.48800 19.05600 39.04900
H  -4.33800 17.57000 38.60300
N  -11.56000 18.92600 40.81800
C  -11.21300 20.23400 40.68000
C  -12.44300 21.00300 40.39400
C  -13.45300 20.06000 40.14100
C  -12.87600 18.70500 40.49300
C  -12.50600 22.54900 40.16200
C  -14.82000 20.43400 39.65000
O  -15.10900 21.59400 39.36300
C  -15.88600 19.39000 39.63400
N  -11.73200 15.91200 41.21600
C  -12.97400 16.19800 40.83000
C  -13.70300 14.85700 40.53700
C  -12.72000 13.74700 41.03500
C  -11.49200 14.57600 41.37100
C  -15.16600 14.81400 41.02300
C  -12.48700 12.55100 40.06700
C  -13.26000 11.28300 40.34200
N  -8.88800 16.00100 41.93300
C  -9.03200 14.64900 42.04900
C  -7.78500 14.06000 42.29600
C  -6.85200 15.16800 42.27200
C  -7.58700 16.29200 41.95100
C  -7.43000 12.66200 42.49400
C  -5.48600 15.49100 42.40500
O  -4.49400 14.73000 42.55100
C  -5.37400 17.00100 42.09200
C  -4.92900 17.79000 43.29600
O  -5.63100 18.47200 44.07800
O  -3.54300 17.84000 43.30200
C  -2.94700 18.58700 44.43000
H  -9.86000 21.91800 40.65700
H  -14.53100 17.58900 40.29000
H  -10.14700 12.91200 41.87700
H  -5.56300 19.90700 41.51900
H  -7.47000 21.54900 40.17100
H  -8.13400 21.94000 42.92800
H  -6.94700 22.79700 41.96200
H  -6.45500 21.42600 42.92200
H  -6.15100 20.45000 38.77700
H  -6.62600 18.79200 38.95800
H  -3.94000 19.24900 39.97200
H  -4.07800 19.74900 38.31400
H  -13.50600 22.93100 40.36600
H  -12.40200 22.72900 39.09200
H  -11.81400 23.19200 40.70600
H  -16.75100 19.90500 39.21700
H  -16.00000 18.88800 40.59500
H  -15.57000 18.62300 38.92700
H  -13.71400 14.83900 39.44800
H  -13.08400 13.32600 41.97200
H  -15.71900 14.58300 40.11300
H  -15.55000 15.74100 41.44900
H  -15.23600 13.99200 41.73600
H  -11.42900 12.30200 40.14400
H  -12.65700 13.00000 39.08800
H  -12.81900 11.00900 41.30000
H  -13.02900 10.56800 39.55200
H  -14.33100 11.46900 40.42400
H  -7.01600 12.28300 41.56000
H  -8.28900 12.04800 42.76400
H  -6.74000 12.47200 43.31600
H  -4.66200 17.19700 41.29000
H  -1.86100 18.58000 44.33700
H  -3.25700 18.15100 45.37900
H  -3.21900 19.63100 44.27400

