158

Mg 16.95500 -0.88900 28.66200
C  15.70500 0.86000 31.48800
C  19.04600 -2.54300 30.80700
C  18.57800 -2.04700 26.01000
C  14.86100 0.98200 26.73300
N  17.31400 -0.88600 30.89900
C  16.66600 -0.13200 31.83700
C  17.05300 -0.53700 33.27600
C  18.40100 -1.35300 32.96800
C  18.19800 -1.70500 31.47600
C  19.81000 -0.68500 33.29600
C  15.87600 -1.22800 34.06200
C  15.69600 -0.93800 35.58000
H  16.94600 -0.49000 36.32000
N  18.53800 -2.24500 28.45000
C  19.20900 -2.89600 29.45100
C  20.13600 -3.90400 28.87000
C  19.87200 -3.83000 27.43400
C  19.01300 -2.62600 27.25000
C  20.88300 -4.93800 29.70400
C  20.36000 -4.77000 26.36000
O  20.17700 -4.67500 25.15400
C  21.13500 -6.01600 26.69400
N  16.78900 -0.51300 26.68400
C  17.58800 -1.12100 25.71100
C  17.18400 -0.76200 24.33800
C  15.99900 0.26200 24.63000
C  15.76200 0.21900 26.09000
C  18.33300 -0.18900 23.51700
C  14.68800 0.01300 23.74100
C  13.65700 -1.02400 24.18600
N  15.61900 0.68500 28.97700
C  14.75100 1.25000 28.07600
C  13.76800 2.12000 28.71800
C  14.12300 1.93400 30.08700
C  15.23700 1.09600 30.20600
C  12.60700 2.79000 28.11400
C  13.75500 2.37300 31.35100
O  12.90300 3.15700 31.74900
C  14.81600 1.73100 32.32400
C  15.65000 2.76100 33.04900
O  16.36700 3.62900 32.49400
O  15.59700 2.62800 34.46200
C  16.52300 3.52400 35.23900
H  19.57600 -3.17300 31.52600
H  18.95300 -2.46600 25.07400
H  14.11900 1.46100 26.09000
H  17.28100 0.44500 33.69100
H  18.45600 -2.31100 33.48400
H  19.64900 0.09300 34.04300
H  20.10500 -0.27700 32.32900
H  20.57800 -1.35400 33.68300
H  16.13900 -2.28600 34.06700
H  15.02600 -1.01900 33.41300
H  15.42400 -1.88400 36.05000
H  14.79700 -0.36100 35.79600
H  21.87800 -5.09200 29.28700
H  20.30200 -5.86000 29.67100
H  21.05300 -4.59500 30.72500
H  21.47500 -6.52900 25.79500
H  20.41100 -6.63200 27.22700
H  22.03300 -5.64600 27.18800
H  16.87900 -1.70200 23.87900
H  16.28100 1.28800 24.39400
H  17.92800 -0.09500 22.50900
H  19.16000 -0.89500 23.58700
H  18.53200 0.77700 23.98200
H  14.82800 -0.23200 22.68800
H  14.20500 0.98600 23.64900
H  12.75500 -0.55900 24.58300
H  14.01400 -1.60200 25.03900
H  13.55800 -1.72200 23.35500
H  11.96900 3.22500 28.88300
H  12.15900 2.06600 27.43400
H  12.90000 3.60500 27.45200
H  14.18300 1.13700 32.98300
H  16.71400 3.16700 36.25100
H  16.23200 4.57500 35.25600
H  17.49400 3.39000 34.76100
Mg 46.96200 16.57000 27.98300
C  45.45300 16.14400 31.10200
C  49.36900 18.56800 29.47200
C  48.20400 17.20800 24.91100
C  44.21700 15.07900 26.54200
N  47.40100 17.20500 30.05300
C  46.66300 16.86700 31.17100
C  47.34900 17.27300 32.45400
C  48.42200 18.27500 31.90800
C  48.42800 18.03400 30.39000
C  48.19700 19.81900 32.26400
C  47.93200 16.14900 33.35400
C  47.38200 16.05300 34.80000
H  46.96300 17.38900 35.45400
N  48.67200 17.64000 27.31800
C  49.42900 18.47400 28.06800
C  50.49200 19.01400 27.22100
C  50.25400 18.48600 25.92600
C  49.02800 17.71500 25.98500
C  51.48100 19.94500 27.68000
C  51.04900 18.81800 24.67900
O  50.71900 18.26900 23.60000
C  52.20900 19.81100 24.67800
N  46.18100 16.33900 25.94500
C  47.03800 16.52900 24.85600
C  46.38900 16.13200 23.58400
C  45.17100 15.24900 24.08800
C  45.19200 15.51600 25.60600
C  46.07400 17.32000 22.67300
C  45.28900 13.73600 23.74600
C  45.84000 12.82100 24.81500
N  45.15900 15.80100 28.64600
C  44.13900 15.21900 27.93100
C  43.09800 14.82700 28.79700
C  43.58500 15.13300 30.07800
C  44.82400 15.75800 29.91300
C  41.94100 14.01900 28.36900
C  43.22400 14.98000 31.49500
O  42.25600 14.47400 32.05000
C  44.53800 15.63100 32.23400
C  44.10000 16.81500 33.07400
O  44.08100 18.00100 32.76500
O  43.49100 16.30800 34.21600
C  42.55100 17.22600 34.79400
H  50.08100 19.26500 29.91800
H  48.58900 17.34000 23.89800
H  43.43000 14.47700 26.08300
H  46.73100 17.87700 33.11700
H  49.33700 17.95900 32.41000
H  47.70400 19.89300 33.23300
H  47.62000 20.22100 31.43100
H  49.19200 20.25500 32.35200
H  49.02200 16.16000 33.36400
H  47.48900 15.30400 32.82700
H  48.11000 15.48600 35.38000
H  46.50800 15.43600 35.00500
H  51.31100 20.89300 27.17000
H  52.44800 19.48600 27.47700
H  51.44600 20.31000 28.70700
H  52.65900 19.90000 23.68900
H  52.94800 19.44600 25.39100
H  51.78500 20.75600 25.01900
H  47.07400 15.52600 22.99100
H  44.22300 15.55200 23.64200
H  46.27700 18.23800 23.22600
H  44.99600 17.33700 22.51300
H  46.52300 17.46800 21.69100
H  45.80000 13.62100 22.79000
H  44.27400 13.37200 23.58500
H  46.57900 12.09000 24.48700
H  45.01700 12.23300 25.22000
H  46.28400 13.39000 25.63200
H  41.33800 13.77600 29.24400
H  42.31500 13.17400 27.79000
H  41.35000 14.58300 27.64700
H  45.01100 14.88700 32.87500
H  41.79100 17.59300 34.10400
H  43.00500 18.06200 35.32600
H  42.02800 16.61100 35.52600

