158

Mg 24.43300 -5.37400 46.06000
C  26.42100 -2.83700 44.61000
C  21.92800 -4.31500 43.99900
C  22.94800 -8.22700 46.65500
C  27.34000 -6.37500 47.75300
N  24.37400 -3.77900 44.51300
C  25.20000 -2.79800 44.08700
C  24.51800 -1.90200 43.03900
C  23.02900 -2.14900 43.43100
C  23.09200 -3.51200 43.97800
C  22.33500 -1.19200 44.42000
C  24.80700 -2.36600 41.54800
C  25.51700 -1.40600 40.66500
H  26.27900 -2.06400 39.45400
N  22.74400 -6.18800 45.44300
C  21.80400 -5.55700 44.63900
C  20.60800 -6.39800 44.61700
C  20.83300 -7.60300 45.37000
C  22.20900 -7.39300 45.87600
C  19.40800 -6.15000 43.67800
C  19.86500 -8.75100 45.46300
O  18.75800 -8.78800 44.90800
C  20.34200 -10.05900 46.11500
N  25.07100 -7.08600 47.15100
C  24.23700 -8.15600 47.15900
C  24.99300 -9.39100 47.66800
C  26.34300 -8.75400 48.24600
C  26.25300 -7.30700 47.73900
C  24.17500 -10.32800 48.68400
C  27.55300 -9.60100 47.96100
C  28.45400 -9.94100 49.21400
N  26.45100 -4.69400 46.35100
C  27.46100 -5.16300 47.10600
C  28.66000 -4.30200 46.91700
C  28.24400 -3.38300 45.96300
C  26.88900 -3.64900 45.60200
C  30.02700 -4.40800 47.68600
C  28.71400 -2.31600 45.16600
O  29.81500 -1.88700 45.06200
C  27.57900 -1.92400 44.24500
C  27.31600 -0.50700 44.33200
O  27.76600 0.27100 43.55200
O  26.59100 -0.21000 45.46200
C  26.47000 1.18900 45.79300
H  21.06800 -4.06600 43.37500
H  22.51200 -9.22700 46.70400
H  28.22600 -6.55500 48.36700
H  24.84700 -0.89700 43.30200
H  22.42200 -2.12200 42.52600
H  22.28300 -1.59000 45.43300
H  21.35900 -1.00300 43.97200
H  22.92100 -0.27900 44.52500
H  23.83400 -2.58200 41.10800
H  25.27200 -3.34800 41.62900
H  26.29400 -0.93200 41.26500
H  24.70800 -0.83000 40.21600
H  19.52900 -6.76200 42.78400
H  19.30800 -5.09800 43.41100
H  18.48200 -6.35800 44.21400
H  21.11100 -10.37200 45.41000
H  19.52600 -10.78000 46.05500
H  20.67300 -9.92100 47.14400
H  25.10400 -10.06400 46.81700
H  26.30200 -8.52900 49.31200
H  23.24700 -10.47500 48.13100
H  23.88900 -9.91100 49.64900
H  24.83300 -11.19700 48.71200
H  28.17500 -9.00400 47.29400
H  27.34000 -10.50700 47.39400
H  29.50900 -10.12900 49.01800
H  28.09000 -10.73800 49.86200
H  28.40300 -8.97200 49.71000
H  30.18000 -5.47000 47.88000
H  29.92300 -3.85800 48.62100
H  30.88900 -3.96300 47.18900
H  27.88000 -2.12200 43.21600
H  26.19400 1.31000 46.84100
H  25.64000 1.65900 45.26600
H  27.38600 1.75900 45.63500
Mg 40.37700 8.57200 28.93800
C  42.48200 9.80400 31.56100
C  38.38400 7.05200 31.40300
C  38.52900 7.44100 26.48800
C  42.83700 9.66000 26.57100
N  40.48500 8.42300 31.16400
C  41.35900 9.13500 32.01700
C  40.87600 9.02200 33.51800
C  39.75200 7.86200 33.40100
C  39.51200 7.71200 31.91600
C  39.96300 6.58000 34.16800
C  40.28200 10.42300 34.02500
C  41.07900 11.12100 35.15700
H  40.42300 11.94900 36.22600
N  38.71200 7.35900 28.91200
C  37.96900 6.85500 30.00000
C  36.82300 6.10000 29.51400
C  36.84100 6.20400 28.03500
C  38.04400 7.06700 27.76200
C  35.72500 5.48100 30.36300
C  35.97100 5.54700 27.01300
O  36.01000 5.76700 25.82300
C  34.95400 4.44700 27.34600
N  40.69100 8.48700 26.80900
C  39.71100 8.09300 26.02600
C  40.08400 8.30200 24.53100
C  41.37600 9.05000 24.60000
C  41.65900 9.08600 26.05300
C  40.09400 7.05900 23.59700
C  41.42500 10.37900 23.91900
C  40.76500 11.58500 24.53900
N  42.26300 9.54900 28.97900
C  43.12700 9.84800 27.96100
C  44.28300 10.49200 28.52000
C  44.00400 10.54500 29.92200
C  42.83100 9.92100 30.18200
C  45.59700 10.76300 27.92300
C  44.61000 10.84100 31.18600
O  45.72700 11.27700 31.39600
C  43.60000 10.49300 32.28800
C  44.30500 9.69000 33.31900
O  44.85300 8.60600 33.14000
O  44.34100 10.32000 34.55200
C  44.79100 9.38700 35.59100
H  37.72700 6.70300 32.20300
H  37.88800 7.09700 25.67400
H  43.63700 9.95200 25.88700
H  41.65800 8.73000 34.22000
H  38.82800 8.30800 33.76800
H  39.14700 6.30600 34.83600
H  40.85600 6.75000 34.76900
H  40.04000 5.66900 33.57400
H  39.25200 10.44500 34.37900
H  40.27900 11.05200 33.13400
H  41.77800 11.86000 34.76600
H  41.63900 10.28000 35.56600
H  34.76000 5.96800 30.21800
H  35.80300 5.64300 31.43800
H  35.76900 4.44600 30.02500
H  35.39400 3.73700 28.04600
H  34.78200 3.96600 26.38300
H  34.06700 4.86900 27.81700
H  39.26700 8.87700 24.09500
H  42.14400 8.41100 24.16400
H  40.72600 7.38800 22.77200
H  39.12600 6.79000 23.17400
H  40.53900 6.16600 24.03700
H  40.99100 10.23800 22.92900
H  42.48600 10.62700 23.89000
H  41.40500 12.45000 24.36600
H  40.42600 11.56200 25.57500
H  39.86200 11.83400 23.98100
H  46.41700 10.27500 28.45000
H  45.75600 11.84100 27.93200
H  45.80200 10.74400 26.85300
H  43.38000 11.48900 32.67100
H  44.11400 8.55000 35.76100
H  44.78400 10.00700 36.48800
H  45.75700 8.91500 35.41200

