158

Mg 17.18400 -1.33800 27.25500
C  16.26500 0.98500 29.62900
C  19.21000 -2.78000 29.61700
C  18.47600 -3.42000 24.79300
C  15.71000 0.59200 24.76300
N  17.80300 -0.84700 29.30700
C  17.13900 0.02600 30.20100
C  17.57600 -0.15700 31.62300
C  18.73100 -1.24000 31.49400
C  18.55700 -1.69000 30.02500
C  20.20700 -0.83300 31.90400
C  16.46200 -0.54700 32.58600
C  16.71600 -0.91700 34.06700
H  17.99400 -0.43200 34.76500
N  18.53300 -2.99100 27.25100
C  19.22500 -3.44300 28.33300
C  19.98700 -4.58600 27.87900
C  19.76400 -4.79500 26.51900
C  18.90800 -3.73100 26.10000
C  20.78800 -5.39100 28.93900
C  20.34000 -5.86300 25.56500
O  20.06800 -5.88800 24.34100
C  21.32800 -6.91900 26.06700
N  17.07100 -1.37800 25.09900
C  17.68100 -2.37500 24.36600
C  17.35700 -2.06300 22.88500
C  16.38100 -0.93500 22.87200
C  16.35900 -0.54700 24.33800
C  18.63800 -1.66000 22.10400
C  14.92800 -1.32900 22.43700
C  14.58600 -0.97800 20.94800
N  16.14700 0.43300 27.11800
C  15.61500 1.08900 26.07200
C  14.89500 2.20400 26.60200
C  15.09500 2.17600 28.02700
C  15.92200 1.10700 28.27100
C  14.09700 3.19700 25.76500
C  14.88400 2.91000 29.28700
O  14.23600 3.91200 29.47800
C  15.58900 2.11600 30.43600
C  16.46100 3.12000 31.14600
O  17.41000 3.70600 30.67900
O  15.95900 3.18900 32.48200
C  16.74100 4.11400 33.28800
H  19.78100 -3.15400 30.46900
H  18.87100 -4.14000 24.07300
H  15.28900 1.16800 23.93600
H  17.98900 0.76200 32.03700
H  18.49500 -2.11900 32.09400
H  20.12700 -0.03300 32.64000
H  20.73000 -0.49900 31.00800
H  20.79200 -1.60900 32.39800
H  15.95000 -1.34400 32.04600
H  15.74500 0.27200 32.64100
H  16.67600 -2.00300 34.14300
H  15.80600 -0.61400 34.58400
H  21.85100 -5.36500 28.70000
H  20.33700 -6.37200 28.78900
H  20.50200 -4.97700 29.90600
H  21.42500 -7.62500 25.24200
H  20.91300 -7.57100 26.83500
H  22.20100 -6.47500 26.54500
H  17.00400 -2.98500 22.42400
H  16.85500 -0.13800 22.30000
H  19.21100 -1.03700 22.79200
H  18.37000 -1.10200 21.20700
H  19.26400 -2.53100 21.91100
H  14.13600 -0.99100 23.10600
H  14.87300 -2.41600 22.50200
H  13.84900 -0.17700 21.00000
H  14.32500 -1.87300 20.38400
H  15.45000 -0.41500 20.59400
H  14.75200 3.89200 25.23800
H  13.56300 3.87400 26.43100
H  13.47800 2.65600 25.04900
H  14.93900 1.62400 31.15900
H  16.60700 5.15000 32.97700
H  17.76400 3.82800 33.04600
H  16.53700 3.96400 34.34800
Mg 54.60300 24.25400 44.73400
C  51.98100 26.31700 43.53500
C  52.97000 21.65400 43.42800
C  57.49800 22.51400 44.86800
C  56.25600 27.11400 45.88600
N  52.86400 24.13500 43.29200
C  51.86300 25.04100 43.00600
C  50.77900 24.40400 42.12300
C  50.87700 22.90000 42.52900
C  52.35300 22.88000 43.08200
C  49.94900 22.41600 43.62000
C  51.14600 24.67800 40.60500
C  49.93400 24.58000 39.79400
H  50.19500 25.07700 38.32300
N  55.14700 22.38300 44.18800
C  54.33400 21.38500 43.67200
C  55.01100 20.14800 43.63100
C  56.33500 20.37600 43.95200
C  56.39600 21.83700 44.35000
C  54.21500 18.85400 43.29900
C  57.35200 19.28100 44.05500
O  57.11800 18.09500 43.91300
C  58.71700 19.51600 44.50700
N  56.64600 24.73900 45.06400
C  57.64700 23.88400 45.20100
C  58.96600 24.41400 45.69500
C  58.52600 26.00500 45.79200
C  57.03000 25.94900 45.57500
C  59.51400 23.73100 46.94900
C  59.26700 27.05900 44.86400
C  58.55300 27.38200 43.50400
N  54.17800 26.25500 44.93900
C  54.89800 27.27800 45.51200
C  54.02000 28.42800 45.62600
C  52.84200 28.03700 44.86300
C  53.06600 26.74300 44.48700
C  54.33000 29.73600 46.29800
C  51.54100 28.51300 44.37900
O  50.92700 29.59800 44.49400
C  50.95700 27.39300 43.54500
C  50.42200 27.93500 42.25800
O  51.10300 28.44100 41.39900
O  49.10300 27.71800 42.19700
C  48.49000 27.98700 40.88700
H  52.28800 20.92300 42.98900
H  58.26200 21.78800 45.15200
H  56.69400 28.07100 46.17800
H  49.75800 24.73400 42.31000
H  50.81800 22.14100 41.74800
H  49.33400 23.18500 44.08700
H  50.39200 21.88400 44.46200
H  49.29800 21.75300 43.05000
H  51.76200 23.84500 40.26800
H  51.76300 25.54600 40.37100
H  49.10000 25.17000 40.17500
H  49.59300 23.55300 39.66200
H  54.23300 18.01700 43.99700
H  54.82500 18.53200 42.45500
H  53.24200 19.05700 42.85100
H  58.83000 19.86300 45.53400
H  59.10700 20.24500 43.79600
H  59.31200 18.61700 44.34600
H  59.75200 24.28700 44.95100
H  58.59200 26.43000 46.79400
H  59.81100 24.45400 47.71000
H  60.31900 23.02600 46.74500
H  58.73900 23.19100 47.49300
H  60.26900 26.70500 44.62300
H  59.50400 27.96000 45.43000
H  58.05700 28.34800 43.41300
H  57.73300 26.69900 43.28300
H  59.44700 27.30700 42.88500
H  54.46100 29.63800 47.37500
H  53.51700 30.44700 46.14800
H  55.24400 30.14600 45.86800
H  50.06400 26.96300 43.99800
H  49.12700 27.73700 40.03800
H  47.92700 28.90400 40.71500
H  47.59600 27.38800 40.71800

