158

Mg 45.23000 3.47100 47.25800
C  42.88100 5.89000 46.64900
C  42.89300 1.03700 46.71100
C  47.73900 1.23300 46.99800
C  47.60900 6.04200 47.67300
N  43.16100 3.50000 46.65500
C  42.33500 4.57900 46.45900
C  40.83200 4.19400 46.13300
C  40.90000 2.64000 46.53300
C  42.41300 2.34800 46.59300
C  40.16200 2.27800 47.80100
C  40.47900 4.60300 44.72300
C  39.22300 5.54900 44.57600
H  38.51200 5.50400 43.20400
N  45.32500 1.46100 47.03700
C  44.22500 0.56200 46.91100
C  44.58500 -0.77400 46.71900
C  46.02000 -0.69800 46.68500
C  46.42400 0.72700 46.87600
C  43.62400 -1.99900 46.66200
C  46.85300 -1.89800 46.54600
O  46.33400 -2.97500 46.42600
C  48.34400 -1.81200 46.37200
N  47.39800 3.63400 47.26200
C  48.17000 2.55200 47.21000
C  49.65900 2.85900 47.44700
C  49.63200 4.46900 47.66200
C  48.16800 4.75000 47.48700
C  50.33300 1.87700 48.52200
C  50.38500 5.34000 46.69100
C  51.89400 5.11500 46.46300
N  45.27700 5.58900 47.20300
C  46.27000 6.45700 47.50200
C  45.78900 7.86100 47.54200
C  44.43300 7.67100 47.20900
C  44.19200 6.22900 46.97500
C  46.68300 9.11100 47.72800
C  43.12200 8.27100 46.87000
O  42.79100 9.44300 46.75500
C  42.10200 7.13100 46.61400
C  41.01200 7.23500 47.67100
O  41.18100 6.91300 48.80300
O  39.89900 7.82400 47.14800
C  38.78200 7.83800 48.11700
H  42.19500 0.20400 46.60800
H  48.59900 0.56200 47.03600
H  48.36600 6.75000 48.01700
H  40.20800 4.65000 46.90200
H  40.58000 1.95400 45.74800
H  39.32200 2.93000 48.04000
H  40.93300 2.32800 48.57000
H  39.82600 1.24400 47.88000
H  40.28300 3.72800 44.10400
H  41.27300 5.07200 44.14100
H  39.68900 6.52600 44.70600
H  38.60800 5.46000 45.47100
H  44.00100 -2.90500 47.13600
H  43.31900 -2.13200 45.62400
H  42.71100 -1.82800 47.23300
H  48.74700 -1.54700 47.35000
H  48.42100 -1.11500 45.53800
H  48.72400 -2.74500 45.95500
H  50.20700 2.77500 46.50900
H  49.86300 4.72000 48.69800
H  49.68400 1.30900 49.18900
H  51.06600 2.41000 49.12600
H  50.78600 1.13900 47.86000
H  50.30400 6.31700 47.16700
H  49.81200 5.24900 45.76800
H  52.18000 5.17000 45.41300
H  52.20300 4.09100 46.67700
H  52.54500 5.84500 46.94400
H  46.13700 9.96700 47.33000
H  47.60800 8.99500 47.16400
H  47.02400 9.27700 48.75000
H  41.56900 7.42200 45.70900
H  39.10800 8.33100 49.03200
H  38.49300 6.84300 48.45700
H  37.91800 8.33600 47.67600
Mg -11.53300 16.40700 42.40500
C  -8.14400 16.57400 41.63200
C  -11.90200 19.68000 41.50700
C  -14.90900 15.88900 42.67400
C  -10.99100 12.84500 43.10800
N  -10.17000 17.91000 41.36700
C  -8.83600 17.78500 41.41200
C  -8.21300 19.26100 41.21300
C  -9.35700 20.19600 41.56300
C  -10.58200 19.18800 41.60600
C  -9.05800 21.20600 42.81000
C  -7.62100 19.50500 39.74700
C  -6.08500 19.84600 39.61300
H  -5.27400 19.00800 38.54100
N  -13.18500 17.59900 42.09000
C  -13.13500 18.90300 41.76900
C  -14.45900 19.42200 41.70700
C  -15.37900 18.33700 41.96200
C  -14.51900 17.21600 42.27200
C  -14.77600 20.88900 41.33900
C  -16.85200 18.42900 42.02000
O  -17.30800 19.50700 41.67100
C  -17.76600 17.33800 42.41600
N  -12.79500 14.63500 42.90800
C  -14.13900 14.72000 43.03300
C  -14.74300 13.40500 43.49300
C  -13.48900 12.46200 43.53600
C  -12.36800 13.35700 43.11900
C  -15.29300 13.52000 44.96700
C  -13.59600 11.17200 42.64000
C  -13.66600 11.37800 41.16400
N  -9.94800 14.93200 42.31400
C  -9.89600 13.62100 42.70400
C  -8.47800 13.22100 42.72500
C  -7.78300 14.32900 42.26300
C  -8.72900 15.35100 42.01900
C  -7.84200 11.83900 42.98200
C  -6.47300 14.82000 41.92900
O  -5.42300 14.22100 41.87900
C  -6.68100 16.27800 41.50300
C  -5.81300 17.08600 42.33600
O  -6.02000 17.40900 43.45100
O  -4.78200 17.53600 41.61600
C  -3.86400 18.48500 42.42400
H  -12.01600 20.76500 41.55400
H  -15.99100 15.74100 42.70000
H  -10.81100 11.78800 43.31300
H  -7.43000 19.37100 41.96300
H  -9.60500 20.90000 40.76800
H  -8.00800 21.09800 43.08100
H  -9.59400 20.74500 43.64000
H  -9.47100 22.19700 42.62500
H  -8.25700 20.16100 39.15200
H  -7.75800 18.59800 39.15900
H  -5.51300 19.76500 40.53800
H  -6.10000 20.92100 39.43200
H  -15.11500 21.39400 42.24400
H  -15.49100 20.71000 40.53600
H  -13.92700 21.38400 40.87000
H  -18.74800 17.76800 42.61600
H  -17.36300 17.02400 43.37900
H  -17.79100 16.57900 41.63400
H  -15.50500 13.13500 42.76100
H  -13.24300 12.10900 44.53700
H  -15.19800 12.57200 45.49600
H  -16.30400 13.90500 44.83800
H  -14.75300 14.33000 45.45800
H  -14.45700 10.57900 42.94800
H  -12.67900 10.65300 42.92100
H  -12.84200 10.96500 40.58300
H  -13.74900 12.43900 40.92700
H  -14.63200 10.98900 40.84500
H  -6.80000 11.96600 43.27400
H  -7.87900 11.39100 41.98900
H  -8.46300 11.29400 43.69200
H  -6.43000 16.33000 40.44400
H  -4.36000 19.23400 43.04100
H  -3.30500 19.04800 41.67800
H  -3.20100 17.98100 43.12800

