158

Mg 9.30100 3.95900 27.17000
C  10.33700 2.36800 30.03100
C  7.19200 5.85100 29.00600
C  7.89600 4.91400 24.30000
C  10.46200 1.01700 25.31500
N  8.65300 3.99600 29.29100
C  9.43700 3.43900 30.24800
C  9.09200 4.00800 31.61100
C  7.84400 4.95100 31.35900
C  7.89400 5.03200 29.82400
C  6.45700 4.48500 31.93900
C  10.36200 4.51100 32.33000
C  10.06300 5.26000 33.60500
H  11.14600 5.29400 34.68200
N  7.79600 5.29500 26.71300
C  6.98600 5.98100 27.62500
C  6.20300 6.94800 26.84300
C  6.50600 6.76300 25.50400
C  7.46500 5.57900 25.43200
C  5.22200 7.95200 27.48900
C  6.00300 7.54900 24.25700
O  6.49200 7.37000 23.17300
C  4.88200 8.55900 24.49100
N  9.19600 2.97800 25.07500
C  8.56600 3.70500 24.11000
C  8.88400 3.13900 22.72900
C  9.62300 1.85700 23.01000
C  9.81900 1.89800 24.52800
C  7.76100 3.22500 21.64700
C  10.88200 1.46200 22.25200
C  10.99300 0.07800 21.47700
N  10.30900 2.20100 27.56600
C  10.72500 1.18200 26.69400
C  11.46900 0.17900 27.46300
C  11.42500 0.65100 28.76900
C  10.62500 1.84200 28.79800
C  12.20700 -1.03000 26.89400
C  11.87300 0.42100 30.09300
O  12.56700 -0.44400 30.60800
C  11.10700 1.46600 30.97500
C  10.14900 0.79400 31.88300
O  9.14600 0.15300 31.55200
O  10.70500 0.90600 33.21800
C  9.90500 0.41700 34.30600
H  6.54800 6.46900 29.63400
H  7.69400 5.34500 23.31700
H  10.85500 0.20000 24.70700
H  8.86500 3.15100 32.24500
H  8.10000 5.88500 31.85800
H  6.47500 3.46700 32.32800
H  5.74700 4.46000 31.11200
H  5.95300 5.08800 32.69400
H  11.09100 5.04800 31.72400
H  10.96600 3.64700 32.60600
H  9.23500 4.75900 34.10700
H  9.78300 6.26800 33.30100
H  4.23900 7.68300 27.10300
H  5.53600 8.93800 27.14600
H  5.30500 7.83000 28.56900
H  4.12300 8.16600 25.16800
H  4.34000 8.69900 23.55600
H  5.31200 9.47000 24.90800
H  9.65300 3.75000 22.25600
H  8.89900 1.04400 22.94200
H  6.88700 3.63100 22.15700
H  7.38400 2.29900 21.21400
H  8.06600 3.86900 20.82200
H  11.67700 1.47900 22.99700
H  11.24200 2.27000 21.61600
H  10.00000 -0.36500 21.41300
H  11.75900 -0.55200 21.93000
H  11.32500 0.19800 20.44600
H  13.29000 -0.97800 27.00200
H  12.02100 -1.13300 25.82500
H  11.84100 -1.90500 27.43300
H  11.81300 2.01000 31.60300
H  10.06700 1.04300 35.18400
H  10.41600 -0.45100 34.72300
H  8.84100 0.20900 34.19400
Mg 7.31500 53.39400 41.04800
C  6.99700 49.78500 40.72700
C  10.55500 53.03800 40.44200
C  7.41300 56.62400 40.95600
C  3.72100 53.52500 41.20900
N  8.54100 51.47900 40.65500
C  8.28000 50.16400 40.55000
C  9.58400 49.34700 40.49100
C  10.76200 50.42000 40.67700
C  9.93500 51.77500 40.59100
C  11.68800 50.15500 41.96200
C  9.68800 48.39300 39.22800
C  9.64100 49.13200 37.84600
H  8.39800 48.80600 36.99200
N  8.81300 54.68300 40.69200
C  10.10400 54.36400 40.35200
C  10.84200 55.54900 40.08500
C  9.99400 56.63100 40.38800
C  8.67700 56.06100 40.70300
C  12.29700 55.63600 39.71900
C  10.34400 58.16900 40.32500
O  11.47800 58.52300 39.92200
C  9.47400 59.21100 41.05200
N  5.79400 54.87200 41.00000
C  6.08300 56.13100 41.04500
C  4.79500 57.04300 41.20100
C  3.63100 56.03500 41.24900
C  4.41600 54.73300 41.10000
C  4.86700 57.99600 42.41100
C  2.54400 56.26500 40.25100
C  1.46500 57.28500 40.60200
N  5.68100 52.00200 41.03300
C  4.29500 52.20700 41.21200
C  3.64400 50.92500 41.41000
C  4.67800 50.01200 41.25400
C  5.88600 50.67000 40.91500
C  2.22300 50.74300 41.62100
C  4.93900 48.63000 41.34100
O  4.19600 47.74000 41.76500
C  6.41100 48.41700 40.87500
C  6.29600 47.62600 39.68200
O  5.97100 48.02900 38.57100
O  6.52700 46.32400 40.08900
C  6.37100 45.34000 38.99600
H  11.62300 52.85000 40.31700
H  7.31300 57.71200 40.94500
H  2.64400 53.51000 41.38700
H  9.51800 48.61900 41.29900
H  11.44800 50.36400 39.83200
H  11.27000 49.36800 42.58900
H  11.40000 51.00800 42.57600
H  12.74400 50.01400 41.73100
H  8.76600 47.81100 39.19700
H  10.54400 47.75900 39.45600
H  10.52400 48.74400 37.33800
H  9.84000 50.20300 37.81700
H  12.71200 54.63500 39.83600
H  12.83300 56.39700 40.28500
H  12.35900 55.86700 38.65500
H  8.62800 59.43700 40.40300
H  10.08500 60.10600 41.17500
H  9.31300 58.84300 42.06600
H  4.90600 57.54400 40.23900
H  3.24500 56.06600 42.26800
H  5.46600 57.56000 43.21000
H  3.85500 58.19200 42.76700
H  5.26500 58.93100 42.01700
H  2.13100 55.31200 39.91900
H  2.88300 56.72100 39.32100
H  2.03400 57.98500 41.21400
H  0.69900 56.81100 41.21700
H  1.04700 57.81500 39.74600
H  1.71200 51.67300 41.87400
H  1.92400 49.88600 42.22400
H  1.89500 50.50200 40.61000
H  6.86500 47.87800 41.70700
H  6.65900 44.38500 39.43700
H  7.12100 45.63600 38.26200
H  5.38900 45.22700 38.53800

