158

Mg 53.53400 24.66900 44.89500
C  50.88100 26.72500 43.85000
C  51.62900 21.94900 43.90300
C  56.32500 22.82500 45.00100
C  55.26400 27.60200 45.90700
N  51.60600 24.34400 43.89500
C  50.79200 25.37700 43.43800
C  49.64800 24.82700 42.61500
C  49.60000 23.32400 43.16800
C  51.02000 23.16700 43.83700
C  48.49700 23.04000 44.17800
C  50.00200 24.90000 41.14100
C  48.75100 25.07400 40.24300
H  49.14100 25.84900 38.92400
N  53.94100 22.67200 44.26700
C  52.99600 21.66900 44.10000
C  53.66100 20.43100 44.01200
C  55.02500 20.62100 44.31100
C  55.19400 22.13600 44.48600
C  52.92300 19.13800 43.66000
C  56.05300 19.51700 44.48200
O  55.73900 18.35600 44.21600
C  57.46700 19.83900 44.83400
N  55.52500 25.15500 45.47400
C  56.50100 24.20000 45.40300
C  57.86900 24.86700 45.80800
C  57.64400 26.37600 45.74400
C  56.06300 26.39900 45.72800
C  58.43800 24.35500 47.10500
C  58.27500 27.18500 44.49100
C  58.86200 28.56600 44.83600
N  53.00800 26.72100 45.13500
C  53.81300 27.75100 45.67300
C  53.08100 28.98400 45.58100
C  51.88700 28.61900 44.87200
C  52.00400 27.26000 44.51900
C  53.47300 30.31300 46.08700
C  50.62000 29.15000 44.32500
O  50.14300 30.23000 44.37000
C  50.00300 27.86500 43.50800
C  49.80400 28.26200 42.03600
O  50.71200 28.30300 41.25500
O  48.48900 28.64700 41.85400
C  48.23100 29.15100 40.49500
H  50.95300 21.09200 43.87100
H  57.26800 22.28700 45.12100
H  55.75600 28.56900 46.03000
H  48.64300 25.18400 42.84100
H  49.52100 22.59400 42.36400
H  47.95600 23.97300 44.33900
H  48.81100 22.73300 45.17600
H  47.83600 22.26100 43.79700
H  50.46900 23.95300 40.87100
H  50.74200 25.67600 40.94200
H  48.00600 25.62900 40.81400
H  48.23000 24.15200 39.98600
H  53.05200 18.89900 42.60400
H  51.84200 19.21800 43.77500
H  53.26400 18.21000 44.11900
H  58.17600 19.01300 44.77700
H  57.42900 20.13800 45.88100
H  57.98400 20.60100 44.24900
H  58.62600 24.63700 45.05800
H  58.02700 26.94100 46.59400
H  58.84200 25.23600 47.60400
H  59.13900 23.55500 46.86700
H  57.68000 23.81300 47.67100
H  57.48100 27.35600 43.76400
H  59.07200 26.61800 44.01200
H  59.02500 28.79700 45.88800
H  58.16000 29.35400 44.56000
H  59.80900 28.55000 44.29500
H  54.00700 30.84900 45.30200
H  54.10700 30.30300 46.97300
H  52.55100 30.82200 46.36800
H  49.02600 27.62200 43.92600
H  48.91900 29.05000 39.65600
H  48.01600 30.20900 40.64000
H  47.28800 28.71200 40.16600
Mg -2.33000 33.98200 27.66300
C  -4.23900 32.17700 30.01100
C  -1.08000 35.90400 30.20400
C  -0.97900 36.07200 25.44600
C  -3.94900 32.25700 25.05000
N  -2.65400 34.00400 29.86100
C  -3.44200 33.19500 30.63200
C  -3.23100 33.48700 32.13600
C  -2.51800 34.86300 32.08100
C  -1.98900 34.93700 30.62600
C  -3.50600 36.13900 32.45000
C  -2.46700 32.43800 33.02100
C  -3.22300 32.17200 34.30500
H  -2.44900 31.91200 35.55400
N  -0.99500 35.59400 27.81500
C  -0.58800 36.25100 28.96200
C  0.45300 37.23100 28.59400
C  0.44500 37.29600 27.18100
C  -0.52400 36.29200 26.72500
C  1.23900 38.04500 29.63700
C  1.26800 38.25700 26.30400
O  1.20800 38.27400 25.10700
C  2.25600 39.17900 26.92100
N  -2.48500 34.14000 25.60100
C  -1.84100 35.09800 24.94800
C  -2.15200 35.08100 23.44700
C  -2.81300 33.63200 23.21400
C  -3.10900 33.25300 24.71500
C  -3.12100 36.19100 22.86800
C  -1.89400 32.66100 22.39600
C  -2.60800 31.55100 21.60700
N  -3.74300 32.50200 27.47900
C  -4.23500 31.85200 26.40100
C  -5.11300 30.72300 26.82900
C  -5.15900 30.85000 28.18500
C  -4.29900 31.98700 28.58500
C  -5.70800 29.78300 25.90100
C  -5.76900 30.26100 29.41300
O  -6.62200 29.37000 29.59700
C  -5.11500 31.06200 30.56600
C  -6.24200 31.47700 31.39700
O  -7.24600 32.08700 30.96700
O  -6.08900 31.16600 32.67400
C  -7.20100 31.31600 33.59100
H  -0.76300 36.57800 31.00300
H  -0.62700 36.66300 24.59900
H  -4.33300 31.57800 24.28600
H  -4.22800 33.64900 32.54600
H  -1.68400 34.94500 32.77900
H  -4.50100 35.72600 32.61500
H  -3.49400 36.76500 31.55800
H  -3.09200 36.56100 33.36600
H  -1.50500 32.87000 33.29600
H  -2.28200 31.53300 32.44200
H  -3.57000 31.22300 33.89500
H  -4.06700 32.82300 34.52900
H  1.15800 37.63300 30.64300
H  1.01400 39.11000 29.59000
H  2.26600 37.80600 29.36300
H  2.62600 39.85500 26.15100
H  3.17400 38.72500 27.29500
H  1.70000 39.77200 27.64800
H  -1.23700 35.09900 22.85400
H  -3.73800 33.72000 22.64300
H  -3.30200 36.77200 23.77300
H  -4.06600 35.88300 22.42000
H  -2.60900 36.76400 22.09600
H  -1.24300 32.03800 23.01000
H  -1.20600 33.07200 21.65700
H  -2.27700 31.49000 20.57000
H  -3.68600 31.66100 21.71900
H  -2.36600 30.56500 22.00500
H  -4.94600 29.55900 25.15500
H  -6.55900 30.22700 25.38300
H  -5.95400 28.81200 26.33200
H  -4.44500 30.36900 31.07500
H  -7.13100 30.36800 34.12300
H  -8.20100 31.38600 33.16300
H  -7.02500 32.15300 34.26600

