158

Mg -0.58300 7.59400 26.34600
C  0.11400 9.55200 29.09300
C  -0.77300 4.88800 28.57200
C  -1.04400 5.47000 23.70000
C  -0.37800 10.32900 24.21900
N  -0.27000 7.25200 28.54300
C  -0.15500 8.30300 29.42700
C  -0.33700 7.76500 30.91000
C  -0.57300 6.26900 30.73800
C  -0.56900 6.12300 29.21000
C  0.45800 5.35800 31.52200
C  -1.46400 8.45800 31.71800
C  -1.29100 8.76500 33.19100
H  -0.05700 8.19500 33.90200
N  -0.66300 5.45300 26.11400
C  -0.81200 4.57900 27.19300
C  -1.12300 3.22000 26.69800
C  -1.23000 3.34800 25.23500
C  -0.92900 4.82500 24.94700
C  -1.22600 1.99400 27.56700
C  -1.53300 2.29600 24.13600
O  -1.62200 2.61100 22.96600
C  -1.67600 0.85400 24.51000
N  -0.80400 7.85100 24.27800
C  -0.98800 6.81700 23.34100
C  -1.13700 7.42900 21.93200
C  -0.99700 8.96800 22.12500
C  -0.71200 9.08400 23.61000
C  -0.09400 6.85000 20.91200
C  -2.24900 9.83000 21.79800
C  -3.35400 10.01100 22.81100
N  -0.07700 9.53500 26.53400
C  -0.09600 10.55600 25.63000
C  0.26200 11.79100 26.30300
C  0.38700 11.43400 27.66100
C  0.15600 10.04900 27.76500
C  0.56500 13.11300 25.61300
C  0.72600 11.97400 29.02600
O  1.14900 13.07400 29.33600
C  0.45400 10.73200 29.95200
C  1.61000 10.62000 30.86900
O  2.72900 10.28900 30.55400
O  1.23800 11.37400 31.91700
C  2.32000 11.83100 32.79400
H  -0.93100 4.06100 29.26800
H  -1.23700 4.78900 22.86800
H  -0.39100 11.22900 23.60000
H  0.63100 7.94000 31.37900
H  -1.56500 6.11400 31.16100
H  -0.12700 4.59500 32.03500
H  1.10700 5.97800 32.14000
H  0.99400 4.87200 30.70700
H  -2.42100 7.93900 31.65100
H  -1.72900 9.37800 31.19600
H  -2.21400 8.38800 33.63200
H  -1.20800 9.83000 33.41100
H  -0.41100 1.29900 27.36600
H  -2.11700 1.43100 27.28800
H  -1.29400 2.20400 28.63400
H  -1.92200 0.28600 23.61300
H  -2.50300 0.76200 25.21500
H  -0.71200 0.56400 24.92700
H  -2.12000 7.20300 21.51900
H  -0.19300 9.50200 21.62000
H  -0.50700 6.17200 20.16500
H  0.60400 6.18500 21.42100
H  0.55400 7.58200 20.43000
H  -2.65100 9.38500 20.88800
H  -1.84700 10.76300 21.40300
H  -3.02200 10.16400 23.83800
H  -4.07500 9.20100 22.70000
H  -3.85800 10.94700 22.56700
H  0.97300 13.76500 26.38500
H  -0.43900 13.46300 25.37300
H  1.09400 12.92800 24.67800
H  -0.41900 10.97900 30.55600
H  3.14900 12.29900 32.26400
H  2.72100 10.97300 33.33400
H  1.89500 12.48500 33.55600
Mg 26.79000 49.93300 26.67600
C  24.77700 51.27800 29.23800
C  29.08700 48.87700 29.04000
C  28.86900 49.24800 24.15000
C  24.46900 51.55600 24.37800
N  26.99600 50.15700 28.82100
C  25.95900 50.55100 29.64600
C  26.24600 50.21200 31.12800
C  27.64800 49.60900 31.08600
C  27.96600 49.46600 29.59200
C  28.78200 50.37700 31.90000
C  25.14800 49.28100 31.78100
C  24.39300 49.78800 33.01600
H  24.98600 49.55200 34.38100
N  28.70900 49.07000 26.64400
C  29.46300 48.71600 27.73200
C  30.71700 48.11000 27.23200
C  30.76100 48.33500 25.77500
C  29.39100 48.91800 25.47100
C  31.82100 47.49700 28.02800
C  31.82100 47.92100 24.76800
O  31.61300 48.02800 23.57100
C  33.12200 47.46400 25.25500
N  26.63400 50.29200 24.65300
C  27.64900 49.88200 23.75500
C  27.23200 50.18900 22.20800
C  25.84200 50.93500 22.41700
C  25.62500 50.93000 23.90900
C  28.23100 50.92800 21.34000
C  24.66300 50.27700 21.54100
C  24.29100 48.86700 22.00300
N  25.03300 51.21900 26.71400
C  24.12800 51.64700 25.71100
C  23.01400 52.33100 26.27000
C  23.23100 52.12700 27.67200
C  24.45700 51.50100 27.88900
C  21.87000 53.00500 25.58600
C  22.66300 52.36800 28.97900
O  21.58100 52.97100 29.20500
C  23.62300 51.85800 30.02200
C  24.10200 52.95700 30.93900
O  25.04000 53.80200 30.87700
O  23.31500 52.76500 32.03500
C  23.41800 53.68200 33.13800
H  29.77100 48.30900 29.67400
H  29.53800 49.22800 23.28700
H  23.80400 51.99900 23.63400
H  26.16000 51.16900 31.64300
H  27.69200 48.59600 31.48600
H  28.38400 51.24700 32.42200
H  29.63800 50.65300 31.28400
H  29.23600 49.83600 32.73100
H  25.56700 48.34800 32.15900
H  24.48600 48.98500 30.96700
H  23.31800 49.65100 32.90400
H  24.48500 50.87400 33.01400
H  31.54700 47.43700 29.08100
H  32.84100 47.88000 28.06100
H  31.93000 46.50600 27.59000
H  33.47100 48.25100 25.92400
H  33.71100 47.29100 24.35400
H  33.08900 46.50000 25.76200
H  27.05400 49.25700 21.67200
H  25.83300 51.93700 21.99000
H  29.18300 50.87600 21.86900
H  27.90400 51.91900 21.02600
H  28.26900 50.34000 20.42300
H  25.10300 50.13700 20.55300
H  23.85800 51.01000 21.49500
H  23.25900 48.71000 22.31700
H  24.89000 48.46800 22.82200
H  24.41000 48.11600 21.22200
H  22.18200 53.51500 24.67500
H  21.41500 53.76600 26.22100
H  21.14000 52.26200 25.26400
H  23.09500 51.14500 30.65500
H  24.13100 53.33900 33.88800
H  22.41400 53.71200 33.56300
H  23.60400 54.73200 32.91400

