158

Mg 34.71200 3.56800 29.74500
C  32.33400 4.16500 32.36800
C  37.08500 3.57000 32.28500
C  36.79700 3.17600 27.37300
C  32.10500 3.92900 27.51300
N  34.67200 3.81500 32.09800
C  33.59100 4.02600 32.86800
C  33.99200 3.90100 34.37400
C  35.56500 4.22900 34.33000
C  35.84600 3.88400 32.76200
C  36.01200 5.72500 34.64200
C  33.60600 2.55300 35.07700
C  33.06500 2.76800 36.48600
H  33.69800 3.90900 37.36000
N  36.72600 3.43400 29.84300
C  37.50200 3.35600 30.94400
C  38.90100 3.08300 30.50300
C  38.84900 3.02600 29.04900
C  37.47000 3.24600 28.65100
C  40.07700 2.78100 31.43900
C  39.91900 2.68700 28.08300
O  39.70200 2.64300 26.92400
C  41.29800 2.38600 28.70500
N  34.47800 3.65400 27.73300
C  35.50800 3.48400 26.94900
C  35.18400 3.56700 25.40100
C  33.66000 3.61400 25.49500
C  33.35100 3.76200 27.02000
C  35.77000 4.67500 24.58400
C  32.97900 2.28000 24.87100
C  32.63900 1.15100 25.76600
N  32.69400 3.93000 29.92100
C  31.75300 4.02800 28.86700
C  30.43200 4.25100 29.43800
C  30.66400 4.32400 30.85100
C  32.04900 4.15100 31.04900
C  29.16200 4.20500 28.65900
C  29.97800 4.44600 32.07700
O  28.85000 4.78500 32.34500
C  31.11500 4.30200 33.13900
C  31.13700 5.58400 33.93800
O  31.42900 6.73500 33.54800
O  30.67400 5.34100 35.16300
C  30.45700 6.58600 35.98600
H  37.80300 3.55800 33.10800
H  37.50100 3.00800 26.55500
H  31.42900 4.08100 26.66900
H  33.61700 4.68100 35.03800
H  36.04300 3.53200 35.01800
H  36.78600 6.06900 33.95600
H  36.30000 5.83100 35.68800
H  35.16800 6.39200 34.46300
H  34.45100 1.86500 35.06200
H  32.77300 2.19500 34.47200
H  33.25300 1.90000 37.11700
H  32.03000 3.10900 36.51400
H  39.72300 2.84400 32.46800
H  40.91900 3.44800 31.25100
H  40.42200 1.75700 31.29800
H  41.58000 3.27900 29.26400
H  42.05100 2.27000 27.92500
H  41.26600 1.45100 29.26300
H  35.64000 2.69500 24.93200
H  33.32800 4.50900 24.96900
H  35.03400 5.25500 24.02700
H  36.44800 4.22500 23.85900
H  36.30300 5.39700 25.20200
H  33.77500 1.85700 24.25900
H  32.13400 2.64700 24.28900
H  31.58100 1.11900 26.02700
H  33.15200 1.19300 26.72700
H  32.95800 0.16400 25.43100
H  28.62700 5.15400 28.65100
H  28.58400 3.42000 29.14700
H  29.35500 3.83700 27.65200
H  30.90700 3.40700 33.72600
H  29.74800 7.32400 35.61200
H  31.36100 7.11400 36.28700
H  30.14100 5.99000 36.84300
Mg -11.35500 37.40800 42.64900
C  -9.20900 34.76900 41.72600
C  -9.00300 39.66600 41.29600
C  -13.59500 39.79300 42.95500
C  -13.75500 34.99200 43.44900
N  -9.50800 37.26200 41.57000
C  -8.85300 36.05200 41.27000
C  -7.53600 36.27700 40.38100
C  -7.26800 37.83000 40.63000
C  -8.70700 38.33000 41.20400
C  -6.11300 38.14500 41.60500
C  -7.68200 35.83200 38.88100
C  -6.75200 34.68300 38.37800
H  -5.91100 35.01200 37.11900
N  -11.21600 39.48300 42.35800
C  -10.21600 40.17700 41.79200
C  -10.58900 41.60600 41.71700
C  -11.91600 41.70000 42.11400
C  -12.33100 40.29700 42.50300
C  -9.68000 42.65100 41.24700
C  -12.68100 43.02200 41.95500
O  -12.12800 44.07800 41.63100
C  -14.18300 42.99500 42.18100
N  -13.38600 37.39400 43.21300
C  -14.06000 38.54800 43.36400
C  -15.53200 38.33400 43.91200
C  -15.61700 36.78000 43.98900
C  -14.20300 36.33100 43.52700
C  -15.93600 39.06300 45.20100
C  -16.69500 36.05600 43.17500
C  -17.47900 34.90900 43.90300
N  -11.47100 35.30800 42.63800
C  -12.45800 34.49900 43.05500
C  -11.97600 33.14700 43.10400
C  -10.65000 33.24100 42.63400
C  -10.43200 34.57400 42.22800
C  -12.72300 31.86300 43.65000
C  -9.45400 32.45800 42.33100
O  -9.20700 31.25300 42.51100
C  -8.45900 33.37900 41.66100
C  -7.14300 33.28100 42.38000
O  -6.21900 32.69400 41.85000
O  -7.12500 33.92900 43.60000
C  -5.81800 34.13000 44.16000
H  -8.22600 40.42400 41.18200
H  -14.25900 40.63300 43.16900
H  -14.49900 34.28300 43.82000
H  -6.68900 35.67600 40.71100
H  -7.05000 38.28700 39.66500
H  -5.29100 38.46200 40.96400
H  -5.85900 37.25600 42.18200
H  -6.35200 38.98200 42.26100
H  -7.53500 36.63400 38.15800
H  -8.68900 35.46900 38.67600
H  -7.26900 33.72500 38.32300
H  -6.08100 34.46900 39.21000
H  -8.60700 42.54900 41.08600
H  -9.70700 43.54500 41.87100
H  -10.17100 42.83400 40.29100
H  -14.71200 43.80600 41.67900
H  -14.45600 42.92300 43.23300
H  -14.66400 42.10500 41.77600
H  -16.20400 38.79900 43.19000
H  -15.68300 36.55900 45.05400
H  -14.97900 39.33000 45.65000
H  -16.54200 38.40600 45.82500
H  -16.42800 40.02100 45.03200
H  -16.29000 35.78600 42.20000
H  -17.44300 36.80500 42.91400
H  -18.51700 35.23200 43.98500
H  -16.98700 34.68400 44.84900
H  -17.32600 33.99300 43.33200
H  -12.50200 31.54000 44.66700
H  -12.41100 31.10400 42.93200
H  -13.79600 32.04800 43.58600
H  -8.28400 33.01600 40.64800
H  -5.13500 33.36900 43.78300
H  -5.86600 34.09400 45.24800
H  -5.39100 35.12100 44.00000

