158

Mg -0.24800 7.42500 26.74800
C  0.53900 9.57000 29.51300
C  -0.27400 4.88600 28.94300
C  -0.66000 5.49500 24.14600
C  0.58800 10.17700 24.58800
N  0.11800 7.20500 28.99700
C  0.32100 8.21900 29.90000
C  0.40900 7.77500 31.32900
C  0.49900 6.24800 31.10200
C  0.03700 6.05500 29.64600
C  1.87600 5.60500 31.21600
C  -0.87200 8.26300 32.06700
C  -0.75000 8.94500 33.44100
H  -0.23900 8.04700 34.66600
N  -0.56400 5.55700 26.59900
C  -0.56000 4.57500 27.59500
C  -0.93000 3.34300 27.06800
C  -1.12700 3.51200 25.69300
C  -0.83600 4.90000 25.40000
C  -1.14200 2.11500 27.92000
C  -1.49000 2.45000 24.70000
O  -1.90000 2.72300 23.55100
C  -1.26200 0.95400 25.02700
N  0.01900 7.80900 24.63200
C  -0.34500 6.78500 23.82700
C  -0.15000 7.16100 22.40400
C  -0.07200 8.73700 22.43100
C  0.30500 8.99800 23.95100
C  1.13400 6.49500 21.73300
C  -1.43700 9.42300 22.11100
C  -1.47900 10.75600 21.48300
N  0.36000 9.45800 26.91300
C  0.63000 10.37800 25.93000
C  0.99300 11.61700 26.57900
C  1.05200 11.32000 27.97900
C  0.59500 9.98100 28.13500
C  1.38300 12.81200 25.85600
C  1.35300 11.87200 29.32200
O  1.84200 12.87000 29.71900
C  0.95000 10.73300 30.36900
C  1.99000 10.59200 31.42400
O  3.09400 9.99900 31.30500
O  1.58300 11.17600 32.63300
C  2.41100 11.00000 33.83600
H  -0.25500 3.98300 29.55700
H  -0.73200 4.84900 23.26800
H  0.65900 11.06400 23.95500
H  1.31600 8.16800 31.78800
H  -0.23700 5.64600 31.63400
H  2.59000 6.09000 31.88200
H  2.35200 5.37100 30.26400
H  1.72100 4.59300 31.58800
H  -1.49900 7.40000 32.29300
H  -1.41900 8.94600 31.41600
H  -1.71100 9.26000 33.84700
H  -0.05600 9.77800 33.33100
H  -2.07600 1.55800 27.84600
H  -0.95000 2.27200 28.98200
H  -0.38100 1.35000 27.77000
H  -1.93800 0.46200 25.72500
H  -0.21700 0.71200 25.21800
H  -1.49200 0.40300 24.11500
H  -0.99300 6.83400 21.79500
H  0.72800 9.12000 21.79700
H  1.73500 7.22300 21.18800
H  0.72000 5.75200 21.05200
H  1.76100 6.12300 22.54400
H  -1.98400 9.54500 23.04500
H  -2.01200 8.73500 21.49100
H  -0.53600 11.09700 21.05600
H  -1.81900 11.49300 22.21000
H  -2.28800 10.73000 20.75400
H  2.16500 13.38500 26.35400
H  0.45500 13.38400 25.85500
H  1.62000 12.62800 24.80800
H  0.09200 11.25900 30.78800
H  2.67400 11.88700 34.41200
H  3.32900 10.52300 33.49500
H  1.72200 10.42500 34.45500
Mg 8.31400 3.66600 27.62100
C  9.54500 2.00500 30.51700
C  6.34900 5.52200 29.68800
C  7.03000 4.90600 24.90700
C  9.78700 1.03600 25.74300
N  7.89200 3.63300 29.85400
C  8.65800 3.06100 30.82800
C  8.21700 3.51600 32.23700
C  6.97300 4.44900 31.96700
C  7.08800 4.59600 30.37300
C  5.49700 4.10200 32.40000
C  9.35900 4.16900 33.14900
C  8.90800 4.93500 34.37600
H  9.78400 4.79000 35.63000
N  6.99000 5.19200 27.29900
C  6.26500 5.85100 28.26600
C  5.41200 6.78200 27.64200
C  5.67700 6.61800 26.25000
C  6.60000 5.56000 26.10800
C  4.54100 7.74700 28.41200
C  5.03600 7.43100 25.11400
O  5.24100 7.27600 23.96000
C  4.09600 8.60600 25.39000
N  8.31800 2.92400 25.63500
C  7.84600 3.75000 24.69600
C  8.13100 3.15600 23.27900
C  9.07600 1.96900 23.57200
C  9.11900 2.00800 25.08200
C  6.78900 2.64500 22.60900
C  10.48700 2.10000 22.90200
C  10.96400 0.87400 22.05100
N  9.42900 1.85300 28.01500
C  9.92300 0.87200 27.16600
C  10.68700 -0.08800 27.87300
C  10.56000 0.28200 29.18400
C  9.75800 1.48100 29.21500
C  11.43800 -1.30400 27.23500
C  10.97200 -0.12600 30.56600
O  11.67400 -1.04100 31.03000
C  10.34000 1.02000 31.46200
C  9.44500 0.31800 32.43700
O  8.44800 -0.35300 32.16100
O  9.90500 0.50000 33.73700
C  9.24600 -0.17700 34.81500
H  5.81000 6.28800 30.25000
H  6.65100 5.27100 23.95100
H  10.31800 0.28100 25.16000
H  7.84100 2.57800 32.64300
H  7.10300 5.50500 32.20600
H  4.74300 4.45000 31.69400
H  5.31700 4.67500 33.31000
H  5.30100 3.03000 32.37600
H  9.96800 4.84600 32.55000
H  9.96300 3.40700 33.64000
H  7.97100 4.45100 34.64900
H  8.82800 6.00900 34.20900
H  3.54200 7.68500 27.98100
H  5.00300 8.71400 28.61300
H  4.38000 7.26100 29.37400
H  3.12600 8.39800 25.84300
H  3.78800 9.00100 24.42200
H  4.73300 9.31500 25.91800
H  8.64500 3.86400 22.62800
H  8.56100 1.05100 23.28700
H  5.94700 2.85800 23.26700
H  6.78200 1.60400 22.28500
H  6.83100 3.15200 21.64500
H  11.29300 2.06700 23.63500
H  10.65100 3.01700 22.33500
H  10.13700 0.17500 21.93000
H  11.79900 0.39300 22.56100
H  11.34900 1.21200 21.08900
H  12.10900 -1.75200 27.96800
H  12.17400 -1.01700 26.48500
H  10.80300 -2.03500 26.73300
H  11.10600 1.46200 32.09900
H  9.98000 -0.80400 35.32100
H  8.41100 -0.74700 34.40800
H  8.86900 0.51300 35.57000

