158

Mg 23.78300 -5.87400 46.14600
C  25.99800 -3.51900 44.77400
C  21.33500 -4.74500 44.21900
C  21.92200 -8.46400 47.25700
C  26.70400 -7.44400 47.64000
N  23.70300 -4.30100 44.75000
C  24.71600 -3.50300 44.25400
C  24.07600 -2.43900 43.32700
C  22.54600 -2.68500 43.37200
C  22.55000 -4.02000 44.11700
C  21.69100 -1.48100 43.85500
C  24.79900 -2.46100 41.88600
C  25.28200 -1.04000 41.42900
H  25.22100 -0.73400 39.92700
N  21.85100 -6.43500 45.89500
C  21.01100 -5.86300 44.99000
C  19.73200 -6.47100 45.05600
C  19.87700 -7.60500 45.92200
C  21.28000 -7.52800 46.42100
C  18.61500 -6.02000 44.09200
C  18.68700 -8.50700 46.31000
O  17.58400 -8.33900 45.82200
C  18.82500 -9.60200 47.34700
N  24.15700 -7.64200 47.39800
C  23.21900 -8.56900 47.71600
C  23.72600 -9.63900 48.68300
C  25.28500 -9.40400 48.60800
C  25.45500 -8.06300 47.84900
C  23.12300 -9.56000 50.06600
C  26.12100 -10.50000 47.82700
C  27.38000 -11.04300 48.55100
N  25.95000 -5.50800 46.31200
C  26.90500 -6.20800 46.99200
C  28.17400 -5.48700 46.81900
C  27.84500 -4.30600 46.01400
C  26.44300 -4.43800 45.71800
C  29.45600 -5.83600 47.47200
C  28.38500 -3.17000 45.28800
O  29.46300 -2.50500 45.31200
C  27.17100 -2.58600 44.46100
C  27.00100 -1.24900 45.04300
O  26.81800 -0.93700 46.22000
O  27.21100 -0.24200 44.01700
C  27.12100 1.17000 44.37600
H  20.57900 -4.22200 43.63000
H  21.34800 -9.35500 47.52200
H  27.57900 -7.92400 48.08400
H  24.35000 -1.51800 43.84100
H  22.24400 -3.02600 42.38200
H  21.43000 -0.99700 42.91400
H  22.39400 -0.84300 44.39000
H  20.72900 -1.71400 44.31100
H  24.19400 -2.78800 41.04100
H  25.63600 -3.15800 41.86900
H  26.31000 -1.00100 41.78800
H  24.80700 -0.22200 41.97000
H  17.84100 -6.76900 43.92400
H  19.00200 -5.61900 43.15500
H  18.13700 -5.27500 44.72800
H  17.87900 -10.14500 47.34700
H  19.09900 -9.12300 48.28700
H  19.52800 -10.38800 47.07200
H  23.38200 -10.58700 48.27000
H  25.76500 -9.16600 49.55600
H  22.10800 -9.94400 49.96600
H  23.13500 -8.58100 50.54500
H  23.52600 -10.34000 50.71100
H  26.51300 -10.07300 46.90400
H  25.43700 -11.32000 47.60900
H  27.49700 -12.11500 48.39400
H  27.40400 -10.75100 49.60000
H  28.25200 -10.51500 48.16300
H  29.39300 -6.55300 48.29000
H  30.00000 -4.95200 47.80400
H  30.06600 -6.15000 46.62400
H  27.54400 -2.53500 43.43800
H  27.43500 1.40900 45.39200
H  26.17200 1.56300 44.01100
H  27.86200 1.54300 43.67000
Mg 49.09400 45.47100 42.33600
C  45.63400 45.86600 41.69800
C  48.84600 42.33900 41.06200
C  52.37600 45.45200 42.14400
C  49.24100 48.94800 43.15100
N  47.41300 44.24300 41.54000
C  46.10000 44.59900 41.32300
C  45.41100 43.59400 40.42200
C  46.29500 42.29600 40.59100
C  47.59600 42.98200 41.10900
C  45.73300 41.26000 41.58100
C  45.27400 44.00100 38.87600
C  43.98200 43.57900 38.04000
H  44.12900 42.78900 36.69300
N  50.41300 44.05500 41.91000
C  50.10600 42.78800 41.42400
C  51.32600 41.97700 41.31000
C  52.40600 42.86600 41.52500
C  51.73500 44.18200 41.94100
C  51.32900 40.48200 40.85800
C  53.81900 42.52600 41.33100
O  54.14700 41.49900 40.67400
C  54.91000 43.44400 41.80000
N  50.67400 47.02800 42.57700
C  51.92300 46.78900 42.27700
C  52.82700 48.07400 42.42900
C  51.78100 49.05500 43.01300
C  50.48800 48.35400 42.91300
C  54.06700 48.02100 43.31300
C  51.88500 50.51800 42.32000
C  51.41900 51.74500 43.14300
N  47.74300 47.09600 42.42700
C  47.94100 48.37300 42.93100
C  46.71400 49.03900 42.98600
C  45.76200 48.10400 42.53600
C  46.43300 46.91500 42.20900
C  46.60400 50.50300 43.31100
C  44.36000 47.94100 42.16500
O  43.46800 48.71400 42.19800
C  44.29300 46.49500 41.51700
C  43.10300 45.79200 42.09500
O  42.46000 44.91100 41.51900
O  43.01700 46.15700 43.38300
C  41.89900 45.48800 44.14700
H  48.81900 41.34700 40.60800
H  53.44700 45.51300 41.93700
H  49.24700 49.96400 43.55100
H  44.42200 43.29100 40.76600
H  46.41700 41.80100 39.62800
H  45.52300 40.33700 41.04200
H  44.78500 41.59900 41.99900
H  46.39700 41.02600 42.41400
H  46.01500 43.45200 38.29600
H  45.46200 45.04800 38.63900
H  43.56000 44.54900 37.77500
H  43.25500 43.05000 38.65700
H  51.54100 40.25700 39.81300
H  50.34300 40.02600 40.94600
H  52.00000 39.87200 41.46400
H  55.22500 44.22600 41.10800
H  55.79500 42.83400 41.97800
H  54.45100 43.79300 42.72500
H  53.19700 48.28800 41.42600
H  51.86900 49.27300 44.07700
H  54.08800 47.07400 43.85300
H  53.85200 48.73400 44.10900
H  55.00300 48.19600 42.78300
H  51.16600 50.50300 41.50100
H  52.84100 50.79200 41.87400
H  52.07800 52.56400 42.85700
H  51.39000 51.47700 44.19900
H  50.37900 52.02000 42.96400
H  47.37300 50.71500 44.05400
H  45.62500 50.83800 43.65400
H  46.88100 51.25400 42.57100
H  44.05700 46.60600 40.45900
H  42.03700 45.47600 45.22800
H  41.67700 44.48200 43.78900
H  41.05300 46.13000 43.90500

