158

Mg 54.14500 23.79800 44.07400
C  51.32900 25.56400 43.14300
C  52.81600 20.98400 42.45100
C  57.16300 22.23200 44.18600
C  55.56600 26.76200 45.06400
N  52.25000 23.35400 42.91100
C  51.30200 24.24100 42.61800
C  50.15400 23.59500 41.74900
C  50.43400 22.06200 41.93700
C  51.91100 22.10500 42.42100
C  49.36900 21.38000 42.94000
C  50.39100 24.03300 40.33700
C  49.19300 24.54800 39.41500
H  48.74900 23.69700 38.24400
N  54.87500 21.87300 43.59000
C  54.12600 20.81100 43.02300
C  54.90400 19.65200 42.96500
C  56.04700 19.97800 43.72800
C  56.10300 21.44400 43.88800
C  54.39500 18.33700 42.38400
C  57.13000 19.04200 44.28800
O  57.07400 17.87000 43.94500
C  58.24400 19.42800 45.20700
N  56.19800 24.49900 44.25600
C  57.26000 23.61000 44.40400
C  58.53800 24.33600 44.98000
C  57.98100 25.78400 45.10800
C  56.52900 25.68000 44.80000
C  59.07700 23.75700 46.30600
C  58.78700 26.85400 44.25800
C  59.13000 28.15900 45.01200
N  53.51400 25.78000 44.38400
C  54.13400 26.87500 44.83800
C  53.19600 28.01700 45.03800
C  52.04600 27.53700 44.35600
C  52.29800 26.18400 43.96500
C  53.54300 29.42200 45.53600
C  50.70600 27.89600 43.80900
O  50.19300 29.02000 43.86400
C  50.23300 26.62000 43.09600
C  49.75700 27.00200 41.76400
O  50.47300 27.17100 40.76000
O  48.36100 27.16900 41.80700
C  47.57900 27.65400 40.63500
H  52.40000 19.99800 42.23400
H  58.16100 21.79800 44.27600
H  56.08800 27.57200 45.57800
H  49.13700 23.89200 42.00500
H  50.35400 21.46100 41.03100
H  48.90600 22.05100 43.66400
H  49.82100 20.46700 43.32700
H  48.54900 21.04300 42.30700
H  50.94600 23.29000 39.76400
H  51.06400 24.89000 40.34500
H  49.42700 25.52200 38.98400
H  48.32900 24.83000 40.01600
H  54.12400 18.66100 41.38000
H  53.53900 17.88100 42.88100
H  55.13000 17.53300 42.34600
H  59.09800 19.91800 44.74000
H  58.54000 18.48900 45.67500
H  57.92000 20.12400 45.98000
H  59.33800 24.27500 44.24300
H  58.23500 25.98900 46.14800
H  59.02500 22.67300 46.20900
H  58.39300 24.08600 47.08800
H  60.08900 24.12500 46.47800
H  58.11000 27.25800 43.50600
H  59.63800 26.31500 43.84100
H  60.15400 28.14500 45.38700
H  58.44500 28.40900 45.82200
H  59.18400 28.95000 44.26300
H  54.34700 29.87800 44.95900
H  53.80700 29.32000 46.58900
H  52.75100 30.16800 45.46700
H  49.42200 26.21000 43.69700
H  47.81300 28.68900 40.38500
H  46.51400 27.65800 40.86900
H  47.63600 27.10400 39.69600
Mg 25.69300 50.57000 27.14600
C  23.63600 51.47100 29.70600
C  28.14700 49.76800 29.46400
C  27.74500 49.98000 24.48900
C  23.17300 51.52300 24.73700
N  25.93700 50.70400 29.40400
C  24.82600 50.95100 30.18000
C  25.20000 50.63800 31.69400
C  26.68400 50.27900 31.58700
C  26.97200 50.21200 30.05000
C  27.72800 51.12800 32.40500
C  24.27400 49.48900 32.34000
C  23.24600 49.93300 33.33600
H  23.33200 49.29000 34.72300
N  27.64300 49.95500 26.95700
C  28.44900 49.71400 28.06600
C  29.75200 49.25900 27.54800
C  29.71800 49.27900 26.08400
C  28.33500 49.76800 25.77500
C  30.89700 48.93800 28.42400
C  30.73900 48.70300 25.10200
O  30.52800 48.83000 23.88400
C  31.90200 47.72700 25.53100
N  25.51100 50.90400 24.96200
C  26.50800 50.48700 24.14700
C  26.07600 50.48600 22.63200
C  24.55200 50.92700 22.72300
C  24.40400 51.14400 24.22300
C  27.05300 51.23800 21.70400
C  23.53800 49.91700 22.15500
C  22.62800 50.35200 20.95000
N  23.89900 51.52000 27.18500
C  22.97600 51.80600 26.15700
C  21.82900 52.44900 26.79100
C  22.02000 52.29800 28.16400
C  23.28400 51.70200 28.34600
C  20.67600 53.18400 26.09600
C  21.44700 52.46300 29.48300
O  20.41900 53.01500 29.88300
C  22.44000 51.94600 30.50300
C  22.71400 53.17200 31.42400
O  23.30200 54.17300 31.06800
O  22.09600 52.94300 32.63600
C  22.22200 54.04900 33.63100
H  28.85800 49.41800 30.21600
H  28.33600 49.68500 23.61900
H  22.35400 51.87100 24.10500
H  25.08200 51.58900 32.21200
H  26.85000 49.27300 31.97300
H  28.14600 51.93400 31.80100
H  28.53200 50.48900 32.76800
H  27.27400 51.69500 33.21700
H  24.94100 48.81200 32.87400
H  23.87600 48.97500 31.46500
H  22.24000 49.85100 32.92500
H  23.50900 50.96700 33.56000
H  31.14000 47.87800 28.48800
H  30.88000 49.33500 29.43900
H  31.58800 49.46300 27.76300
H  32.56100 48.16400 26.28100
H  32.33100 47.29800 24.62600
H  31.43500 46.88200 26.03700
H  26.05200 49.45300 22.28800
H  24.35200 51.90900 22.29500
H  27.42800 50.50200 20.99200
H  27.87100 51.66600 22.28300
H  26.56600 52.04200 21.15200
H  22.91500 49.66800 23.01400
H  23.94000 48.91700 21.99200
H  22.57600 49.50200 20.27000
H  23.02400 51.24400 20.46500
H  21.65300 50.51200 21.41100
H  20.28300 53.88900 26.82800
H  20.03000 52.45500 25.60700
H  21.09800 53.69600 25.23000
H  21.91400 51.12100 30.98500
H  22.71700 54.93900 33.24200
H  22.76900 53.72700 34.51700
H  21.21100 54.35700 33.89600

