158

Mg 8.68800 3.09800 27.43600
C  9.94100 1.65500 30.43300
C  6.99500 5.43200 29.28400
C  7.47800 4.41300 24.63200
C  10.43400 0.58600 25.66000
N  8.42000 3.41000 29.64900
C  9.00900 2.68700 30.66200
C  8.56500 3.26000 32.02200
C  7.63800 4.54300 31.65700
C  7.68600 4.48200 30.10100
C  6.18500 4.40700 32.23400
C  9.77900 3.62400 32.92200
C  9.42900 4.51700 34.07200
H  10.20000 4.31400 35.39200
N  7.39400 4.73900 27.01500
C  6.87100 5.62000 27.90400
C  5.98700 6.59700 27.21500
C  6.25300 6.32700 25.82300
C  7.07300 5.10200 25.78800
C  5.18900 7.68900 27.96400
C  5.83400 7.15400 24.64900
O  6.07400 6.81300 23.50500
C  5.22000 8.57600 24.91100
N  8.73800 2.43300 25.42700
C  8.21800 3.20600 24.48300
C  8.65500 2.73400 23.08700
C  9.79700 1.76300 23.48200
C  9.61100 1.52400 24.94800
C  7.50700 2.10000 22.24900
C  11.24500 2.13700 23.11100
C  12.19800 1.01000 22.55900
N  9.89100 1.36400 27.91400
C  10.52200 0.46500 27.06200
C  11.35100 -0.41000 27.87300
C  11.17400 -0.02100 29.23500
C  10.21300 0.99900 29.19000
C  12.15200 -1.58100 27.39600
C  11.61400 -0.17700 30.65400
O  12.44900 -0.84900 31.21600
C  10.76900 0.87300 31.43300
C  10.01100 0.22100 32.56300
O  8.98700 -0.39800 32.40000
O  10.71100 0.34300 33.70300
C  10.15400 -0.23700 34.93700
H  6.61100 6.28700 29.84400
H  7.13100 4.87600 23.70600
H  11.06800 -0.03600 25.02400
H  7.94300 2.48800 32.47500
H  8.08900 5.50000 31.91800
H  5.87200 3.55400 32.83600
H  5.43900 4.37100 31.44100
H  6.04600 5.24200 32.92100
H  10.55000 4.15500 32.36300
H  10.36200 2.78900 33.30900
H  8.37000 4.44300 34.31800
H  9.66100 5.48600 33.63000
H  5.75100 8.61000 28.11700
H  4.99500 7.32600 28.97400
H  4.31400 7.99600 27.39100
H  5.10100 9.22700 24.04500
H  5.88000 9.06000 25.63100
H  4.24200 8.41600 25.36400
H  8.98300 3.62000 22.54200
H  9.61100 0.76200 23.09300
H  6.53700 2.30300 22.70400
H  7.68000 1.04100 22.05700
H  7.46500 2.62500 21.29400
H  11.77000 2.49300 23.99700
H  11.16000 3.03300 22.49600
H  11.63200 0.08400 22.46100
H  13.00400 0.85100 23.27600
H  12.55800 1.39900 21.60700
H  12.77400 -1.20500 26.58400
H  11.57400 -2.44000 27.05600
H  12.70400 -1.77000 28.31700
H  11.52100 1.59200 31.75900
H  10.94400 -0.20500 35.68900
H  9.94100 -1.29700 34.80200
H  9.29100 0.27600 35.36100
Mg 24.59600 -6.99900 46.98900
C  26.95600 -4.50900 45.86700
C  22.21700 -5.39500 45.13800
C  22.65900 -9.57100 47.62900
C  27.37200 -8.72000 48.22300
N  24.66800 -5.08900 45.67800
C  25.69200 -4.35800 45.26100
C  25.33500 -3.33300 44.13600
C  23.76500 -3.56200 44.03700
C  23.54800 -4.76700 44.99600
C  22.95000 -2.30900 44.40500
C  26.11800 -3.56400 42.79000
C  27.14600 -2.45100 42.19900
H  27.04400 -2.04300 40.62800
N  22.64900 -7.40300 46.58000
C  21.83200 -6.60800 45.80100
C  20.56700 -7.21600 45.71600
C  20.62400 -8.38900 46.50500
C  21.99000 -8.51700 46.97200
C  19.32900 -6.62800 44.97500
C  19.53100 -9.39400 46.65800
O  18.37700 -9.12500 46.26800
C  19.70400 -10.80400 47.30400
N  24.96200 -8.88600 47.78200
C  23.95600 -9.79000 48.01700
C  24.52200 -11.05900 48.70100
C  26.09000 -10.81200 48.63800
C  26.13500 -9.41100 48.13900
C  24.06400 -11.16700 50.14300
C  26.94700 -11.84500 47.84300
C  27.32300 -13.13900 48.61400
N  26.71000 -6.66000 47.16700
C  27.71300 -7.44700 47.74600
C  28.94200 -6.80800 47.80300
C  28.67700 -5.62700 47.06100
C  27.34100 -5.58100 46.65900
C  30.23400 -7.24300 48.36700
C  29.25400 -4.40600 46.55400
O  30.27800 -3.83700 46.83300
C  28.20400 -3.69100 45.65000
C  27.99200 -2.36400 46.33000
O  27.50700 -2.06100 47.37700
O  28.32000 -1.43200 45.39900
C  28.02900 -0.06200 45.68200
H  21.44400 -4.96700 44.49600
H  21.93800 -10.33100 47.93500
H  28.26500 -9.27800 48.51400
H  25.61100 -2.37200 44.57000
H  23.41100 -3.88700 43.05900
H  23.33800 -1.53300 43.74500
H  23.02700 -2.10000 45.47200
H  21.88300 -2.37900 44.19300
H  25.35200 -3.80200 42.05200
H  26.70000 -4.45900 43.01200
H  28.16400 -2.81000 42.35000
H  27.14600 -1.50100 42.73400
H  19.16800 -7.05800 43.98700
H  19.42500 -5.56000 44.77700
H  18.43600 -6.71900 45.59300
H  18.75900 -11.31900 47.13000
H  19.76500 -10.67400 48.38400
H  20.50300 -11.39000 46.84900
H  24.29800 -11.93400 48.09000
H  26.61300 -10.87900 49.59200
H  24.39100 -12.11400 50.57200
H  22.97600 -11.22800 50.16000
H  24.35500 -10.28100 50.70800
H  27.90400 -11.45700 47.49600
H  26.41200 -12.16600 46.94900
H  26.75600 -13.27200 49.53600
H  28.37800 -13.16800 48.88500
H  27.05900 -13.91900 47.90000
H  30.74700 -6.32000 48.63600
H  30.75700 -7.73000 47.54300
H  30.13800 -7.95700 49.18500
H  28.61800 -3.62800 44.64400
H  26.99800 0.23200 45.48600
H  28.66400 0.53700 45.02900
H  28.33000 0.17000 46.70300

