158

Mg 45.35900 5.51300 48.42700
C  43.03500 8.18000 47.44200
C  42.75900 3.33300 48.13300
C  47.63400 3.08500 48.58600
C  47.80400 7.97700 48.35200
N  43.21900 5.64700 47.69400
C  42.49100 6.86500 47.43300
C  41.05700 6.47300 47.08800
C  40.86700 5.11800 47.72400
C  42.33000 4.68000 48.04600
C  39.90500 4.95700 48.96200
C  40.79400 6.58100 45.51400
C  39.69900 7.57200 45.19000
H  38.77100 7.19000 43.98500
N  45.23700 3.54000 48.34300
C  44.06000 2.72300 48.29000
C  44.37500 1.31900 48.44500
C  45.81000 1.27000 48.60700
C  46.30800 2.65300 48.58900
C  43.34100 0.29300 48.26900
C  46.57100 0.02200 48.79400
O  45.95000 -1.02100 48.92800
C  48.04800 -0.05400 48.87300
N  47.43000 5.56200 48.31200
C  48.20000 4.40800 48.40700
C  49.73400 4.84800 48.56500
C  49.70300 6.42800 48.52000
C  48.24100 6.67400 48.43400
C  50.53300 4.20900 49.75300
C  50.52900 7.12300 47.39100
C  52.00500 7.39500 47.66000
N  45.35700 7.68100 48.15500
C  46.49900 8.51600 48.16600
C  46.22600 9.90700 47.77700
C  44.82400 9.84100 47.55500
C  44.37100 8.47400 47.75200
C  47.17100 11.08000 47.70500
C  43.63000 10.50900 47.22000
O  43.53900 11.67800 46.95200
C  42.39000 9.52700 47.16000
C  41.44400 9.89000 48.21500
O  41.63800 9.79500 49.44600
O  40.27700 10.27200 47.64400
C  39.21900 10.63400 48.59500
H  41.89600 2.66600 48.17500
H  48.40300 2.32000 48.70500
H  48.52200 8.79600 48.26600
H  40.53400 7.20900 47.69800
H  40.48900 4.63000 46.82600
H  39.58100 5.92100 49.35500
H  40.46500 4.41000 49.72100
H  38.97100 4.52900 48.59900
H  40.58300 5.69000 44.92300
H  41.67200 6.99600 45.02000
H  40.18900 8.50000 44.89800
H  39.08300 7.71200 46.07800
H  42.42200 0.57800 47.75800
H  43.08800 -0.13400 49.24000
H  43.76400 -0.52600 47.68700
H  48.27000 -1.10700 49.05000
H  48.27100 0.53400 49.76200
H  48.49900 0.20000 47.91300
H  50.23800 4.47100 47.67500
H  49.97100 6.84700 49.48900
H  50.94200 5.10100 50.22700
H  51.34500 3.60400 49.34900
H  50.07500 3.47600 50.41700
H  50.00100 8.00800 47.03500
H  50.52600 6.43900 46.54300
H  52.66200 6.83300 46.99600
H  52.33900 7.15400 48.66900
H  52.20200 8.46300 47.57200
H  46.77700 11.99900 47.27100
H  48.09000 10.89200 47.15100
H  47.35800 11.25800 48.76400
H  41.95400 9.51400 46.16100
H  38.65100 11.49700 48.24700
H  39.43800 10.70000 49.66100
H  38.45400 9.86200 48.50800
Mg 34.98900 3.33000 29.38500
C  33.12800 4.38600 32.14300
C  37.71900 3.04700 31.60500
C  36.96100 2.32300 26.87000
C  32.43500 4.03000 27.39500
N  35.35100 3.66300 31.64200
C  34.46700 4.08500 32.56000
C  34.97500 4.04600 33.98900
C  36.52600 3.79600 33.78500
C  36.52200 3.45000 32.25400
C  37.30400 5.10700 34.20500
C  34.32500 2.92500 34.87300
C  34.14200 3.08900 36.40500
H  34.77500 4.29000 37.06500
N  37.08000 2.83300 29.27900
C  38.06300 2.77900 30.29100
C  39.34600 2.29300 29.72600
C  39.13900 2.02900 28.31000
C  37.70800 2.45800 28.09000
C  40.55500 2.16400 30.63700
C  40.01000 1.45900 27.22100
O  39.54900 1.28400 26.07500
C  41.27600 0.93300 27.63600
N  34.77100 3.31600 27.45700
C  35.62600 2.64600 26.60900
C  35.07900 2.44900 25.17400
C  33.68500 3.05900 25.35700
C  33.56900 3.48700 26.87000
C  35.92500 3.16100 24.02700
C  32.54800 2.04900 24.93400
C  31.73600 2.64900 23.78600
N  33.16300 3.94400 29.65100
C  32.18200 4.17500 28.72200
C  30.83800 4.48800 29.38900
C  31.23300 4.63700 30.75600
C  32.64800 4.32000 30.86500
C  29.49200 4.73700 28.73800
C  30.73800 4.93000 32.05300
O  29.62100 5.20100 32.42500
C  31.92500 4.87700 32.94900
C  31.95300 6.17800 33.54800
O  32.61400 7.12600 33.21800
O  31.22100 6.17300 34.72500
C  31.34700 7.38300 35.58100
H  38.58900 3.07700 32.26500
H  37.35500 1.96500 25.91600
H  31.60100 4.05900 26.69100
H  34.73800 5.04800 34.34700
H  36.95200 2.93200 34.29700
H  38.29500 4.86600 34.58900
H  36.70900 5.54000 35.00900
H  37.46900 5.72900 33.32600
H  34.77900 1.96000 34.64600
H  33.29400 2.90700 34.52100
H  34.55100 2.24700 36.96400
H  33.07500 3.19800 36.59800
H  41.26900 1.42900 30.26700
H  40.18600 1.80100 31.59700
H  41.24600 3.00700 30.64600
H  41.80000 1.81700 27.99800
H  41.70800 0.48500 26.74100
H  41.18700 0.08800 28.31800
H  35.04200 1.37600 24.98900
H  33.69100 3.95900 24.74300
H  36.67100 2.45400 23.66300
H  36.41300 4.09500 24.30700
H  35.25900 3.37300 23.19100
H  31.80400 2.01700 25.73000
H  32.97200 1.06900 24.71600
H  31.28700 1.78700 23.29200
H  32.32800 3.20300 23.05700
H  30.93000 3.22200 24.24500
H  28.92800 3.82100 28.56400
H  29.57100 5.38200 27.86300
H  28.88500 5.27200 29.46900
H  31.82700 4.11100 33.71900
H  30.99800 8.34300 35.20000
H  32.39800 7.41400 35.87000
H  30.89300 7.17500 36.55000

