158

Mg -2.45900 17.45400 25.75400
C  -2.75500 15.24300 28.59900
C  -3.18900 19.99600 27.85200
C  -2.00600 19.45500 23.09400
C  -1.87400 14.65000 23.76900
N  -2.94700 17.56500 27.97300
C  -2.89500 16.60700 28.97500
C  -3.20800 17.16100 30.36600
C  -3.88000 18.55600 29.88400
C  -3.27200 18.76100 28.50400
C  -5.46000 18.50700 29.81900
C  -1.96700 17.38400 31.22200
C  -2.28400 18.07500 32.53200
H  -1.86000 17.26700 33.77100
N  -2.45500 19.43600 25.58100
C  -2.72300 20.35800 26.57900
C  -2.66600 21.71700 25.96900
C  -2.38400 21.52300 24.57000
C  -2.26300 20.07900 24.38300
C  -2.95700 23.00100 26.82100
C  -2.39300 22.60400 23.49900
O  -2.50300 22.38000 22.29000
C  -2.44700 24.07900 23.88600
N  -2.08800 17.01900 23.67400
C  -1.96200 18.07800 22.77100
C  -1.59000 17.52600 21.33700
C  -1.51100 15.98200 21.63300
C  -1.86100 15.80300 23.11800
C  -2.71900 17.89600 20.34000
C  0.00400 15.56000 21.28200
C  1.21200 16.07300 22.14900
N  -2.48700 15.34200 26.06700
C  -2.15700 14.32000 25.14300
C  -2.20800 13.11900 25.78000
C  -2.28900 13.41000 27.23200
C  -2.51700 14.76200 27.33600
C  -2.11200 11.78400 25.17100
C  -2.35300 12.84200 28.51100
O  -2.12200 11.70600 28.83300
C  -2.72800 13.99400 29.50700
C  -1.58900 13.99900 30.44100
O  -0.42400 14.38400 30.24900
O  -1.95400 13.31800 31.54100
C  -0.85200 12.63800 32.32800
H  -3.40500 20.83400 28.51800
H  -1.88400 20.11900 22.23500
H  -1.61500 13.74100 23.22200
H  -3.98500 16.57200 30.85400
H  -3.50300 19.46100 30.36100
H  -5.87400 19.25300 30.49700
H  -5.78600 17.48900 30.03600
H  -5.78500 18.66100 28.79000
H  -1.42000 18.04500 30.54900
H  -1.39700 16.46200 31.33000
H  -3.35400 18.27400 32.59700
H  -1.81700 19.05900 32.47000
H  -3.18700 22.84500 27.87500
H  -3.83100 23.52500 26.43300
H  -2.11100 23.66100 26.63000
H  -2.51000 24.60400 22.93200
H  -1.61300 24.40700 24.50600
H  -3.42800 24.25400 24.32700
H  -0.64400 18.03400 21.14900
H  -2.10800 15.27200 21.06100
H  -3.50900 18.36200 20.92900
H  -3.25800 17.08900 19.84300
H  -2.25700 18.47400 19.54100
H  0.16600 15.98800 20.29300
H  -0.01100 14.50300 21.01900
H  1.77000 16.82700 21.59500
H  1.79100 15.17900 22.38400
H  0.90200 16.64500 23.02300
H  -1.44200 11.65900 24.32100
H  -3.14100 11.43800 25.07000
H  -1.61300 11.13200 25.88800
H  -3.57900 13.58000 30.04900
H  -0.08700 13.33700 32.66700
H  -0.37200 11.94700 31.63500
H  -1.26700 12.02800 33.13000
Mg 47.23500 24.96700 29.00100
C  47.88100 27.24900 31.50900
C  46.56900 22.58300 31.55500
C  46.93200 22.43600 26.68400
C  48.11000 27.12800 26.62600
N  47.31900 24.89900 31.25300
C  47.43100 26.06900 31.99800
C  47.12300 25.79500 33.50000
C  46.88600 24.23500 33.53600
C  46.87000 23.85500 32.02700
C  48.00600 23.55800 34.28400
C  45.95400 26.59300 34.09300
C  46.25600 27.25500 35.52300
H  45.16100 27.19000 36.56700
N  46.63700 22.86100 29.12100
C  46.52600 22.08600 30.20800
C  46.20100 20.75400 29.88500
C  46.29500 20.63100 28.51000
C  46.67300 21.97200 28.02800
C  45.61000 19.71600 30.85800
C  46.04200 19.40500 27.59600
O  46.07400 19.47700 26.35400
C  45.83000 18.03500 28.28600
N  47.64500 24.74000 27.00300
C  47.23200 23.70400 26.23500
C  47.46800 23.94200 24.76600
C  47.50700 25.50400 24.76000
C  47.66500 25.86800 26.19100
C  48.83700 23.36900 24.29900
C  46.33300 26.18300 24.11900
C  45.35600 26.92000 25.05000
N  48.05000 26.77400 29.05400
C  48.30400 27.59800 27.97500
C  48.76700 28.82500 28.43700
C  48.52900 28.77800 29.85600
C  48.12300 27.51700 30.15500
C  49.16200 29.99200 27.60800
C  48.65900 29.56700 31.13700
O  49.11200 30.70200 31.38300
C  48.11200 28.61500 32.20500
C  49.00000 28.60000 33.35400
O  49.92600 27.84200 33.47900
O  48.62200 29.60000 34.22500
C  49.43300 29.71200 35.43200
H  46.22000 21.94100 32.36600
H  46.84800 21.66500 25.91400
H  48.14200 27.77300 25.74500
H  47.93600 26.05900 34.17700
H  45.96500 23.78100 33.90200
H  48.62700 22.95500 33.62200
H  47.52500 22.84400 34.95300
H  48.70200 24.19800 34.82700
H  45.20100 25.83300 34.30300
H  45.67300 27.42500 33.44700
H  46.25700 28.33000 35.34200
H  47.24500 27.05400 35.93400
H  44.63900 19.41400 30.46500
H  45.65200 19.90300 31.93100
H  46.28600 18.86400 30.78700
H  46.61800 17.75600 28.98500
H  45.84700 17.32200 27.46100
H  44.80600 18.10000 28.65500
H  46.64300 23.54500 24.17600
H  48.43300 25.89800 24.33900
H  49.31700 22.79800 25.09400
H  49.57200 24.13000 24.03500
H  48.68500 22.65700 23.48900
H  45.84300 25.44400 23.48600
H  46.79800 26.91200 23.45600
H  45.53700 27.98900 24.94400
H  45.22300 26.53300 26.06100
H  44.33300 26.90900 24.67700
H  48.39200 30.22600 26.87400
H  50.14900 29.81900 27.17900
H  49.33100 30.80600 28.31300
H  47.12200 29.03400 32.38800
H  49.23100 28.92900 36.16300
H  49.28100 30.62700 36.00500
H  50.51100 29.59800 35.31300

