158

Mg 47.82100 25.33300 28.93500
C  48.81100 27.54200 31.50800
C  46.69100 23.05000 31.36700
C  47.16600 23.07100 26.47500
C  49.32600 27.35600 26.59800
N  48.03200 25.24200 31.32600
C  48.27800 26.36800 32.09000
C  47.95400 26.00900 33.58100
C  47.24700 24.60700 33.43300
C  47.38400 24.21100 31.90400
C  47.74000 23.54500 34.40500
C  46.98900 27.06300 34.31700
C  47.40400 27.37900 35.82000
H  46.31300 27.68300 36.85100
N  46.87200 23.39400 28.92700
C  46.49600 22.66500 30.02400
C  45.84500 21.45200 29.54300
C  45.98900 21.45800 28.07000
C  46.71400 22.72600 27.73200
C  45.16200 20.29700 30.38600
C  45.45300 20.47900 27.09500
O  45.43600 20.68100 25.88200
C  44.73900 19.14900 27.57800
N  48.21700 25.26500 26.88800
C  47.99500 24.13600 26.13100
C  48.45100 24.46700 24.68000
C  48.80800 25.96200 24.67500
C  48.80200 26.16800 26.16600
C  49.50800 23.38600 24.20100
C  47.82200 26.98100 23.99300
C  48.30600 28.39800 23.65300
N  48.93900 27.06500 28.98600
C  49.38700 27.85600 27.95400
C  49.87000 29.12500 28.48900
C  49.62200 28.97800 29.84500
C  49.12800 27.69200 30.08500
C  50.42600 30.27200 27.71200
C  49.71400 29.74900 31.10700
O  50.07900 30.90100 31.23500
C  49.27400 28.75600 32.23800
C  50.49600 28.55400 33.05500
O  51.52000 27.91900 32.75400
O  50.34700 29.15800 34.30900
C  51.36000 28.80700 35.25900
H  46.30700 22.30900 32.07100
H  47.04600 22.29100 25.72000
H  49.79900 28.03300 25.88200
H  48.83000 25.71200 34.15800
H  46.18200 24.69500 33.64900
H  48.00600 22.71100 33.75600
H  46.95500 23.20200 35.07900
H  48.70700 23.74000 34.86800
H  45.97000 26.75100 34.09000
H  47.06500 28.01700 33.79600
H  48.01300 28.27100 35.67000
H  48.11500 26.63400 36.17800
H  45.71300 19.36800 30.24100
H  44.09700 20.27700 30.15600
H  45.08400 20.53200 31.44700
H  43.85700 19.17400 28.21800
H  45.51700 18.62200 28.13200
H  44.49200 18.57000 26.68900
H  47.59100 24.27600 24.03900
H  49.83200 26.03500 24.30900
H  49.07200 22.65500 23.51900
H  49.83000 22.92500 25.13400
H  50.36000 23.83200 23.68700
H  47.02600 27.21000 24.70100
H  47.48100 26.48600 23.08300
H  47.82800 28.75800 22.74200
H  49.39100 28.34400 23.56700
H  47.98500 29.08800 24.43300
H  51.48000 30.47100 27.90500
H  49.80600 31.14500 27.91600
H  50.15000 30.05400 26.68000
H  48.44200 29.26000 32.73100
H  52.35500 28.51500 34.92200
H  51.06700 28.02100 35.95600
H  51.42600 29.71900 35.85200
Mg 6.40000 54.79600 40.20700
C  5.21400 51.47100 39.61300
C  9.53100 53.66700 39.61500
C  7.36000 58.06200 39.80100
C  3.11300 55.75700 40.57100
N  7.25100 52.85400 39.50000
C  6.59400 51.60900 39.34400
C  7.62900 50.53200 39.03500
C  8.91600 51.22400 39.55200
C  8.59000 52.64600 39.53300
C  9.54000 50.83200 40.87700
C  7.75800 50.24700 37.45800
C  6.85100 51.07000 36.53400
H  6.28200 50.48800 35.30800
N  8.24100 55.72600 39.90500
C  9.43900 55.07900 39.68300
C  10.48300 56.00900 39.50900
C  9.89100 57.33800 39.46600
C  8.40000 57.08400 39.69600
C  11.94300 55.71100 39.39900
C  10.60500 58.63700 39.20700
O  11.77300 58.56800 38.88800
C  10.07900 59.93700 39.46600
N  5.37200 56.68800 40.13900
C  6.01400 57.88400 40.18000
C  5.01700 59.04500 40.29700
C  3.71400 58.28000 40.59000
C  4.03500 56.82200 40.31100
C  5.48100 60.18500 41.30000
C  2.53200 58.67500 39.67200
C  1.13200 58.60300 40.36000
N  4.59600 53.86400 40.05600
C  3.34600 54.40300 40.37300
C  2.39800 53.40300 40.33700
C  3.08100 52.12800 40.14200
C  4.39800 52.51500 39.93500
C  0.88400 53.58200 40.29100
C  2.92000 50.73000 39.89700
O  1.91900 50.06100 39.74700
C  4.34400 50.24600 39.65600
C  4.46100 49.32600 38.52600
O  4.04900 49.59100 37.41400
O  4.95700 48.12900 38.94000
C  5.16400 47.04800 37.94500
H  10.55100 53.27600 39.59600
H  7.66800 59.08500 39.57700
H  2.12900 56.00400 40.97600
H  7.29700 49.70200 39.66000
H  9.74200 51.02900 38.86800
H  9.54300 51.69300 41.54500
H  10.59000 50.58500 40.72500
H  8.95700 50.03800 41.34400
H  7.45300 49.21400 37.29300
H  8.75700 50.39200 37.04700
H  7.55500 51.89500 36.42700
H  5.94100 51.52200 36.92800
H  12.20200 55.70700 38.34100
H  12.18700 54.73500 39.81900
H  12.59400 56.38500 39.95600
H  10.87900 60.67600 39.49400
H  9.71700 60.05600 40.48800
H  9.25900 60.15700 38.78200
H  4.94800 59.57500 39.34700
H  3.42300 58.37500 41.63600
H  4.59000 60.34100 41.90900
H  5.86100 61.03300 40.73200
H  6.27800 59.84200 41.95900
H  2.51100 57.98200 38.83100
H  2.70600 59.68100 39.29000
H  0.51100 59.42400 40.00100
H  1.15200 58.67600 41.44700
H  0.62000 57.68700 40.06800
H  0.61700 53.75000 39.24800
H  0.64500 54.44100 40.91700
H  0.40600 52.66900 40.64800
H  4.64800 49.70600 40.55200
H  4.42000 46.25400 38.00700
H  6.17700 46.68600 38.11800
H  5.11200 47.52300 36.96500

