158

Mg 30.90100 59.23900 39.30200
C  28.26500 57.08800 38.27300
C  33.03500 56.66200 38.56100
C  33.40700 61.40600 39.82200
C  28.62300 61.73300 39.59400
N  30.60700 57.14900 38.55400
C  29.51500 56.49600 38.18200
C  29.71400 54.99600 37.91000
C  31.28200 54.83300 38.26100
C  31.69100 56.32600 38.44100
C  31.50100 54.11800 39.64800
C  29.34500 54.67800 36.38200
C  29.71400 55.63100 35.15600
H  28.60000 55.90100 34.12100
N  32.90100 59.05800 39.22400
C  33.61700 57.91100 38.93400
C  35.07500 58.14300 38.98200
C  35.23100 59.50300 39.45300
C  33.83600 60.09200 39.50200
C  36.05300 57.13300 38.45100
C  36.59200 60.13900 39.77800
O  37.54300 59.47400 40.02400
C  36.72600 61.64300 40.05400
N  31.01800 61.29400 39.65900
C  32.15000 62.01200 39.87400
C  31.89000 63.51600 39.95100
C  30.37000 63.54000 39.95000
C  29.95200 62.11500 39.65400
C  32.47600 64.11600 41.24100
C  29.86200 64.48000 38.83100
C  28.41600 65.03100 39.14700
N  28.84600 59.43800 39.09400
C  28.05000 60.50500 39.29400
C  26.64600 60.18900 39.08700
C  26.70400 58.84700 38.71900
C  28.06400 58.41400 38.71200
C  25.55200 61.09300 39.29900
C  25.89000 57.69900 38.32500
O  24.66700 57.66600 38.16800
C  26.88400 56.52000 38.06100
C  26.46000 55.27600 38.85200
O  26.95200 54.95500 39.98700
O  25.36400 54.67300 38.29700
C  24.58200 53.77000 39.07300
H  33.74600 55.83500 38.50600
H  34.11600 62.19400 40.08300
H  27.79400 62.43600 39.69400
H  29.13100 54.36300 38.58000
H  31.78600 54.30700 37.44900
H  31.98400 54.80700 40.34100
H  32.25600 53.34400 39.51200
H  30.53600 53.73800 39.98200
H  28.26100 54.56600 36.34300
H  29.66700 53.66500 36.13900
H  30.54200 55.10200 34.68500
H  30.12400 56.61700 35.37400
H  36.54900 57.59400 37.59700
H  35.62400 56.23100 38.01600
H  36.79000 56.93500 39.23000
H  37.74900 61.94900 40.27000
H  36.13800 61.74400 40.96600
H  36.33300 62.08300 39.13700
H  32.44500 64.00200 39.14800
H  29.89600 63.76700 40.90500
H  33.17300 64.93800 41.07800
H  32.92000 63.40400 41.93600
H  31.72500 64.71600 41.75500
H  29.79200 63.92700 37.89400
H  30.54900 65.31600 38.70100
H  28.03300 64.67700 40.10400
H  27.73000 64.77200 38.34000
H  28.41500 66.10400 39.34000
H  24.59200 60.61100 39.11600
H  25.71200 61.75800 38.45000
H  25.62100 61.53700 40.29200
H  26.68900 56.45000 36.99100
H  25.10500 52.84600 39.32100
H  23.69700 53.58800 38.46300
H  24.25400 54.38400 39.91300
Mg 26.94200 52.10200 25.86400
C  25.21400 53.28200 28.60500
C  29.38000 50.81900 27.67900
C  28.54100 51.08900 22.96600
C  24.51600 53.83300 23.87600
N  27.16800 52.02300 27.90300
C  26.39500 52.54000 28.91100
C  27.13000 52.39600 30.25100
C  28.51100 51.82500 29.96600
C  28.36300 51.47900 28.43600
C  29.82300 52.63600 30.42800
C  26.28300 51.60500 31.31000
C  25.80800 52.43700 32.53600
H  26.64300 52.44200 33.81300
N  28.79500 51.10700 25.37400
C  29.61800 50.64000 26.33800
C  30.72600 49.90800 25.70300
C  30.52800 50.00800 24.32300
C  29.29000 50.74000 24.16700
C  31.85700 49.32800 26.56100
C  31.37700 49.44300 23.18300
O  31.16800 49.62600 21.99300
C  32.54100 48.59000 23.49100
N  26.70100 52.62700 23.79200
C  27.41300 51.91900 22.81000
C  26.99500 52.32800 21.39200
C  25.63300 52.99400 21.66600
C  25.61800 53.21900 23.19400
C  28.07400 53.28900 20.92900
C  24.51100 52.11100 21.10900
C  23.72600 51.12100 22.03900
N  25.22800 53.26800 26.10600
C  24.32000 53.88400 25.22800
C  23.15800 54.34800 25.86500
C  23.48300 54.14800 27.21800
C  24.74200 53.48000 27.33400
C  21.96500 55.03100 25.25800
C  23.01600 54.38500 28.53700
O  21.91800 54.81000 28.87900
C  24.10700 53.93700 29.48200
C  24.49700 54.99500 30.43000
O  25.33300 55.80900 30.21400
O  23.67200 54.99000 31.50300
C  23.90100 55.95500 32.57100
H  30.16200 50.47800 28.36000
H  28.92500 50.69300 22.02300
H  23.71200 54.26100 23.27300
H  27.30300 53.42600 30.56200
H  28.51800 50.83900 30.42900
H  29.57600 53.57200 30.93100
H  30.51700 52.74800 29.59500
H  30.32900 52.05200 31.19700
H  26.72400 50.67600 31.67100
H  25.29900 51.48100 30.85700
H  24.80100 52.11200 32.79800
H  25.69100 53.46200 32.18500
H  31.56900 48.35900 26.96700
H  31.99700 49.93800 27.45400
H  32.83000 49.27800 26.07300
H  33.23800 49.19800 24.06700
H  32.97900 48.19600 22.57400
H  32.20300 47.81900 24.18400
H  27.04600 51.50600 20.67800
H  25.54000 53.95300 21.15600
H  28.59100 53.74700 21.77300
H  27.67000 54.15300 20.40100
H  28.77700 52.73500 20.30800
H  24.89200 51.47500 20.31000
H  23.77000 52.76300 20.64700
H  24.21900 51.12700 23.01200
H  23.76900 50.15200 21.54300
H  22.71300 51.49900 22.17800
H  21.19600 54.33000 24.93300
H  22.32700 55.64600 24.43400
H  21.57300 55.71400 26.01100
H  23.78000 53.09500 30.09300
H  23.46800 56.93500 32.37400
H  24.96000 56.09700 32.78800
H  23.35100 55.47700 33.38200

