158

Mg 23.85700 -6.48600 44.96000
C  26.05900 -4.03900 43.66400
C  21.39000 -5.25800 42.83100
C  21.82500 -9.04000 45.85500
C  26.59100 -8.11900 46.36800
N  23.73900 -4.74400 43.56400
C  24.76300 -3.91300 43.10700
C  24.27900 -3.03900 41.93000
C  22.69300 -3.28600 41.93600
C  22.62100 -4.54300 42.77900
C  21.74600 -2.21300 42.61500
C  25.09000 -3.41000 40.60700
C  25.86800 -2.34400 39.90600
H  25.31400 -2.06500 38.47300
N  21.83900 -6.97100 44.53300
C  20.99100 -6.33900 43.60100
C  19.66300 -6.91500 43.67100
C  19.76700 -7.98400 44.61600
C  21.17800 -8.03600 45.02000
C  18.47900 -6.41300 42.95100
C  18.67800 -9.02000 44.88400
O  17.63900 -8.88400 44.27200
C  18.84900 -10.17500 45.80600
N  24.21300 -8.40000 45.92500
C  23.17500 -9.24500 46.17100
C  23.69400 -10.63300 46.71100
C  25.20400 -10.29100 47.04600
C  25.40100 -8.84900 46.35900
C  23.14400 -11.32900 48.03100
C  26.22300 -11.32400 46.54800
C  27.18400 -11.94200 47.53400
N  25.93300 -6.15700 45.03900
C  26.93400 -6.86700 45.72200
C  28.21900 -6.10900 45.65700
C  27.89400 -5.00700 44.81800
C  26.50400 -5.07600 44.52700
C  29.51400 -6.62300 46.26100
C  28.49500 -3.93100 44.13200
O  29.68600 -3.60800 44.05900
C  27.30100 -3.25600 43.35300
C  27.26200 -1.82800 43.69900
O  27.38200 -1.26700 44.82000
O  27.08700 -1.20500 42.58600
C  27.13200 0.26700 42.63100
H  20.53100 -4.87200 42.27800
H  21.29000 -9.97100 46.05200
H  27.47900 -8.54000 46.84300
H  24.43000 -1.96900 42.07400
H  22.42900 -3.59800 40.92500
H  21.71100 -2.44400 43.67900
H  20.74900 -2.11100 42.18600
H  22.19000 -1.22300 42.50800
H  24.36000 -3.79100 39.89300
H  25.77700 -4.25500 40.64800
H  26.90500 -2.67900 39.93900
H  25.75900 -1.41600 40.46700
H  18.43400 -7.02700 42.05100
H  18.69600 -5.35100 42.84000
H  17.60300 -6.58100 43.57800
H  17.89500 -10.67400 45.97300
H  19.15600 -9.71800 46.74700
H  19.54200 -10.91900 45.41300
H  23.71500 -11.34600 45.88800
H  25.46900 -10.02000 48.06800
H  22.69300 -12.29700 47.81300
H  22.44000 -10.66200 48.52800
H  23.97500 -11.40200 48.73300
H  26.88000 -10.97300 45.75200
H  25.64800 -12.16700 46.16400
H  27.10200 -11.50100 48.52700
H  28.19400 -11.80100 47.15000
H  26.96100 -12.99700 47.69700
H  30.12900 -7.09500 45.49500
H  29.30500 -7.39600 47.00200
H  30.03400 -5.75200 46.65800
H  27.54700 -3.31500 42.29200
H  27.60300 0.79600 43.46000
H  26.12100 0.63000 42.44700
H  27.65600 0.42400 41.68900
Mg 6.34800 54.22700 39.46600
C  5.97200 50.79300 39.55500
C  9.66600 53.83800 38.77200
C  6.47300 57.52100 38.72500
C  2.89100 54.51100 39.83900
N  7.60800 52.49100 39.01100
C  7.25800 51.15900 39.15100
C  8.54500 50.27600 38.84200
C  9.66000 51.35700 39.03700
C  8.95800 52.69200 38.91000
C  10.60700 51.28200 40.28700
C  8.60500 49.70200 37.45100
C  8.26800 50.70300 36.35400
H  6.89100 50.57200 35.61000
N  7.87200 55.51200 38.90700
C  9.15300 55.15500 38.70400
C  9.97900 56.31000 38.42600
C  9.06900 57.45200 38.46700
C  7.72400 56.87800 38.68000
C  11.56100 56.32500 38.22200
C  9.34900 58.96100 38.48900
O  10.55500 59.32800 38.42700
C  8.43400 60.10200 38.74700
N  4.83100 55.78200 39.23300
C  5.20800 57.09100 39.00300
C  4.02000 58.05500 39.23800
C  2.80000 57.09800 39.15000
C  3.51600 55.68800 39.41900
C  4.22500 58.73900 40.61800
C  2.11500 57.05900 37.76400
C  0.60000 57.17500 37.82600
N  4.69200 52.91200 39.61800
C  3.38600 53.16300 39.90100
C  2.63500 51.91000 40.10700
C  3.61100 50.92400 39.98600
C  4.82600 51.61500 39.67300
C  1.22400 51.63100 40.58700
C  3.92700 49.50400 40.04300
O  3.18400 48.57800 40.34400
C  5.44300 49.34300 39.76500
C  5.62300 48.44900 38.61600
O  5.25100 48.68400 37.45400
O  6.37300 47.34800 39.03400
C  6.40100 46.29100 38.04700
H  10.73200 53.61000 38.70600
H  6.51400 58.59400 38.52300
H  1.81900 54.48000 40.04300
H  8.76200 49.47900 39.55200
H  10.40600 51.28100 38.24500
H  11.62600 51.63700 40.13200
H  10.64300 50.31800 40.79600
H  10.37400 51.99600 41.07700
H  7.91600 48.86100 37.36600
H  9.60000 49.29700 37.27100
H  9.13400 50.52100 35.71800
H  8.47600 51.74000 36.61800
H  12.03400 57.26700 37.94400
H  11.90900 55.57000 37.51600
H  11.94200 56.08100 39.21300
H  8.00400 60.44500 37.80600
H  9.01400 60.93000 39.15500
H  7.62400 59.90300 39.44900
H  3.99400 58.83300 38.47500
H  2.12800 57.20500 40.00100
H  4.83800 59.63200 40.50200
H  4.77800 57.99900 41.19700
H  3.36000 59.04400 41.20700
H  2.49900 56.17400 37.25800
H  2.45000 57.78700 37.02500
H  0.37300 57.74000 38.73000
H  -0.00700 56.27000 37.84300
H  0.13900 57.61200 36.94000
H  0.96300 50.58400 40.43300
H  0.49600 52.20400 40.01200
H  1.19900 51.81900 41.66000
H  5.99100 48.86100 40.57500
H  6.95600 45.43100 38.42000
H  6.78600 46.71600 37.12000
H  5.46500 45.82800 37.73500

