158

Mg -1.64400 18.04700 27.12100
C  -1.99200 16.06200 30.10700
C  -2.12100 20.79500 29.09100
C  -1.76800 19.91400 24.28000
C  -1.22000 15.21000 25.27800
N  -1.71900 18.40100 29.38900
C  -1.95100 17.41700 30.37900
C  -2.16800 18.08500 31.69900
C  -2.50000 19.56300 31.37700
C  -2.04100 19.63400 29.85900
C  -3.86300 20.18300 31.68700
C  -1.04000 17.86700 32.83800
C  -1.50700 17.73300 34.34200
H  -0.45100 17.59400 35.47700
N  -1.91100 20.04700 26.74900
C  -2.00600 21.01500 27.69400
C  -1.89600 22.33200 27.02800
C  -1.66000 22.09600 25.62800
C  -1.66100 20.62300 25.49300
C  -2.08500 23.62100 27.81900
C  -1.37500 23.06500 24.48600
O  -1.06600 22.68900 23.35800
C  -1.33100 24.57000 24.79000
N  -1.69300 17.67000 25.08800
C  -1.73700 18.55500 24.03000
C  -1.44800 17.88900 22.67600
C  -0.98900 16.46200 23.10600
C  -1.30600 16.44700 24.55600
C  -2.75600 18.09100 21.75600
C  0.47400 16.14800 22.73400
C  1.60100 16.95200 23.35800
N  -1.70700 16.07900 27.57900
C  -1.51100 14.96900 26.67300
C  -1.64000 13.71900 27.38200
C  -1.74700 14.13400 28.73400
C  -1.77100 15.56200 28.80300
C  -1.40000 12.31000 26.88300
C  -1.94200 13.67800 30.10600
O  -2.04000 12.52000 30.46900
C  -2.14800 14.89000 31.00300
C  -1.27600 14.79200 32.21800
O  -0.01300 14.74800 32.18600
O  -2.03700 14.73900 33.30800
C  -1.37900 14.26700 34.53500
H  -2.33300 21.65900 29.72400
H  -1.82700 20.48400 23.35000
H  -0.75200 14.40000 24.71400
H  -3.07900 17.59200 32.03900
H  -1.76700 20.20500 31.86500
H  -4.35000 20.62400 30.81800
H  -3.84300 20.90600 32.50300
H  -4.59300 19.39100 31.85700
H  -0.36900 18.72400 32.77600
H  -0.44200 17.04900 32.43700
H  -2.23700 16.94500 34.52900
H  -2.09000 18.63900 34.50300
H  -2.10500 23.61500 28.90900
H  -2.82000 24.30100 27.38700
H  -1.21100 24.26600 27.73000
H  -0.93400 25.04900 23.89500
H  -0.77000 24.63300 25.72200
H  -2.37800 24.79500 24.99800
H  -0.54300 18.33000 22.26000
H  -1.57700 15.71800 22.56900
H  -3.54300 18.51700 22.37900
H  -3.09600 17.17900 21.26500
H  -2.57000 18.79700 20.94700
H  0.48700 16.34000 21.66100
H  0.62200 15.09100 22.95500
H  2.06600 16.35700 24.14400
H  1.20100 17.93900 23.58900
H  2.24100 17.02200 22.47800
H  -2.29000 11.68300 26.83300
H  -0.59100 11.85900 27.45900
H  -1.04400 12.43400 25.86100
H  -3.19800 14.84300 31.29000
H  -2.03400 14.57400 35.35000
H  -0.39000 14.70300 34.67800
H  -1.34500 13.17700 34.52600
Mg 23.91800 -5.35300 46.34600
C  26.31700 -3.30700 44.62300
C  21.56500 -4.00400 44.10500
C  21.99000 -8.08000 46.85700
C  26.65200 -6.99900 47.90800
N  24.00000 -3.84600 44.50100
C  25.03300 -3.02800 44.14000
C  24.57100 -2.12500 42.99900
C  23.00700 -2.15300 43.08800
C  22.82700 -3.41800 43.96600
C  22.35400 -0.87500 43.65900
C  25.17000 -2.58600 41.60800
C  26.10400 -1.67100 40.89700
H  26.04000 -1.48600 39.42000
N  22.00100 -5.85700 45.75800
C  21.23400 -5.15300 44.87000
C  19.96400 -5.80800 44.85100
C  20.07500 -7.04600 45.54100
C  21.42900 -7.08100 46.04400
C  18.75200 -5.26700 44.15600
C  18.89700 -8.00300 45.64900
O  17.72900 -7.75100 45.33500
C  19.16100 -9.36200 46.13100
N  24.26700 -7.23100 47.36500
C  23.24100 -8.16600 47.45600
C  23.74900 -9.40000 48.26000
C  25.25900 -9.04100 48.68300
C  25.47000 -7.73600 47.93500
C  22.82900 -9.79600 49.47600
C  26.31400 -10.10100 48.19200
C  27.36700 -10.69200 49.12100
N  26.02700 -5.14600 46.39200
C  26.98300 -5.84400 47.11900
C  28.25300 -5.26300 46.91000
C  28.07700 -4.25500 45.93000
C  26.68800 -4.30700 45.56500
C  29.58500 -5.56800 47.59100
C  28.69700 -3.23700 45.13900
O  29.89200 -2.81400 45.09500
C  27.65800 -2.65800 44.15400
C  27.60600 -1.15200 44.39000
O  27.20600 -0.59200 45.41500
O  28.15900 -0.50300 43.33800
C  28.01200 0.92200 43.25000
H  20.78500 -3.40000 43.63600
H  21.44900 -9.00900 47.05000
H  27.51500 -7.48600 48.36800
H  25.01500 -1.16800 43.27500
H  22.52300 -2.35000 42.13100
H  22.00200 -0.87400 44.69100
H  21.52200 -0.58600 43.01600
H  23.02400 -0.04200 43.44900
H  24.33200 -2.80000 40.94600
H  25.67300 -3.54300 41.75100
H  27.11500 -1.92900 41.21200
H  26.03800 -0.64900 41.27100
H  18.00800 -5.47300 44.92600
H  18.55300 -5.62900 43.14800
H  18.77400 -4.18000 44.08000
H  19.26300 -9.23800 47.20900
H  20.07100 -9.66700 45.61500
H  18.37500 -10.06900 45.86500
H  23.78400 -10.28500 47.62500
H  25.38900 -8.79800 49.73700
H  21.96200 -9.13700 49.51900
H  23.45800 -9.65600 50.35500
H  22.54900 -10.84700 49.41300
H  26.75400 -9.82900 47.23200
H  25.61800 -10.92800 48.05500
H  27.28500 -11.74000 49.41100
H  27.68000 -10.06000 49.95300
H  28.27800 -10.76000 48.52700
H  30.23900 -4.73700 47.32500
H  29.94600 -6.51500 47.19100
H  29.47700 -5.71800 48.66500
H  27.83100 -2.92900 43.11200
H  29.03200 1.28700 43.12700
H  27.34900 1.37300 43.98900
H  27.58900 1.17300 42.27700

