158

Mg 35.76800 0.49500 29.33200
C  33.53400 1.22500 31.80400
C  38.18300 0.25400 31.65800
C  37.96700 -0.27000 26.90300
C  33.25000 0.74400 26.81200
N  35.85700 0.76700 31.34500
C  34.85000 1.01000 32.24700
C  35.35700 1.19200 33.73000
C  36.87800 1.17300 33.55900
C  37.00400 0.69500 32.07600
C  37.69100 2.53000 33.81500
C  34.88000 -0.06200 34.60400
C  34.74500 0.17600 36.17600
H  35.38300 1.41700 36.67400
N  37.81000 0.02300 29.29600
C  38.61800 -0.07200 30.34400
C  39.93900 -0.56400 29.93100
C  39.85300 -0.64500 28.47100
C  38.53000 -0.28600 28.14200
C  41.00700 -0.97100 30.85400
C  40.86900 -1.20700 27.48500
O  40.62800 -1.42600 26.32300
C  42.27700 -1.82700 28.01700
N  35.56600 0.26800 27.17800
C  36.71100 0.01600 26.40700
C  36.32600 -0.11200 24.92900
C  34.85400 0.37400 24.92200
C  34.44200 0.32500 26.36500
C  37.17100 0.79100 24.02100
C  34.00600 -0.59800 24.12400
C  32.96500 -1.50000 24.72400
N  33.79200 0.96400 29.28600
C  32.91800 1.04100 28.21400
C  31.61000 1.40800 28.75400
C  31.79800 1.45700 30.18700
C  33.15200 1.21300 30.44900
C  30.40200 1.40100 27.96900
C  31.09800 1.54500 31.47700
O  29.95200 1.54300 31.78800
C  32.27900 1.60700 32.56500
C  32.23600 2.98100 33.23500
O  32.43300 4.01200 32.58400
O  32.13700 2.87800 34.55600
C  32.14000 4.06900 35.43200
H  38.90300 0.15300 32.47200
H  38.65800 -0.50000 26.09000
H  32.52000 0.86000 26.00800
H  34.98600 2.13600 34.13000
H  37.34600 0.53100 34.30600
H  37.13700 3.15700 34.51300
H  37.69400 2.93300 32.80300
H  38.67000 2.26100 34.21200
H  35.50900 -0.94400 34.48600
H  33.93500 -0.31300 34.12300
H  35.26900 -0.69500 36.57200
H  33.70000 0.23900 36.47900
H  41.99400 -0.59800 30.57900
H  41.00400 -2.05700 30.76400
H  40.81500 -0.45200 31.79300
H  42.80800 -1.09100 28.62100
H  42.79800 -1.93300 27.06500
H  42.01600 -2.73500 28.56000
H  36.44900 -1.19100 24.84400
H  34.61800 1.33400 24.46400
H  36.48200 1.50600 23.57000
H  37.48100 0.27400 23.11300
H  38.08000 1.14400 24.50800
H  34.72200 -1.04300 23.43400
H  33.37500 -0.08800 23.39600
H  31.92800 -1.22600 24.52800
H  33.18800 -1.76300 25.75800
H  33.05100 -2.41700 24.14100
H  30.26300 0.52400 27.33600
H  30.27600 2.15800 27.19600
H  29.51900 1.52600 28.59600
H  32.09200 0.91500 33.38600
H  32.81700 4.88200 35.16900
H  32.38200 3.77600 36.45300
H  31.12500 4.46500 35.45900
Mg 8.72700 48.40700 28.02000
C  7.17600 47.58000 30.97900
C  11.61200 48.84700 29.64400
C  10.17900 49.44600 25.17500
C  5.58900 48.60900 26.46800
N  9.25600 48.28500 30.10700
C  8.44000 47.96700 31.19600
C  9.21100 48.30900 32.50000
C  10.43100 49.13700 31.90700
C  10.46600 48.76000 30.42000
C  10.37900 50.67100 32.09800
C  9.51000 47.08100 33.44000
C  9.07500 47.27900 34.91400
H  9.50800 46.29000 35.99800
N  10.67400 48.70000 27.39600
C  11.74300 48.82500 28.23900
C  12.94500 48.79100 27.40200
C  12.56500 48.92000 26.06600
C  11.06100 48.97600 26.14400
C  14.27600 48.68700 28.08300
C  13.36800 49.02000 24.79200
O  12.80300 49.03500 23.74900
C  14.91300 48.97400 24.90900
N  7.99200 48.92000 26.13200
C  8.81200 49.50700 25.15700
C  8.05700 50.08900 24.00400
C  6.60900 49.58500 24.28200
C  6.68900 48.96000 25.72200
C  8.09200 51.66200 24.08600
C  6.13800 48.55300 23.19800
C  5.00200 49.07500 22.29300
N  6.74300 48.18100 28.56300
C  5.60100 48.15200 27.78600
C  4.53000 47.78600 28.64100
C  5.10900 47.48700 29.91100
C  6.45000 47.75200 29.79200
C  3.00200 47.66300 28.27400
C  4.78400 47.10300 31.28600
O  3.64800 46.83800 31.71400
C  6.15100 47.06000 31.97800
C  6.30600 45.74700 32.52600
O  6.93200 44.84100 31.94300
O  5.92100 45.75500 33.84000
C  6.43500 44.59800 34.63300
H  12.46300 49.06400 30.29200
H  10.64500 49.96300 24.33300
H  4.62600 48.59800 25.95200
H  8.56300 48.96200 33.08400
H  11.28300 48.81500 32.50600
H  9.56900 50.95400 32.77000
H  10.18600 51.24200 31.18900
H  11.32800 51.02400 32.50300
H  10.54700 46.76100 33.34200
H  8.88700 46.28300 33.03600
H  7.98600 47.25500 34.96400
H  9.27000 48.28500 35.28500
H  14.17500 48.41400 29.13400
H  14.75100 49.66700 28.11900
H  14.83000 47.85100 27.65800
H  15.23400 49.88000 25.42400
H  15.31100 48.83100 23.90500
H  15.33000 48.12800 25.45500
H  8.53700 49.82700 23.06200
H  5.91700 50.41600 24.41900
H  7.20900 52.18600 23.72100
H  8.87500 52.08200 23.45500
H  8.29800 51.88600 25.13300
H  6.00200 47.57100 23.65300
H  6.95300 48.33200 22.50800
H  5.07800 49.11000 21.20600
H  4.69900 50.07400 22.60800
H  4.17200 48.36900 22.30500
H  2.33700 47.64800 29.13800
H  2.89800 46.67900 27.81600
H  2.74900 48.39000 27.50200
H  6.02800 47.81100 32.75800
H  7.25300 44.85100 35.30700
H  6.64500 43.65600 34.12700
H  5.56100 44.40500 35.25600

