158

Mg 48.17600 34.31400 26.58100
C  46.31300 32.90100 29.09700
C  48.77400 37.13800 28.56200
C  49.32900 35.94700 23.92900
C  47.31000 31.63400 24.50800
N  47.62600 34.87400 28.52500
C  47.00700 34.07600 29.44900
C  47.22700 34.63600 30.91100
C  47.56900 36.14600 30.65000
C  47.98300 36.05400 29.14200
C  46.43800 37.20100 30.84800
C  48.32400 33.81400 31.57700
C  48.21500 33.82200 33.11300
H  47.04200 34.38400 33.95800
N  48.94600 36.26800 26.34000
C  49.15600 37.22000 27.20200
C  49.95200 38.26900 26.65900
C  50.12800 37.98100 25.29700
C  49.44200 36.67700 25.13000
C  50.31700 39.41200 27.48300
C  50.81200 38.78000 24.22600
O  50.93300 38.41700 23.06100
C  51.50200 40.05200 24.60100
N  48.15700 33.98900 24.44900
C  48.81200 34.71900 23.53300
C  48.97500 34.04500 22.17900
C  48.67400 32.52900 22.53400
C  48.01400 32.69500 23.91200
C  48.17300 34.59000 20.93700
C  49.89500 31.57900 22.50600
C  50.14400 30.78000 21.20400
N  47.08700 32.63100 26.73600
C  46.73400 31.67500 25.74500
C  45.89900 30.69300 26.38900
C  45.66200 31.18200 27.68000
C  46.39600 32.36700 27.76300
C  45.22100 29.55500 25.80000
C  44.95500 30.87400 28.87900
O  44.15000 29.95000 29.18400
C  45.26600 32.07000 29.87000
C  45.84000 31.36000 31.05100
O  46.87300 30.68700 31.04400
O  44.96600 31.41600 32.12400
C  45.31300 30.73400 33.37800
H  49.01200 37.82100 29.37900
H  49.77900 36.47600 23.08700
H  47.18000 30.77300 23.84900
H  46.26400 34.60900 31.42200
H  48.36100 36.41100 31.35000
H  45.65600 36.98200 31.57600
H  45.86000 37.26200 29.92600
H  46.92500 38.15200 31.06300
H  49.33200 34.22200 31.50600
H  48.45900 32.78100 31.25500
H  49.04900 34.30700 33.62000
H  48.12800 32.79800 33.47600
H  49.85000 40.22200 26.92300
H  51.37100 39.60800 27.29100
H  50.06800 39.42700 28.54400
H  51.96300 40.60800 23.78500
H  52.27500 39.92000 25.35800
H  50.71300 40.73500 24.91500
H  50.01200 34.15800 21.86300
H  47.87400 32.16300 21.89000
H  47.12300 34.75800 21.17700
H  48.20200 33.86900 20.12100
H  48.72600 35.48200 20.64400
H  49.73200 30.91000 23.35100
H  50.72800 32.25800 22.68700
H  50.30300 31.41900 20.33600
H  49.30100 30.11100 21.03100
H  51.08300 30.28800 21.45700
H  45.90500 28.73800 26.02900
H  45.09100 29.63100 24.72100
H  44.23800 29.43200 26.25700
H  44.33100 32.61400 30.01000
H  46.30500 30.99400 33.74700
H  45.23400 29.65000 33.29500
H  44.50400 30.93500 34.08000
Mg -5.45700 25.60100 26.01800
C  -4.37800 27.32700 28.96700
C  -7.46400 23.78400 27.98100
C  -6.34300 23.95200 23.26400
C  -3.20000 27.55500 24.17400
N  -5.64100 25.44700 28.25500
C  -5.28600 26.32200 29.26500
C  -5.87900 25.98700 30.59000
C  -6.74200 24.70500 30.25100
C  -6.63900 24.60200 28.71600
C  -6.29600 23.37000 30.96300
C  -6.77500 27.10500 31.16600
C  -6.93600 27.18900 32.74100
H  -6.37300 26.00400 33.64700
N  -6.77900 24.11200 25.59600
C  -7.57200 23.55900 26.60400
C  -8.36800 22.44800 25.92600
C  -8.08000 22.48200 24.48700
C  -7.03700 23.57800 24.40600
C  -9.42400 21.73000 26.65900
C  -8.66600 21.72300 23.33800
O  -8.38600 21.89500 22.14500
C  -9.78200 20.75800 23.65900
N  -4.77500 25.59900 24.00000
C  -5.29100 24.78500 23.05300
C  -4.55800 24.93900 21.70300
C  -3.70300 26.27100 21.94500
C  -3.96500 26.52600 23.43800
C  -3.83600 23.64600 21.31200
C  -3.88100 27.38900 20.92700
C  -5.21500 28.24100 21.04500
N  -4.00700 27.04200 26.39000
C  -3.26300 27.83000 25.55400
C  -2.51700 28.80600 26.33000
C  -2.90100 28.58600 27.69900
C  -3.82200 27.58800 27.65100
C  -1.68800 29.82100 25.68000
C  -2.71500 29.06300 29.08100
O  -1.98400 29.96800 29.44900
C  -3.68400 28.25300 30.00400
C  -2.81800 27.59900 31.02600
O  -1.92400 26.76500 30.86700
O  -3.10800 28.13200 32.24900
C  -2.39000 27.61300 33.42100
H  -8.16100 23.20900 28.59400
H  -6.64400 23.29100 22.44800
H  -2.50800 28.10500 23.53200
H  -5.01600 25.85600 31.24200
H  -7.82200 24.81800 30.34700
H  -6.00700 23.59100 31.99100
H  -5.41300 22.98400 30.45400
H  -7.12800 22.66700 30.91100
H  -7.80300 26.94900 30.84100
H  -6.45900 28.10100 30.85500
H  -7.93800 27.52100 33.01200
H  -6.25900 27.93500 33.15700
H  -10.37200 22.13300 26.30300
H  -9.37100 21.88400 27.73600
H  -9.17400 20.68900 26.45500
H  -9.52800 19.94900 24.34400
H  -9.99900 20.31900 22.68500
H  -10.62400 21.40100 23.91300
H  -5.28200 25.24500 20.94700
H  -2.64700 26.01200 21.87500
H  -4.07200 22.98700 22.14800
H  -2.77900 23.91100 21.27100
H  -4.19400 23.36600 20.32100
H  -3.59500 27.15700 19.90100
H  -3.16300 28.12100 21.29700
H  -5.83500 27.89100 21.87100
H  -5.75900 28.19400 20.10100
H  -4.99300 29.26900 21.33000
H  -2.28900 30.64800 25.30300
H  -1.13400 29.40200 24.84000
H  -1.05100 30.34100 26.39500
H  -4.33400 28.97000 30.50600
H  -1.95200 26.62900 33.25600
H  -3.15700 27.61200 34.19600
H  -1.59300 28.29200 33.72500

