158

Mg 9.60900 4.87800 27.58500
C  10.73200 3.24500 30.53000
C  7.50100 6.78700 29.59600
C  8.26500 6.26400 24.82300
C  11.35900 2.58700 25.67800
N  9.19400 5.01800 29.78500
C  9.86200 4.36600 30.78000
C  9.65700 4.97600 32.18900
C  8.64400 6.13200 31.85600
C  8.37700 5.97400 30.36200
C  7.39200 6.03200 32.75600
C  10.96400 5.43500 32.79100
C  11.34700 4.79900 34.08100
H  11.67300 5.67400 35.32500
N  8.01500 6.23900 27.30300
C  7.31300 6.94900 28.20500
C  6.47500 7.99000 27.50200
C  6.67900 7.82700 26.12900
C  7.69300 6.72600 25.99500
C  5.50500 9.00500 28.17700
C  6.08900 8.66500 25.01800
O  6.29100 8.50500 23.80100
C  5.14300 9.80300 25.30100
N  9.70300 4.39500 25.47200
C  9.16300 5.24500 24.56700
C  9.79600 4.91200 23.12400
C  10.58100 3.57700 23.43500
C  10.63000 3.57600 25.00600
C  8.81200 4.84400 21.90400
C  11.90500 3.50500 22.77000
C  12.12200 2.48000 21.56900
N  10.83700 3.25400 27.99800
C  11.42300 2.35300 27.09400
C  12.13000 1.27900 27.78400
C  11.94400 1.71200 29.11900
C  11.04100 2.79200 29.23700
C  12.84300 0.08500 27.25900
C  12.34900 1.31800 30.45300
O  13.09300 0.41200 30.84300
C  11.58500 2.31100 31.44900
C  10.79400 1.58100 32.49500
O  9.62300 1.26300 32.38300
O  11.63200 1.11100 33.53300
C  10.88900 0.70300 34.63800
H  6.85800 7.45700 30.17000
H  7.88100 6.67200 23.88500
H  11.92100 1.90500 25.03700
H  9.10000 4.23100 32.75700
H  9.22100 7.05100 31.96500
H  6.46200 5.83600 32.22300
H  7.33400 7.06400 33.10200
H  7.48400 5.50200 33.70400
H  10.94800 6.51300 32.95000
H  11.76400 5.26200 32.07100
H  12.28500 4.35100 33.75300
H  10.65900 3.99800 34.34900
H  5.51900 8.77200 29.24200
H  4.49900 9.06100 27.76200
H  5.84400 10.04100 28.21000
H  4.19200 9.46500 25.71400
H  4.96600 10.34000 24.36900
H  5.64400 10.39300 26.06800
H  10.48500 5.73900 22.95100
H  9.91000 2.76900 23.14400
H  7.84200 4.53100 22.29000
H  9.23400 4.13200 21.19400
H  8.88500 5.87500 21.55900
H  12.65300 3.23800 23.51700
H  12.26600 4.44100 22.34400
H  13.11900 2.15900 21.26600
H  11.75100 2.82800 20.60500
H  11.47100 1.64400 21.82600
H  12.94100 0.01700 26.17600
H  12.24500 -0.72300 27.68000
H  13.84000 0.22600 27.67800
H  12.40400 2.80200 31.97400
H  10.06400 1.40200 34.77400
H  11.54800 0.64700 35.50500
H  10.48000 -0.28500 34.42800
Mg 47.65000 24.11400 27.67700
C  48.56500 26.10500 30.44400
C  47.09500 21.55500 30.12100
C  47.00100 22.00300 25.32400
C  48.81100 26.51100 25.54400
N  47.65400 23.87900 30.04700
C  48.05500 24.90000 30.94500
C  47.94100 24.46500 32.43500
C  47.43400 22.96400 32.33200
C  47.44600 22.73400 30.73500
C  48.42100 21.96600 33.01200
C  47.03400 25.36100 33.30900
C  47.65500 25.90400 34.64300
H  46.58700 26.31900 35.64800
N  47.04400 22.06200 27.69300
C  46.87100 21.22500 28.76600
C  46.32500 19.91900 28.27900
C  46.30600 20.02300 26.87600
C  46.83600 21.37100 26.55700
C  45.92600 18.73700 29.08400
C  45.73100 19.02600 25.88500
O  45.93900 19.21600 24.69000
C  45.20600 17.65900 26.29900
N  47.76800 24.34600 25.72700
C  47.38900 23.29100 24.88600
C  47.14600 23.78100 23.42600
C  47.77400 25.29500 23.54900
C  48.25300 25.36500 24.97100
C  47.91000 22.92200 22.40700
C  46.77200 26.37800 23.15000
C  46.73600 26.57700 21.71400
N  48.39900 25.99600 27.91100
C  48.80800 26.85100 26.91700
C  49.35100 28.05700 27.53500
C  49.28000 27.81600 28.91000
C  48.67300 26.55800 29.08000
C  49.87800 29.19900 26.84000
C  49.49800 28.38400 30.23700
O  49.85600 29.50800 30.54100
C  49.13700 27.29500 31.22400
C  50.37400 26.92300 31.90600
O  51.14500 26.05200 31.52800
O  50.46900 27.67100 33.02500
C  51.53000 27.06600 33.89800
H  46.84200 20.75500 30.82000
H  46.75100 21.40000 24.44800
H  49.14300 27.35800 24.94000
H  48.94500 24.56100 32.84700
H  46.41400 22.86200 32.70400
H  49.02000 22.63200 33.63200
H  49.05000 21.37300 32.34900
H  47.91100 21.37600 33.77300
H  46.14500 24.83500 33.65700
H  46.67100 26.16300 32.66700
H  48.27100 26.75100 34.34100
H  48.39200 25.15000 34.92200
H  46.75700 18.04000 28.98200
H  44.92000 18.41500 28.81200
H  45.77700 18.96800 30.13900
H  45.86500 17.15000 27.00300
H  45.18700 17.04900 25.39600
H  44.21000 17.70200 26.73800
H  46.05600 23.78700 23.42900
H  48.65000 25.41000 22.91100
H  48.22500 22.07200 23.01200
H  48.74700 23.41100 21.90900
H  47.34300 22.54500 21.55500
H  47.07200 27.33600 23.57600
H  45.74100 26.16200 23.43000
H  47.68300 26.39000 21.21000
H  46.49600 27.61200 21.46900
H  46.01900 25.94300 21.19300
H  49.61200 29.22000 25.78300
H  50.95100 29.37000 26.93100
H  49.40700 30.06700 27.30200
H  48.56900 27.81600 31.99400
H  51.53700 27.76900 34.73100
H  52.53500 27.04300 33.47500
H  51.36800 26.02500 34.17800

