158

Mg 25.90700 -0.34400 29.22600
C  27.89400 -0.58300 32.04800
C  23.19000 -0.31000 31.45000
C  24.08200 -0.09200 26.53500
C  28.73000 -1.12400 27.32500
N  25.56300 -0.54900 31.53900
C  26.53900 -0.48000 32.43300
C  25.98000 -0.22100 33.84700
C  24.45700 -0.51600 33.68700
C  24.36200 -0.54100 32.12000
C  23.96000 -1.85400 34.27400
C  26.42600 1.26300 34.42800
C  27.05600 1.38200 35.80300
H  26.07300 1.90600 36.88000
N  23.91200 -0.25900 28.98200
C  22.92800 -0.20400 30.02400
C  21.66200 -0.18200 29.36500
C  21.92900 -0.12600 27.94700
C  23.33800 -0.17200 27.75700
C  20.40400 -0.16200 30.19700
C  20.97200 -0.13500 26.86100
O  21.25600 -0.12600 25.64600
C  19.52100 -0.15100 27.22300
N  26.32800 -0.64200 27.23500
C  25.41000 -0.42500 26.29900
C  25.95400 -0.48800 24.87800
C  27.45800 -0.76500 25.15400
C  27.51100 -0.85900 26.65200
C  25.37800 -1.51600 23.88200
C  28.27900 0.41000 24.59900
C  28.24300 1.69900 25.47000
N  27.96900 -0.73700 29.55300
C  28.99700 -1.09200 28.74200
C  30.24500 -1.23300 29.51400
C  29.81400 -0.89100 30.79300
C  28.43600 -0.73900 30.75600
C  31.53600 -1.64600 28.89100
C  30.39100 -0.90200 32.13100
O  31.49300 -1.12800 32.53900
C  29.13700 -0.57100 32.99300
C  29.05800 -1.36300 34.28800
O  28.43100 -2.42000 34.38600
O  29.64000 -0.73200 35.35800
C  29.55200 -1.49300 36.61600
H  22.42500 -0.31700 32.23000
H  23.55600 0.15900 25.61100
H  29.62700 -1.17300 26.70400
H  26.47000 -0.94700 34.49600
H  23.93400 0.23200 34.28300
H  23.19500 -1.58400 35.00200
H  24.79400 -2.30100 34.81600
H  23.65900 -2.52100 33.46700
H  25.54300 1.89800 34.35800
H  27.06200 1.79300 33.71900
H  27.94600 1.99500 35.66000
H  27.45700 0.44900 36.19900
H  19.98800 -1.16800 30.15400
H  19.69600 0.66000 30.09300
H  20.56000 -0.12700 31.27500
H  19.23800 -1.06800 27.74200
H  18.88000 0.08400 26.37400
H  19.32800 0.70000 27.87600
H  25.75000 0.47300 24.40500
H  27.87400 -1.64000 24.65500
H  24.53800 -2.04700 24.33100
H  26.07000 -2.25200 23.47300
H  24.95500 -1.01000 23.01400
H  27.87500 0.69800 23.62900
H  29.30300 0.11800 24.36800
H  27.90800 1.45300 26.47800
H  27.65300 2.52400 25.07200
H  29.26700 2.04100 25.62500
H  31.23700 -2.57100 28.39900
H  32.22900 -1.86000 29.70500
H  31.82400 -0.84400 28.21100
H  29.26000 0.45300 33.34800
H  29.34900 -2.56000 36.52400
H  28.79300 -1.05600 37.26500
H  30.41500 -1.33800 37.26300
Mg -1.61900 34.77000 26.33400
C  -3.02000 33.00200 29.04400
C  -0.55700 37.17500 28.56100
C  -0.97200 36.75700 23.76100
C  -2.92400 32.33700 24.10500
N  -1.76900 35.04000 28.56500
C  -2.29200 34.15100 29.48900
C  -2.04900 34.64700 30.86000
C  -1.28800 36.00200 30.71900
C  -1.10500 36.08000 29.15900
C  -2.14200 37.28600 31.32400
C  -1.30000 33.52000 31.60200
C  -2.19900 32.96600 32.78500
H  -1.56100 32.82400 34.18800
N  -0.74000 36.59400 26.17100
C  -0.35300 37.41300 27.20200
C  0.24300 38.63500 26.66300
C  0.17600 38.49000 25.25200
C  -0.56400 37.29500 24.96100
C  0.85100 39.65800 27.58700
C  0.79300 39.41500 24.15300
O  0.66100 39.14000 23.00800
C  1.63300 40.53500 24.39500
N  -2.04300 34.58600 24.21600
C  -1.50600 35.52200 23.38400
C  -1.32900 34.96400 21.88800
C  -1.93600 33.56900 22.00600
C  -2.37100 33.48900 23.52700
C  -1.95100 35.88000 20.84400
C  -1.02600 32.32200 21.78100
C  0.04600 31.88500 22.87000
N  -2.77900 33.09300 26.54400
C  -3.11500 32.13800 25.52500
C  -3.81400 31.01300 26.10900
C  -3.84600 31.31700 27.51900
C  -3.18400 32.58600 27.71900
C  -4.43600 29.85000 25.38200
C  -4.32400 30.91500 28.80500
O  -5.13700 30.03700 29.10000
C  -3.73400 31.89800 29.84300
C  -4.78600 32.43900 30.74300
O  -5.46500 33.45800 30.61900
O  -4.97500 31.49400 31.81400
C  -6.05000 31.85000 32.77400
H  -0.25300 37.97300 29.24200
H  -0.53700 37.32600 22.93700
H  -3.19900 31.52600 23.42900
H  -3.07100 34.84700 31.18300
H  -0.31400 36.07800 31.20100
H  -2.83200 37.77300 30.63500
H  -1.39400 38.02000 31.62400
H  -2.58000 36.82400 32.20900
H  -0.31800 33.82500 31.96300
H  -1.06800 32.72000 30.89900
H  -2.53200 31.95700 32.54000
H  -3.12700 33.50900 32.96500
H  1.80200 39.39300 28.05000
H  0.17500 39.80900 28.42900
H  0.68400 40.62600 27.11400
H  2.65600 40.21700 24.59200
H  1.30400 41.19300 25.20000
H  1.64700 41.23400 23.55900
H  -0.28000 34.86100 21.61100
H  -2.80100 33.45800 21.35200
H  -1.94500 36.92200 21.16400
H  -2.97200 35.53600 20.67700
H  -1.47500 35.80300 19.86700
H  -0.40700 32.31300 20.88400
H  -1.63000 31.42700 21.63400
H  -0.31900 30.96400 23.32400
H  0.12200 32.70500 23.58300
H  1.02500 31.67200 22.44100
H  -4.53000 28.98900 26.04500
H  -3.89000 29.54600 24.49000
H  -5.43100 30.15000 25.05200
H  -3.09700 31.19900 30.38600
H  -6.91200 32.36400 32.34900
H  -5.65500 32.42100 33.61400
H  -6.51300 30.91500 33.09000

