158

Mg 50.22300 44.88100 42.38500
C  47.01900 45.44900 40.66400
C  50.05300 41.54300 41.31200
C  53.57000 44.36900 42.93300
C  50.61400 48.18000 42.73800
N  48.74600 43.69600 41.06500
C  47.48600 44.12800 40.57200
C  46.68800 42.88400 40.17000
C  47.56100 41.59900 40.48000
C  48.85900 42.29700 41.06200
C  46.78500 40.49200 41.32000
C  46.11000 42.92600 38.69300
C  46.83700 43.65200 37.51000
H  47.20500 42.82700 36.26100
N  51.63800 43.18600 42.27100
C  51.34100 41.96800 41.71000
C  52.57500 41.16600 41.60600
C  53.59800 41.93300 42.18900
C  52.95300 43.25900 42.44500
C  52.61400 39.80300 41.13000
C  55.06500 41.51500 42.40200
O  55.35400 40.36100 42.19100
C  56.13000 42.46000 42.78900
N  51.80000 46.08000 42.94200
C  53.03900 45.62900 43.28200
C  53.98700 46.83700 43.52900
C  52.99400 47.99100 43.79700
C  51.72800 47.42400 43.12200
C  55.02900 46.67800 44.64300
C  53.49900 49.36500 43.27100
C  53.46400 50.38700 44.34700
N  48.95700 46.50800 42.01000
C  49.29600 47.80500 42.17700
C  48.17000 48.59900 41.90200
C  47.23900 47.78900 41.27400
C  47.77900 46.47800 41.30200
C  48.14000 50.15000 42.03800
C  45.91300 47.69000 40.70900
O  45.00700 48.50100 40.58400
C  45.77800 46.10000 40.18100
C  44.47000 45.53100 40.68400
O  43.53200 45.24400 39.98100
O  44.32000 45.63900 42.06100
C  43.14700 45.03700 42.65700
H  50.01800 40.46900 41.11900
H  54.64000 44.29900 43.14300
H  50.77400 49.25900 42.77700
H  45.82800 42.88500 40.84100
H  47.93700 41.15100 39.56100
H  45.90900 40.80400 41.88900
H  47.46700 40.16700 42.10600
H  46.43300 39.68000 40.68400
H  45.03300 43.08800 38.63100
H  46.10900 41.88300 38.37500
H  47.69500 44.24200 37.83200
H  46.19100 44.42800 37.10000
H  53.47400 39.61700 40.48700
H  51.67400 39.54600 40.64400
H  52.66900 39.07500 41.93900
H  56.11300 43.35200 42.16400
H  57.12300 42.01000 42.78600
H  55.89000 42.66500 43.83200
H  54.43200 46.95900 42.54200
H  52.88300 47.94800 44.88100
H  54.80400 45.73900 45.15000
H  54.98400 47.44200 45.42000
H  56.01200 46.61300 44.17600
H  52.98900 49.58700 42.33400
H  54.52300 49.15200 42.96300
H  52.77500 49.93500 45.06100
H  53.00800 51.33500 44.06400
H  54.47700 50.61300 44.68000
H  47.43000 50.54300 41.31000
H  49.11900 50.61300 41.91300
H  47.73200 50.35500 43.02800
H  45.82600 46.03800 39.09400
H  43.11100 45.27800 43.72000
H  43.10800 43.97000 42.44200
H  42.22000 45.46400 42.27600
Mg 27.38400 50.60500 27.06400
C  24.84100 51.22600 29.50600
C  29.44100 49.73800 29.50900
C  29.50700 49.57500 24.62000
C  25.10800 51.64800 24.73500
N  27.06200 50.33600 29.22700
C  26.01000 50.70700 30.01000
C  26.39400 50.47400 31.51900
C  27.91000 50.13100 31.46700
C  28.14100 50.00500 29.93900
C  28.85000 51.16300 32.16000
C  25.40200 49.38900 32.10500
C  24.56200 49.80700 33.37600
H  24.53900 48.90300 34.58200
N  29.28000 49.93100 27.04700
C  29.92600 49.64800 28.20500
C  31.30700 49.27100 27.88300
C  31.40800 49.19900 26.39700
C  30.06700 49.55600 25.92300
C  32.39300 48.94700 28.85300
C  32.48900 48.67900 25.55800
O  32.41300 48.83000 24.35400
C  33.80800 48.16400 26.01800
N  27.27800 50.55700 24.94000
C  28.30500 50.06300 24.11200
C  27.91400 50.05300 22.62600
C  26.59400 50.94700 22.66500
C  26.26500 51.08400 24.18100
C  28.95300 50.47400 21.50700
C  25.43300 50.52700 21.74100
C  24.29500 49.75600 22.32600
N  25.48700 51.40500 27.05900
C  24.68400 51.74000 26.03100
C  23.42700 52.32600 26.45600
C  23.46800 52.18500 27.84400
C  24.67300 51.55900 28.11600
C  22.33100 53.05600 25.60800
C  22.76000 52.41600 29.11500
O  21.75200 53.07500 29.42900
C  23.64900 51.75800 30.21300
C  23.82100 52.80100 31.30600
O  24.52700 53.81800 31.17200
O  22.96600 52.65000 32.32700
C  23.00700 53.58100 33.46800
H  30.11300 49.47500 30.32900
H  30.28800 49.29000 23.91200
H  24.46200 52.02700 23.94000
H  26.28900 51.42800 32.03600
H  27.94600 49.17000 31.98000
H  29.83200 51.05200 31.70100
H  28.83500 50.95500 33.23000
H  28.44100 52.16800 32.05900
H  25.87000 48.44900 32.39600
H  24.64000 49.03500 31.41100
H  23.52100 50.08800 33.21400
H  25.00000 50.73100 33.75300
H  32.33500 47.88000 29.07100
H  32.31800 49.57900 29.73800
H  33.35500 49.04200 28.34900
H  34.32700 48.92600 26.59800
H  34.48300 47.71800 25.28800
H  33.46300 47.37800 26.69000
H  27.62900 49.00400 22.54900
H  26.92400 51.92900 22.32800
H  29.51400 49.63900 21.08700
H  29.57700 51.34100 21.72300
H  28.43200 50.92400 20.66200
H  25.87300 49.89200 20.97200
H  25.07400 51.47700 21.34500
H  23.95700 49.03200 21.58500
H  23.55800 50.50600 22.61400
H  24.64300 49.22800 23.21300
H  22.21000 54.03700 26.06800
H  21.33200 52.63200 25.50700
H  22.66400 53.25500 24.58900
H  23.10800 50.92500 30.66200
H  23.72900 53.17500 34.17600
H  22.07200 53.64300 34.02500
H  23.36000 54.59200 33.26200

