158

Mg 25.42300 1.28300 29.83500
C  27.56100 1.39900 32.66800
C  22.81600 1.36000 32.07700
C  23.30900 1.08900 27.28800
C  28.14900 1.01700 27.76800
N  25.18000 1.26900 32.16600
C  26.20100 1.46600 33.10800
C  25.71400 1.67500 34.53500
C  24.18700 1.54600 34.35000
C  24.01900 1.44400 32.75500
C  23.61300 0.36700 35.19400
C  26.14000 3.08600 35.03500
C  26.85800 3.22000 36.38100
H  26.27400 4.20400 37.36300
N  23.29300 1.13600 29.73200
C  22.42500 1.23300 30.74600
C  21.15900 1.23200 30.22700
C  21.19700 0.99600 28.86100
C  22.65400 1.02500 28.57000
C  19.94700 1.42100 30.98000
C  20.08500 0.85700 27.77100
O  20.39000 0.61200 26.59900
C  18.66800 0.98100 28.07800
N  25.62800 1.02000 27.81700
C  24.67300 1.12900 26.86700
C  25.17500 1.24400 25.42200
C  26.69700 1.29500 25.69500
C  26.83100 1.14000 27.20700
C  24.69900 0.28900 24.33600
C  27.30600 2.50000 25.01100
C  26.90700 3.85000 25.67400
N  27.44200 1.09000 30.12700
C  28.40600 0.92200 29.14300
C  29.67600 0.83300 29.78400
C  29.41000 1.02000 31.20200
C  28.05100 1.16800 31.34200
C  30.93400 0.61900 29.03500
C  30.03200 1.12200 32.45000
O  31.23600 1.21200 32.67200
C  28.85000 1.57600 33.49400
C  28.96200 0.51000 34.65100
O  28.74500 -0.69500 34.55700
O  29.32700 1.16500 35.79300
C  29.90800 0.45200 36.95800
H  21.95900 1.52100 32.73400
H  22.70000 1.21100 26.39000
H  29.03400 0.98500 27.12900
H  26.10100 0.90700 35.20500
H  23.57200 2.42800 34.53200
H  22.84200 -0.14500 34.61800
H  23.04900 0.81900 36.01000
H  24.34900 -0.31700 35.61700
H  25.25000 3.71400 34.99700
H  26.87700 3.46800 34.32700
H  27.79600 3.66100 36.04300
H  27.01600 2.23700 36.82500
H  19.47000 2.31600 30.58100
H  20.10100 1.57800 32.04800
H  19.30300 0.54200 30.99200
H  18.37500 0.20000 28.78000
H  18.13200 0.84500 27.13900
H  18.36400 1.93800 28.50300
H  24.94400 2.26800 25.12900
H  27.20800 0.46300 25.20900
H  24.12300 0.77500 23.54800
H  24.02300 -0.46600 24.73900
H  25.60500 -0.13700 23.90500
H  26.89900 2.50500 24.00000
H  28.39200 2.41800 25.07000
H  26.39900 3.58000 26.60000
H  26.13000 4.33800 25.08500
H  27.73800 4.54500 25.79800
H  31.07400 1.39100 28.27900
H  30.89900 -0.33100 28.50100
H  31.83200 0.64100 29.65100
H  29.16400 2.51300 33.95500
H  30.39700 -0.51900 36.88700
H  29.16100 0.41200 37.75100
H  30.69400 1.08400 37.37100
Mg 42.28200 41.63000 26.35400
C  41.39400 43.97300 28.74500
C  43.52400 39.61200 28.98400
C  43.11000 39.30800 24.03900
C  41.53200 43.86100 23.84600
N  42.52900 41.78100 28.57500
C  41.87700 42.78000 29.30400
C  41.82500 42.48100 30.80700
C  42.69900 41.19400 30.80500
C  42.99800 40.82400 29.39300
C  44.05800 41.34300 31.60100
C  40.26500 42.32500 31.39400
C  40.15800 42.69800 32.91400
H  39.68000 41.73100 33.91000
N  43.12400 39.68700 26.46500
C  43.59600 39.10000 27.62500
C  44.11300 37.77000 27.22000
C  43.88900 37.60100 25.86500
C  43.37200 38.90800 25.39500
C  44.80700 36.88600 28.23500
C  44.02800 36.33000 24.99600
O  43.94500 36.38900 23.74300
C  44.51600 35.03400 25.63500
N  42.36000 41.59400 24.28300
C  42.65300 40.50800 23.54900
C  42.46900 40.72600 22.07900
C  41.96500 42.18700 22.04700
C  41.87300 42.61300 23.47000
C  43.80700 40.45900 21.38300
C  40.77200 42.49700 21.09800
C  41.12700 42.44400 19.59000
N  41.63700 43.56000 26.24300
C  41.35600 44.33600 25.14400
C  40.84100 45.59700 25.57300
C  40.81200 45.56800 27.04100
C  41.31300 44.25700 27.36300
C  40.35300 46.71200 24.66000
C  40.42400 46.23000 28.23400
O  39.89000 47.32600 28.41700
C  40.81800 45.20300 29.40700
C  41.58100 45.79300 30.58000
O  42.81400 45.77800 30.75700
O  40.64600 46.31400 31.46000
C  41.18700 46.80100 32.73200
H  43.65000 38.85600 29.76200
H  43.27700 38.52700 23.29400
H  41.22800 44.53300 23.04000
H  42.26100 43.25900 31.43400
H  42.08200 40.45800 31.32000
H  44.20600 42.28400 32.13200
H  44.87800 41.26100 30.88700
H  44.29800 40.61400 32.37500
H  39.84900 41.34100 31.17700
H  39.67700 42.92800 30.70200
H  39.33400 43.41000 32.97000
H  41.03500 43.15600 33.37100
H  45.34300 36.01400 27.85900
H  44.04100 36.40500 28.84200
H  45.55300 37.51100 28.72600
H  44.06300 34.33500 24.93200
H  43.98800 34.92900 26.58300
H  45.59700 34.95000 25.74000
H  41.68100 40.03400 21.78300
H  42.67700 42.84200 21.54400
H  43.58400 39.74000 20.59500
H  44.55900 39.98900 22.01800
H  44.17800 41.36800 20.91100
H  40.44000 43.52000 21.27200
H  39.98100 41.79200 21.35400
H  42.21400 42.36900 19.54700
H  40.75900 43.35200 19.11400
H  40.71400 41.59500 19.04600
H  39.37700 46.92500 25.09600
H  40.22300 46.36600 23.63400
H  41.04900 47.55000 24.65800
H  39.86000 45.03400 29.89800
H  42.03300 47.45100 32.50700
H  41.64400 46.10300 33.43400
H  40.43000 47.48400 33.11800

