158

Mg 25.78600 0.90000 29.58300
C  27.83700 0.83200 32.39200
C  23.12700 1.45500 31.53000
C  23.96200 1.21900 26.79900
C  28.57000 0.22600 27.49700
N  25.51600 1.00000 31.69600
C  26.48500 1.05500 32.70200
C  25.85700 1.23500 34.10200
C  24.32100 1.28700 33.75600
C  24.27700 1.16100 32.25000
C  23.30700 0.41600 34.53500
C  26.53500 2.47000 34.85400
C  25.66200 2.95500 36.08000
H  26.45300 3.16300 37.34400
N  23.79400 1.27300 29.16400
C  22.83600 1.48900 30.11100
C  21.62300 1.88500 29.49200
C  21.76300 1.65700 28.08600
C  23.22300 1.38400 27.94000
C  20.26600 2.07700 30.28500
C  20.75900 1.81900 26.97000
O  20.98300 1.68500 25.79000
C  19.33000 2.28800 27.26600
N  26.19400 0.76600 27.43500
C  25.30200 0.94600 26.47500
C  25.79200 0.86600 25.10200
C  27.26200 0.45700 25.27000
C  27.38100 0.55200 26.83700
C  24.95900 0.04100 24.06800
C  28.18400 1.46000 24.53700
C  29.50800 0.78100 23.96400
N  27.83400 0.43200 29.87300
C  28.79500 0.06500 28.91900
C  30.06000 -0.14000 29.65600
C  29.69800 0.22300 31.04800
C  28.35000 0.51300 31.08200
C  31.36600 -0.40200 29.00200
C  30.21300 0.46500 32.34700
O  31.36800 0.35000 32.69500
C  29.03800 0.87700 33.28700
C  28.91800 0.01200 34.39500
O  28.24700 -1.00900 34.40600
O  29.53700 0.59300 35.47800
C  29.39300 -0.13900 36.69200
H  22.23400 1.72800 32.09600
H  23.24900 1.15000 25.97500
H  29.40300 0.05500 26.81200
H  26.16400 0.37300 34.69500
H  24.05700 2.30500 34.04100
H  22.91500 -0.35600 33.87200
H  22.47600 0.99700 34.93600
H  23.79500 -0.04000 35.39600
H  26.57600 3.24600 34.08900
H  27.50900 2.18000 35.24900
H  24.89600 2.19000 36.20600
H  25.32600 3.95200 35.79500
H  19.75300 3.03700 30.22800
H  20.32100 2.04500 31.37300
H  19.60900 1.29500 29.90600
H  18.62100 1.97000 26.50100
H  19.34100 3.37700 27.24400
H  18.95100 1.81200 28.17100
H  25.63200 1.86100 24.68600
H  27.48200 -0.51600 24.83100
H  24.30500 -0.62500 24.63000
H  25.60500 -0.52700 23.39900
H  24.36300 0.69100 23.42800
H  28.28900 2.29700 25.22700
H  27.70600 1.83100 23.63000
H  30.41200 1.13100 24.46300
H  29.62900 1.01100 22.90600
H  29.48600 -0.30100 24.10000
H  31.69400 0.47700 28.44800
H  31.26900 -1.23700 28.30700
H  32.10800 -0.50800 29.79300
H  29.17200 1.94400 33.46300
H  30.26100 0.18400 37.26700
H  29.58000 -1.20800 36.59000
H  28.49600 0.21900 37.19800
Mg 41.66900 8.54100 29.62900
C  43.54500 9.68800 32.43300
C  39.15200 7.69100 31.76100
C  40.02900 7.21000 26.93900
C  44.36600 9.42800 27.66100
N  41.45800 8.38100 31.92000
C  42.31900 9.01900 32.87600
C  41.70700 8.89000 34.31300
C  40.34800 8.10300 34.08100
C  40.25600 8.11000 32.47200
C  40.18900 6.66400 34.68200
C  41.41400 10.27600 34.87200
C  40.44900 10.23600 36.06300
H  40.77600 11.22500 37.14700
N  39.89800 7.48000 29.40100
C  38.96500 7.36600 30.38500
C  37.79300 6.82600 29.75400
C  37.94200 6.78300 28.31800
C  39.29800 7.22100 28.15900
C  36.60100 6.35100 30.51500
C  36.98000 6.31700 27.21100
O  37.35100 6.15700 26.06500
C  35.55700 6.06400 27.51000
N  42.13800 8.27100 27.64000
C  41.30600 7.69100 26.64600
C  41.90500 7.74300 25.16800
C  43.16200 8.71600 25.50700
C  43.20200 8.89700 27.07300
C  42.23700 6.36200 24.48100
C  43.11900 10.03600 24.69900
C  42.51200 11.32700 25.37300
N  43.59700 9.34400 29.91000
C  44.57600 9.68800 29.03300
C  45.64600 10.23200 29.62600
C  45.28500 10.25000 30.96700
C  44.00800 9.73900 31.10600
C  46.94900 10.62000 28.92000
C  45.73000 10.74000 32.25700
O  46.74000 11.36400 32.57900
C  44.62900 10.24200 33.28900
C  45.17800 9.46700 34.45700
O  46.12400 8.65700 34.43700
O  44.43400 9.76000 35.59200
C  44.65700 8.87600 36.71100
H  38.34400 7.44800 32.45400
H  39.58100 6.69900 26.08400
H  45.09600 9.72800 26.90600
H  42.39200 8.35400 34.97000
H  39.52400 8.77200 34.32900
H  39.40100 6.62800 35.43400
H  41.03700 6.36000 35.29500
H  40.18200 5.90400 33.90100
H  40.94100 10.80600 34.04500
H  42.24000 10.92000 35.17200
H  40.33100 9.24300 36.49600
H  39.47400 10.61300 35.75500
H  36.70300 6.47500 31.59300
H  36.50900 5.30500 30.22200
H  35.70000 6.84000 30.14600
H  35.12900 5.83600 26.53400
H  35.18200 6.95600 28.01200
H  35.51200 5.17300 28.13600
H  41.18700 8.20100 24.48800
H  44.05300 8.11500 25.32000
H  43.30500 6.25900 24.28900
H  41.81100 6.28900 23.48000
H  41.99300 5.43000 24.99000
H  42.55000 9.95900 23.77300
H  44.13100 10.35400 24.44900
H  41.97100 10.94800 26.24100
H  41.78900 11.84600 24.74200
H  43.28200 12.07100 25.58000
H  47.85200 10.29800 29.43800
H  47.00600 11.69900 29.06100
H  47.09800 10.15500 27.94600
H  44.24300 11.17800 33.69300
H  44.18200 9.33600 37.57800
H  45.71600 8.70000 36.89400
H  44.23300 7.88400 36.55300

