158

Mg -1.71600 17.89700 27.38600
C  -2.53600 15.81000 29.99700
C  -2.61100 20.61900 29.37600
C  -1.19400 19.94100 24.77200
C  -1.32000 15.16000 25.28600
N  -2.37700 18.16900 29.50400
C  -2.74100 17.20400 30.35400
C  -3.10500 17.79100 31.72000
C  -3.44200 19.29700 31.29100
C  -2.80500 19.38700 29.98000
C  -4.90200 19.72500 31.25400
C  -1.95300 17.69700 32.71500
C  -2.19800 17.14000 34.12200
H  -1.01500 16.98400 35.05100
N  -1.62700 19.93300 27.20800
C  -1.97600 20.93300 28.14600
C  -1.78200 22.25000 27.56400
C  -1.40100 22.09700 26.19400
C  -1.36300 20.62400 26.02500
C  -2.19900 23.47900 28.33100
C  -1.23300 23.16600 25.03500
O  -0.81800 22.79600 23.94600
C  -1.29600 24.55300 25.45300
N  -1.40700 17.61300 25.25900
C  -1.16700 18.58000 24.39900
C  -0.97400 18.09900 23.01400
C  -0.80700 16.57700 23.22500
C  -1.21000 16.38600 24.69900
C  -2.08700 18.47800 21.97600
C  0.66600 16.00400 22.89800
C  1.85400 16.67600 23.65900
N  -1.94400 15.90100 27.53300
C  -1.72500 14.89300 26.64900
C  -1.80100 13.62900 27.34400
C  -2.09300 13.89600 28.66700
C  -2.16900 15.37100 28.72400
C  -1.85100 12.28800 26.73900
C  -2.37500 13.30000 29.92900
O  -2.34900 12.13900 30.31000
C  -2.67300 14.53400 30.82800
C  -1.65100 14.34600 31.90100
O  -0.49600 14.70000 31.78800
O  -2.16900 13.69700 32.95500
C  -1.22600 13.04600 33.88400
H  -2.88200 21.41200 30.07700
H  -0.88900 20.58000 23.94000
H  -1.11900 14.27800 24.67300
H  -3.97000 17.30300 32.16900
H  -3.00400 19.99000 32.01000
H  -5.51500 18.86200 31.51100
H  -5.17500 20.11400 30.27200
H  -5.11900 20.42400 32.06200
H  -1.66000 18.71100 32.98700
H  -1.13700 17.14100 32.25400
H  -2.50900 16.12100 33.89200
H  -2.97300 17.74400 34.59300
H  -1.35500 24.16700 28.38000
H  -2.50700 23.29600 29.36000
H  -3.06300 23.88400 27.80300
H  -2.30300 24.85100 25.74600
H  -0.98000 25.19000 24.62700
H  -0.51600 24.69800 26.20000
H  -0.02100 18.55200 22.74300
H  -1.44500 16.01500 22.54300
H  -2.80800 19.14600 22.44800
H  -2.57800 17.73000 21.35400
H  -1.52200 19.10600 21.28700
H  0.90500 16.32000 21.88300
H  0.69700 14.91500 22.88500
H  1.54100 17.20000 24.56200
H  2.56100 17.29100 23.10300
H  2.45000 15.81700 23.96900
H  -2.73800 11.76500 27.09500
H  -0.92500 11.76800 26.98500
H  -2.02500 12.45900 25.67700
H  -3.65100 14.49900 31.30900
H  -1.27900 11.97400 33.69200
H  -1.56200 13.17200 34.91300
H  -0.17700 13.31300 33.75600
Mg 41.51200 42.17700 26.62900
C  40.72300 44.55200 29.17600
C  42.51400 40.01600 29.00600
C  42.26200 40.07300 24.25000
C  40.58100 44.55800 24.27900
N  41.76200 42.38000 28.85300
C  41.28900 43.41500 29.69600
C  41.47900 43.05400 31.18400
C  42.09100 41.59400 31.07500
C  42.15000 41.27400 29.60200
C  43.45400 41.31400 31.91100
C  40.15700 43.14700 32.00200
C  40.05000 42.37100 33.37300
H  39.58100 43.08400 34.75700
N  42.27000 40.26100 26.63300
C  42.58200 39.50000 27.72100
C  43.05900 38.29100 27.28100
C  43.05500 38.30900 25.90500
C  42.54900 39.58100 25.52400
C  43.54900 37.18800 28.20800
C  43.41000 37.22700 24.91400
O  43.19000 37.33600 23.74400
C  43.99500 36.02800 25.38400
N  41.46400 42.32100 24.60400
C  41.69800 41.26700 23.83400
C  41.43300 41.56500 22.29800
C  40.90100 42.99200 22.39900
C  40.93500 43.33800 23.85400
C  42.70400 41.43400 21.34500
C  39.50900 43.00800 21.77200
C  38.41800 42.21600 22.45700
N  40.86300 44.17800 26.64000
C  40.57800 45.02900 25.59000
C  40.14600 46.29700 26.06000
C  40.06400 46.15100 27.50000
C  40.59000 44.85000 27.79000
C  39.53700 47.38200 25.17300
C  39.69800 46.78200 28.76400
O  39.19300 47.87400 28.98100
C  40.12500 45.78200 29.85800
C  41.14500 46.49800 30.73900
O  42.28100 46.70700 30.31000
O  40.78000 46.53600 32.02300
C  41.84900 46.72900 33.01800
H  42.54600 39.25100 29.78500
H  42.48100 39.42600 23.39700
H  40.22600 45.30800 23.56800
H  42.19400 43.76500 31.59800
H  41.35200 40.92900 31.52200
H  43.77100 42.22300 32.42200
H  44.33500 40.96400 31.37300
H  43.23200 40.51500 32.61900
H  39.36600 42.89700 31.29600
H  40.07200 44.21200 32.21900
H  40.93900 41.78400 33.60300
H  39.24000 41.66800 33.17900
H  42.74000 36.45900 28.25100
H  43.71500 37.51300 29.23500
H  44.40900 36.66300 27.79100
H  44.98800 36.26600 25.76500
H  44.16900 35.33400 24.56200
H  43.31400 35.59800 26.11900
H  40.73800 40.72700 22.24000
H  41.53600 43.76800 21.97200
H  43.61800 41.37300 21.93600
H  42.69700 42.24800 20.62000
H  42.65300 40.47800 20.82300
H  39.70900 42.69900 20.74600
H  39.20900 44.05400 21.70600
H  38.67700 41.49300 23.23100
H  38.07300 41.56300 21.65600
H  37.61800 42.86100 22.82000
H  38.74000 47.85200 25.74900
H  39.05700 47.12200 24.22900
H  40.30100 48.11600 24.92100
H  39.26500 45.56000 30.49100
H  41.60400 47.71300 33.41800
H  42.86900 46.65700 32.64100
H  41.67300 45.98700 33.79700

