158

Mg 25.34800 0.51400 29.39600
C  27.42200 0.86000 32.26800
C  22.63100 1.15300 31.61300
C  23.38300 0.73700 26.84000
C  28.20600 0.00600 27.42300
N  25.03700 1.13700 31.68300
C  26.06000 1.06700 32.63300
C  25.48600 1.33000 34.00500
C  23.94900 1.20600 33.78700
C  23.85900 1.11600 32.25400
C  23.16500 0.11900 34.49100
C  26.02700 2.64000 34.63500
C  26.74900 2.41600 36.04100
H  26.36600 3.41000 37.20700
N  23.21200 0.97200 29.20200
C  22.32500 1.19500 30.23100
C  21.08200 1.42400 29.62200
C  21.19200 1.18400 28.18300
C  22.64100 0.96700 28.00300
C  19.73400 1.62600 30.34700
C  20.14200 1.17400 27.11300
O  20.48500 1.03500 25.96700
C  18.71000 1.35600 27.39100
N  25.77200 0.29700 27.30700
C  24.74200 0.39300 26.48400
C  25.20800 0.15800 25.07300
C  26.84700 0.07900 25.22200
C  26.95600 0.14000 26.68100
C  24.47300 -0.93000 24.28400
C  27.58800 1.28800 24.55700
C  28.98400 1.02100 24.02200
N  27.39300 0.28100 29.74600
C  28.43500 0.08700 28.84200
C  29.67000 -0.07000 29.58700
C  29.28600 0.26500 30.93300
C  27.93900 0.46700 30.96800
C  30.98300 -0.23800 28.96300
C  29.79000 0.46100 32.25800
O  30.94600 0.38400 32.64100
C  28.55400 0.80300 33.17400
C  28.48700 -0.24700 34.14900
O  27.67600 -1.18800 34.05800
O  29.43300 -0.01000 35.16500
C  29.15200 -0.83500 36.35400
H  21.75000 1.11000 32.25800
H  22.72300 0.79200 25.97100
H  29.03000 -0.25600 26.75700
H  25.86500 0.50500 34.60900
H  23.40600 2.08400 34.13600
H  22.21900 0.60400 34.73200
H  23.65500 -0.41700 35.30400
H  22.94100 -0.68400 33.79000
H  25.18200 3.32100 34.72400
H  26.73500 3.12000 33.95900
H  27.77100 2.71100 35.80100
H  26.81500 1.38900 36.39900
H  19.86200 1.73600 31.42300
H  19.03500 0.85100 30.03100
H  19.36400 2.53000 29.86400
H  18.35000 0.53500 28.01100
H  18.16000 1.19500 26.46400
H  18.53600 2.28900 27.92800
H  25.03900 1.08200 24.51900
H  27.21700 -0.88900 24.88200
H  23.71800 -1.24100 25.00600
H  25.18600 -1.65400 23.89000
H  23.81900 -0.46600 23.54600
H  27.52300 2.12100 25.25700
H  26.99200 1.46000 23.66100
H  28.88400 1.23900 22.95900
H  29.26400 -0.01700 24.19900
H  29.76900 1.63700 24.45900
H  30.93500 0.15500 27.94800
H  31.19100 -1.30700 28.91600
H  31.63900 0.33700 29.61600
H  28.76100 1.73900 33.69300
H  29.45100 -1.83500 36.04000
H  28.17300 -0.61900 36.78100
H  29.76500 -0.43400 37.16200
Mg -12.19000 38.52100 42.18400
C  -9.94600 36.13300 41.23300
C  -10.27600 40.85300 40.46200
C  -14.62900 40.68500 42.80000
C  -14.30000 35.96800 43.44800
N  -10.35600 38.45200 40.98700
C  -9.53000 37.37700 40.80700
C  -8.19600 37.77900 40.04400
C  -8.27600 39.33500 39.90300
C  -9.73300 39.54900 40.45800
C  -7.20600 40.24800 40.62000
C  -7.81200 36.98900 38.71800
C  -6.60900 35.91900 38.63700
H  -5.69800 36.28300 37.50500
N  -12.41400 40.56800 41.71500
C  -11.54300 41.33600 41.07200
C  -12.09200 42.68700 41.10700
C  -13.33200 42.67300 41.73200
C  -13.50100 41.25100 42.14300
C  -11.40200 43.84400 40.40000
C  -14.18700 43.88700 41.98300
O  -13.93100 44.97800 41.54300
C  -15.29800 43.71700 42.86300
N  -14.23800 38.26200 42.85000
C  -15.01700 39.35800 43.06400
C  -16.36300 38.99200 43.61500
C  -16.28500 37.42500 43.74700
C  -14.85100 37.19300 43.40300
C  -16.75900 39.73600 44.97800
C  -17.27800 36.75000 42.77000
C  -18.70500 36.89200 43.32000
N  -12.17100 36.47800 42.26900
C  -13.03000 35.57800 42.94600
C  -12.41700 34.27400 42.97700
C  -11.22700 34.40700 42.28000
C  -11.15700 35.76700 41.86800
C  -12.91800 32.98600 43.70000
C  -10.02200 33.69500 41.82500
O  -9.65700 32.55000 42.03200
C  -9.18500 34.84900 41.08100
C  -7.82200 34.79600 41.72000
O  -7.04900 33.91500 41.44200
O  -7.64200 35.83000 42.65700
C  -6.28600 35.98300 43.24700
H  -9.61400 41.59300 40.00700
H  -15.43500 41.29900 43.20800
H  -14.92900 35.16900 43.84500
H  -7.34400 37.47000 40.64900
H  -8.21600 39.57800 38.84200
H  -7.50800 40.55700 41.62100
H  -7.30800 41.11100 39.96200
H  -6.17500 39.91900 40.49400
H  -7.59300 37.78400 38.00500
H  -8.57700 36.45100 38.15800
H  -7.18100 35.02400 38.39500
H  -6.01400 35.77400 39.53900
H  -11.84600 44.21900 39.47800
H  -10.42200 43.46900 40.10600
H  -11.31800 44.71500 41.05100
H  -15.62200 44.67300 43.27500
H  -15.02900 43.18300 43.77400
H  -16.12600 43.22700 42.35000
H  -17.04700 39.43000 42.88800
H  -16.43800 37.15200 44.79100
H  -15.87500 40.11700 45.49000
H  -17.48100 39.08400 45.47000
H  -17.27300 40.63800 44.64500
H  -17.06700 35.69600 42.58600
H  -17.26500 37.10300 41.73900
H  -19.41000 37.14500 42.52800
H  -18.63300 37.54900 44.18600
H  -18.86800 35.85600 43.61800
H  -13.12300 32.24700 42.92500
H  -13.83800 33.30400 44.19200
H  -12.12100 32.65900 44.36700
H  -9.07800 34.54200 40.04100
H  -5.63500 36.58900 42.61700
H  -5.83300 35.00600 43.41600
H  -6.42400 36.63300 44.11100

