158

Mg 40.76300 7.95300 30.08100
C  42.77000 9.29500 32.65700
C  38.41200 7.22200 32.43700
C  39.18300 6.25300 27.75500
C  43.42900 8.46500 27.91000
N  40.78300 8.05200 32.36700
C  41.55300 8.85200 33.11200
C  40.98100 9.15900 34.53700
C  39.64800 8.25500 34.53500
C  39.57000 7.71300 33.04200
C  39.53600 7.09200 35.57800
C  40.73900 10.68800 34.83100
C  39.99200 10.87400 36.15100
H  40.48200 11.91100 37.14100
N  38.98000 6.88100 30.11300
C  38.10400 6.75200 31.12400
C  36.88400 6.12600 30.63700
C  37.04700 5.99300 29.20600
C  38.40000 6.40600 28.94300
C  35.74400 5.79600 31.56500
C  36.09500 5.48000 28.14400
O  36.32700 5.55100 26.94000
C  34.77100 4.88100 28.58200
N  41.25800 7.36000 28.15800
C  40.40300 6.68800 27.36000
C  40.93800 6.46900 25.93700
C  42.21900 7.34200 25.94300
C  42.34100 7.74000 27.44900
C  41.17700 5.03100 25.40300
C  42.07800 8.51000 24.93200
C  41.28700 9.76500 25.40100
N  42.61800 8.88100 30.18000
C  43.62500 9.08900 29.22000
C  44.81100 9.63800 29.79900
C  44.49300 9.85400 31.10500
C  43.17000 9.34000 31.30800
C  46.14200 9.82700 29.16500
C  44.94300 10.46000 32.32300
O  45.95900 11.07900 32.62900
C  43.78300 10.15400 33.33000
C  44.36600 9.50200 34.61400
O  44.94200 8.41100 34.69500
O  44.15400 10.29800 35.65100
C  44.58000 9.76200 36.97900
H  37.56200 7.29700 33.11800
H  38.61500 5.85700 26.91100
H  44.25000 8.38100 27.19500
H  41.73700 8.80500 35.23700
H  38.79900 8.88100 34.80600
H  39.70600 6.18600 34.99600
H  38.54500 7.12300 36.03100
H  40.36200 7.24000 36.27300
H  40.26000 11.23400 34.01800
H  41.67300 11.11200 35.20000
H  39.77900 9.92200 36.63700
H  39.02800 11.34900 35.97000
H  36.10400 5.82500 32.59300
H  35.51500 4.75600 31.33100
H  34.92400 6.49400 31.39400
H  34.21100 4.55200 27.70600
H  34.14800 5.63400 29.06400
H  34.88000 3.99300 29.20400
H  40.26400 6.95300 25.23000
H  43.10400 6.71900 25.81400
H  40.63800 4.29200 25.99700
H  42.23300 4.83200 25.22400
H  40.82000 4.94700 24.37600
H  41.60300 8.12000 24.03100
H  43.12600 8.63600 24.66100
H  41.81700 10.68600 25.15900
H  41.15900 9.75600 26.48400
H  40.26100 9.81000 25.03700
H  46.27000 10.78300 28.65700
H  46.26300 9.09200 28.36800
H  46.91600 9.75500 29.92900
H  43.31900 11.11200 33.56300
H  43.94500 8.90400 37.19800
H  44.32400 10.50300 37.73700
H  45.63600 9.53400 37.12300
Mg 47.30000 34.52000 26.60700
C  45.45700 33.35300 29.38800
C  47.61900 37.57000 28.28400
C  48.63700 35.71600 23.78600
C  46.34700 31.60500 24.90000
N  46.74200 35.25800 28.65800
C  46.05200 34.58800 29.69500
C  46.22100 35.42200 31.00600
C  46.48800 36.87000 30.45300
C  47.04000 36.58300 29.06100
C  45.23500 37.82300 30.35000
C  47.35700 34.82200 31.90700
C  46.97400 34.52500 33.30900
H  47.91000 34.98300 34.42900
N  48.13000 36.38800 26.17100
C  48.14100 37.51600 26.96600
C  48.70700 38.56800 26.19300
C  49.01400 38.02600 24.86000
C  48.60200 36.64700 24.92600
C  48.75900 39.98700 26.73500
C  49.76500 38.73500 23.68200
O  49.92400 38.20000 22.57800
C  50.41100 40.07400 23.83900
N  47.44500 33.78000 24.70300
C  48.12200 34.42700 23.70200
C  48.30300 33.56900 22.41600
C  47.79200 32.14800 22.85600
C  47.20400 32.52700 24.27400
C  47.47900 34.13900 21.27000
C  48.79100 31.06800 23.24200
C  49.85400 30.59400 22.14700
N  46.08300 32.77500 26.96500
C  45.86000 31.63200 26.22400
C  45.02400 30.74700 27.03300
C  44.74700 31.42400 28.26600
C  45.54700 32.61000 28.19400
C  44.56800 29.41600 26.54200
C  44.12900 31.25100 29.56400
O  43.44500 30.37500 30.12200
C  44.44500 32.58700 30.24900
C  44.82000 32.30500 31.71800
O  45.71000 31.55100 32.13600
O  43.89700 32.83500 32.54200
C  43.84400 32.43700 33.93400
H  47.64500 38.57600 28.70800
H  49.10600 35.95000 22.82800
H  46.18900 30.69500 24.31700
H  45.25600 35.44900 31.51300
H  47.20600 37.50100 30.97700
H  45.42200 38.65900 31.02400
H  44.29100 37.33200 30.58700
H  45.11300 38.24000 29.35000
H  48.22500 35.47900 31.94100
H  47.62900 33.87800 31.43600
H  47.03300 33.43800 33.36700
H  46.01200 34.96700 33.56900
H  48.23800 40.19900 27.66900
H  48.16900 40.57400 26.03100
H  49.73100 40.47900 26.77100
H  49.70600 40.80900 24.22700
H  50.76000 40.56800 22.93200
H  51.20900 39.80200 24.53000
H  49.37100 33.59300 22.20100
H  47.01000 31.68200 22.25700
H  47.99000 34.15700 20.30800
H  47.04400 35.13200 21.38600
H  46.68000 33.45300 20.98700
H  48.20000 30.22100 23.59000
H  49.26600 31.37200 24.17500
H  50.84600 30.61000 22.59800
H  49.89000 31.24200 21.27100
H  49.70200 29.56200 21.83300
H  45.03300 29.27500 25.56600
H  43.47900 29.45200 26.57600
H  44.95000 28.63500 27.19900
H  43.54600 33.20300 30.23200
H  44.58500 32.94400 34.55100
H  43.93400 31.36500 34.11300
H  42.86100 32.73100 34.30300

