158

Mg -11.04600 38.55500 41.49500
C  -9.04500 35.67400 40.91900
C  -8.50500 40.31900 39.57000
C  -13.21300 41.07900 40.93500
C  -13.63400 36.45500 42.44000
N  -9.06800 38.07900 40.38800
C  -8.50300 36.82600 40.23100
C  -7.17500 36.87200 39.53800
C  -6.91900 38.41400 39.32500
C  -8.15900 39.03100 39.93200
C  -5.64500 38.99200 39.99700
C  -7.16200 36.04000 38.21900
C  -5.89600 35.08000 38.17300
H  -4.78300 35.52800 37.14100
N  -10.82600 40.51400 40.56800
C  -9.75300 40.96800 39.83100
C  -10.04800 42.34000 39.46200
C  -11.31100 42.70200 40.03800
C  -11.85300 41.39800 40.57900
C  -9.08000 43.19500 38.69000
C  -12.04900 44.03200 39.96700
O  -11.54300 45.02700 39.43300
C  -13.43100 44.29800 40.81200
N  -13.03500 38.76400 41.60400
C  -13.70300 39.93700 41.49200
C  -15.22100 39.88400 41.86100
C  -15.43900 38.40400 42.21600
C  -13.93100 37.83800 42.12600
C  -15.57800 40.95900 42.97500
C  -16.54600 37.53500 41.50400
C  -17.40700 36.59800 42.45700
N  -11.26700 36.48000 42.00900
C  -12.36100 35.85900 42.41100
C  -12.02500 34.43000 42.61400
C  -10.66000 34.36800 42.07500
C  -10.30200 35.58900 41.59600
C  -12.86800 33.43400 43.28900
C  -9.45800 33.48600 41.79600
O  -9.18900 32.37200 42.17300
C  -8.57800 34.25800 40.82500
C  -7.14400 33.97300 41.18800
O  -6.57300 32.93600 40.89300
O  -6.66400 34.95200 41.99100
C  -5.27900 34.92800 42.48300
H  -7.75200 40.75300 38.90900
H  -13.91000 41.90000 40.75800
H  -14.53300 35.84000 42.52200
H  -6.41100 36.45500 40.19400
H  -7.02300 38.72800 38.28600
H  -5.91200 39.18400 41.03600
H  -5.33700 39.85400 39.40600
H  -4.76200 38.35400 39.96600
H  -6.95900 36.69700 37.37300
H  -8.07600 35.46000 38.08600
H  -6.26800 34.12400 37.80600
H  -5.42600 35.00300 39.15400
H  -9.52200 44.13700 38.36600
H  -8.88300 42.64000 37.77200
H  -8.28100 43.55700 39.33600
H  -13.31700 43.85800 41.80300
H  -14.21700 43.87600 40.18500
H  -13.54500 45.38000 40.87800
H  -15.87700 40.13900 41.02900
H  -15.70100 38.42400 43.27300
H  -14.67800 41.12100 43.56800
H  -16.36400 40.64100 43.65900
H  -15.96300 41.77100 42.35700
H  -15.99200 36.89300 40.82000
H  -17.16700 38.19100 40.89400
H  -17.62500 37.07000 43.41500
H  -16.89500 35.64000 42.54500
H  -18.28700 36.45500 41.83000
H  -13.88300 33.82900 43.33700
H  -12.48200 33.24500 44.29000
H  -12.68900 32.54900 42.67900
H  -8.64000 33.96900 39.77600
H  -5.15400 35.43100 43.44200
H  -4.52100 35.24500 41.76700
H  -5.08400 33.87300 42.67800
Mg -4.76200 25.14400 26.15100
C  -3.11400 26.49500 28.96700
C  -6.98000 23.67500 28.27600
C  -6.04600 23.52300 23.49800
C  -2.35200 26.58500 24.11200
N  -4.91100 24.91900 28.39400
C  -4.20700 25.65200 29.34000
C  -4.70300 25.37300 30.73500
C  -5.65100 24.13600 30.52300
C  -5.88400 24.23400 28.98100
C  -4.96600 22.80500 30.95400
C  -5.48200 26.59300 31.25100
C  -5.94400 26.60900 32.74600
H  -5.70400 25.42200 33.56600
N  -6.34200 23.90000 25.90100
C  -7.24500 23.50900 26.87000
C  -8.22500 22.59500 26.35400
C  -7.81600 22.45600 24.99600
C  -6.63600 23.30500 24.75000
C  -9.43200 22.04600 27.10400
C  -8.55400 21.62600 23.87400
O  -8.25000 21.62000 22.68300
C  -9.65500 20.50900 24.25900
N  -4.21100 25.01900 24.07900
C  -4.94900 24.28200 23.19500
C  -4.31700 24.44700 21.74600
C  -3.32700 25.63300 21.92700
C  -3.24000 25.73800 23.48000
C  -3.68400 23.18300 21.17400
C  -3.65100 27.00800 21.24500
C  -2.66400 27.54200 20.27300
N  -3.07000 26.36000 26.42500
C  -2.23900 26.91600 25.47500
C  -1.23800 27.70100 26.12100
C  -1.52800 27.58000 27.52000
C  -2.66400 26.79700 27.64800
C  -0.13900 28.37800 25.39600
C  -1.10400 27.91500 28.87500
O  -0.11400 28.53400 29.27500
C  -2.23600 27.27400 29.80400
C  -1.49100 26.40200 30.68900
O  -0.82300 25.41600 30.45000
O  -1.72900 26.81800 31.97700
C  -1.28800 25.93900 33.00200
H  -7.61300 23.37800 29.11500
H  -6.51200 23.15800 22.58000
H  -1.69900 27.23000 23.52100
H  -3.91000 25.10200 31.43200
H  -6.59600 24.38200 31.00800
H  -5.43700 22.39500 31.84700
H  -3.92200 22.93400 31.23800
H  -5.07100 22.03200 30.19200
H  -6.42000 26.75200 30.71900
H  -4.86900 27.46300 31.01600
H  -6.83000 27.21000 32.94800
H  -5.27300 27.38100 33.12200
H  -10.30700 22.09200 26.45600
H  -9.63800 22.58500 28.02900
H  -9.33200 21.02000 27.45900
H  -9.46800 20.13700 25.26700
H  -9.41000 19.66100 23.61900
H  -10.64600 20.95200 24.16900
H  -5.16900 24.58600 21.08100
H  -2.32500 25.25200 21.72900
H  -4.12900 22.98800 20.19800
H  -3.98300 22.30900 21.75300
H  -2.61800 23.17200 20.94600
H  -3.80400 27.64600 22.11500
H  -4.60300 26.98200 20.71600
H  -1.74500 26.97200 20.41100
H  -2.49200 28.56500 20.60600
H  -3.06300 27.53700 19.25800
H  0.61500 28.68100 26.12300
H  -0.49900 29.30900 24.95600
H  0.19900 27.79100 24.54300
H  -2.71700 28.07700 30.36400
H  -0.40900 26.33100 33.51500
H  -1.10800 24.92300 32.65000
H  -2.13500 25.83900 33.68000

