158

Mg -1.40900 18.35800 26.84200
C  -1.90000 16.07700 29.40800
C  -1.54700 20.92300 29.03100
C  -1.29300 20.56100 24.09500
C  -1.88400 15.69000 24.61800
N  -1.79600 18.46800 29.00500
C  -1.87400 17.40500 29.87700
C  -1.99900 17.89700 31.30600
C  -1.96300 19.46600 31.08700
C  -1.71600 19.67900 29.61600
C  -3.19600 20.19300 31.54700
C  -0.82100 17.31200 32.13500
C  -1.17900 16.48200 33.36800
H  -0.73200 16.92200 34.78600
N  -1.37800 20.42900 26.59600
C  -1.30100 21.30000 27.67800
C  -0.98100 22.62000 27.20900
C  -0.81200 22.52500 25.80400
C  -1.18700 21.13500 25.38900
C  -0.79200 23.88200 28.14000
C  -0.35300 23.53000 24.74700
O  -0.31000 23.27100 23.54000
C  0.27900 24.83500 25.22400
N  -1.56400 18.19500 24.72500
C  -1.49600 19.17900 23.81300
C  -1.65500 18.64300 22.34800
C  -1.77600 17.12500 22.48600
C  -1.77500 16.99100 24.04500
C  -2.80500 19.25700 21.55500
C  -0.69500 16.36200 21.76300
C  0.60000 15.94800 22.52600
N  -1.65200 16.26500 26.92700
C  -1.90000 15.35700 25.95600
C  -2.15800 14.04200 26.52600
C  -2.13400 14.20900 27.89400
C  -1.90300 15.61500 28.07900
C  -2.32500 12.75500 25.79700
C  -2.31200 13.53500 29.16100
O  -2.53200 12.37000 29.56900
C  -2.19300 14.73300 30.19600
C  -1.05000 14.18700 31.02300
O  0.10400 14.13000 30.76700
O  -1.69100 13.59900 32.08800
C  -0.95000 12.72300 32.99400
H  -1.30800 21.67700 29.78400
H  -1.16300 21.25300 23.26000
H  -2.00200 14.89000 23.88500
H  -2.97100 17.56800 31.67200
H  -1.11800 19.75300 31.71400
H  -3.84000 19.59500 32.19100
H  -3.72600 20.59800 30.68500
H  -2.80700 20.99600 32.17300
H  -0.11400 18.07800 32.45100
H  -0.35700 16.52700 31.53800
H  -0.65800 15.52600 33.31500
H  -2.25400 16.30800 33.32300
H  0.25100 24.18700 28.04800
H  -1.17600 23.59700 29.11900
H  -1.41200 24.67200 27.71500
H  0.86200 25.31700 24.44000
H  1.04300 24.66800 25.98400
H  -0.49600 25.42600 25.71300
H  -0.66900 18.83000 21.92200
H  -2.75100 16.77500 22.14800
H  -2.42000 19.78300 20.68200
H  -3.42200 19.92800 22.15300
H  -3.42900 18.46900 21.13100
H  -0.42800 16.86100 20.83200
H  -1.33000 15.52300 21.47800
H  0.70600 16.43700 23.49400
H  1.44100 16.31200 21.93700
H  0.67100 14.86100 22.56900
H  -2.37100 12.81500 24.71000
H  -3.24600 12.39800 26.25600
H  -1.56200 12.00300 25.99900
H  -3.10100 14.82100 30.79400
H  -0.27100 12.06600 32.45200
H  -1.78700 12.15700 33.40300
H  -0.40000 13.27100 33.75900
Mg 54.84000 23.36900 44.65700
C  52.42400 25.62400 43.43900
C  52.79900 20.77500 43.68300
C  57.51100 21.31300 44.83500
C  56.72800 26.12800 45.56400
N  52.90600 23.28100 43.59100
C  52.07800 24.29400 43.32600
C  50.77700 23.75700 42.84000
C  50.75800 22.30400 43.30100
C  52.24000 22.07000 43.55600
C  50.02000 21.82800 44.57000
C  50.45800 23.94300 41.32400
C  49.01700 24.32600 41.01200
H  48.55900 23.93600 39.63500
N  55.14600 21.36100 44.28500
C  54.14400 20.42100 43.92000
C  54.65400 19.12100 43.77600
C  56.02000 19.24700 44.14800
C  56.35200 20.64700 44.43000
C  53.90600 17.98900 43.24000
C  56.98200 18.15700 44.00900
O  56.66100 17.05100 43.61200
C  58.44900 18.27700 44.28200
N  56.89600 23.69900 44.94400
C  57.69500 22.66300 45.16500
C  59.01200 23.17100 45.76800
C  58.85400 24.73700 45.92800
C  57.41400 24.90100 45.44800
C  59.30800 22.40700 47.10100
C  59.70600 25.60900 44.87000
C  60.11500 27.03500 45.31400
N  54.68600 25.45200 44.63700
C  55.46600 26.40900 45.02900
C  54.86200 27.75400 44.94000
C  53.62800 27.46400 44.29500
C  53.63000 26.07700 44.03500
C  55.38100 29.06500 45.51900
C  52.39400 28.02100 43.78600
O  52.02300 29.17900 43.89000
C  51.60600 26.83500 43.06400
C  51.62900 27.12600 41.56900
O  52.64000 27.09500 40.86400
O  50.43700 27.56000 41.03800
C  50.42200 28.05400 39.60400
H  52.06500 19.97500 43.80200
H  58.42000 20.72700 44.99100
H  57.22100 27.01800 45.96100
H  50.07500 24.41400 43.35200
H  50.59000 21.58500 42.49900
H  49.37800 22.61500 44.96600
H  50.67700 21.53000 45.38700
H  49.33600 21.00700 44.35400
H  50.58900 23.00300 40.78700
H  51.14600 24.70800 40.96200
H  48.94700 25.40600 41.13400
H  48.29600 23.82100 41.65500
H  52.89300 18.23000 42.91900
H  53.90900 17.28900 44.07600
H  54.54600 17.43400 42.55400
H  58.80600 19.14400 43.72700
H  58.95900 17.43100 43.82200
H  58.58900 18.33500 45.36100
H  59.91100 23.01400 45.17100
H  58.76300 25.05700 46.96600
H  59.69000 23.00600 47.92800
H  60.06000 21.62300 47.01000
H  58.41400 21.86200 47.40500
H  59.16300 25.78600 43.94200
H  60.61000 25.09500 44.54400
H  61.20100 27.11600 45.25100
H  59.89900 27.19300 46.37000
H  59.65800 27.81800 44.70800
H  55.45100 28.86800 46.58900
H  54.66400 29.87400 45.38400
H  56.39800 29.28400 45.19400
H  50.56900 26.77900 43.39400
H  50.97100 28.96900 39.38000
H  49.35200 28.24700 39.52900
H  50.66700 27.30600 38.85000

