158

Mg 2.43000 0.48500 44.26800
C  5.59900 2.09100 43.97500
C  0.85700 3.14200 43.00300
C  -0.17000 -1.50400 43.79800
C  4.35800 -2.39300 45.33600
N  3.17300 2.33200 43.55200
C  4.41000 2.84600 43.55600
C  4.48100 4.32700 43.17100
C  2.95900 4.74000 43.00100
C  2.27200 3.33100 43.18300
C  2.37000 5.83800 43.87400
C  5.35700 4.46000 41.83200
C  5.18300 3.32100 40.80400
H  5.52900 3.59700 39.31400
N  0.60800 0.77300 43.43500
C  0.07000 1.98000 43.05500
C  -1.40700 1.88700 42.96800
C  -1.70600 0.53000 43.17400
C  -0.45600 -0.15500 43.39900
C  -2.26700 2.96400 42.51600
C  -3.08100 -0.00600 42.90600
O  -3.93800 0.84300 42.55600
C  -3.35800 -1.52800 43.01500
N  2.20200 -1.57800 44.41200
C  0.95000 -2.05500 44.32700
C  0.89400 -3.55100 44.88600
C  2.32200 -3.86300 45.30100
C  2.98300 -2.52000 45.12800
C  -0.21800 -3.91800 45.96800
C  2.95900 -5.06300 44.47800
C  3.93800 -5.96800 45.27300
N  4.59300 -0.12600 44.56000
C  5.10900 -1.25900 44.97100
C  6.51300 -1.07000 45.38000
C  6.72000 0.23700 44.93200
C  5.54000 0.80700 44.44900
C  7.29200 -2.03800 46.22100
C  7.69800 1.35100 44.85800
O  8.83200 1.35700 45.18700
C  7.04900 2.56400 44.15300
C  7.29100 3.62800 45.09200
O  8.33600 4.24600 45.25800
O  6.19500 3.86300 45.86500
C  6.23100 4.84700 46.97200
H  0.21100 3.97100 42.70600
H  -1.07100 -2.12000 43.78700
H  4.90100 -3.17100 45.87700
H  4.86200 4.94100 43.98800
H  2.80200 4.92500 41.93800
H  1.94600 6.52900 43.14500
H  3.08500 6.27500 44.57000
H  1.65100 5.33100 44.51800
H  6.42200 4.49500 42.06200
H  5.18000 5.41200 41.33100
H  4.23300 2.79700 40.91400
H  6.02100 2.69200 41.10400
H  -2.35400 2.93500 41.42900
H  -1.88600 3.95600 42.75600
H  -3.22100 2.96800 43.04200
H  -4.40500 -1.81300 42.90700
H  -3.10600 -1.62000 44.07100
H  -2.77700 -2.16600 42.34800
H  0.61700 -4.13000 44.00600
H  2.46900 -4.03000 46.36800
H  -0.52100 -2.94800 46.36100
H  0.23400 -4.56900 46.71600
H  -1.14300 -4.28300 45.52300
H  3.50300 -4.58700 43.66200
H  2.08300 -5.58900 44.09700
H  4.87400 -5.90400 44.71700
H  3.56200 -6.97900 45.11600
H  3.94700 -5.71600 46.33300
H  6.83200 -2.13000 47.20500
H  8.25100 -1.54500 46.38300
H  7.33000 -3.00100 45.71100
H  7.64100 2.69400 43.24700
H  5.46600 4.66100 47.72500
H  6.00400 5.86300 46.64700
H  7.20100 4.78300 47.46600
Mg 25.97500 0.26000 29.63400
C  27.82800 -0.22200 32.60500
C  23.21800 0.39200 31.70100
C  24.18500 0.29300 26.85900
C  28.87200 -0.41500 27.84100
N  25.60800 0.28300 31.87100
C  26.53900 0.17200 32.91200
C  25.97000 0.23700 34.28600
C  24.47800 -0.01000 33.94100
C  24.40900 0.22000 32.42600
C  23.98200 -1.42000 34.33400
C  26.43700 1.44400 35.05200
C  26.89000 1.13200 36.48600
H  26.85600 2.21800 37.55700
N  24.01400 0.32700 29.32900
C  23.03700 0.44700 30.28800
C  21.72700 0.63500 29.67600
C  21.97200 0.41500 28.31000
C  23.42200 0.36000 28.06100
C  20.44100 0.76100 30.45700
C  20.96100 0.20600 27.14100
O  21.26400 0.10300 25.97100
C  19.50700 0.43100 27.45400
N  26.48100 -0.04000 27.63400
C  25.53800 0.20200 26.63400
C  26.18300 0.11200 25.30700
C  27.74900 -0.09200 25.59200
C  27.75700 -0.08000 27.12200
C  25.59400 -0.94200 24.39300
C  28.70800 0.94100 24.97300
C  29.93800 0.37200 24.21900
N  27.98400 -0.30900 30.06000
C  29.00200 -0.57000 29.24500
C  30.13600 -0.99000 29.99500
C  29.77500 -0.76400 31.32800
C  28.43200 -0.34600 31.34800
C  31.49700 -1.36400 29.42900
C  30.23000 -0.84100 32.64800
O  31.38800 -1.09700 33.06400
C  29.03700 -0.42700 33.59200
C  28.90300 -1.46300 34.63500
O  28.37300 -2.55900 34.51700
O  29.54500 -1.08900 35.79000
C  29.74700 -2.13000 36.82700
H  22.34500 0.49900 32.34800
H  23.71300 0.36900 25.87700
H  29.81100 -0.49000 27.28800
H  26.45700 -0.63600 34.72000
H  23.90600 0.71300 34.52200
H  23.65000 -1.21700 35.35200
H  24.65700 -2.27600 34.35200
H  23.13700 -1.65200 33.68600
H  25.59000 2.11200 35.20800
H  27.29100 1.85000 34.51100
H  27.91500 0.76200 36.48800
H  26.35300 0.28700 36.91800
H  19.98500 1.73700 30.29300
H  20.63600 0.42000 31.47400
H  19.78700 -0.03400 30.09900
H  19.32800 1.38900 27.94100
H  19.14000 -0.34600 28.12500
H  18.98300 0.25200 26.51500
H  25.92100 1.08900 24.90000
H  28.18400 -1.07600 25.41500
H  26.30300 -1.26100 23.62900
H  24.85000 -0.40900 23.80100
H  25.25100 -1.82300 24.93500
H  29.04200 1.55600 25.80900
H  28.11300 1.61000 24.35200
H  30.12300 0.99700 23.34500
H  29.75500 -0.66300 23.93100
H  30.80700 0.43700 24.87400
H  31.56800 -2.23800 28.78200
H  32.19900 -1.52600 30.24700
H  31.92900 -0.51300 28.90300
H  29.33600 0.50400 34.07200
H  30.57200 -2.04900 37.53500
H  29.92000 -3.12100 36.40800
H  28.91500 -2.33600 37.50100

