158

Mg 46.63100 16.41700 28.73300
C  44.99500 16.51100 31.91000
C  49.16500 18.36000 30.17800
C  47.77700 17.18500 25.66900
C  43.71200 15.07000 27.37700
N  47.01100 17.33000 30.78500
C  46.23600 17.21000 31.92700
C  46.91100 17.79800 33.23400
C  48.19400 18.53300 32.61400
C  48.15500 18.06300 31.11100
C  48.11500 20.13800 32.68400
C  47.28200 16.65500 34.26000
C  46.65900 16.95600 35.67500
H  46.67500 18.35000 36.33800
N  48.35800 17.41800 28.05500
C  49.27300 18.12400 28.78400
C  50.33400 18.64400 27.96100
C  49.84300 18.37800 26.61200
C  48.61500 17.60800 26.69700
C  51.67500 19.25000 28.52100
C  50.45900 18.68200 25.29200
O  50.03200 18.31400 24.22100
C  51.77300 19.34600 25.28600
N  45.92100 16.11600 26.71400
C  46.56500 16.54900 25.65800
C  45.81300 16.20900 24.36300
C  44.54100 15.43700 24.94700
C  44.68800 15.53400 26.46400
C  45.55600 17.38600 23.39900
C  44.36200 13.94000 24.44500
C  45.33300 12.90700 25.07400
N  44.72000 15.82500 29.43600
C  43.68700 15.21400 28.79100
C  42.71700 14.83000 29.85500
C  43.24000 15.31100 31.04700
C  44.39200 15.89700 30.72700
C  41.45700 14.05900 29.70300
C  42.91500 15.50300 32.51300
O  41.91300 15.14900 33.11400
C  44.12100 16.21200 33.11200
C  43.55700 17.38900 33.70100
O  43.47100 18.51500 33.17400
O  43.20400 17.10500 35.00000
C  42.49700 18.14800 35.78700
H  49.87600 19.15000 30.42700
H  47.96600 17.56000 24.66100
H  42.76600 14.61600 27.07500
H  46.10800 18.39200 33.67100
H  49.13100 18.22000 33.07400
H  47.64400 20.48700 33.60300
H  47.64300 20.48500 31.76500
H  49.10000 20.60300 32.72900
H  48.33800 16.53900 34.50400
H  46.90300 15.70800 33.87600
H  47.19400 16.23700 36.29600
H  45.62800 16.61100 35.59800
H  52.52200 18.66300 28.16700
H  51.84400 19.31900 29.59500
H  51.82400 20.23600 28.07900
H  51.58500 20.27300 25.82700
H  52.06500 19.69000 24.29400
H  52.53700 18.82000 25.85800
H  46.38600 15.37900 23.94900
H  43.64400 15.98500 24.66000
H  45.83500 18.38400 23.73500
H  44.53100 17.43600 23.03200
H  46.05100 17.06400 22.48300
H  44.57100 13.97700 23.37600
H  43.32500 13.67000 24.64500
H  46.31000 13.31300 25.33700
H  45.45200 12.02100 24.45100
H  44.93600 12.51800 26.01100
H  41.61500 12.99900 29.90100
H  41.04700 14.20500 28.70300
H  40.70600 14.49700 30.36100
H  44.64600 15.56400 33.81500
H  42.64200 17.85400 36.82700
H  41.44500 18.37600 35.62000
H  42.90500 19.14900 35.64200
Mg 48.67800 35.69300 27.97800
C  46.28300 34.37400 30.18300
C  49.08400 38.20700 30.21100
C  50.63800 37.00600 25.65900
C  47.49100 33.31300 25.66900
N  47.98600 36.07200 30.00500
C  47.17400 35.26900 30.70600
C  47.33300 35.58100 32.21900
C  47.79700 37.06300 32.16000
C  48.27400 37.14600 30.69400
C  46.65900 38.09400 32.46200
C  48.39400 34.61300 32.99000
C  48.87500 35.00000 34.46700
H  48.28900 36.20200 35.23300
N  49.83100 37.29100 28.05100
C  49.81000 38.31600 29.01400
C  50.77000 39.37000 28.61300
C  51.26600 38.91200 27.34600
C  50.66600 37.63500 26.97000
C  51.00200 40.61300 29.44200
C  52.23400 39.69300 26.43100
O  52.55800 39.34900 25.30100
C  52.86700 40.95800 26.95800
N  48.91200 35.25700 25.80300
C  49.89000 35.94000 25.09900
C  50.09700 35.29800 23.68000
C  49.00700 34.15700 23.66100
C  48.48600 34.12900 25.13600
C  50.02500 36.47900 22.56500
C  49.48100 32.73900 23.13600
C  48.80500 32.15700 21.92600
N  47.21000 34.15200 27.93000
C  46.90600 33.27900 26.89500
C  45.80400 32.45100 27.34400
C  45.51500 32.86000 28.60000
C  46.42600 33.86200 28.89700
C  45.23200 31.33200 26.46500
C  44.68100 32.51000 29.75700
O  43.78700 31.67100 29.93000
C  45.12800 33.56600 30.83700
C  45.41700 32.82500 32.10100
O  46.02000 31.72400 32.15000
O  44.86700 33.47600 33.20200
C  44.83500 32.68700 34.47700
H  49.29900 39.07500 30.83800
H  51.44100 37.32600 24.99100
H  47.07600 32.63400 24.92100
H  46.36900 35.58200 32.72700
H  48.58600 37.29700 32.87600
H  46.88800 38.60100 33.39900
H  45.76700 37.51200 32.69200
H  46.49700 38.80800 31.65400
H  49.26900 34.57700 32.34200
H  47.91600 33.63500 33.05000
H  49.94600 35.10100 34.29000
H  48.73500 34.12500 35.10300
H  50.79600 41.53500 28.89700
H  52.05500 40.64800 29.72400
H  50.40000 40.53000 30.34700
H  52.14000 41.77000 26.98500
H  53.77400 41.14800 26.38600
H  53.24500 40.81200 27.97000
H  51.06500 34.80800 23.57600
H  48.20900 34.45100 22.97900
H  49.07800 36.26300 22.07100
H  50.86400 36.48000 21.86900
H  49.89700 37.46700 23.00800
H  49.30700 32.02800 23.94400
H  50.54700 32.71300 22.91100
H  48.39200 32.91400 21.25900
H  48.02200 31.44000 22.17300
H  49.56500 31.60000 21.38000
H  44.91500 31.75500 25.51200
H  44.43000 30.68600 26.82200
H  46.12300 30.75600 26.21400
H  44.26100 34.20700 30.99700
H  43.81300 32.63500 34.85400
H  45.38500 33.29500 35.19500
H  45.11400 31.63500 34.41300

