158

Mg 16.60300 52.51600 25.05100
C  18.25400 51.48600 28.09500
C  13.90500 53.42100 26.90000
C  15.05200 52.80600 22.17900
C  19.47500 51.07500 23.30500
N  16.23000 52.47200 27.21700
C  17.06000 52.08500 28.25600
C  16.38200 52.43000 29.59400
C  14.92000 52.85200 29.14500
C  15.00100 52.92100 27.62800
C  13.86400 51.83500 29.65100
C  17.09400 53.55100 30.42400
C  17.22400 53.32500 31.96800
H  16.40700 52.24900 32.58100
N  14.74400 53.19800 24.52700
C  13.74300 53.55100 25.48400
C  12.52700 53.93700 24.68300
C  12.89100 53.79100 23.27300
C  14.29300 53.23000 23.30100
C  11.16600 54.35000 25.29200
C  12.07400 54.22100 22.03900
O  12.50100 54.07900 20.90900
C  10.75700 54.77300 22.21000
N  17.27300 52.17700 22.98900
C  16.30000 52.29800 21.99300
C  16.92000 51.77900 20.59300
C  18.42800 51.41900 21.01100
C  18.41200 51.49900 22.55200
C  16.05600 50.60100 20.02800
C  19.49700 52.40700 20.44300
C  19.27900 53.92100 20.59900
N  18.48200 51.55000 25.55400
C  19.51700 51.04300 24.76000
C  20.58300 50.64800 25.58000
C  20.14000 50.76800 26.91100
C  18.82900 51.29100 26.83300
C  21.98400 50.25000 25.20400
C  20.48000 50.53400 28.29200
O  21.48400 50.08500 28.78800
C  19.28100 50.97400 29.14800
C  18.92300 49.75100 29.97300
O  18.47100 48.69400 29.49500
O  19.27700 49.96300 31.29300
C  18.97200 48.82600 32.12200
H  13.01000 53.69100 27.46500
H  14.43800 52.81900 21.27600
H  20.22100 50.54300 22.71100
H  16.29200 51.50500 30.16300
H  14.68500 53.82000 29.58800
H  13.14600 51.45700 28.92300
H  13.23000 52.33000 30.38700
H  14.28100 51.01500 30.23500
H  16.62800 54.53700 30.41900
H  18.05300 53.70700 29.92900
H  17.09700 54.31000 32.41800
H  18.22800 53.00500 32.24800
H  10.31000 53.85400 24.83600
H  10.89400 55.38800 25.10500
H  11.22900 54.17800 26.36600
H  10.19300 54.00000 22.73300
H  10.26500 54.70000 21.24000
H  10.74400 55.77800 22.63300
H  16.90900 52.66600 19.95900
H  18.59100 50.44600 20.54800
H  15.77800 50.83300 19.00000
H  15.18100 50.42700 20.65400
H  16.72100 49.73700 20.06300
H  19.65800 52.03800 19.43000
H  20.40700 52.20200 21.00800
H  19.01900 54.30200 19.61100
H  20.15000 54.54400 20.79700
H  18.64500 54.07900 21.47100
H  22.28700 50.44300 24.17500
H  22.12700 49.17500 25.30700
H  22.60800 50.72400 25.96200
H  19.56400 51.80800 29.79000
H  19.64400 48.06100 31.73400
H  17.94800 48.45100 32.13300
H  19.34400 49.19300 33.07800
Mg -10.46600 39.93900 42.15800
C  -9.16700 36.65400 41.22200
C  -7.64100 41.28800 40.47500
C  -11.86500 42.88100 42.22200
C  -13.50100 38.34300 42.78900
N  -8.77900 39.07100 40.85700
C  -8.39700 37.75500 40.79400
C  -6.97800 37.64800 40.20900
C  -6.39700 39.09000 40.34800
C  -7.71100 39.90600 40.56000
C  -5.22300 39.39000 41.41900
C  -6.99600 37.08600 38.72300
C  -5.90600 36.00200 38.39500
H  -4.78400 36.23400 37.36200
N  -9.76300 41.84700 41.58600
C  -8.62400 42.21900 40.96400
C  -8.53300 43.69600 40.96300
C  -9.73200 44.13700 41.67400
C  -10.52900 42.92800 41.82400
C  -7.43800 44.44800 40.28500
C  -10.16300 45.55700 41.96000
O  -9.37800 46.47400 41.63200
C  -11.40100 46.07600 42.66500
N  -12.45000 40.57400 42.39200
C  -12.80500 41.87600 42.40100
C  -14.30400 41.99200 42.72500
C  -14.80500 40.53900 42.93200
C  -13.51800 39.72500 42.68400
C  -14.53200 42.89100 43.93300
C  -16.06900 40.17800 42.10600
C  -17.17800 39.39500 42.84400
N  -11.17700 37.89400 42.21300
C  -12.47000 37.41100 42.49600
C  -12.43800 35.93400 42.46900
C  -11.15900 35.62400 41.99900
C  -10.47600 36.77800 41.76900
C  -13.62800 35.06900 42.63600
C  -10.26900 34.55300 41.67000
O  -10.35800 33.33700 41.67000
C  -9.02000 35.21100 41.07200
C  -7.81700 34.72000 41.78000
O  -7.35000 35.22000 42.82100
O  -7.15700 33.75900 40.97100
C  -5.87400 33.17800 41.34800
H  -6.76200 41.72300 39.99400
H  -12.34800 43.85500 42.32400
H  -14.40900 37.76300 42.96800
H  -6.47900 36.98100 40.91300
H  -5.95200 39.23500 39.36300
H  -5.65700 40.01200 42.20100
H  -4.43700 40.00200 40.97700
H  -4.98100 38.36900 41.71400
H  -6.85800 37.88500 37.99400
H  -7.94000 36.61200 38.45400
H  -6.47400 35.10000 38.16600
H  -5.30300 35.78700 39.27600
H  -7.88900 44.80900 39.36100
H  -6.55400 43.83000 40.12600
H  -7.09300 45.39000 40.71100
H  -12.14100 46.09000 41.86500
H  -11.21300 47.02600 43.16500
H  -11.72300 45.43500 43.48700
H  -14.77100 42.45400 41.85600
H  -14.94200 40.34500 43.99600
H  -14.93000 43.86700 43.65600
H  -13.58000 43.03000 44.44600
H  -15.26800 42.50300 44.63800
H  -15.73700 39.70500 41.18300
H  -16.54100 41.10900 41.79100
H  -16.79200 38.81300 43.68100
H  -17.54400 38.68200 42.10500
H  -17.92900 40.11100 43.17400
H  -14.49300 35.56900 43.07000
H  -13.37500 34.20600 43.25200
H  -13.86000 34.66000 41.65200
H  -8.91200 34.94600 40.02000
H  -5.93700 32.39200 42.10100
H  -5.19800 33.88200 41.83300
H  -5.40400 32.83500 40.42600

