158

Mg -2.17100 17.12800 26.63200
C  -2.90100 14.96100 29.29000
C  -2.97500 19.81500 28.81100
C  -2.00100 19.16800 24.06000
C  -2.11000 14.38600 24.49700
N  -2.78800 17.37800 28.82000
C  -3.04800 16.27200 29.70900
C  -3.50900 16.83100 31.01900
C  -3.44600 18.35300 30.87900
C  -3.04900 18.56200 29.43000
C  -4.69900 19.14800 31.21500
C  -2.83300 15.99500 32.20300
C  -2.63800 16.78300 33.54000
H  -2.50800 15.93400 34.84200
N  -2.36800 19.25200 26.51400
C  -2.61000 20.15200 27.52800
C  -2.37900 21.46300 26.94700
C  -2.16000 21.34400 25.56200
C  -2.22000 19.89400 25.27700
C  -2.62400 22.70000 27.80000
C  -1.86600 22.32700 24.59300
O  -1.59900 22.06400 23.40500
C  -1.82000 23.82500 24.86800
N  -2.23200 16.82900 24.57700
C  -2.07300 17.82400 23.70700
C  -1.81300 17.37100 22.28400
C  -1.55600 15.86600 22.52500
C  -1.94600 15.66400 23.96500
C  -2.95800 17.64600 21.29700
C  -0.16300 15.33600 22.15200
C  0.97700 15.77400 23.12800
N  -2.37400 15.09600 26.83000
C  -2.31000 14.11300 25.84900
C  -2.67100 12.83900 26.51600
C  -2.79800 13.12100 27.86100
C  -2.63500 14.50700 27.99300
C  -2.86100 11.53000 25.92900
C  -3.09300 12.57400 29.11200
O  -3.30600 11.41000 29.41100
C  -3.00900 13.67100 30.10200
C  -1.78300 13.43400 30.90700
O  -0.62300 13.79900 30.68600
O  -2.17700 12.60400 32.03800
C  -1.14400 12.32100 33.03600
H  -3.08700 20.68100 29.46700
H  -1.93600 19.76400 23.14800
H  -1.90800 13.49400 23.90000
H  -4.56900 16.57900 31.05300
H  -2.55400 18.71300 31.39300
H  -4.61500 20.07800 31.77800
H  -5.15000 18.55400 32.00900
H  -5.38500 19.35600 30.39400
H  -1.77600 15.81900 32.00500
H  -3.37100 15.08500 32.46700
H  -3.38100 17.55700 33.73600
H  -1.63800 17.21500 33.50300
H  -1.69000 23.13200 28.16000
H  -3.24300 22.57800 28.68900
H  -3.08300 23.40500 27.10700
H  -1.75100 24.48100 24.00000
H  -1.07800 23.96900 25.65300
H  -2.80200 24.18000 25.18100
H  -0.86200 17.81100 21.98300
H  -2.19700 15.18500 21.96400
H  -2.81400 17.05500 20.39300
H  -2.78500 18.66000 20.93700
H  -3.90300 17.50100 21.82100
H  0.08100 15.54300 21.11000
H  -0.26400 14.25300 22.08900
H  0.70900 16.05200 24.14700
H  1.39200 16.65200 22.63500
H  1.62500 14.90200 23.22000
H  -2.44700 10.84200 26.66600
H  -2.43700 11.51200 24.92500
H  -3.92700 11.32700 25.82300
H  -3.85500 13.54700 30.77900
H  -1.66400 12.03100 33.94900
H  -0.43100 13.11800 33.24700
H  -0.59600 11.46500 32.64400
Mg -12.54600 16.80400 42.32100
C  -9.65900 14.78900 41.61300
C  -10.98600 19.39000 40.70900
C  -15.53500 18.22800 41.96300
C  -14.24400 13.81900 43.22500
N  -10.54400 16.98300 41.22200
C  -9.53600 16.12800 41.15900
C  -8.31900 16.69900 40.43500
C  -8.72800 18.19800 40.56800
C  -10.23900 18.18900 40.78100
C  -7.88200 18.91500 41.73100
C  -8.09000 16.07300 39.04000
C  -6.64600 15.90400 38.57900
H  -6.33200 16.82500 37.46000
N  -13.13100 18.58900 41.56300
C  -12.35400 19.59700 41.01000
C  -13.10300 20.74700 40.71400
C  -14.44500 20.47600 41.10600
C  -14.42100 19.04300 41.58000
C  -12.58200 21.99900 40.19600
C  -15.66800 21.44900 41.07800
O  -15.62800 22.48400 40.45500
C  -16.96500 21.04000 41.63600
N  -14.61100 16.10200 42.83100
C  -15.62100 16.96800 42.52300
C  -16.99200 16.33800 42.79700
C  -16.55600 14.91000 43.32200
C  -15.04100 14.94700 43.14100
C  -18.06200 17.08900 43.62200
C  -17.30900 13.58200 42.83800
C  -17.89500 12.71200 43.99500
N  -12.15200 14.71900 42.41700
C  -12.87900 13.65400 42.86000
C  -12.10300 12.40400 42.79100
C  -10.79100 12.82900 42.37400
C  -10.90100 14.22500 42.09200
C  -12.51600 10.99500 43.17500
C  -9.43200 12.37400 42.14200
O  -8.92100 11.28000 42.35600
C  -8.67600 13.56700 41.51300
C  -7.50700 13.80700 42.43000
O  -7.48600 13.99400 43.66400
O  -6.44000 13.75500 41.56000
C  -5.12600 14.02300 42.10900
H  -10.50000 20.34700 40.51000
H  -16.46100 18.70200 41.62900
H  -14.76700 12.89100 43.46600
H  -7.40200 16.54200 41.00200
H  -8.56400 18.76000 39.64900
H  -7.13400 19.48000 41.17400
H  -7.42600 18.29800 42.50500
H  -8.56200 19.65600 42.15200
H  -8.38000 16.88400 38.37200
H  -8.61500 15.15700 38.77100
H  -6.43400 14.87800 38.27900
H  -5.89300 16.15400 39.32700
H  -12.93700 22.09600 39.17000
H  -11.50500 22.15600 40.25700
H  -13.02900 22.73200 40.86700
H  -17.56600 21.94700 41.69800
H  -16.86400 20.55500 42.60700
H  -17.55300 20.39900 40.97900
H  -17.58100 16.12400 41.90500
H  -16.60000 15.01500 44.40600
H  -17.62300 18.02100 43.97900
H  -18.28100 16.44900 44.47700
H  -18.92500 17.27500 42.98300
H  -16.76700 12.90100 42.18200
H  -18.16500 13.84900 42.21900
H  -18.97400 12.85000 43.91900
H  -17.52700 13.01800 44.97400
H  -17.60300 11.66800 43.88400
H  -12.68700 10.95100 44.25000
H  -11.80000 10.33300 42.68600
H  -13.49700 10.84300 42.72400
H  -8.23100 13.46100 40.52300
H  -5.03300 13.62600 43.12100
H  -4.88900 15.07900 42.23600
H  -4.26500 13.62400 41.57400

