158

Mg 47.10900 25.61800 29.28500
C  48.04600 27.86800 31.91900
C  45.66800 23.53300 31.62700
C  46.78500 23.20200 26.89800
C  48.87000 27.66500 27.15400
N  47.05000 25.69200 31.49500
C  47.29500 26.71300 32.34500
C  46.65600 26.55700 33.74100
C  46.07400 25.13100 33.60400
C  46.18400 24.75800 32.15600
C  46.69600 24.14500 34.60100
C  45.57600 27.67300 34.15800
C  45.17600 27.98500 35.60100
H  45.78100 27.19500 36.75100
N  46.20200 23.68200 29.24200
C  45.60400 23.03700 30.25700
C  44.98300 21.81000 29.76000
C  45.39100 21.60300 28.40800
C  46.15200 22.88400 28.13000
C  44.19800 20.91200 30.62800
C  45.02500 20.51100 27.42900
O  45.52100 20.60800 26.30200
C  44.01100 19.46100 27.75200
N  47.66600 25.47700 27.36900
C  47.44100 24.39400 26.52800
C  48.07600 24.57300 25.14900
C  48.47000 26.06500 25.10700
C  48.41800 26.38100 26.64100
C  49.31800 23.68000 24.93300
C  47.51600 27.04600 24.32700
C  48.27500 27.91500 23.35100
N  48.20800 27.47500 29.43600
C  48.84400 28.20100 28.46400
C  49.38400 29.37800 29.02300
C  49.10100 29.35400 30.40600
C  48.35700 28.15400 30.58100
C  50.10500 30.49600 28.35600
C  49.28700 30.00000 31.67300
O  49.85200 31.07700 31.97700
C  48.58400 29.04800 32.73400
C  49.52300 28.65600 33.74900
O  50.58200 28.10000 33.48600
O  48.97700 29.00900 34.97700
C  49.81000 28.50000 36.06600
H  45.14100 23.05800 32.45700
H  46.65800 22.47800 26.09000
H  49.60800 28.20400 26.55600
H  47.43100 26.39600 34.49000
H  45.01300 25.21300 33.84000
H  47.54800 24.50000 35.18100
H  47.05700 23.25300 34.09000
H  45.92600 23.77800 35.27900
H  44.71800 27.34000 33.57500
H  45.84700 28.65100 33.76300
H  44.11800 27.78600 35.76900
H  45.36500 29.04100 35.79600
H  44.06200 21.23200 31.66100
H  44.65400 19.92200 30.60300
H  43.20500 20.79000 30.19400
H  44.39400 19.15900 28.72700
H  44.12400 18.70500 26.97500
H  43.00900 19.89000 27.75400
H  47.27100 24.35800 24.44700
H  49.53300 26.16900 24.88900
H  49.11400 23.04900 24.06800
H  49.52500 22.97000 25.73300
H  50.23900 24.23300 24.75100
H  47.10100 27.81700 24.97600
H  46.70800 26.44100 23.91300
H  47.66100 28.08400 22.46600
H  49.17900 27.39400 23.03700
H  48.53700 28.90300 23.73000
H  50.69200 30.17100 27.49700
H  50.78500 30.99000 29.05100
H  49.47100 31.28000 27.94400
H  47.75600 29.66900 33.07400
H  50.77300 28.99900 35.95000
H  49.85900 27.41100 36.06100
H  49.22300 28.81400 36.92900
Mg 43.04300 42.08600 26.06100
C  42.20000 44.44600 28.47400
C  44.05300 40.02700 28.54800
C  43.78900 39.91100 23.70700
C  42.49600 44.60600 23.61500
N  42.84700 42.12800 28.28300
C  42.45600 43.18600 29.04900
C  42.65700 43.04300 30.57100
C  43.34000 41.60100 30.51200
C  43.44200 41.19400 29.03200
C  44.63600 41.37500 31.22000
C  41.25000 43.02600 31.25900
C  41.32000 42.76600 32.77800
H  40.76700 43.86200 33.69500
N  43.89200 40.26900 26.10500
C  44.25200 39.60700 27.23100
C  44.62000 38.23100 26.92300
C  44.54900 38.08900 25.51900
C  44.11200 39.42300 25.04100
C  45.13400 37.15600 27.86800
C  44.80900 36.94400 24.64600
O  44.70600 37.07200 23.41500
C  45.26300 35.61600 25.26700
N  43.37200 42.31100 23.93700
C  43.51300 41.16100 23.20400
C  43.44400 41.47500 21.65200
C  42.90500 42.98500 21.63300
C  42.96100 43.32300 23.11800
C  44.84600 41.34700 20.91500
C  41.49800 43.07800 21.05800
C  40.28300 42.65000 21.98800
N  42.46200 44.01400 25.95700
C  42.36000 44.91100 24.90800
C  42.01200 46.20700 25.45600
C  41.94400 46.03100 26.83900
C  42.24500 44.71700 27.07000
C  41.87100 47.44100 24.72200
C  41.70900 46.74200 27.99700
O  41.43700 47.90500 28.22500
C  41.80100 45.76000 29.19000
C  42.61800 46.26400 30.36600
O  43.86200 46.17200 30.42200
O  41.89100 46.68300 31.36400
C  42.68000 46.91200 32.59600
H  44.42800 39.36100 29.32800
H  43.96500 39.26100 22.84800
H  42.28200 45.31900 22.81600
H  43.37300 43.70200 31.06200
H  42.65100 40.91700 31.00700
H  45.44700 40.97500 30.61100
H  44.40700 40.68300 32.03000
H  44.97600 42.26900 31.74400
H  40.77900 42.17300 30.77100
H  40.62800 43.89600 31.05200
H  42.32200 42.52000 33.13000
H  40.80300 41.81600 32.91100
H  46.13800 36.89100 27.53500
H  44.51000 36.26300 27.87700
H  45.22100 37.45300 28.91300
H  45.25700 34.99700 24.37000
H  44.52700 35.32400 26.01500
H  46.28400 35.75200 25.62500
H  42.70300 40.85000 21.15300
H  43.60700 43.48400 20.96500
H  45.03700 42.16400 20.21800
H  44.92100 40.35600 20.46800
H  45.55500 41.35900 21.74300
H  41.43800 42.51700 20.12500
H  41.22800 44.10100 20.79600
H  40.59800 41.82400 22.62500
H  39.37100 42.38800 21.45100
H  40.10300 43.40000 22.75800
H  41.06300 48.00700 25.18600
H  41.65700 47.29800 23.66300
H  42.69400 48.13300 24.89600
H  40.75300 45.68700 29.48100
H  42.89900 45.93900 33.03400
H  41.98300 47.51400 33.18000
H  43.66400 47.37400 32.67300

