158

Mg 3.13400 -3.50800 44.83500
C  6.08700 -1.75600 44.43100
C  1.59900 -1.20900 42.71000
C  0.51600 -5.50900 44.69800
C  5.00000 -6.10100 46.37200
N  3.78800 -1.71900 43.63000
C  5.06100 -1.19300 43.59800
C  5.14400 0.00700 42.76600
C  3.57700 0.43500 42.67600
C  2.92200 -0.91000 43.02800
C  3.10600 1.62700 43.61400
C  5.73300 -0.49300 41.39400
C  6.63700 0.52700 40.61200
H  5.96300 1.40600 39.53200
N  1.26300 -3.33400 43.91400
C  0.80500 -2.30200 43.09100
C  -0.56500 -2.54800 42.70800
C  -0.96700 -3.80100 43.24800
C  0.25900 -4.28800 44.01200
C  -1.42900 -1.52300 41.90200
C  -2.36300 -4.43900 43.14800
O  -3.22800 -3.88100 42.50800
C  -2.75000 -5.75200 43.79100
N  2.76900 -5.51400 45.48000
C  1.57500 -6.09100 45.37100
C  1.51300 -7.55300 45.96400
C  3.00900 -7.67900 46.49500
C  3.64300 -6.33900 46.18600
C  0.40100 -7.63500 47.08000
C  3.76100 -8.84100 45.84100
C  4.36400 -9.97000 46.79100
N  5.07800 -3.86000 45.43600
C  5.74800 -4.97000 45.99400
C  7.07300 -4.56900 46.27900
C  7.22200 -3.32300 45.74500
C  6.04000 -2.97200 45.09400
C  8.22700 -5.36400 46.93200
C  8.15900 -2.29400 45.48800
O  9.32700 -2.11700 45.76800
C  7.44800 -1.16100 44.63800
C  7.33900 0.04000 45.48500
O  6.35600 0.24600 46.24200
O  8.30200 0.96500 45.17500
C  8.06900 2.25000 45.65600
H  1.15700 -0.43200 42.08300
H  -0.39300 -6.11400 44.69800
H  5.48700 -6.94500 46.86600
H  5.57100 0.91800 43.18600
H  3.23100 0.60100 41.65500
H  2.98600 1.32700 44.65500
H  2.21600 2.09900 43.19800
H  3.89000 2.38300 43.66500
H  4.88100 -0.65500 40.73300
H  6.35400 -1.36400 41.60300
H  7.45800 -0.07100 40.21500
H  7.08500 1.08100 41.43700
H  -2.37400 -1.40100 42.43200
H  -1.75000 -1.90600 40.93300
H  -1.01100 -0.52400 41.77500
H  -2.01900 -6.42700 43.34600
H  -3.73400 -6.06500 43.44000
H  -2.64100 -5.60600 44.86500
H  1.29900 -8.15400 45.08000
H  3.20600 -7.72800 47.56600
H  0.93800 -7.73000 48.02300
H  -0.21800 -8.52600 46.98100
H  -0.24000 -6.75400 47.04200
H  4.68600 -8.45200 45.41500
H  3.21400 -9.30400 45.02000
H  4.12900 -9.86900 47.85100
H  5.45100 -10.03600 46.74600
H  3.93200 -10.95000 46.59000
H  8.43900 -4.89700 47.89400
H  9.11900 -5.40900 46.30700
H  7.91100 -6.40300 47.02400
H  8.01600 -0.94100 43.73400
H  7.32200 2.44100 46.42700
H  7.91300 2.99200 44.87400
H  9.03500 2.49700 46.09500
Mg 17.15100 53.23800 26.58300
C  19.23300 51.56900 28.74700
C  14.72700 53.28700 28.99500
C  15.14400 54.46500 24.29800
C  19.33400 52.21900 23.88000
N  17.00300 52.55000 28.68400
C  18.01600 51.97800 29.37400
C  17.59500 51.94100 30.89800
C  16.04200 52.26300 30.84400
C  15.89500 52.70000 29.44600
C  15.09800 51.13200 31.32300
C  18.43900 52.98900 31.76800
C  19.12100 52.51700 33.03200
H  18.16800 51.93100 34.08800
N  15.28300 54.05800 26.72600
C  14.43600 53.87900 27.76500
C  13.12100 54.46000 27.39500
C  13.19000 54.82800 26.05200
C  14.59400 54.49000 25.63300
C  11.87600 54.19400 28.19900
C  12.19400 55.42300 25.16500
O  12.50100 55.66200 24.02400
C  10.82300 55.71700 25.66700
N  17.15000 53.23100 24.44200
C  16.31100 53.97900 23.81700
C  16.52300 54.05000 22.23900
C  17.92700 53.45200 22.11000
C  18.22100 53.00100 23.59200
C  15.46700 53.22700 21.41500
C  19.01600 54.28200 21.41700
C  19.48200 55.49700 22.23200
N  18.94300 52.20300 26.35000
C  19.76100 51.91400 25.21800
C  20.89100 51.19400 25.61600
C  20.76800 51.09800 27.03400
C  19.57100 51.66300 27.40300
C  21.95200 50.71900 24.66100
C  21.44900 50.48800 28.19200
O  22.51100 49.90600 28.43600
C  20.43300 50.91600 29.38600
C  20.13200 49.65000 30.14300
O  19.34500 48.73300 29.81500
O  20.70600 49.79500 31.37700
C  20.52900 48.83000 32.44100
H  13.96000 53.30500 29.77100
H  14.59600 54.94900 23.48700
H  19.92000 52.02900 22.97800
H  17.76300 50.91700 31.23100
H  15.78600 53.17600 31.38100
H  14.35400 51.69200 31.89000
H  15.67600 50.41600 31.90700
H  14.63800 50.67300 30.44800
H  17.76700 53.77500 32.11400
H  19.15100 53.50100 31.12100
H  19.75100 53.30300 33.44900
H  19.77300 51.67900 32.78700
H  11.61500 55.05300 28.81800
H  12.04600 53.33600 28.85000
H  11.02400 53.97700 27.55600
H  10.26700 56.18600 24.85500
H  10.89100 56.37600 26.53300
H  10.33000 54.74900 25.75000
H  16.44300 55.12500 22.08000
H  17.88200 52.49600 21.58900
H  15.92100 52.53700 20.70400
H  14.94500 53.93300 20.76900
H  14.75600 52.72900 22.07400
H  18.77800 54.59900 20.40100
H  19.91100 53.70400 21.18500
H  19.85400 56.32200 21.62500
H  20.23800 55.10000 22.91000
H  18.67200 55.95800 22.79700
H  21.92000 51.39900 23.81000
H  21.84200 49.65300 24.46100
H  22.91900 50.73400 25.16600
H  20.93700 51.62500 30.04200
H  19.46500 48.62500 32.55500
H  20.83600 49.42900 33.29900
H  21.03100 47.88700 32.22600

