158

Mg 40.42300 9.39700 29.28200
C  42.44800 10.32300 32.10800
C  38.49700 7.54900 31.32600
C  38.77700 8.45000 26.49700
C  43.01400 10.70200 27.14600
N  40.48900 9.07800 31.43300
C  41.33200 9.61100 32.42200
C  40.74500 9.41300 33.77400
C  39.51800 8.44200 33.55200
C  39.49900 8.28500 32.04000
C  39.56000 7.05500 34.23000
C  40.43900 10.72600 34.55200
C  39.89000 10.44500 35.96900
H  39.79200 11.67900 36.91100
N  38.81100 8.11100 28.94900
C  38.13900 7.44000 29.95200
C  37.02900 6.79100 29.30300
C  37.12100 6.93100 27.93000
C  38.22900 7.89900 27.71900
C  36.08100 6.00700 30.25800
C  36.33100 6.22200 26.80000
O  36.43900 6.59000 25.60900
C  35.40700 5.19000 27.24500
N  40.93100 9.45300 27.13200
C  39.94900 9.20500 26.20400
C  40.44400 9.46700 24.73900
C  41.82900 10.21300 25.02300
C  41.94100 10.09800 26.50600
C  40.50000 8.25100 23.84300
C  41.66900 11.71400 24.51700
C  40.60100 12.59100 25.19500
N  42.31200 10.36400 29.48800
C  43.21000 10.83200 28.55200
C  44.33000 11.48300 29.27000
C  43.98500 11.26600 30.58500
C  42.82100 10.62100 30.74700
C  45.36100 12.32500 28.64100
C  44.53300 11.63300 31.89400
O  45.53900 12.27900 32.19600
C  43.54300 10.99500 32.97400
C  44.28000 10.01300 33.81700
O  44.27000 8.81500 33.53200
O  44.96300 10.57400 34.86000
C  45.69200 9.63600 35.69800
H  37.81000 7.10200 32.04700
H  38.18000 8.15900 25.63000
H  43.78400 11.20800 26.56000
H  41.46000 8.88300 34.40300
H  38.53600 8.87100 33.75100
H  39.52500 6.29900 33.44500
H  38.67900 6.92300 34.85800
H  40.41200 6.89100 34.89100
H  39.77400 11.43200 34.05400
H  41.41000 11.18200 34.74800
H  40.44700 9.61100 36.39700
H  38.83400 10.19500 35.86800
H  35.37100 5.34900 29.75600
H  35.63000 6.56000 31.08200
H  36.80400 5.33600 30.72200
H  35.99600 4.41500 27.73600
H  34.91200 4.83200 26.34200
H  34.57700 5.64100 27.78800
H  39.70800 10.18400 24.37400
H  42.57600 9.62100 24.49600
H  40.08600 7.38600 24.36200
H  41.51300 7.97900 23.54800
H  40.02400 8.52800 22.90300
H  41.43300 11.70700 23.45300
H  42.61400 12.24700 24.62400
H  40.11400 12.01300 25.98000
H  39.93100 12.82200 24.36700
H  41.03900 13.50900 25.58900
H  45.14300 12.52500 27.59200
H  46.36400 11.89900 28.61000
H  45.39500 13.28700 29.15300
H  43.09600 11.72700 33.64600
H  46.27100 9.00300 35.02600
H  45.02700 8.97200 36.25000
H  46.43600 10.24700 36.21000
Mg 54.75200 23.75200 45.43100
C  52.29400 25.88700 44.26300
C  52.85400 21.04200 44.27700
C  57.46900 21.70900 45.73700
C  56.73600 26.59600 46.13300
N  52.81400 23.53700 44.36500
C  51.96800 24.53700 44.02200
C  50.67900 24.03200 43.41700
C  50.73800 22.49400 43.88200
C  52.22800 22.28900 44.22400
C  49.81300 22.16600 45.04300
C  50.53400 24.21700 41.93900
C  51.72100 24.19300 41.09100
H  52.49600 22.90300 40.71400
N  55.15200 21.61700 44.96900
C  54.21300 20.68400 44.57500
C  54.88500 19.44900 44.50600
C  56.21200 19.62300 44.89300
C  56.36900 21.08300 45.16500
C  54.16900 18.16300 44.02600
C  57.26700 18.54600 44.84800
O  57.02600 17.36600 44.61900
C  58.70600 18.90900 45.09600
N  56.83900 24.12300 45.68500
C  57.64800 23.09600 46.04600
C  58.99300 23.59700 46.58500
C  58.76500 25.19700 46.74900
C  57.37700 25.37300 46.10600
C  59.57100 22.87300 47.83800
C  59.81500 26.13900 46.21000
C  60.99500 26.62500 47.08700
N  54.64900 25.89900 45.24100
C  55.53200 26.91000 45.61600
C  54.81300 28.17800 45.50600
C  53.56300 27.81300 44.91400
C  53.50000 26.37700 44.80000
C  55.37900 29.46900 45.97100
C  52.34400 28.35400 44.40600
O  51.96600 29.55900 44.32400
C  51.46100 27.13300 43.97200
C  51.21800 27.38000 42.52700
O  51.94900 27.35500 41.55300
O  49.90500 27.60400 42.36400
C  49.39300 28.08500 41.05100
H  52.16800 20.32700 43.81800
H  58.25700 21.05300 46.11200
H  57.24200 27.43500 46.61600
H  49.84600 24.55800 43.88300
H  50.42100 21.85600 43.05700
H  48.87100 22.68300 44.85900
H  50.16200 22.38900 46.05100
H  49.57200 21.11100 44.91300
H  49.77100 24.95700 41.69800
H  49.93300 23.35900 41.63700
H  52.38400 24.87500 41.62400
H  51.56300 24.58900 40.08800
H  54.75100 17.68900 43.23600
H  53.14100 18.19200 43.66600
H  54.34800 17.54900 44.90800
H  59.01400 19.81700 44.57700
H  59.30500 18.09000 44.69600
H  58.75400 18.98800 46.18200
H  59.67400 23.30100 45.78700
H  58.61500 25.33100 47.82000
H  59.68600 23.41200 48.77900
H  60.55500 22.44100 47.65900
H  58.88700 22.04500 48.02900
H  59.21000 26.96200 45.82900
H  60.40200 25.63700 45.44000
H  60.66900 26.54200 48.12300
H  61.18200 27.64400 46.74500
H  61.84100 25.94400 46.98900
H  56.29200 29.71400 45.42800
H  55.64600 29.32800 47.01800
H  54.62600 30.24700 45.84300
H  50.53500 27.12100 44.54600
H  49.99100 28.92800 40.70600
H  48.40700 28.54800 41.09600
H  49.50400 27.26200 40.34500

