158

Mg 8.76100 47.91800 25.17900
C  6.82500 48.08800 28.12300
C  11.38300 49.37900 26.99100
C  10.53100 48.08300 22.35400
C  5.95600 47.18600 23.34600
N  9.10600 48.47500 27.35600
C  8.17400 48.40000 28.38900
C  8.73600 48.92000 29.68500
C  9.85700 49.78100 29.18500
C  10.16400 49.16400 27.77200
C  9.41200 51.29600 29.05300
C  9.07100 47.79500 30.68400
C  8.61400 48.04200 32.14200
H  8.44900 46.86400 33.22600
N  10.68500 48.50100 24.79600
C  11.66400 48.96200 25.66800
C  12.98600 49.06000 24.98200
C  12.80400 48.65500 23.61700
C  11.29900 48.37100 23.57500
C  14.27500 49.53000 25.62800
C  13.64100 48.42200 22.45800
O  13.27400 47.88800 21.43400
C  15.10000 48.74900 22.64800
N  8.38500 47.53800 23.16400
C  9.22700 47.78100 22.14700
C  8.67100 47.42600 20.74900
C  7.23600 46.92500 21.17800
C  7.19300 47.26500 22.65200
C  8.86800 48.48900 19.66200
C  7.10100 45.40200 20.93500
C  5.75100 45.01500 20.16600
N  6.78200 47.59900 25.58600
C  5.75600 47.43200 24.74700
C  4.54100 47.39300 25.50800
C  4.89500 47.54400 26.85500
C  6.30300 47.70800 26.84000
C  3.14100 47.16100 24.99400
C  4.42700 47.61500 28.18200
O  3.27700 47.47900 28.66400
C  5.68000 47.90300 29.09000
C  5.78200 46.63900 29.92800
O  6.26000 45.58200 29.45400
O  5.57700 46.86400 31.25500
C  5.50200 45.62400 32.03000
H  12.12900 49.96400 27.53200
H  11.03900 47.97500 21.39400
H  5.02300 46.98400 22.81600
H  7.91300 49.50300 30.09700
H  10.82400 49.63400 29.66600
H  10.04300 51.89300 29.71000
H  8.35500 51.54500 29.15400
H  9.58100 51.57300 28.01200
H  10.15700 47.71000 30.70200
H  8.67800 46.83100 30.36100
H  7.66100 48.57000 32.15000
H  9.36900 48.72000 32.54000
H  14.09900 49.80300 26.66900
H  14.69900 50.43300 25.18900
H  14.92400 48.65500 25.60700
H  15.46400 48.12400 23.46300
H  15.24200 49.81500 22.82800
H  15.61200 48.55800 21.70500
H  9.26300 46.54000 20.52100
H  6.52800 47.56900 20.65600
H  8.02500 48.78300 19.03600
H  9.78900 48.28600 19.11600
H  9.10000 49.48400 20.03900
H  7.06500 44.82800 21.86100
H  7.88600 45.06000 20.26000
H  5.17500 45.85500 19.77800
H  5.11600 44.46800 20.86200
H  5.93200 44.33800 19.33100
H  3.26100 47.52100 23.97200
H  2.51500 47.96300 25.38800
H  2.72000 46.15600 25.02600
H  5.54600 48.69400 29.82800
H  6.50000 45.33500 32.36000
H  5.07400 44.78300 31.48400
H  4.86700 45.99400 32.83500
Mg -2.85200 34.93600 26.40600
C  -3.86200 33.43400 29.25900
C  -1.19900 37.27400 28.42800
C  -1.83100 36.60400 23.58100
C  -4.73100 32.80400 24.59600
N  -2.42800 35.15100 28.58700
C  -2.95500 34.41300 29.56800
C  -2.39400 34.75500 30.90600
C  -1.64200 36.12800 30.58100
C  -1.80600 36.23000 29.10200
C  -2.25600 37.38700 31.33600
C  -1.55700 33.60800 31.60000
C  -1.95500 33.10200 32.97200
H  -0.91400 33.35000 34.04400
N  -1.69700 36.63500 26.05800
C  -1.10000 37.45400 27.00100
C  -0.45100 38.60100 26.32400
C  -0.56200 38.41600 24.91100
C  -1.44200 37.15700 24.81700
C  0.29500 39.58900 27.07700
C  -0.05200 39.19400 23.74900
O  -0.36200 38.98000 22.58100
C  1.00900 40.23500 24.09200
N  -3.29500 34.81000 24.37500
C  -2.71900 35.51500 23.36600
C  -3.10900 34.90400 21.95100
C  -3.71600 33.53400 22.33900
C  -3.95400 33.70300 23.85300
C  -3.97100 35.84300 21.05400
C  -2.75400 32.39600 22.08700
C  -3.32900 31.21100 21.30500
N  -4.10500 33.39100 26.81700
C  -4.78400 32.57000 25.99200
C  -5.32200 31.47600 26.75800
C  -5.05000 31.83100 28.06000
C  -4.20600 32.95200 28.00900
C  -6.24100 30.41000 26.25700
C  -5.23200 31.41100 29.39700
O  -5.93500 30.49600 29.84500
C  -4.43000 32.45800 30.22400
C  -5.44900 33.08900 31.09000
O  -6.43400 33.75700 30.71600
O  -5.25700 32.69100 32.36100
C  -6.03900 33.35900 33.35600
H  -0.66300 37.97900 29.06600
H  -1.50600 36.97200 22.60600
H  -5.28400 32.00300 24.09900
H  -3.24800 34.93800 31.55800
H  -0.56800 36.02000 30.73200
H  -1.34900 37.98600 31.41000
H  -2.65400 37.24200 32.34000
H  -2.94500 37.95200 30.70700
H  -0.55900 34.03000 31.72600
H  -1.48500 32.78200 30.89200
H  -2.22100 32.04800 32.89600
H  -2.85900 33.63500 33.26600
H  1.30000 39.41900 26.69000
H  0.13900 39.53300 28.15400
H  0.06200 40.62600 26.83600
H  1.36400 40.48900 23.09400
H  1.86900 39.79400 24.59600
H  0.69500 41.08500 24.69800
H  -2.16600 34.79800 21.41500
H  -4.55200 33.19100 21.73000
H  -4.88300 35.26600 20.90000
H  -3.44000 35.99500 20.11500
H  -4.07500 36.86000 21.43200
H  -2.29400 32.11300 23.03400
H  -1.93900 32.77700 21.47200
H  -3.31500 30.40800 22.04200
H  -2.69200 30.87000 20.48900
H  -4.38100 31.26600 21.02300
H  -5.84000 29.40400 26.37900
H  -6.39300 30.56800 25.18900
H  -7.21700 30.46200 26.74000
H  -3.75800 31.90200 30.87700
H  -6.41800 34.32800 33.03200
H  -5.31900 33.50800 34.16000
H  -6.83900 32.71400 33.72100

