158

Mg 24.48300 -5.05400 46.32300
C  26.39900 -2.49900 44.61200
C  21.87000 -4.07500 44.36700
C  22.81600 -7.67600 47.44800
C  27.44600 -6.15500 47.76500
N  24.23600 -3.37000 44.76600
C  25.08100 -2.46600 44.23100
C  24.41200 -1.62400 43.14800
C  22.95400 -2.05200 43.26000
C  22.97200 -3.23400 44.24400
C  21.97100 -0.89400 43.70600
C  25.17100 -1.95600 41.77600
C  25.87800 -0.76300 41.06100
H  25.69900 -0.66000 39.54800
N  22.56300 -5.78200 46.00300
C  21.59400 -5.25400 45.11800
C  20.41000 -6.02700 45.17900
C  20.66300 -7.11200 46.09800
C  22.03900 -6.86500 46.63600
C  19.16800 -5.80500 44.27900
C  19.63100 -8.23900 46.43700
O  18.48800 -8.18600 45.96600
C  20.04100 -9.36200 47.41600
N  25.09600 -6.78600 47.38700
C  24.15900 -7.60500 47.91100
C  24.88900 -8.67400 48.82500
C  26.24000 -7.93200 49.09200
C  26.26200 -6.97100 47.93700
C  24.07200 -9.02700 50.07400
C  27.45700 -8.95400 49.21300
C  28.36400 -8.90300 50.39900
N  26.49200 -4.47300 46.28000
C  27.58100 -4.99600 46.95100
C  28.74500 -4.13100 46.71500
C  28.31700 -3.12300 45.82400
C  26.94400 -3.37600 45.58600
C  30.12600 -4.38900 47.20800
C  28.75900 -1.97000 45.06200
O  29.84900 -1.38200 44.92300
C  27.51700 -1.58800 44.17000
C  27.31100 -0.13300 44.35700
O  26.41500 0.38100 45.05200
O  28.23200 0.55900 43.62500
C  28.11000 2.09000 43.74400
H  21.10000 -3.73600 43.67000
H  22.40300 -8.56200 47.93400
H  28.29800 -6.34300 48.42100
H  24.56400 -0.55200 43.27900
H  22.59600 -2.49100 42.32900
H  21.22800 -1.30600 44.38800
H  21.60100 -0.61700 42.71800
H  22.41900 0.03200 44.06600
H  24.36100 -2.34400 41.15900
H  25.91800 -2.73200 41.94500
H  26.94300 -0.89300 41.25300
H  25.52300 0.16700 41.50400
H  19.08200 -6.57300 43.51000
H  19.04600 -4.89400 43.69200
H  18.34800 -5.76000 44.99600
H  19.30200 -10.12800 47.65000
H  20.47400 -9.03500 48.36100
H  20.82000 -9.84300 46.82400
H  24.99600 -9.58300 48.23300
H  26.15000 -7.45500 50.06800
H  24.82500 -9.19200 50.84400
H  23.63100 -9.97800 49.77500
H  23.28500 -8.39900 50.49100
H  28.03500 -8.86000 48.29300
H  27.08900 -9.96900 49.36600
H  29.32400 -8.50900 50.06400
H  28.41000 -9.96600 50.63700
H  28.04600 -8.29200 51.24300
H  30.17000 -4.19100 48.27900
H  30.95000 -4.02900 46.59100
H  30.19800 -5.47600 47.22500
H  27.76600 -1.68500 43.11300
H  27.92100 2.32400 44.79200
H  27.29100 2.53000 43.17600
H  29.02900 2.60900 43.47100
Mg 43.73700 4.23100 47.22900
C  41.76200 7.10300 46.71600
C  40.88300 2.25800 46.53100
C  45.81900 1.57600 46.86000
C  46.56200 6.28000 46.64300
N  41.57300 4.63800 46.57900
C  41.01600 5.92200 46.64800
C  39.48300 5.75200 46.40900
C  39.21600 4.23600 46.59200
C  40.63900 3.64500 46.51400
C  38.59300 3.98600 48.02500
C  38.85800 6.36900 45.12900
C  39.71800 6.36300 43.81900
H  39.50800 7.48800 42.80400
N  43.36500 2.23100 46.99600
C  42.08300 1.63100 46.72200
C  42.34700 0.14700 46.63200
C  43.70300 -0.10600 46.65200
C  44.41200 1.25700 46.83000
C  41.19600 -0.77000 46.45800
C  44.33900 -1.46500 46.51300
O  43.56400 -2.45600 46.35600
C  45.75100 -1.66700 46.53900
N  45.94900 3.92500 46.84200
C  46.51900 2.78400 46.81800
C  48.09500 2.90300 46.66700
C  48.31900 4.42900 46.37300
C  46.88600 4.92800 46.62700
C  48.83200 2.39400 47.91900
C  48.93700 4.77000 44.99500
C  50.39600 5.14200 44.99100
N  44.16000 6.33300 47.04400
C  45.33300 6.98200 46.90100
C  45.08400 8.34300 47.04400
C  43.68700 8.48600 46.90600
C  43.16100 7.21700 46.91800
C  46.11300 9.40800 46.97400
C  42.58600 9.36500 46.77100
O  42.58700 10.55500 46.89000
C  41.30600 8.51600 46.45300
C  40.12500 8.86700 47.26400
O  39.84800 8.44100 48.36200
O  39.32800 9.72500 46.60800
C  38.11700 10.10500 47.25700
H  40.04100 1.59600 46.31500
H  46.47200 0.70800 46.75400
H  47.41700 6.90300 46.37300
H  39.09400 6.30900 47.26200
H  38.58800 3.82400 45.80100
H  39.15600 4.69100 48.63700
H  38.81500 2.97100 48.35300
H  37.54400 4.28300 48.06200
H  38.43100 7.35700 45.30200
H  37.98000 5.80500 44.81200
H  39.57300 5.39500 43.34100
H  40.76800 6.44700 44.10000
H  40.90400 -0.88100 45.41300
H  40.23300 -0.38200 46.79200
H  41.36200 -1.74700 46.91200
H  46.22300 -1.35200 47.47000
H  46.06300 -1.14700 45.63400
H  46.01400 -2.68300 46.24400
H  48.41900 2.21700 45.88400
H  48.99500 4.97800 47.02900
H  49.91700 2.44900 47.82500
H  48.66300 1.32200 48.02200
H  48.51700 2.85300 48.85600
H  48.29600 5.57900 44.64400
H  48.76200 3.87400 44.40000
H  50.85700 4.79500 44.06700
H  50.89500 4.74100 45.87300
H  50.51800 6.22500 45.01000
H  46.88400 9.09000 47.67600
H  45.57500 10.32200 47.22200
H  46.59000 9.43400 45.99400
H  40.92100 8.64100 45.44100
H  37.64500 9.29500 47.81300
H  37.41800 10.37400 46.46600
H  38.38100 10.98700 47.84000

