158

Mg 0.50500 7.74500 25.81400
C  1.51100 9.82000 28.56300
C  0.67700 5.01200 27.91400
C  0.55300 5.64600 23.21300
C  1.30800 10.34100 23.60400
N  1.05600 7.52000 27.90600
C  1.38300 8.43000 28.85300
C  1.24000 7.81900 30.26600
C  1.32100 6.29500 29.97200
C  0.97300 6.26700 28.53300
C  2.65700 5.49500 30.23100
C  -0.06000 8.30000 30.95400
C  0.09400 8.56500 32.47900
H  1.30500 7.94600 33.21200
N  0.35300 5.63300 25.62000
C  0.39200 4.67900 26.58700
C  0.13200 3.40000 25.97900
C  0.06800 3.62100 24.60000
C  0.37200 4.98000 24.39100
C  -0.05300 2.10200 26.75500
C  -0.26800 2.73200 23.35200
O  -0.62500 3.13900 22.21300
C  -0.24100 1.33500 23.62600
N  0.70100 7.97200 23.65200
C  0.70300 6.92100 22.82500
C  0.89200 7.34200 21.33600
C  1.07000 8.86300 21.45900
C  0.99700 9.09800 23.00900
C  2.01300 6.56100 20.58900
C  0.32000 9.80500 20.45700
C  -1.16000 10.06700 20.64900
N  1.10300 9.74500 26.00500
C  1.35400 10.66600 24.99200
C  1.75300 11.87100 25.66100
C  1.75400 11.57900 27.05100
C  1.42800 10.28500 27.20300
C  2.17800 13.18900 25.11800
C  2.09200 12.14500 28.40700
O  2.59600 13.20100 28.69400
C  1.74200 11.03100 29.42300
C  2.85800 10.95500 30.41000
O  3.95000 10.46100 30.31600
O  2.49900 11.51900 31.52700
C  3.31800 11.51700 32.75400
H  0.69400 4.10800 28.52600
H  0.78700 4.96300 22.39400
H  1.77900 11.03700 22.90600
H  2.19400 8.13100 30.69200
H  0.55100 5.74800 30.51600
H  3.34200 6.08400 30.84100
H  3.00200 5.20000 29.24000
H  2.31900 4.56500 30.68900
H  -0.82800 7.52700 30.98300
H  -0.51700 9.18800 30.51500
H  -0.75800 8.12400 32.99600
H  -0.08000 9.63100 32.62900
H  0.82000 1.52200 26.45300
H  -0.92600 1.55500 26.40000
H  -0.00700 2.27600 27.83000
H  0.72000 1.04800 24.05300
H  -0.37100 0.85800 22.65500
H  -1.08300 0.95900 24.20600
H  -0.00700 7.21600 20.73300
H  2.12900 9.06900 21.30500
H  2.45700 7.23400 19.85500
H  1.67500 5.77000 19.91900
H  2.67600 6.11600 21.33100
H  0.56100 9.59000 19.41600
H  0.80400 10.74800 20.71000
H  -1.74100 9.71300 19.79800
H  -1.37800 11.08200 20.98300
H  -1.46500 9.41500 21.46700
H  1.70800 13.45500 24.17100
H  3.25800 13.30900 25.02800
H  1.77700 13.89000 25.85100
H  0.81800 11.36100 29.89800
H  3.75000 12.51800 32.73500
H  4.11100 10.77000 32.78300
H  2.67900 11.50200 33.63700
Mg 48.21900 44.34500 43.03000
C  44.76200 44.04600 42.92800
C  48.45300 40.85700 42.75200
C  51.68800 44.58200 42.59000
C  47.97200 47.77000 42.60900
N  46.75200 42.63300 42.70800
C  45.34100 42.71500 42.86400
C  44.73400 41.33600 42.89100
C  45.98600 40.46000 42.59500
C  47.12300 41.34000 42.72000
C  46.19400 39.26600 43.62400
C  43.56900 41.12500 41.84900
C  43.69400 41.81100 40.50600
H  43.73300 40.94300 39.24700
N  49.83300 42.91900 42.78800
C  49.64200 41.56600 42.61200
C  50.89800 40.94700 42.42700
C  51.91100 41.88600 42.38400
C  51.14500 43.20800 42.64100
C  51.01000 39.47600 42.51000
C  53.40900 41.77700 42.20800
O  53.89400 40.63800 42.16600
C  54.35300 42.92200 41.92100
N  49.63900 45.87400 42.71600
C  50.97200 45.73500 42.61200
C  51.69500 47.11600 42.59800
C  50.49700 48.11300 42.74000
C  49.29400 47.22900 42.64200
C  52.76900 47.24700 43.66400
C  50.57000 49.39200 41.83200
C  50.41300 50.77900 42.60300
N  46.65200 45.68600 42.81900
C  46.73100 47.02000 42.72700
C  45.35300 47.47700 42.68600
C  44.54000 46.40400 42.86300
C  45.36300 45.29200 42.83800
C  44.98400 48.90300 42.43800
C  43.18000 45.94200 42.97300
O  42.10300 46.50600 42.94200
C  43.32000 44.34900 43.01200
C  42.72600 43.92400 44.37300
O  41.74700 43.22500 44.54800
O  43.36700 44.60000 45.38700
C  42.83700 44.45000 46.78300
H  48.61000 39.78000 42.66200
H  52.78000 44.57700 42.61500
H  47.78100 48.81500 42.35700
H  44.40700 41.28100 43.92900
H  45.90600 40.07000 41.58000
H  45.25200 38.81700 43.93900
H  46.85900 39.64400 44.40100
H  46.71500 38.54300 42.99600
H  42.66300 41.48800 42.33400
H  43.40800 40.06400 41.65700
H  44.59100 42.43000 40.49900
H  42.76200 42.37000 40.42700
H  50.76200 39.28000 43.55300
H  51.99400 39.04500 42.32400
H  50.41700 38.81700 41.87500
H  54.11600 43.50100 41.02900
H  55.27400 42.38400 41.69500
H  54.59100 43.55400 42.77700
H  52.26400 47.34700 41.69700
H  50.30900 48.54000 43.72500
H  52.36500 47.72800 44.55500
H  53.48100 47.94200 43.21800
H  53.37800 46.38700 43.94100
H  49.76800 49.35300 41.09500
H  51.51600 49.53700 41.31000
H  49.86300 50.68000 43.53900
H  49.95100 51.56200 42.00200
H  51.41800 51.13500 42.82900
H  45.60900 49.32900 41.65300
H  45.12300 49.43900 43.37700
H  43.90400 48.91900 42.29400
H  42.65400 43.84100 42.31600
H  42.23200 43.55500 46.92700
H  42.20000 45.26100 47.13600
H  43.55600 44.43200 47.60200

