158

Mg 1.53300 -0.90500 43.60500
C  4.92000 0.17200 43.38200
C  0.47200 1.92200 42.17600
C  -1.41000 -2.49100 42.98300
C  2.91400 -4.07200 44.42500
N  2.62500 0.82000 42.96400
C  3.99500 1.10500 42.89900
C  4.25300 2.44500 42.27500
C  2.74600 3.14100 42.20300
C  1.88800 1.94100 42.49200
C  2.54000 4.41600 43.20000
C  5.07100 2.30200 40.97700
C  6.47000 3.11200 40.86100
H  6.77900 3.87200 39.53400
N  -0.24600 -0.35300 42.75900
C  -0.45400 0.83400 42.22100
C  -1.89400 0.91600 41.77200
C  -2.52100 -0.25100 42.23500
C  -1.37900 -1.10300 42.68000
C  -2.48400 2.15800 41.08500
C  -4.03300 -0.48200 42.24500
O  -4.85100 0.32600 41.85700
C  -4.64800 -1.77500 42.89500
N  0.88100 -2.99500 43.63500
C  -0.40800 -3.36300 43.46900
C  -0.71600 -4.81500 43.98600
C  0.73100 -5.35900 44.26000
C  1.61500 -4.07200 44.02600
C  -1.86100 -4.84900 45.10700
C  1.23400 -6.57500 43.44600
C  2.16000 -7.54100 44.25600
N  3.53100 -1.82100 43.99500
C  3.86100 -3.04500 44.37400
C  5.29900 -3.06500 44.62600
C  5.77100 -1.79800 44.25500
C  4.66100 -1.11400 43.87400
C  5.99900 -4.25200 45.16500
C  6.92700 -0.93100 44.15500
O  8.10100 -1.11200 44.40300
C  6.38800 0.36100 43.61100
C  6.73400 1.39600 44.57300
O  6.14100 1.49200 45.63400
O  7.66600 2.25600 44.07400
C  7.67200 3.68400 44.49400
H  -0.01300 2.84700 41.85600
H  -2.39500 -2.92800 42.80800
H  3.25700 -5.08200 44.65600
H  4.90400 3.01700 42.93700
H  2.42800 3.45500 41.20800
H  3.39000 4.53600 43.87200
H  1.56700 4.39300 43.69200
H  2.36700 5.31200 42.60500
H  4.41500 2.60700 40.16100
H  5.24100 1.24000 40.80100
H  7.32400 2.45700 41.03000
H  6.54700 3.80100 41.70200
H  -2.28500 2.02200 40.02200
H  -2.14600 3.14000 41.41500
H  -3.54600 2.24800 41.31200
H  -5.65300 -1.56200 43.26000
H  -4.08500 -1.83300 43.82700
H  -4.60000 -2.58700 42.16900
H  -1.06300 -5.42300 43.15100
H  0.87500 -5.66300 45.29700
H  -2.80000 -5.32100 44.81500
H  -2.04400 -3.83000 45.44600
H  -1.48200 -5.36300 45.99000
H  1.81500 -6.27600 42.57400
H  0.30300 -7.04200 43.12800
H  3.04700 -7.61300 43.62600
H  1.59000 -8.45900 44.39700
H  2.42900 -7.18200 45.24900
H  5.64300 -4.39300 46.18600
H  7.06000 -4.00800 45.20700
H  5.77100 -5.10700 44.52800
H  6.81400 0.55700 42.62700
H  8.70500 4.01400 44.37600
H  7.44100 3.93800 45.52800
H  6.96200 4.27700 43.91700
Mg 42.09500 40.32400 26.83400
C  41.37700 42.88600 29.24800
C  43.74900 38.65600 29.37700
C  43.16100 38.32200 24.52400
C  40.79500 42.57200 24.46200
N  42.53300 40.73400 29.08800
C  42.04500 41.76100 29.81100
C  42.07300 41.41400 31.28700
C  42.96400 40.15500 31.37800
C  43.14000 39.79400 29.83100
C  44.38900 40.38900 31.94100
C  40.63300 41.20400 31.95700
C  40.50500 42.16600 33.21000
H  39.73500 41.62600 34.44500
N  43.09500 38.64100 26.93300
C  43.65300 38.10000 28.08300
C  44.20800 36.78800 27.71600
C  44.08100 36.69300 26.28300
C  43.42700 37.90400 25.82600
C  44.79900 35.85100 28.69600
C  44.57200 35.59500 25.39700
O  44.47900 35.64100 24.14600
C  45.26900 34.44500 26.06700
N  41.95100 40.43500 24.77400
C  42.44600 39.44800 24.00800
C  42.13100 39.77800 22.45700
C  41.49100 41.16000 22.42200
C  41.39700 41.41700 23.95500
C  43.36600 39.59800 21.45100
C  40.10000 41.14000 21.69700
C  39.62300 42.44900 20.99400
N  41.18600 42.29500 26.80300
C  40.61800 43.01800 25.77100
C  40.11800 44.25000 26.23500
C  40.40200 44.21700 27.61000
C  41.07900 43.01200 27.87400
C  39.65300 45.44400 25.39100
C  40.26100 45.03600 28.81600
O  39.80900 46.17500 28.92500
C  40.79900 44.04800 29.92200
C  41.73000 44.87900 30.76500
O  42.97600 44.92100 30.75100
O  40.91800 45.42200 31.75200
C  41.59400 45.93200 32.98400
H  44.14200 38.13700 30.25300
H  43.41900 37.70300 23.66300
H  40.40900 43.16100 23.62700
H  42.58300 42.14000 31.92000
H  42.47500 39.30500 31.85400
H  44.88400 39.42000 32.00200
H  44.45300 40.86400 32.92000
H  44.98400 40.96000 31.22900
H  40.45500 40.15800 32.20700
H  39.95100 41.50600 31.16200
H  40.05800 43.08100 32.82400
H  41.41900 42.57500 33.64200
H  45.88500 35.90300 28.62300
H  44.46800 34.82800 28.52000
H  44.45300 36.11800 29.69500
H  46.21800 34.76600 26.49600
H  45.30700 33.70700 25.26600
H  44.62500 33.85900 26.72200
H  41.38600 39.03800 22.16500
H  42.17600 41.87600 21.96800
H  44.22400 39.75100 22.10700
H  43.53000 40.30100 20.63500
H  43.41500 38.54600 21.16800
H  39.32300 40.78400 22.37300
H  40.16900 40.38400 20.91500
H  38.67900 42.70300 21.47700
H  39.52100 42.14700 19.95200
H  40.35000 43.23600 21.19100
H  39.06300 46.05900 26.07000
H  39.09200 45.15800 24.50100
H  40.52100 45.98400 25.01100
H  40.06100 43.59800 30.58600
H  42.68400 45.94800 33.00100
H  41.24500 45.35400 33.84000
H  41.29100 46.95500 33.20400

