158

Mg 8.60900 3.11500 28.07800
C  10.12600 1.76700 30.88200
C  7.16300 5.49200 30.13800
C  7.22100 4.49900 25.34000
C  10.00600 0.56900 26.23800
N  8.30000 3.28300 30.41100
C  9.18200 2.76500 31.27000
C  9.00100 3.47900 32.65600
C  7.90600 4.54600 32.39200
C  7.77400 4.46500 30.81300
C  6.59000 4.31700 33.11800
C  10.38300 4.19700 32.96200
C  10.90900 4.03200 34.33800
H  10.02100 3.66800 35.47500
N  7.26400 4.73600 27.83700
C  6.84200 5.65100 28.77200
C  6.13300 6.75600 28.14400
C  6.18400 6.57400 26.67300
C  6.84300 5.20000 26.57500
C  5.44300 7.81400 28.92800
C  5.72100 7.46200 25.60200
O  5.68400 7.06500 24.44700
C  5.19600 8.89100 25.92400
N  8.38800 2.48700 26.13800
C  7.83400 3.22600 25.16300
C  8.24900 2.77200 23.81000
C  9.07500 1.41200 24.07200
C  9.16800 1.50800 25.59700
C  7.10800 2.52800 22.82200
C  10.41400 1.19000 23.26700
C  10.34300 0.93600 21.74200
N  9.68200 1.43000 28.43200
C  10.38800 0.55800 27.52800
C  11.26200 -0.33900 28.21300
C  11.29100 0.16800 29.51800
C  10.31500 1.18100 29.56500
C  12.09800 -1.44400 27.59300
C  11.95500 0.09800 30.83700
O  12.89600 -0.56500 31.23200
C  11.15700 1.00800 31.77000
C  10.37700 0.15300 32.83000
O  9.22400 -0.27400 32.74400
O  11.17600 -0.02300 33.91300
C  10.61300 -0.85600 35.03900
H  6.98200 6.37300 30.75800
H  7.06400 5.00700 24.38600
H  10.40900 -0.28000 25.68400
H  8.67700 2.72500 33.37300
H  8.28900 5.54500 32.60000
H  5.81300 4.79800 32.52400
H  6.71600 4.92800 34.01200
H  6.33100 3.28400 33.35300
H  10.34600 5.28500 32.90100
H  11.11600 3.89600 32.21300
H  11.50400 4.93500 34.47300
H  11.75700 3.34800 34.33200
H  5.86200 8.80300 28.74300
H  5.35500 7.70100 30.00800
H  4.46500 7.95400 28.46700
H  4.21000 8.70200 26.34800
H  5.19700 9.41400 24.96800
H  5.77800 9.53800 26.58000
H  8.86700 3.50400 23.29000
H  8.51500 0.48900 23.91800
H  7.38800 1.68000 22.19800
H  6.80500 3.39300 22.23200
H  6.25200 2.10500 23.34800
H  10.84500 0.33300 23.78500
H  11.07100 2.03300 23.48300
H  11.12800 1.52000 21.26200
H  9.40100 1.35700 21.39000
H  10.30300 -0.10500 21.42100
H  13.02200 -1.51100 28.16800
H  12.18400 -1.21700 26.53000
H  11.58700 -2.40100 27.69900
H  11.75700 1.70600 32.35400
H  11.50500 -1.39700 35.35600
H  9.85000 -1.57300 34.73600
H  10.17800 -0.20500 35.79700
Mg 53.25700 23.62700 44.90100
C  50.46000 25.72300 44.02100
C  51.25900 20.97600 43.98000
C  56.01200 21.88300 45.02200
C  55.13300 26.63000 45.49000
N  51.17200 23.36100 43.79800
C  50.19900 24.40400 43.68600
C  48.93100 23.82300 43.11200
C  49.01000 22.37800 43.63600
C  50.61100 22.18900 43.81300
C  48.24300 22.02900 44.88700
C  48.97900 23.90900 41.58800
C  47.65900 24.53200 40.93200
H  46.91200 23.53100 39.99300
N  53.63400 21.67900 44.49400
C  52.66500 20.69600 44.16400
C  53.34000 19.42000 43.95200
C  54.71000 19.68900 44.26300
C  54.85200 21.08700 44.68600
C  52.69700 18.08500 43.68900
C  55.82900 18.66800 44.20800
O  55.49400 17.48900 43.93500
C  57.16500 18.92300 44.45800
N  55.24800 24.24300 45.16800
C  56.16200 23.22800 45.32900
C  57.56400 23.83200 45.36500
C  57.30800 25.36400 45.50200
C  55.82200 25.39700 45.37000
C  58.61000 23.35600 46.40300
C  57.88200 26.28100 44.42600
C  58.58000 27.48200 44.93100
N  52.81800 25.69500 44.98400
C  53.71500 26.74100 45.36500
C  52.98900 27.95100 45.34000
C  51.66200 27.58200 44.86400
C  51.67100 26.19900 44.62600
C  53.46200 29.31600 45.70500
C  50.40400 28.17400 44.47800
O  50.00800 29.38000 44.50600
C  49.56400 26.96000 43.95800
C  49.05000 27.21500 42.58900
O  49.68600 27.21300 41.57100
O  47.83900 27.81100 42.74100
C  47.18400 28.18600 41.52500
H  50.55600 20.17600 43.73700
H  56.96700 21.35500 45.01900
H  55.77200 27.47600 45.75000
H  48.09800 24.35600 43.57200
H  48.71700 21.64800 42.88200
H  47.86600 22.84900 45.49700
H  48.82800 21.32600 45.48000
H  47.30600 21.51700 44.66900
H  49.21300 22.99700 41.03800
H  49.81300 24.56100 41.32700
H  47.96500 25.46700 40.46100
H  46.95100 24.78100 41.72300
H  53.01400 17.76100 42.69700
H  51.63200 18.31600 43.71200
H  52.86700 17.35200 44.47700
H  57.79900 18.04500 44.33100
H  57.23400 19.33700 45.46400
H  57.40000 19.69100 43.72200
H  58.00100 23.58100 44.39900
H  57.54400 25.63300 46.53100
H  59.05500 24.18700 46.95100
H  59.52100 22.90100 46.01300
H  58.25800 22.51600 47.00200
H  57.20700 26.56500 43.61900
H  58.61500 25.61600 43.96800
H  58.19300 28.37300 44.43700
H  59.63400 27.51200 44.65500
H  58.39100 27.57600 46.00100
H  53.09200 29.69900 46.65500
H  53.15500 29.98400 44.90100
H  54.54900 29.35200 45.63200
H  48.68500 26.80500 44.58400
H  46.25500 27.62100 41.45400
H  47.66900 27.85900 40.60600
H  46.94600 29.24900 41.50700

