158

Mg 16.33600 -1.95200 28.42400
C  15.39700 -0.17600 31.31500
C  18.59200 -3.70300 30.48600
C  17.55100 -3.42300 25.80700
C  14.55200 0.34700 26.42200
N  16.92000 -1.98000 30.68600
C  16.46500 -1.08200 31.59500
C  17.25200 -1.25800 32.90500
C  18.26000 -2.44600 32.60600
C  17.91100 -2.73300 31.22800
C  19.76100 -2.13000 32.88600
C  16.21400 -1.61300 34.05000
C  16.43800 -0.83100 35.30700
H  17.87100 -0.29200 35.73700
N  17.74100 -3.40300 28.20800
C  18.51700 -3.98400 29.13200
C  19.19400 -5.10500 28.52400
C  18.84800 -5.13900 27.14500
C  17.98800 -3.96300 26.99200
C  19.99000 -6.07200 29.46500
C  19.33200 -6.08800 26.04600
O  19.06500 -5.92000 24.87500
C  20.22000 -7.11800 26.41500
N  16.15300 -1.56700 26.40000
C  16.72400 -2.35600 25.49000
C  16.63900 -1.68200 24.13600
C  15.69600 -0.47900 24.29800
C  15.36200 -0.57300 25.79700
C  18.08400 -1.34700 23.63000
C  14.49400 -0.53300 23.37000
C  14.87500 -0.61000 21.87900
N  15.16900 -0.28500 28.73300
C  14.38600 0.43300 27.80300
C  13.49800 1.26200 28.55200
C  13.91300 1.13600 29.92000
C  14.89000 0.12500 29.96800
C  12.52500 2.19600 27.91400
C  13.69000 1.63100 31.30800
O  13.00400 2.51700 31.73100
C  14.75300 0.88200 32.17400
C  15.68900 1.90200 32.69900
O  16.62500 2.42100 32.13800
O  15.33000 2.22600 34.00100
C  15.89400 3.49900 34.59000
H  19.16500 -4.35100 31.15400
H  17.94000 -3.97100 24.94700
H  13.98700 1.01900 25.77200
H  17.69300 -0.30900 33.21100
H  18.02100 -3.36800 33.13500
H  20.31100 -2.90000 33.42600
H  19.73300 -1.24200 33.51800
H  20.31700 -1.99200 31.95900
H  16.32000 -2.65300 34.36100
H  15.19700 -1.39900 33.72400
H  16.00800 -1.47200 36.07600
H  15.85700 0.08000 35.16200
H  20.63000 -6.78200 28.94100
H  19.25000 -6.69200 29.97100
H  20.66400 -5.48700 30.09000
H  19.71800 -7.91100 26.97000
H  20.98800 -6.60400 26.99300
H  20.73300 -7.53000 25.54600
H  16.22400 -2.33300 23.36600
H  16.26100 0.43100 24.09900
H  18.70000 -1.16300 24.51000
H  18.13000 -0.51000 22.93300
H  18.52200 -2.16500 23.05700
H  13.94000 0.39700 23.49400
H  13.96300 -1.42700 23.69700
H  15.92000 -0.34700 21.71500
H  14.32400 0.04500 21.20400
H  14.82000 -1.61300 21.45500
H  12.27900 1.80400 26.92800
H  13.04700 3.15300 27.88500
H  11.59700 2.28800 28.48000
H  14.26900 0.43000 33.04000
H  15.75000 4.26000 33.82300
H  16.95800 3.51400 34.82600
H  15.41200 3.64900 35.55600
Mg 29.24500 57.89200 42.02700
C  26.45500 56.16600 40.60300
C  31.31800 55.99900 40.11700
C  31.76900 59.92200 42.95100
C  26.93400 60.11900 43.31500
N  28.92600 56.36900 40.46300
C  27.69800 55.80300 40.08200
C  27.95200 54.88200 38.86500
C  29.51100 54.55000 38.95800
C  29.95500 55.72900 39.88500
C  29.87800 53.24400 39.78000
C  27.52200 55.67500 37.55200
C  26.53100 54.85800 36.67100
H  27.01500 54.67300 35.21000
N  31.36300 57.87200 41.65800
C  31.99400 56.94600 40.90300
C  33.41100 57.18400 40.91500
C  33.59800 58.40000 41.68800
C  32.24400 58.82300 42.17900
C  34.45600 56.29400 40.27000
C  34.92700 59.05600 41.98600
O  35.92000 58.67800 41.41800
C  35.02700 60.19000 42.88800
N  29.28800 59.81600 42.89700
C  30.48800 60.34500 43.28700
C  30.19100 61.70600 44.08500
C  28.67400 61.56800 44.45100
C  28.26200 60.41300 43.46800
C  31.03400 61.98900 45.38300
C  27.84200 62.93600 44.38800
C  27.33300 63.48200 45.73400
N  27.08700 58.11000 42.09500
C  26.31000 59.04600 42.68800
C  24.89100 58.76000 42.44900
C  24.87800 57.64000 41.62300
C  26.26000 57.24000 41.51200
C  23.62600 59.37800 42.94300
C  24.10900 56.71500 40.76500
O  22.93600 56.71800 40.38800
C  25.09000 55.62900 40.25800
C  24.70800 54.32700 40.85500
O  24.42100 54.25100 42.05700
O  24.90300 53.28200 39.99800
C  24.71300 51.96300 40.57800
H  31.91100 55.27100 39.55900
H  32.54700 60.60000 43.31200
H  26.21800 60.76100 43.83200
H  27.33300 54.00300 39.04500
H  29.96100 54.65100 37.97000
H  29.79400 52.42400 39.06600
H  29.12900 52.98500 40.52900
H  30.89800 53.39300 40.13200
H  28.39500 55.95100 36.96000
H  26.95600 56.58800 37.73700
H  25.57900 55.38300 36.59200
H  26.17100 53.98200 37.21000
H  35.21400 56.18000 41.04500
H  34.92200 56.88100 39.47900
H  34.06800 55.29400 40.07600
H  34.39000 60.92900 42.40100
H  36.06400 60.52500 42.87600
H  34.64300 59.98900 43.88800
H  30.40800 62.53800 43.41500
H  28.47000 61.02500 45.37400
H  31.71300 61.16800 45.61300
H  30.27700 61.99800 46.16700
H  31.44500 62.99600 45.31500
H  26.99100 62.83400 43.71400
H  28.44300 63.77000 44.02700
H  26.45000 64.11300 45.63400
H  28.16900 63.95100 46.25300
H  27.12100 62.67100 46.43000
H  22.68000 59.23500 42.42100
H  23.91900 60.42800 42.94500
H  23.45600 58.99100 43.94800
H  24.97800 55.52500 39.17900
H  25.08600 51.82200 41.59200
H  25.03300 51.18700 39.88300
H  23.63500 51.81900 40.65200

