158

Mg 0.28800 7.80100 26.46300
C  1.16300 9.56500 29.45100
C  0.07600 4.80900 28.31300
C  -0.18300 6.23200 23.58600
C  0.54600 10.90500 24.71900
N  0.53300 7.33600 28.57400
C  0.97700 8.16700 29.64400
C  0.71700 7.45500 31.00500
C  0.75600 5.99700 30.56100
C  0.35400 6.02600 29.06100
C  2.01500 5.12100 30.90900
C  -0.60300 8.00600 31.55800
C  -0.76200 8.00300 33.06500
H  0.53500 7.69100 33.88300
N  0.04100 5.82200 26.02400
C  -0.14700 4.79100 26.88600
C  -0.76800 3.69700 26.16200
C  -0.80100 4.03700 24.80300
C  -0.30600 5.41500 24.74600
C  -1.35500 2.43800 26.89600
C  -1.41500 3.26600 23.58900
O  -1.22100 3.56700 22.37800
C  -2.15800 2.04500 23.88800
N  0.29600 8.41900 24.49200
C  0.04700 7.54400 23.46300
C  -0.03300 8.26900 22.14500
C  -0.16400 9.77200 22.56800
C  0.22500 9.76300 23.99800
C  1.15100 7.96500 21.12400
C  -1.56800 10.47200 22.48000
C  -1.74000 11.46000 21.37800
N  0.85700 9.75300 26.89800
C  0.91500 10.93800 26.09800
C  1.34800 12.04200 26.89700
C  1.42800 11.52400 28.18500
C  1.12400 10.19100 28.16700
C  1.55000 13.41700 26.38700
C  1.77800 11.87500 29.52600
O  2.22700 12.92900 29.89700
C  1.60600 10.66400 30.41300
C  2.82800 10.43900 31.24400
O  3.75800 9.67400 30.96000
O  2.63500 11.12000 32.39400
C  3.61000 10.86700 33.46500
H  -0.01600 3.88100 28.88100
H  -0.30800 5.73300 22.62300
H  0.69400 11.86400 24.21900
H  1.57300 7.71300 31.62800
H  -0.06000 5.47700 31.06300
H  2.67400 5.59600 31.63600
H  2.64800 5.08400 30.02200
H  1.82800 4.10300 31.24800
H  -1.43000 7.47900 31.08200
H  -0.72400 9.06800 31.34300
H  -1.53100 7.25600 33.26400
H  -1.06300 8.96500 33.47900
H  -2.03300 2.83200 27.65200
H  -0.44900 2.00100 27.31600
H  -1.98900 1.74300 26.34600
H  -2.63300 1.50600 23.06800
H  -3.02600 2.37500 24.45900
H  -1.49200 1.32000 24.35600
H  -0.99600 8.00200 21.71000
H  0.57200 10.39600 22.06200
H  0.75400 7.32900 20.33300
H  1.88100 7.39400 21.69600
H  1.58500 8.91100 20.80100
H  -1.69100 11.03600 23.40400
H  -2.36900 9.75900 22.28400
H  -0.87600 11.37800 20.72000
H  -1.60100 12.47900 21.73800
H  -2.65600 11.43900 20.78800
H  1.86300 14.10800 27.16900
H  0.64300 13.79800 25.91700
H  2.33700 13.46300 25.63400
H  0.76700 10.98100 31.03300
H  4.34200 10.12300 33.15000
H  3.13000 10.52400 34.38200
H  4.18100 11.76100 33.71500
Mg 26.59000 50.54900 26.30100
C  24.52100 51.89900 28.87500
C  28.75900 49.38300 28.73900
C  28.76400 49.93800 23.90300
C  24.63600 52.37400 24.01000
N  26.60900 50.68000 28.56000
C  25.57200 51.09300 29.39800
C  25.94400 50.78100 30.80800
C  27.32800 50.08100 30.76700
C  27.59400 50.02800 29.24400
C  28.44900 50.79900 31.59500
C  24.79300 50.04200 31.56400
C  24.48900 50.83800 32.92500
H  24.68400 50.02900 34.23300
N  28.51300 49.67500 26.35700
C  29.19400 49.29700 27.43700
C  30.53300 48.79600 27.05700
C  30.53300 48.98400 25.60300
C  29.23500 49.53500 25.21800
C  31.52300 48.19200 28.03700
C  31.55300 48.65300 24.60400
O  31.52200 48.90600 23.40700
C  32.60200 47.74500 25.07200
N  26.78500 51.31600 24.29900
C  27.73800 50.74800 23.45200
C  27.29400 50.68500 22.03500
C  25.97400 51.44200 22.06900
C  25.81200 51.81700 23.50700
C  28.41900 51.30500 21.13300
C  24.78800 50.55100 21.47300
C  24.09500 51.08800 20.15800
N  24.88000 51.89200 26.36600
C  24.17000 52.39600 25.35900
C  22.93400 52.96900 25.81100
C  23.06700 52.90500 27.20500
C  24.24300 52.18200 27.49000
C  21.87700 53.67500 25.04700
C  22.41000 53.24500 28.46600
O  21.43600 53.88900 28.75500
C  23.41900 52.69200 29.60400
C  23.92900 53.86100 30.38900
O  24.79200 54.63700 29.98600
O  23.17600 54.02000 31.47100
C  23.38500 55.16200 32.40400
H  29.39800 49.07700 29.57000
H  29.33900 49.43800 23.12200
H  23.87600 52.73700 23.31400
H  26.05600 51.79400 31.19300
H  27.28000 49.04800 31.11100
H  28.19700 51.68300 32.18000
H  29.28900 51.09200 30.96500
H  28.90100 50.09100 32.29000
H  25.13200 49.04600 31.85000
H  23.87300 49.91500 30.99400
H  23.42800 51.07400 32.84700
H  25.05400 51.76300 33.03300
H  31.19600 48.13900 29.07600
H  32.40200 48.82200 27.89700
H  31.96000 47.22700 27.78000
H  33.40800 47.60000 24.35200
H  32.10000 46.82200 25.36300
H  33.12300 48.31300 25.84200
H  27.09700 49.62800 21.85600
H  26.04000 52.33500 21.44800
H  29.30700 51.47800 21.74000
H  28.14100 52.26900 20.70700
H  28.73400 50.67800 20.29900
H  23.98300 50.43200 22.19900
H  25.15200 49.54400 21.26700
H  24.00000 50.13500 19.63700
H  24.67400 51.74000 19.50400
H  23.16300 51.55800 20.47000
H  22.24300 54.50900 24.44900
H  21.21400 54.16400 25.76100
H  21.34500 52.91600 24.47200
H  22.80000 52.12000 30.29500
H  23.89000 56.03300 31.98500
H  24.03000 54.78200 33.19600
H  22.46900 55.43100 32.92900

