158

Mg 49.00400 36.40900 27.52300
C  47.00200 34.79200 29.86400
C  49.17600 39.10700 29.78200
C  50.58100 38.28900 25.14800
C  48.37900 33.91500 25.22600
N  48.33100 36.83800 29.73800
C  47.48600 35.97400 30.41100
C  47.29600 36.46600 31.81900
C  47.63700 38.07800 31.60800
C  48.42500 38.06900 30.26200
C  46.46000 39.13300 31.41100
C  48.30100 35.78000 32.80200
C  47.76100 35.49500 34.19200
H  47.99500 36.52300 35.33300
N  49.79800 38.41000 27.50800
C  49.85100 39.30400 28.54200
C  50.70600 40.39600 28.12700
C  51.09800 40.22900 26.77900
C  50.50400 38.92200 26.41400
C  50.93200 41.42600 29.13300
C  51.90800 41.11700 26.00800
O  52.33000 40.73300 24.90000
C  52.25800 42.50300 26.40500
N  49.44800 36.11900 25.55100
C  50.01500 37.10200 24.77600
C  50.12700 36.64700 23.33500
C  49.53600 35.13800 23.33900
C  49.11000 35.00800 24.78500
C  49.49300 37.60300 22.30800
C  50.61200 34.06600 22.91500
C  50.26800 32.82500 22.10200
N  48.04900 34.68400 27.56000
C  47.90500 33.72000 26.53400
C  47.11900 32.61600 27.01800
C  46.66900 32.98900 28.31600
C  47.30600 34.26100 28.55400
C  46.85500 31.30100 26.31000
C  45.79900 32.69400 29.48500
O  45.17600 31.66500 29.75900
C  45.97300 33.87400 30.47900
C  46.27300 33.16400 31.72600
O  47.16400 32.37300 31.85900
O  45.38800 33.60500 32.71100
C  45.44800 32.91500 34.02100
H  48.97500 39.95500 30.44100
H  51.12100 38.84500 24.37800
H  48.06200 33.17100 24.49100
H  46.24800 36.27500 32.05200
H  48.39500 38.45700 32.29400
H  45.49300 38.73500 31.71800
H  46.39300 39.44300 30.36800
H  46.71600 39.98800 32.03800
H  49.24800 36.31900 32.82200
H  48.51000 34.79800 32.37900
H  48.31400 34.63400 34.56900
H  46.70900 35.21200 34.23400
H  50.90200 41.16000 30.18900
H  50.15100 42.17400 29.00500
H  51.88700 41.92500 28.96700
H  51.34300 42.98200 26.75300
H  52.67400 43.07600 25.57700
H  53.01800 42.45500 27.18500
H  51.19300 36.67600 23.10800
H  48.61500 35.09000 22.75900
H  48.92900 36.98900 21.60600
H  50.32600 38.08500 21.79600
H  48.98800 38.49700 22.67400
H  51.14900 33.76400 23.81300
H  51.41000 34.56300 22.36200
H  50.40600 31.87100 22.61000
H  50.82200 32.88900 21.16600
H  49.22100 32.76700 21.80600
H  45.89500 31.38000 25.79900
H  46.68600 30.48500 27.01300
H  47.57400 31.06500 25.52600
H  45.06900 34.48300 30.46600
H  45.28200 33.63800 34.82000
H  46.36300 32.35700 34.21700
H  44.59400 32.23900 34.06400
Mg 4.91600 53.26000 41.16100
C  3.05500 50.31000 41.23500
C  7.40700 51.60300 39.60500
C  6.12500 56.28200 40.39800
C  1.81600 55.01000 42.00400
N  4.97200 51.15400 40.22200
C  4.23500 50.08600 40.47500
C  4.81400 48.80700 39.90500
C  6.30400 49.16000 39.81900
C  6.25600 50.74100 39.85000
C  7.20200 48.51600 40.85300
C  4.19500 48.47000 38.52300
C  4.29300 47.06500 37.99400
H  4.94900 46.89200 36.61400
N  6.57000 53.83100 40.31300
C  7.49500 53.01200 39.59900
C  8.52800 53.74700 39.04700
C  8.29300 55.08500 39.42500
C  6.89700 55.13800 40.00300
C  9.70800 53.04600 38.42800
C  9.29600 56.24700 39.30300
O  10.32100 56.09400 38.66200
C  9.13900 57.50300 40.01600
N  4.12200 55.33900 41.38700
C  4.89900 56.35800 40.94500
C  4.21200 57.67400 41.01300
C  2.78500 57.24300 41.54500
C  2.91400 55.79600 41.61100
C  4.86800 58.78400 41.93700
C  1.52800 57.74900 40.65000
C  0.35700 58.39700 41.44200
N  2.96600 52.77000 41.76300
C  1.80400 53.57100 42.03800
C  0.70300 52.67200 42.40000
C  1.24400 51.35600 42.22600
C  2.51000 51.52600 41.69700
C  -0.65600 53.09900 42.84100
C  0.89800 49.98800 42.22900
O  -0.14900 49.34800 42.42300
C  2.16800 49.27400 41.82800
C  1.77000 48.12600 41.02500
O  1.04700 48.22500 40.02200
O  2.27700 46.93300 41.53300
C  2.07400 45.71500 40.85200
H  8.19400 51.00300 39.14400
H  6.60200 57.16500 39.96700
H  0.92500 55.56800 42.29800
H  4.75900 48.01200 40.64900
H  6.63500 48.78500 38.85100
H  8.16800 48.13700 40.51800
H  6.74100 47.74700 41.47200
H  7.47500 49.30400 41.55600
H  4.51000 49.19600 37.77400
H  3.11600 48.62500 38.51300
H  3.33800 46.54000 37.99100
H  4.86200 46.50500 38.73700
H  10.35900 53.74200 37.89800
H  9.45500 52.16900 37.83200
H  10.30000 52.69100 39.27100
H  10.05800 58.08900 40.00700
H  8.85400 57.24500 41.03600
H  8.37100 58.18400 39.65000
H  4.02100 57.92400 39.97000
H  2.59200 57.68000 42.52500
H  5.89300 58.49600 42.16900
H  4.35000 58.86600 42.89300
H  4.82000 59.74600 41.42700
H  1.15600 56.89300 40.08700
H  1.93900 58.55200 40.03800
H  0.25200 59.42000 41.07900
H  0.45600 58.44300 42.52600
H  -0.62500 57.98400 41.21200
H  -1.33600 52.56800 42.17500
H  -0.81200 54.16000 42.64400
H  -0.84200 52.83200 43.88200
H  2.56500 48.88200 42.76400
H  2.98400 45.36500 40.36700
H  1.41500 45.90800 40.00600
H  1.55200 45.01100 41.50100

