158

Mg 26.26300 0.78400 28.73700
C  28.09200 -0.05400 31.69800
C  23.52900 1.22600 30.66200
C  24.47300 0.84100 25.85600
C  29.11500 -0.30900 26.89700
N  25.93500 0.61900 30.92000
C  26.82400 0.41700 31.96500
C  26.22100 0.82900 33.32600
C  24.71800 1.01000 32.95300
C  24.71000 0.95300 31.42700
C  23.77000 -0.00800 33.71200
C  27.03400 1.98200 33.93200
C  27.55100 1.71000 35.31000
H  27.49500 2.81800 36.27600
N  24.24500 1.00500 28.33900
C  23.29200 1.23900 29.22200
C  22.03100 1.43300 28.50000
C  22.29400 1.23300 27.14300
C  23.70000 1.09700 27.06100
C  20.73500 1.71800 29.25000
C  21.36200 1.24500 25.93800
O  21.71100 1.11500 24.77300
C  19.89000 1.49800 26.24600
N  26.76900 0.30800 26.70500
C  25.85800 0.75300 25.69200
C  26.53700 0.58700 24.29900
C  28.06200 0.51500 24.69300
C  27.99000 0.09400 26.15800
C  26.02700 -0.65700 23.45400
C  28.90400 1.79800 24.34600
C  29.28500 1.90400 22.85400
N  28.14300 -0.00800 29.11300
C  29.18900 -0.47300 28.29200
C  30.28100 -0.95500 29.11800
C  29.90500 -0.72900 30.38700
C  28.63300 -0.21100 30.38800
C  31.58400 -1.35300 28.59400
C  30.37900 -0.86100 31.72500
O  31.41600 -1.24700 32.18000
C  29.22700 -0.44200 32.71600
C  28.83600 -1.42600 33.78300
O  27.95100 -2.22500 33.78600
O  29.62400 -1.21800 34.91100
C  29.39200 -2.11500 35.99100
H  22.85000 1.75200 31.33600
H  23.96400 1.02300 24.90700
H  30.07400 -0.52700 26.42200
H  26.43800 -0.04800 33.93700
H  24.41000 2.03700 33.14700
H  24.42400 -0.72100 34.21500
H  23.15700 -0.50200 32.95900
H  23.18100 0.53900 34.44800
H  26.47100 2.91400 33.88800
H  27.93400 2.10900 33.33000
H  28.60000 1.44700 35.17400
H  27.13100 0.80800 35.75600
H  19.98900 0.92500 29.21900
H  20.41100 2.74400 29.07400
H  21.11600 1.81600 30.26700
H  19.48700 0.94100 27.09200
H  19.38700 1.18200 25.33300
H  19.76300 2.54500 26.52100
H  26.25600 1.50500 23.78300
H  28.63400 -0.27900 24.21300
H  26.71000 -1.47600 23.23100
H  25.46900 -0.26900 22.60100
H  25.17200 -0.99400 24.03900
H  29.74700 1.93200 25.02300
H  28.29000 2.66200 24.59700
H  28.88800 1.14600 22.17900
H  30.36000 1.77200 22.73300
H  28.88300 2.83900 22.46500
H  32.34900 -1.10000 29.32800
H  31.91200 -0.77700 27.72900
H  31.55400 -2.42500 28.39900
H  29.67200 0.35900 33.30500
H  28.44500 -1.82000 36.44200
H  30.24400 -2.10900 36.67200
H  29.32400 -3.16100 35.69300
Mg -12.50200 38.90200 42.55800
C  -10.91500 35.87600 41.34500
C  -9.93600 40.68000 41.00200
C  -14.26100 41.65000 43.13600
C  -15.27400 36.85800 43.35200
N  -10.66300 38.35600 41.32500
C  -10.19400 37.07800 41.04100
C  -8.84900 37.14900 40.21800
C  -8.41400 38.62900 40.37900
C  -9.71400 39.29500 40.95900
C  -7.19400 38.84200 41.27700
C  -9.01500 36.65100 38.75200
C  -7.79600 35.88100 38.11600
H  -6.82600 36.64000 37.27200
N  -12.08500 40.90900 42.20300
C  -10.99700 41.45100 41.51200
C  -11.22500 42.87400 41.40800
C  -12.45900 43.17000 42.01600
C  -13.00500 41.90500 42.54900
C  -10.24400 43.79900 40.72400
C  -13.06200 44.52800 41.98000
O  -12.46600 45.46200 41.38800
C  -14.38000 44.79000 42.57500
N  -14.38000 39.16900 43.31400
C  -14.85600 40.46500 43.48800
C  -16.36600 40.45700 44.00600
C  -16.73900 38.91900 43.98200
C  -15.42200 38.27500 43.50200
C  -16.52100 41.30200 45.29600
C  -18.04500 38.73000 43.09600
C  -19.03300 37.53700 43.56400
N  -12.97300 36.75200 42.51900
C  -14.15600 36.13800 42.83300
C  -13.97100 34.68100 42.69700
C  -12.75100 34.53700 42.03100
C  -12.20600 35.83600 41.90800
C  -14.93500 33.58300 42.94900
C  -11.77900 33.61000 41.52300
O  -11.74900 32.41100 41.47100
C  -10.54800 34.48000 40.95000
C  -9.24900 34.15800 41.62200
O  -8.82500 34.59700 42.64400
O  -8.61700 33.28100 40.74800
C  -7.29100 32.76700 41.12300
H  -9.18900 41.28500 40.48400
H  -14.89600 42.53200 43.24000
H  -16.17000 36.31500 43.65800
H  -8.07700 36.49200 40.62000
H  -7.94800 39.00200 39.46700
H  -7.44800 39.42700 42.16200
H  -6.52500 39.50300 40.72500
H  -6.73900 37.86300 41.42800
H  -9.30100 37.49100 38.11900
H  -9.88800 36.00400 38.66400
H  -8.25900 35.16200 37.44000
H  -7.24200 35.47900 38.96400
H  -10.64900 44.36800 39.88600
H  -9.40300 43.20900 40.36100
H  -9.79300 44.44400 41.47900
H  -15.14900 44.18700 42.09300
H  -14.61000 45.85100 42.48500
H  -14.30000 44.43100 43.60200
H  -16.94900 41.05100 43.30200
H  -16.94200 38.63900 45.01600
H  -17.11400 40.74900 46.02400
H  -16.86500 42.31400 45.08500
H  -15.56400 41.54400 45.75900
H  -17.86000 38.53900 42.04000
H  -18.65600 39.63200 43.04600
H  -18.67300 36.62200 43.09500
H  -20.06900 37.84400 43.42200
H  -18.93000 37.36200 44.63500
H  -14.38500 32.72000 43.32400
H  -15.69900 33.32900 42.21500
H  -15.51800 33.83300 43.83500
H  -10.39600 34.39700 39.87400
H  -7.36300 32.16600 42.02900
H  -6.66100 33.63200 41.32600
H  -6.82700 32.08900 40.40500

