158

Mg 48.06600 24.90500 28.36800
C  48.74800 27.18500 30.98500
C  47.26500 22.71400 30.88300
C  47.56900 22.81200 26.00100
C  48.95700 27.41900 26.08900
N  47.94400 24.98400 30.68700
C  48.11100 26.03500 31.49900
C  47.80200 25.73200 32.95500
C  47.50800 24.19000 32.97900
C  47.61500 23.93100 31.41400
C  48.47800 23.26900 33.86600
C  46.61600 26.67700 33.30500
C  46.01600 26.61000 34.73100
H  46.21200 27.81300 35.70900
N  47.46600 23.02000 28.41100
C  47.13900 22.25600 29.51100
C  46.67900 20.97600 29.04200
C  46.56400 21.09800 27.65100
C  47.20300 22.33600 27.27400
C  46.27700 19.86000 30.04700
C  46.06400 20.10200 26.60200
O  46.09600 20.34700 25.39900
C  45.31000 18.82900 26.89000
N  48.18300 25.15500 26.34300
C  47.89200 24.09600 25.56500
C  48.17600 24.39500 24.08200
C  48.51900 25.93800 24.06700
C  48.54700 26.15000 25.60000
C  49.39100 23.63300 23.47300
C  47.58700 26.88100 23.26300
C  48.06700 27.20100 21.87500
N  48.80100 26.85500 28.47600
C  49.05200 27.75800 27.42900
C  49.55500 28.94800 27.93500
C  49.39700 28.78500 29.33600
C  48.91800 27.48400 29.60100
C  50.22000 30.10400 27.16800
C  49.76500 29.47200 30.55400
O  50.35500 30.47400 30.75600
C  49.26700 28.43900 31.67600
C  50.40200 28.19600 32.57000
O  51.18900 27.27400 32.47100
O  50.38600 29.13400 33.54000
C  51.19200 28.77800 34.74400
H  46.92300 21.98300 31.61900
H  47.55300 22.12600 25.15100
H  49.20900 28.26000 25.43900
H  48.65400 25.86200 33.62200
H  46.49300 23.96200 33.30500
H  49.34900 23.83800 34.19300
H  48.75300 22.31400 33.41800
H  47.87400 23.07000 34.75200
H  45.75000 26.48600 32.67300
H  47.00300 27.69600 33.27700
H  46.34400 25.68200 35.19900
H  44.93500 26.48400 34.67100
H  46.49300 18.87400 29.63500
H  45.22600 19.89000 30.33500
H  46.96300 19.86400 30.89400
H  46.06500 18.25000 27.42200
H  45.04600 18.35300 25.94600
H  44.52100 19.03000 27.61500
H  47.27900 24.29600 23.47100
H  49.56500 26.17300 23.87000
H  50.17600 24.16400 22.93400
H  48.98100 22.82700 22.86400
H  49.91300 23.20100 24.32700
H  47.33900 27.78700 23.81500
H  46.64500 26.34700 23.13900
H  49.09600 26.84500 21.81700
H  48.01100 28.25100 21.59000
H  47.47600 26.67600 21.12500
H  51.16300 30.32200 27.66900
H  49.64500 31.02400 27.27400
H  50.40400 29.89600 26.11400
H  48.44400 28.98000 32.14300
H  51.38300 29.60300 35.43100
H  52.17900 28.39100 34.49200
H  50.66000 27.98500 35.27100
Mg -4.71600 25.49900 26.25000
C  -3.43800 26.92200 29.01900
C  -6.58800 23.49100 28.22600
C  -5.61500 23.85600 23.41700
C  -2.67300 27.63300 24.10700
N  -5.04600 25.40800 28.41500
C  -4.48600 26.08800 29.35900
C  -4.73800 25.52100 30.72000
C  -5.46800 24.24600 30.47500
C  -5.72000 24.36900 28.96500
C  -4.84300 22.94900 31.01300
C  -5.58500 26.55300 31.58000
C  -5.01600 26.73800 32.96500
H  -4.49600 25.52500 33.62300
N  -6.03000 23.91800 25.85200
C  -6.73200 23.30300 26.84200
C  -7.53200 22.30500 26.15500
C  -7.28100 22.28200 24.77300
C  -6.24500 23.38200 24.62500
C  -8.53500 21.47700 26.93600
C  -7.80700 21.42500 23.70700
O  -7.45000 21.53500 22.52300
C  -9.02100 20.52900 23.99300
N  -3.99100 25.57400 24.03800
C  -4.63600 24.80700 23.10700
C  -4.16900 25.17300 21.68700
C  -3.29600 26.40100 21.91000
C  -3.30700 26.56700 23.42900
C  -3.48200 23.96100 21.10700
C  -3.73700 27.79500 21.25100
C  -4.45300 27.82800 19.96000
N  -3.29700 26.95700 26.49600
C  -2.49500 27.73100 25.57700
C  -1.70600 28.61600 26.45200
C  -1.96600 28.29300 27.77900
C  -2.95800 27.27300 27.73300
C  -0.80500 29.59500 25.87800
C  -1.67000 28.67800 29.17900
O  -0.98100 29.59300 29.63000
C  -2.45100 27.55600 30.04300
C  -1.49500 26.57800 30.54200
O  -1.29800 25.46100 30.06300
O  -1.15000 27.01000 31.82200
C  -0.38400 25.94300 32.46100
H  -7.01600 22.77300 28.92800
H  -5.89900 23.43200 22.45100
H  -2.06500 28.29500 23.48600
H  -3.74600 25.37800 31.14800
H  -6.48200 24.18900 30.87200
H  -4.55700 22.40600 30.11200
H  -5.57900 22.44400 31.63800
H  -3.92400 23.13500 31.56900
H  -6.63100 26.24700 31.61300
H  -5.60400 27.53200 31.10100
H  -5.75100 27.17000 33.64400
H  -4.21300 27.47000 32.88000
H  -9.51400 21.55800 26.46400
H  -8.66400 21.76300 27.98000
H  -8.23200 20.43300 26.86400
H  -8.76200 19.79700 24.75800
H  -9.32600 19.91000 23.14900
H  -9.92000 21.05900 24.30600
H  -5.07600 25.44400 21.14700
H  -2.27000 26.23200 21.58100
H  -2.46800 24.12800 20.74500
H  -3.96100 23.60100 20.19700
H  -3.33900 23.15000 21.82200
H  -2.81700 28.29100 20.94200
H  -4.12500 28.41500 22.06000
H  -5.49500 27.70200 20.25200
H  -4.26700 27.00300 19.27200
H  -4.23500 28.78100 19.47800
H  -1.37600 30.36300 25.35700
H  -0.30900 29.05400 25.07300
H  -0.19000 30.02100 26.67100
H  -3.02900 28.03700 30.83200
H  0.58700 25.83400 31.97600
H  -0.84700 24.96000 32.54300
H  -0.13100 26.31000 33.45600

