158

Mg 16.68300 -1.95700 28.79300
C  15.25700 0.25300 31.15500
C  18.57200 -3.31400 31.43100
C  18.16800 -3.90200 26.63000
C  15.22400 -0.03400 26.32200
N  16.83300 -1.53400 31.02100
C  16.23600 -0.62900 31.75900
C  16.63000 -0.73200 33.22000
C  17.86400 -1.69700 33.20600
C  17.72900 -2.19200 31.81700
C  19.23900 -1.11800 33.69100
C  15.36900 -1.18900 34.16100
C  15.28000 -0.87600 35.71400
H  16.51000 -0.36800 36.46600
N  18.10300 -3.40200 29.00400
C  18.69500 -3.90100 30.13900
C  19.45900 -5.11600 29.81800
C  19.29200 -5.32000 28.45600
C  18.41000 -4.23300 27.99300
C  20.31800 -5.77500 30.91600
C  19.85800 -6.50300 27.60300
O  19.48100 -6.73000 26.46300
C  20.83400 -7.55700 28.16500
N  16.82600 -1.81800 26.77600
C  17.43500 -2.79200 26.06300
C  17.19500 -2.60000 24.55000
C  16.34800 -1.41600 24.46700
C  16.06300 -1.05400 25.92500
C  18.52000 -2.47800 23.84000
C  15.01100 -1.70000 23.79400
C  14.27700 -0.50200 23.21900
N  15.41900 -0.32300 28.73000
C  14.91200 0.35000 27.58000
C  14.12600 1.48700 27.93800
C  14.11900 1.37600 29.41300
C  14.98800 0.29600 29.77400
C  13.49200 2.46700 27.10400
C  13.68400 1.98800 30.59600
O  12.90700 2.96800 30.73800
C  14.37600 1.25000 31.75500
C  15.10800 2.33700 32.52300
O  15.97400 3.06600 32.07200
O  14.76600 2.37600 33.84100
C  15.50500 3.33000 34.62700
H  19.05200 -3.65800 32.34900
H  18.52300 -4.67000 25.94000
H  14.84400 0.64700 25.55700
H  16.89900 0.26000 33.58200
H  17.63300 -2.60700 33.75900
H  19.12800 -0.31700 34.42200
H  19.84800 -0.73700 32.87200
H  19.75200 -1.96800 34.14300
H  15.30300 -2.27700 34.15300
H  14.39900 -0.85700 33.79200
H  14.97700 -1.85100 36.09700
H  14.52800 -0.11200 35.91200
H  19.73900 -6.56400 31.39600
H  20.79400 -5.10700 31.63400
H  21.15100 -6.32800 30.48200
H  21.78400 -7.05200 28.33800
H  20.96000 -8.36000 27.43900
H  20.55700 -8.02000 29.11200
H  16.76700 -3.57400 24.31200
H  16.80800 -0.49000 24.12300
H  18.63400 -3.40100 23.27200
H  19.31500 -2.35100 24.57500
H  18.46500 -1.62700 23.16000
H  14.25900 -2.17100 24.42700
H  15.20500 -2.38700 22.97100
H  13.41100 -0.32500 23.85700
H  13.97600 -0.87000 22.23900
H  14.95500 0.34500 23.10800
H  12.47500 2.57900 27.47800
H  13.35600 1.89300 26.18800
H  13.90100 3.45000 26.87000
H  13.71400 0.58200 32.30600
H  16.59100 3.30900 34.53900
H  15.19300 3.10300 35.64600
H  15.24100 4.37500 34.46400
Mg -1.90700 34.36700 27.22400
C  -3.34000 32.71600 29.80000
C  -0.24500 36.28700 29.52200
C  -0.81200 36.32700 24.68700
C  -3.75300 32.55500 24.92900
N  -1.91200 34.55100 29.44800
C  -2.48800 33.65500 30.28100
C  -2.13700 33.88900 31.74800
C  -1.09200 35.09700 31.64200
C  -1.07100 35.32100 30.12200
C  -1.33400 36.40000 32.39500
C  -1.51700 32.60300 32.50100
C  -2.16400 32.00800 33.75000
H  -1.36100 31.64300 35.01100
N  -0.64800 36.03700 27.10100
C  -0.02700 36.65400 28.17900
C  0.91900 37.60000 27.64200
C  0.67500 37.73900 26.23500
C  -0.32700 36.72000 25.96300
C  1.70900 38.49100 28.65700
C  1.17400 38.77700 25.13600
O  0.77800 38.90900 24.03300
C  2.37000 39.54900 25.56500
N  -2.30100 34.47800 25.15700
C  -1.65600 35.32800 24.33700
C  -2.15100 35.16100 22.93300
C  -2.85200 33.77000 22.93900
C  -3.02100 33.58400 24.40100
C  -3.10000 36.25200 22.46100
C  -2.08000 32.65000 22.22400
C  -0.56900 32.39200 22.69500
N  -3.32800 33.00200 27.30400
C  -3.89700 32.17300 26.30000
C  -4.70000 31.12000 26.88700
C  -4.58000 31.33900 28.26400
C  -3.65100 32.42900 28.43400
C  -5.56500 30.06900 26.25400
C  -4.91400 30.81400 29.52800
O  -5.48900 29.77700 29.77700
C  -4.14700 31.77600 30.61300
C  -5.25500 32.43400 31.29200
O  -6.14500 33.05000 30.80800
O  -5.14500 32.01600 32.61600
C  -6.22000 32.53000 33.48700
H  0.35700 36.64100 30.36200
H  -0.47100 36.93000 23.84200
H  -4.17000 31.89700 24.16400
H  -3.01700 34.22600 32.29500
H  -0.09400 34.87900 32.02100
H  -0.43200 36.75100 32.89600
H  -2.09900 36.37000 33.17000
H  -1.69600 37.18300 31.72900
H  -0.47100 32.85900 32.67300
H  -1.52000 31.78800 31.77800
H  -2.71000 31.10600 33.47500
H  -2.77700 32.81000 34.16200
H  2.74200 38.61500 28.33200
H  1.73400 38.10500 29.67600
H  1.30600 39.49500 28.79100
H  2.87800 39.98700 24.70500
H  3.07600 38.88300 26.05900
H  1.95300 40.34100 26.18700
H  -1.29600 35.13900 22.25800
H  -3.87000 33.71100 22.55400
H  -3.33200 36.78800 23.38100
H  -4.02600 35.85600 22.04500
H  -2.54800 36.83200 21.72100
H  -2.09600 32.79000 21.14300
H  -2.63800 31.72600 22.37400
H  0.14800 32.55600 21.89000
H  -0.42600 31.36900 23.04100
H  -0.31100 33.12600 23.45900
H  -5.22800 29.87200 25.23600
H  -6.59600 30.40200 26.37700
H  -5.39500 29.06500 26.64300
H  -3.59000 31.10200 31.26400
H  -7.16700 32.08900 33.17600
H  -6.31000 33.61600 33.45400
H  -5.91700 32.29600 34.50800

