158

Mg 26.63000 50.55400 26.93900
C  24.46100 51.56800 29.49200
C  28.95100 49.59000 29.34700
C  28.81400 49.74500 24.45900
C  24.38000 51.83300 24.61000
N  26.62800 50.57000 29.13000
C  25.63200 51.05900 29.97300
C  25.88500 50.74600 31.47200
C  27.37600 50.38300 31.46900
C  27.68500 50.07100 29.92400
C  28.40400 51.43000 32.03500
C  25.01700 49.57300 32.13700
C  25.49300 48.78700 33.48000
H  25.98300 49.67300 34.61000
N  28.62100 49.82100 26.94000
C  29.34900 49.43300 28.03600
C  30.57200 48.83100 27.50400
C  30.65000 48.97000 26.07900
C  29.32700 49.53900 25.77100
C  31.62100 48.14500 28.34000
C  31.73700 48.45400 25.15200
O  31.67700 48.64200 23.96500
C  32.82600 47.62300 25.61600
N  26.66100 50.83800 24.90700
C  27.53700 50.22600 24.12300
C  27.13800 50.13500 22.63200
C  25.80600 50.95600 22.60000
C  25.57700 51.26700 24.10700
C  28.17200 50.65200 21.66400
C  24.51800 50.19400 21.96700
C  24.74900 49.56800 20.57100
N  24.80900 51.52000 27.00300
C  24.08100 52.02900 25.98900
C  22.85400 52.66300 26.48500
C  22.93900 52.46500 27.88300
C  24.12500 51.79000 28.14400
C  21.84800 53.33300 25.73100
C  22.23700 52.67300 29.17300
O  21.18500 53.24700 29.48700
C  23.22600 52.06100 30.28700
C  23.57100 53.23000 31.19900
O  24.50300 54.05900 31.06600
O  22.73500 53.24500 32.29600
C  23.05300 54.32800 33.25100
H  29.73500 49.28500 30.04300
H  29.37900 49.18500 23.71200
H  23.64900 52.34800 23.98300
H  25.78900 51.64000 32.08800
H  27.49200 49.48700 32.07800
H  27.95300 52.40500 32.22200
H  29.22600 51.59100 31.33700
H  28.76800 51.12900 33.01800
H  25.05700 48.80600 31.36400
H  23.98300 49.88000 32.29500
H  26.25400 48.09200 33.12600
H  24.60600 48.21400 33.75100
H  31.42500 48.19800 29.41100
H  32.62700 48.56400 28.34800
H  31.53000 47.08600 28.10000
H  33.50900 48.28900 26.14300
H  33.39300 47.34700 24.72700
H  32.63400 46.75300 26.24400
H  26.86200 49.10700 22.39800
H  25.94100 51.94000 22.15000
H  27.68300 51.38100 21.01700
H  28.61300 49.82200 21.11300
H  28.94100 51.10200 22.29300
H  23.81200 51.02000 22.05100
H  24.08000 49.42900 22.60700
H  24.43800 48.52700 20.48700
H  25.79700 49.53400 20.27300
H  24.26000 50.16700 19.80200
H  22.23300 54.20000 25.19600
H  21.08800 53.74100 26.39700
H  21.27500 52.75000 25.01000
H  22.78100 51.23600 30.84400
H  23.49500 55.25000 32.87300
H  23.74900 53.90000 33.97200
H  22.16300 54.63000 33.80300
Mg -11.87600 16.80000 42.99300
C  -8.32900 17.15900 42.79400
C  -11.99300 20.27600 42.19400
C  -15.13500 16.67000 42.56200
C  -11.54200 13.38100 42.87000
N  -10.34000 18.44800 42.31800
C  -8.90000 18.37200 42.39500
C  -8.22000 19.72900 42.21000
C  -9.45400 20.66700 42.45700
C  -10.68200 19.76700 42.32000
C  -9.45900 21.18100 43.94700
C  -7.48300 19.65400 40.83400
C  -5.92600 19.89900 40.94100
H  -5.13100 18.98600 39.95400
N  -13.38800 18.26900 42.51800
C  -13.22200 19.60200 42.32200
C  -14.47900 20.27100 42.06400
C  -15.46400 19.22100 42.21600
C  -14.73600 17.94900 42.45600
C  -14.74700 21.70900 41.55200
C  -17.04600 19.37400 42.00500
O  -17.56400 20.45000 41.84800
C  -17.98100 18.19600 41.98800
N  -13.13600 15.27700 42.67500
C  -14.47300 15.43900 42.62700
C  -15.23400 14.04700 42.62800
C  -14.06900 13.01600 42.67100
C  -12.85700 13.93200 42.76200
C  -16.27100 13.88100 43.78000
C  -14.09400 12.05600 41.50500
C  -14.74100 10.72000 41.74800
N  -10.29900 15.50400 43.00800
C  -10.30900 14.12300 42.91000
C  -8.93200 13.64100 42.95500
C  -8.14700 14.79900 42.99400
C  -9.05200 15.91700 42.95400
C  -8.47700 12.19300 42.98200
C  -6.74300 15.31200 42.98300
O  -5.67600 14.76000 43.08600
C  -6.85400 16.86100 43.05900
C  -6.36500 17.16000 44.39400
O  -6.94300 16.95900 45.47600
O  -5.14300 17.91900 44.22100
C  -4.39400 18.40800 45.42400
H  -12.10500 21.36200 42.18500
H  -16.22700 16.66500 42.55100
H  -11.41900 12.30000 42.97100
H  -7.47500 19.92300 42.98200
H  -9.47900 21.46200 41.71200
H  -8.47000 21.20400 44.40400
H  -10.01600 20.50400 44.59400
H  -10.03900 22.10300 43.88600
H  -7.96900 20.41500 40.22300
H  -7.60600 18.67100 40.37900
H  -5.60500 19.80200 41.97800
H  -5.86900 20.91500 40.55100
H  -15.52800 22.14200 42.17600
H  -15.18600 21.49800 40.57700
H  -13.83900 22.31100 41.51200
H  -19.03300 18.48100 41.97100
H  -17.98300 17.74100 42.97900
H  -17.92100 17.32900 41.33000
H  -15.83700 14.05600 41.72000
H  -14.12100 12.42700 43.58600
H  -16.19000 14.66000 44.53800
H  -16.27500 12.87000 44.18900
H  -17.19300 14.10800 43.24500
H  -13.12100 11.88500 41.04400
H  -14.63500 12.55500 40.70200
H  -15.59500 10.89200 42.40400
H  -13.99900 10.07500 42.21900
H  -15.13200 10.27700 40.83200
H  -9.29100 11.66500 42.48500
H  -8.22400 11.77400 43.95600
H  -7.50700 12.03600 42.51100
H  -6.21500 17.39500 42.35500
H  -4.41500 19.49700 45.47000
H  -3.36000 18.06700 45.37600
H  -4.73200 18.02700 46.38800

