158

Mg 40.55600 9.85100 30.12100
C  42.41000 10.79500 32.95100
C  38.26800 8.20200 32.22000
C  39.03600 8.54100 27.45600
C  43.09700 11.09700 28.13400
N  40.47600 9.47500 32.34900
C  41.24900 10.08500 33.32300
C  40.60200 10.07500 34.74500
C  39.29800 9.10700 34.47900
C  39.36500 8.90300 32.92300
C  39.14400 7.89600 35.34500
C  40.17100 11.54600 35.03800
C  39.49800 11.76000 36.34300
H  40.13400 12.46300 37.52600
N  38.85400 8.49300 29.82000
C  38.04800 8.00300 30.82000
C  36.91500 7.20700 30.21400
C  37.16500 7.19400 28.76100
C  38.36900 8.14000 28.59600
C  35.76200 6.72900 31.08800
C  36.51600 6.49300 27.65300
O  36.81000 6.60900 26.45300
C  35.45200 5.51100 27.91700
N  40.88200 9.96800 28.03300
C  40.11400 9.34100 27.14400
C  40.77100 9.38400 25.76900
C  42.02400 10.25200 25.93900
C  42.03400 10.49300 27.44100
C  41.03400 8.01900 25.16200
C  42.05200 11.58700 25.02800
C  43.15000 11.50700 24.00100
N  42.36400 10.72200 30.42000
C  43.29500 11.21800 29.48800
C  44.42400 11.87300 30.12600
C  44.11900 11.76600 31.50400
C  42.90800 10.99600 31.63900
C  45.60100 12.40100 29.41900
C  44.57500 11.99800 32.89500
O  45.48500 12.69900 33.32500
C  43.38700 11.41900 33.84600
C  44.05900 10.35400 34.76700
O  44.46100 9.25500 34.46600
O  43.87400 10.78500 36.09200
C  44.08800 9.82100 37.20100
H  37.41900 7.92300 32.84700
H  38.49700 8.11500 26.60700
H  43.83400 11.52300 27.45000
H  41.23700 9.67800 35.53700
H  38.41400 9.72700 34.62800
H  38.08200 7.66100 35.41000
H  39.54500 8.30900 36.27100
H  39.61400 7.01700 34.90500
H  39.55100 11.99300 34.26000
H  41.12700 12.06100 35.13000
H  39.19200 10.75400 36.62800
H  38.58600 12.34900 36.25000
H  35.79800 5.64100 31.13600
H  34.85400 7.13000 30.63700
H  35.75200 7.04700 32.13000
H  34.89300 5.10100 27.07600
H  34.77000 5.91800 28.66300
H  35.93700 4.61500 28.30600
H  40.06700 9.92900 25.14000
H  42.88500 9.64700 25.65300
H  40.59600 7.28100 25.83300
H  42.08900 7.75200 25.09700
H  40.58600 7.93300 24.17100
H  42.24600 12.38000 25.75000
H  41.04500 11.69400 24.62300
H  43.03700 10.48900 23.63100
H  44.14700 11.66200 24.41300
H  42.91500 12.30100 23.29200
H  46.45100 12.69300 30.03600
H  45.32200 13.23600 28.77700
H  46.03200 11.64600 28.76100
H  43.10200 12.28100 34.44900
H  43.38900 9.94500 38.02700
H  45.10000 9.99700 37.56800
H  43.99300 8.80100 36.82800
Mg 30.05200 58.18200 41.12900
C  27.32700 56.45700 39.79000
C  32.16000 56.08600 39.42900
C  32.61400 60.48200 41.30600
C  27.80000 60.79500 42.07000
N  29.79900 56.50900 39.68100
C  28.57400 55.93500 39.35600
C  28.83600 54.54300 38.70600
C  30.34600 54.42700 38.68200
C  30.82900 55.71200 39.33900
C  31.02600 53.21600 39.38900
C  28.18700 54.38400 37.31000
C  27.92500 55.67200 36.47500
H  27.82000 55.48000 34.92500
N  32.17400 58.16700 40.66800
C  32.81000 57.21400 39.94400
C  34.20200 57.58000 39.78000
C  34.39200 58.88100 40.34600
C  33.01300 59.26200 40.76100
C  35.22000 56.72000 39.08500
C  35.70800 59.71800 40.32100
O  36.72900 59.35300 39.71300
C  35.74200 61.08500 41.01300
N  30.14300 60.39000 41.59700
C  31.36600 60.95000 41.83000
C  31.17200 62.41300 42.27200
C  29.51300 62.51800 42.49700
C  29.09500 61.17700 42.04500
C  32.11800 62.95200 43.38300
C  28.91700 63.66300 41.74700
C  27.64200 64.35600 42.21100
N  28.08500 58.50700 41.16300
C  27.27500 59.56200 41.61100
C  25.88600 59.25100 41.47700
C  25.86100 58.06200 40.78500
C  27.16800 57.64800 40.58100
C  24.69200 60.10100 41.86500
C  24.99700 57.02100 40.26400
O  23.76900 56.97200 40.25400
C  25.93300 55.85200 39.59800
C  25.77500 54.51900 40.39100
O  26.43000 54.31100 41.39600
O  24.83500 53.70300 39.86600
C  24.64200 52.42900 40.55100
H  32.78900 55.47800 38.77600
H  33.24200 61.37400 41.26600
H  27.09900 61.57200 42.38200
H  28.41600 53.65600 39.18000
H  30.64600 54.39700 37.63500
H  31.51300 53.46600 40.33100
H  31.80100 52.75800 38.77400
H  30.39600 52.36900 39.65800
H  27.26000 53.81600 37.37600
H  28.83400 53.74600 36.70800
H  28.72800 56.37700 36.69000
H  26.96900 56.07600 36.81000
H  35.95800 57.31000 38.54200
H  34.78000 56.02100 38.37300
H  35.75400 56.16800 39.85900
H  35.20300 61.83900 40.43900
H  36.76100 61.47000 41.04000
H  35.41900 60.83700 42.02400
H  31.36600 63.07400 41.42800
H  29.17500 62.56600 43.53200
H  32.81000 63.67700 42.95400
H  32.44000 62.06700 43.93100
H  31.51800 63.49800 44.11200
H  28.87900 63.47700 40.67400
H  29.70800 64.41100 41.70100
H  26.97100 64.26800 41.35700
H  27.80600 65.40600 42.45600
H  27.21000 63.94200 43.12200
H  24.86100 60.49300 42.86800
H  23.77900 59.51400 41.76900
H  24.72900 60.93800 41.16700
H  25.64600 55.61700 38.57300
H  23.75200 51.91800 40.18300
H  24.50800 52.49300 41.63000
H  25.47800 51.79900 40.24700

