158

Mg 47.83500 16.22800 27.72900
C  46.09100 16.35200 30.74900
C  50.37100 17.96300 29.21900
C  49.31900 16.60700 24.80200
C  45.01300 14.95200 26.19400
N  48.12000 17.04600 29.68500
C  47.28900 16.93600 30.78400
C  47.92300 17.63100 32.01700
C  49.20200 18.26600 31.46900
C  49.24200 17.69300 30.03500
C  49.14500 19.80300 31.57100
C  48.18600 16.56900 33.13900
C  47.61500 16.88900 34.51600
H  47.46000 18.37900 34.82700
N  49.65600 17.08600 27.12600
C  50.55200 17.70900 27.88900
C  51.74900 17.94100 27.13000
C  51.52900 17.59300 25.81000
C  50.10300 17.06600 25.85000
C  52.94600 18.74500 27.78900
C  52.36600 17.67900 24.55800
O  51.96200 17.24500 23.49600
C  53.79800 18.18600 24.64600
N  47.14200 15.99600 25.69200
C  48.02400 16.07300 24.70200
C  47.33100 15.75400 23.35400
C  46.02800 15.08200 23.89800
C  45.99400 15.39500 25.34900
C  47.14200 17.03200 22.46200
C  45.83000 13.57600 23.65800
C  44.73700 13.25100 22.72600
N  45.89700 15.75000 28.28100
C  44.92700 15.13500 27.61200
C  43.77700 14.84900 28.49400
C  44.16600 15.33700 29.72900
C  45.47200 15.78400 29.60100
C  42.51000 14.16300 28.08900
C  43.75700 15.49300 31.11100
O  42.76700 15.21300 31.75200
C  45.02600 16.16100 31.81200
C  44.54000 17.43500 32.45600
O  44.48200 18.54700 31.94300
O  44.07700 17.16900 33.72900
C  43.44800 18.20500 34.51800
H  51.24900 18.27300 29.78900
H  49.78000 16.71300 23.81700
H  44.17100 14.36600 25.81900
H  47.17600 18.35300 32.34900
H  50.08500 17.93500 32.01600
H  50.11700 20.25600 31.77100
H  48.52800 19.88000 32.46600
H  48.58600 20.14300 30.69900
H  49.24300 16.39300 33.33600
H  47.67600 15.67800 32.77300
H  48.29000 16.34500 35.17700
H  46.67600 16.33800 34.58400
H  53.83200 18.48800 27.20700
H  53.16800 18.28500 28.75100
H  52.77500 19.82000 27.85500
H  54.34800 17.40300 25.16600
H  53.82500 19.15100 25.15300
H  54.16400 18.23700 23.62000
H  47.94400 15.02400 22.82500
H  45.23600 15.63900 23.39600
H  46.19800 16.79900 21.96900
H  47.81700 17.26500 21.63900
H  46.92400 17.88600 23.10300
H  45.59000 13.09000 24.60300
H  46.75600 13.17900 23.24100
H  44.17100 12.33900 22.91400
H  45.22700 12.92700 21.80700
H  44.13500 14.09400 22.38800
H  42.58100 13.11900 27.78600
H  41.88800 14.71400 27.38300
H  41.91600 14.13100 29.00200
H  45.37900 15.42200 32.53100
H  43.49800 17.91100 35.56700
H  42.40500 18.05700 34.23800
H  43.70800 19.21300 34.19500
Mg 41.99300 41.47600 26.35700
C  40.90900 43.76900 28.73900
C  43.37500 39.55500 28.78400
C  43.08300 39.33200 23.93900
C  40.94800 43.62500 23.87200
N  42.19100 41.77800 28.54700
C  41.53000 42.67900 29.36900
C  41.85000 42.41000 30.82200
C  42.87300 41.17300 30.76500
C  42.81400 40.75000 29.27600
C  44.32000 41.44000 31.36600
C  40.46000 42.16400 31.75300
C  40.44400 43.02000 33.07700
H  39.83800 42.37800 34.33500
N  42.97600 39.64400 26.44500
C  43.44300 39.00700 27.53400
C  44.08800 37.77100 27.14200
C  43.97000 37.64600 25.74900
C  43.27400 38.89000 25.29000
C  44.52900 36.70500 28.19700
C  44.43200 36.49500 24.82700
O  44.15200 36.48300 23.69100
C  45.38200 35.40800 25.28100
N  42.04100 41.47600 24.22100
C  42.54600 40.51700 23.41400
C  42.35800 40.75400 21.96900
C  41.47600 42.07300 22.00000
C  41.47900 42.42700 23.47600
C  43.58900 40.80700 21.21000
C  39.95100 41.90600 21.45600
C  39.24200 40.57600 21.87300
N  41.21700 43.38100 26.26100
C  40.82900 44.13800 25.13000
C  40.37400 45.42900 25.57800
C  40.40700 45.33000 26.96400
C  40.93100 44.10100 27.35300
C  39.81000 46.48900 24.68600
C  40.12600 45.99900 28.19800
O  39.71300 47.09900 28.38000
C  40.44300 45.05600 29.39300
C  41.47700 45.71500 30.18500
O  42.60700 45.94100 29.74700
O  40.94500 46.11900 31.39000
C  41.95400 46.60900 32.26800
H  43.81100 38.96900 29.59600
H  43.42700 38.64700 23.16100
H  40.64500 44.22100 23.01000
H  42.36800 43.28800 31.20800
H  42.52000 40.45700 31.50600
H  45.02100 40.97400 30.67400
H  44.33400 40.95800 32.34300
H  44.50600 42.51400 31.37200
H  40.36700 41.11300 32.02600
H  39.54800 42.40400 31.20700
H  39.88100 43.93000 32.87400
H  41.48000 43.32300 33.22700
H  44.03400 35.76300 27.96000
H  44.28100 37.07700 29.19100
H  45.61200 36.59100 28.14500
H  46.36000 35.84200 25.49000
H  45.47100 34.61000 24.54400
H  44.86700 34.78600 26.01300
H  41.78500 39.87200 21.68100
H  42.03400 42.81000 21.42400
H  43.48300 41.69900 20.59300
H  43.69600 39.89700 20.61800
H  44.43300 40.88600 21.89500
H  40.02200 42.06100 20.37900
H  39.29500 42.64900 21.90900
H  39.44400 39.76700 21.17100
H  38.16200 40.71500 21.92900
H  39.49400 40.24200 22.88000
H  39.21500 46.08500 23.86700
H  40.64200 47.11000 24.35300
H  39.13100 47.12100 25.25800
H  39.48500 44.95900 29.90300
H  42.57700 47.34000 31.75300
H  42.38500 45.75800 32.79600
H  41.38500 47.26800 32.92400

