158

Mg 47.71500 16.24100 28.49200
C  45.76000 16.16800 31.39000
C  50.14000 17.85900 30.28000
C  49.72100 16.23100 25.70400
C  45.19400 14.80900 26.72600
N  47.81200 17.12000 30.62400
C  46.96500 16.80000 31.69000
C  47.54300 17.15800 33.05900
C  48.78500 17.98600 32.63800
C  48.93500 17.63600 31.06100
C  48.80800 19.43300 33.03200
C  47.84700 16.02900 33.95700
C  47.41000 16.28700 35.47400
H  47.34200 17.74600 36.02800
N  49.66800 16.81500 28.06600
C  50.43100 17.51600 28.95700
C  51.76300 17.77000 28.36900
C  51.66200 17.42000 27.03200
C  50.36000 16.72900 26.83900
C  52.94700 18.22000 29.21800
C  52.76400 17.55400 25.99700
O  52.74100 17.07200 24.88500
C  53.95400 18.43900 26.27000
N  47.44300 15.63900 26.54200
C  48.43200 15.64400 25.53300
C  47.97500 15.17000 24.20300
C  46.58200 14.56300 24.55600
C  46.39400 14.96900 26.01000
C  48.05800 16.31500 23.20900
C  46.46900 13.02400 24.43500
C  45.99100 12.51300 23.03400
N  45.84700 15.67900 28.88200
C  44.93300 15.07400 28.10100
C  43.77700 14.74800 28.86800
C  44.03900 15.02500 30.21700
C  45.31900 15.69800 30.12000
C  42.53900 14.08200 28.25500
C  43.56600 14.90300 31.50900
O  42.57800 14.34200 31.99900
C  44.73800 15.74300 32.33400
C  44.07300 16.90400 33.05800
O  44.09900 18.08300 32.79500
O  43.50400 16.41800 34.19100
C  42.87800 17.51200 34.95500
H  50.86100 18.40200 30.89400
H  50.26300 16.33300 24.76100
H  44.36400 14.39300 26.15200
H  46.84100 17.88300 33.47100
H  49.63200 17.53800 33.15800
H  48.94000 20.01700 32.12100
H  49.53400 19.55600 33.83600
H  47.83900 19.79500 33.37600
H  48.89500 15.75400 33.83100
H  47.19200 15.20300 33.68000
H  48.12000 15.84900 36.17600
H  46.39500 15.89700 35.54400
H  52.93100 17.81600 30.23000
H  52.99100 19.30700 29.27800
H  53.92100 17.97800 28.79200
H  53.56600 19.27100 26.85700
H  54.30900 18.72300 25.28000
H  54.69400 17.82000 26.77800
H  48.67600 14.42700 23.82300
H  45.80900 15.06000 23.97000
H  49.05900 16.39800 22.78500
H  47.72800 17.26100 23.63900
H  47.31800 16.01800 22.46600
H  45.82700 12.61500 25.21600
H  47.44500 12.56100 24.58100
H  46.77700 11.82300 22.72600
H  45.93000 13.28800 22.27100
H  45.05000 11.96600 22.97500
H  41.85200 13.87400 29.07500
H  42.84300 13.17500 27.73200
H  41.99000 14.72000 27.56300
H  45.04300 15.06200 33.12800
H  42.05500 17.84300 34.32100
H  43.61800 18.29000 35.14300
H  42.44800 17.14200 35.88600
Mg 36.30600 48.84700 25.30300
C  36.90000 46.56800 27.95500
C  34.86900 51.02000 27.53500
C  35.56900 50.76300 22.74200
C  37.22800 46.28200 23.07900
N  35.87700 48.70400 27.52700
C  36.36700 47.81200 28.40700
C  36.24700 48.29700 29.84600
C  35.30000 49.51700 29.67900
C  35.34200 49.80000 28.15700
C  33.88400 49.25500 30.26500
C  37.68300 48.56900 30.44400
C  37.98000 48.10700 31.93400
H  36.82100 48.19000 32.82100
N  35.36500 50.61300 25.17800
C  34.91500 51.48400 26.18600
C  34.61300 52.85600 25.69100
C  34.62700 52.62800 24.26900
C  35.18200 51.26300 23.98300
C  34.10300 53.85000 26.58200
C  34.12700 53.61500 23.15900
O  34.12800 53.35200 21.96700
C  33.57300 54.95900 23.64400
N  36.42500 48.53800 23.06500
C  36.21600 49.52900 22.26100
C  36.65700 49.19000 20.79400
C  37.34700 47.83000 21.03200
C  37.00300 47.50200 22.47800
C  35.47900 49.08300 19.79500
C  38.94200 47.72900 20.84200
C  39.76600 48.63000 21.71100
N  37.05300 46.87800 25.39700
C  37.36400 45.92100 24.43500
C  37.69900 44.68400 25.03800
C  37.62100 44.89700 26.40200
C  37.08400 46.23200 26.55000
C  38.02900 43.41900 24.31600
C  37.82300 44.30500 27.69700
O  38.15900 43.21100 28.07100
C  37.42100 45.39300 28.73100
C  36.31400 44.85500 29.54000
O  35.19500 44.59800 29.08900
O  36.74400 44.77200 30.86500
C  35.66800 44.51200 31.80200
H  34.31100 51.66700 28.21500
H  35.22700 51.40200 21.92600
H  37.51200 45.48200 22.39200
H  35.75000 47.61600 30.53700
H  35.72100 50.37600 30.20100
H  33.08300 49.76900 29.73400
H  33.86600 49.59200 31.30100
H  33.74900 48.17800 30.37000
H  38.03700 49.59100 30.30800
H  38.29800 47.99000 29.75600
H  38.63200 48.93900 32.20100
H  38.50400 47.16500 32.09500
H  34.86300 54.63100 26.62500
H  33.95500 53.55700 27.62100
H  33.17300 54.29300 26.22400
H  32.61300 54.85000 24.14800
H  33.54900 55.69500 22.84000
H  34.30800 55.25800 24.39100
H  37.29800 49.99900 20.44200
H  37.06800 47.07500 20.29800
H  34.50800 49.14900 20.28500
H  35.61900 48.23800 19.12100
H  35.47800 49.92800 19.10600
H  39.18100 48.02400 19.82000
H  39.18900 46.66800 20.86400
H  39.37500 48.77300 22.71800
H  39.79400 49.59700 21.20700
H  40.78600 48.24500 21.72700
H  39.10700 43.30500 24.20300
H  37.63000 43.42700 23.30200
H  37.62500 42.55600 24.84500
H  38.30200 45.60900 29.33500
H  34.82800 45.20500 31.74900
H  36.08100 44.36100 32.79900
H  35.28700 43.55300 31.45300

