158

Mg 47.73400 15.12200 28.03800
C  45.56100 14.86800 30.79600
C  49.78700 16.89800 30.10100
C  49.62700 16.02200 25.43400
C  45.39700 13.46000 26.10800
N  47.53500 15.95500 30.11500
C  46.65800 15.62700 31.05600
C  47.06200 16.18800 32.43300
C  48.27400 17.07200 32.09800
C  48.60900 16.58900 30.67300
C  47.99600 18.61800 32.06100
C  47.40900 15.06400 33.45300
C  46.76500 15.35300 34.85200
H  47.84600 15.90800 35.82800
N  49.51000 16.17900 27.80000
C  50.24400 16.80800 28.72700
C  51.52300 17.16200 28.21400
C  51.47000 17.00500 26.83000
C  50.16700 16.35500 26.62300
C  52.61900 17.62400 29.13600
C  52.53500 17.25900 25.76300
O  52.38400 16.94000 24.61600
C  53.86200 17.76000 26.13500
N  47.51800 14.79900 25.99800
C  48.42300 15.21100 25.15800
C  48.20400 14.44700 23.78600
C  46.81000 13.77300 23.96900
C  46.53300 14.07900 25.45900
C  48.38300 15.40400 22.45500
C  46.81200 12.19900 23.63500
C  47.74900 11.36300 24.47100
N  45.79300 14.39000 28.30500
C  45.04000 13.65400 27.49100
C  44.01400 13.02700 28.28200
C  44.09200 13.53000 29.57100
C  45.19900 14.42000 29.52700
C  42.98400 12.06200 27.84500
C  43.52600 13.44900 30.89400
O  42.66000 12.72400 31.34700
C  44.45200 14.47700 31.78100
C  43.70000 15.76600 32.14800
O  43.43200 16.65800 31.33200
O  43.52900 15.83700 33.48800
C  42.83000 16.98200 34.07200
H  50.41900 17.46400 30.78900
H  50.26700 16.22600 24.57300
H  44.73600 12.77600 25.57300
H  46.17900 16.78900 32.65100
H  49.04800 16.80900 32.82000
H  47.78300 18.99900 31.06200
H  48.86800 19.06000 32.54400
H  47.09100 18.94500 32.57300
H  48.48300 14.92400 33.57300
H  47.19700 14.11700 32.95700
H  46.47500 14.35600 35.18200
H  45.93800 16.06300 34.81800
H  53.42700 18.01000 28.51600
H  52.93500 16.72400 29.66400
H  52.26000 18.39000 29.82300
H  53.86400 18.74200 26.60900
H  54.42100 17.82100 25.20100
H  54.49000 17.21600 26.84000
H  49.00800 13.71200 23.78700
H  46.02400 14.21400 23.35600
H  49.06900 14.86600 21.80100
H  48.74800 16.37900 22.77800
H  47.41700 15.43600 21.95200
H  47.13200 12.25500 22.59500
H  45.77400 11.87600 23.55500
H  48.58600 10.99900 23.87400
H  47.23800 10.47500 24.84300
H  48.13800 11.79900 25.39100
H  43.12200 11.45700 26.94900
H  42.02500 12.55600 27.68200
H  42.82100 11.31600 28.62200
H  44.87700 14.11200 32.71600
H  43.48000 17.54100 34.74600
H  41.93500 16.67300 34.61200
H  42.59200 17.76100 33.34800
Mg 16.03200 52.44400 25.16300
C  17.80200 51.35600 27.84700
C  13.42900 53.19600 27.21900
C  14.28500 53.31500 22.43900
C  18.65600 51.36600 23.01300
N  15.59100 52.11400 27.28700
C  16.55600 51.81700 28.18900
C  16.02000 52.05700 29.59600
C  14.47500 52.47300 29.40000
C  14.50900 52.62400 27.87800
C  13.39600 51.46400 29.97700
C  16.80600 53.27500 30.20000
C  16.50300 53.44600 31.70800
H  15.74400 52.47000 32.51200
N  14.08700 53.18200 24.88100
C  13.10900 53.38300 25.86200
C  11.88300 53.86300 25.21700
C  12.09500 53.81700 23.78500
C  13.51900 53.39900 23.64200
C  10.72800 54.35700 25.98100
C  11.17200 54.19100 22.64000
O  11.43600 53.92300 21.46200
C  9.81600 54.75200 22.79500
N  16.56400 52.45700 23.04400
C  15.62600 52.92800 22.17000
C  16.21100 52.86200 20.72400
C  17.63700 52.29400 20.99400
C  17.64300 52.06400 22.44200
C  15.32700 52.01400 19.73900
C  18.76400 53.27800 20.44800
C  18.81300 54.60300 21.13500
N  17.82600 51.48000 25.28100
C  18.78700 51.06600 24.36900
C  19.94000 50.52000 25.06700
C  19.60400 50.60500 26.44400
C  18.32900 51.14100 26.52200
C  21.25900 50.07000 24.46900
C  19.98900 50.26600 27.83900
O  20.96200 49.62500 28.28300
C  18.88800 50.79800 28.75600
C  18.32200 49.75600 29.64800
O  17.64500 48.73300 29.32000
O  18.83000 50.03700 30.92200
C  18.58600 49.00900 31.92100
H  12.60700 53.57300 27.83100
H  13.68600 53.70500 21.61300
H  19.43700 51.05400 22.31600
H  16.06900 51.12500 30.15800
H  14.33500 53.42000 29.92100
H  12.67400 51.96500 30.62300
H  13.88900 50.69000 30.56500
H  12.90000 51.03300 29.10800
H  16.43300 54.13600 29.64500
H  17.86600 53.07100 30.04900
H  15.85100 54.31900 31.72400
H  17.44700 53.71100 32.18500
H  9.80500 53.81700 25.77300
H  10.55800 55.40400 25.72900
H  10.81900 54.41200 27.06600
H  10.08500 55.76700 23.08900
H  9.19800 54.18800 23.49400
H  9.16600 54.71700 21.92100
H  16.23900 53.85000 20.26400
H  17.86600 51.44400 20.35200
H  14.33500 51.81600 20.14600
H  15.83500 51.10200 19.42600
H  15.07200 52.59600 18.85300
H  18.51000 53.38100 19.39300
H  19.73700 52.82600 20.64200
H  17.85200 55.07900 21.32900
H  19.34000 55.29200 20.47400
H  19.35700 54.67600 22.07600
H  22.09900 50.69600 24.76900
H  21.17500 50.12500 23.38400
H  21.45900 49.06300 24.83600
H  19.35300 51.65400 29.24400
H  17.61700 49.05800 32.41600
H  19.34500 48.95400 32.70200
H  18.65200 48.03300 31.44000

