158

Mg 2.90700 -1.25100 42.04700
C  6.26200 -0.30300 41.90100
C  2.05400 1.65100 40.37200
C  -0.22900 -2.62400 41.46000
C  3.95600 -4.41800 43.24900
N  4.03400 0.55800 41.32700
C  5.39300 0.74000 41.41600
C  5.75700 2.00100 40.72600
C  4.39000 2.62700 40.43800
C  3.39800 1.56400 40.74800
C  4.09400 3.95300 41.25500
C  6.76300 1.82000 39.55300
C  6.97500 0.47700 38.80900
H  6.66900 0.45600 37.29900
N  1.18900 -0.57800 41.05500
C  1.04600 0.70200 40.53500
C  -0.37700 0.75700 40.09700
C  -1.07800 -0.39400 40.50200
C  -0.03600 -1.25100 41.07100
C  -0.96100 2.10300 39.48300
C  -2.57200 -0.55200 40.43500
O  -3.29700 0.32100 39.97400
C  -3.27800 -1.63600 41.19900
N  2.08100 -3.30400 42.26100
C  0.73400 -3.53000 41.91600
C  0.32100 -5.01200 42.19900
C  1.69300 -5.57100 42.78400
C  2.64700 -4.37500 42.77900
C  -0.96600 -5.17300 43.01800
C  2.28100 -6.82400 42.06100
C  2.87900 -7.90200 43.01200
N  4.70200 -2.14900 42.67400
C  4.98800 -3.43200 43.19900
C  6.41100 -3.56500 43.30400
C  6.94700 -2.38300 42.86000
C  5.84500 -1.53100 42.49100
C  7.03400 -4.78500 43.90400
C  8.19300 -1.63500 42.59600
O  9.32100 -2.01500 42.82300
C  7.76800 -0.30000 42.04000
C  8.38000 0.82300 42.81600
O  9.28500 1.49700 42.39100
O  7.98100 0.87500 44.14300
C  8.66000 1.77800 45.10700
H  1.63000 2.57500 39.97300
H  -1.09900 -3.15600 41.06700
H  4.21000 -5.44600 43.51800
H  6.32700 2.61700 41.42100
H  4.13000 2.84200 39.40100
H  3.04600 4.21000 41.09800
H  4.59100 4.85300 40.89300
H  4.31900 3.88800 42.31900
H  7.68900 2.23600 39.94900
H  6.54700 2.64200 38.87000
H  6.38100 -0.33600 39.22800
H  8.03500 0.22600 38.84800
H  -0.22900 2.78800 39.05500
H  -1.57300 2.63700 40.20900
H  -1.50200 1.74100 38.60800
H  -4.35800 -1.52000 41.10800
H  -2.95200 -1.35400 42.20000
H  -3.03700 -2.64200 40.85700
H  0.04100 -5.49100 41.26100
H  1.54100 -5.82300 43.83400
H  -1.36600 -4.18400 43.24600
H  -0.71800 -5.70400 43.93700
H  -1.76300 -5.66300 42.46000
H  3.06300 -6.44800 41.40200
H  1.57100 -7.23700 41.34400
H  3.87800 -8.07800 42.61300
H  2.31100 -8.82200 43.14900
H  3.09100 -7.60400 44.03900
H  7.28000 -5.46800 43.09200
H  6.34500 -5.25900 44.60300
H  7.94700 -4.42700 44.38000
H  8.23700 -0.24300 41.05800
H  8.19800 2.76300 45.04700
H  9.70000 1.99100 44.86200
H  8.57500 1.45100 46.14300
Mg -10.57000 17.27100 40.92400
C  -7.24300 16.77300 40.95500
C  -10.09000 20.61600 40.46400
C  -13.90200 17.62800 40.63100
C  -10.98000 13.78100 40.37400
N  -8.88900 18.51900 40.76900
C  -7.64600 18.08800 40.76300
C  -6.62600 19.20700 40.35400
C  -7.49200 20.54000 40.55400
C  -8.94000 19.88300 40.55100
C  -7.25300 21.38900 41.80900
C  -6.12200 19.11200 38.88500
C  -4.70000 18.64100 38.53600
H  -4.55000 17.30100 37.75100
N  -11.88800 18.88300 40.71700
C  -11.50200 20.20400 40.50000
C  -12.53500 21.10800 40.53500
C  -13.75800 20.32500 40.48800
C  -13.26800 18.85100 40.63500
C  -12.31900 22.59800 40.33400
C  -15.19200 20.84600 40.22100
O  -15.42100 22.02600 39.91600
C  -16.35300 19.96400 40.56300
N  -12.14800 15.92000 40.58900
C  -13.41600 16.31200 40.52800
C  -14.39900 15.17100 40.37600
C  -13.47500 14.04400 39.82200
C  -12.10900 14.59700 40.26300
C  -15.12100 14.85300 41.72600
C  -13.51900 13.83900 38.34000
C  -13.94600 12.42300 37.95600
N  -9.41800 15.56100 40.81000
C  -9.70700 14.17700 40.75700
C  -8.44200 13.39600 40.81900
C  -7.48800 14.37900 40.88200
C  -8.07100 15.64300 41.04800
C  -8.21900 11.92300 40.74500
C  -6.00900 14.61200 40.89500
O  -5.09400 13.85300 40.78500
C  -5.86400 16.22800 41.10100
C  -5.22600 16.40100 42.46400
O  -5.58200 15.88700 43.50800
O  -4.18000 17.29900 42.31600
C  -3.48000 17.55000 43.63900
H  -9.85200 21.66300 40.26200
H  -14.99100 17.70700 40.63000
H  -11.07400 12.72800 40.10100
H  -5.77300 19.23800 41.03200
H  -7.37700 21.22900 39.71800
H  -8.13700 21.53600 42.43000
H  -6.91700 22.35900 41.44200
H  -6.45500 20.92200 42.38600
H  -6.28000 20.06100 38.37200
H  -6.73400 18.32400 38.44600
H  -4.12200 18.57600 39.45900
H  -4.17400 19.36000 37.90800
H  -11.84400 22.94800 41.25100
H  -13.13400 23.20200 39.93500
H  -11.54500 22.79900 39.59300
H  -16.64500 19.24400 39.79900
H  -17.26700 20.54200 40.69800
H  -16.17800 19.39400 41.47500
H  -15.16700 15.55900 39.70700
H  -13.74500 13.11800 40.33000
H  -16.19000 14.78200 41.52600
H  -14.80900 15.60500 42.45100
H  -14.94700 13.88600 42.19800
H  -12.57700 14.13400 37.87700
H  -14.18200 14.60900 37.94400
H  -14.84500 12.60800 37.36700
H  -14.23500 11.78600 38.79100
H  -13.11000 11.93500 37.45400
H  -7.18800 11.63400 40.94800
H  -8.42300 11.64300 39.71100
H  -8.75100 11.39200 41.53400
H  -5.17000 16.61100 40.35300
H  -2.79900 18.37900 43.44600
H  -2.85100 16.70600 43.92500
H  -4.11600 17.85400 44.47000

