158

Mg 23.83100 -5.17900 46.20200
C  25.71500 -2.66300 44.47200
C  21.07000 -4.25600 44.42200
C  22.51900 -8.13600 46.92500
C  26.87800 -6.28600 47.44700
N  23.52400 -3.65100 44.60800
C  24.38300 -2.63000 44.11700
C  23.58300 -1.72900 43.20000
C  22.08100 -2.10900 43.59100
C  22.22200 -3.41100 44.26000
C  21.43700 -0.97500 44.49600
C  23.98100 -1.90800 41.69500
C  24.57300 -0.64000 40.99100
H  24.66300 -0.75600 39.44500
N  21.95500 -6.01900 45.79400
C  20.96000 -5.46100 45.06500
C  19.84600 -6.36500 44.99100
C  20.18200 -7.53200 45.74500
C  21.64600 -7.29500 46.17300
C  18.56600 -6.01800 44.24100
C  19.20900 -8.72300 45.95300
O  18.13800 -8.70700 45.44400
C  19.59700 -9.90400 46.80100
N  24.57900 -6.86800 47.20000
C  23.79500 -8.00100 47.36000
C  24.58500 -9.24200 47.92200
C  25.99900 -8.49400 48.28700
C  25.84600 -7.13900 47.57000
C  23.89600 -9.76900 49.21600
C  27.18900 -9.33400 47.78200
C  28.23500 -9.61300 48.82900
N  25.93200 -4.48900 46.26100
C  27.00100 -5.01300 46.86000
C  28.17400 -4.22100 46.57700
C  27.74600 -3.21900 45.73700
C  26.38800 -3.49800 45.43800
C  29.58700 -4.44900 47.13500
C  28.07000 -2.06900 44.95600
O  29.14400 -1.45000 44.93500
C  26.77300 -1.67800 44.21900
C  26.38700 -0.23000 44.57000
O  25.52400 0.02200 45.43400
O  27.23300 0.64500 43.94800
C  26.99900 2.04300 44.46000
H  20.25000 -3.84100 43.83300
H  22.03800 -9.06500 47.23700
H  27.86400 -6.48600 47.87200
H  23.79000 -0.68100 43.41700
H  21.45300 -2.12400 42.70000
H  21.99300 -0.03900 44.55100
H  21.32600 -1.39800 45.49400
H  20.51900 -0.66500 43.99600
H  23.13300 -2.29800 41.13100
H  24.84500 -2.56700 41.60300
H  25.55000 -0.27100 41.30300
H  23.88700 0.16500 41.25600
H  18.90600 -5.57000 43.30700
H  17.98400 -5.32900 44.85200
H  17.96300 -6.88600 43.97100
H  18.67800 -10.28800 47.24400
H  20.19100 -9.59100 47.66000
H  20.08900 -10.64200 46.16800
H  24.72300 -10.07400 47.23100
H  26.06400 -8.16100 49.32300
H  22.87900 -9.37900 49.26700
H  24.53400 -9.61500 50.08600
H  23.75400 -10.81300 48.93600
H  27.64400 -9.01000 46.84600
H  26.78800 -10.29200 47.45100
H  28.72100 -10.56100 48.59600
H  27.86000 -9.48800 49.84500
H  29.02400 -8.87400 48.69200
H  30.37100 -3.72300 46.91600
H  29.98100 -5.45000 46.96100
H  29.45500 -4.48700 48.21600
H  27.02200 -1.81700 43.16700
H  27.92000 2.50900 44.11100
H  26.99300 2.08500 45.54900
H  26.04900 2.38500 44.04900
Mg 30.97800 58.30500 40.63100
C  28.18700 56.42700 39.39000
C  33.01800 55.75800 39.48500
C  33.48400 60.44600 40.61800
C  28.65000 60.88700 41.34300
N  30.63000 56.38500 39.34700
C  29.39200 55.81400 39.05600
C  29.74200 54.47100 38.50500
C  31.11900 54.04000 39.17900
C  31.62500 55.45600 39.42600
C  31.04400 53.06600 40.44000
C  29.81300 54.56400 36.94900
C  28.56800 54.17300 36.17800
H  28.21900 54.63900 34.76500
N  33.03000 58.13500 40.28600
C  33.64800 57.04700 39.71700
C  35.04400 57.31100 39.67500
C  35.26100 58.67500 39.94700
C  33.90100 59.17500 40.34100
C  36.00700 56.24100 39.18500
C  36.50700 59.42600 39.75700
O  37.53500 58.85900 39.48200
C  36.50300 60.92800 39.85700
N  31.06400 60.35800 40.87800
C  32.24700 60.97400 40.90200
C  32.11700 62.48400 41.21600
C  30.53800 62.71400 41.32800
C  30.03900 61.20300 41.26700
C  32.96000 63.06500 42.41900
C  29.97400 63.68400 40.16800
C  29.65100 65.11600 40.67400
N  28.83900 58.64300 40.40700
C  28.05500 59.68300 40.84000
C  26.61300 59.38500 40.65500
C  26.66700 58.10100 40.18900
C  28.01300 57.67600 39.96400
C  25.38300 60.27200 40.82700
C  25.78800 56.99900 39.84300
O  24.55500 56.78700 39.93200
C  26.72900 55.87600 39.17300
C  26.58100 54.62900 39.92700
O  26.73400 54.49900 41.14600
O  26.12600 53.54000 39.08200
C  25.67700 52.31200 39.80900
H  33.58300 54.83300 39.35400
H  34.23900 61.23400 40.57500
H  27.99100 61.70300 41.64700
H  29.04100 53.68800 38.79600
H  31.76600 53.59600 38.42200
H  31.03900 53.61400 41.38200
H  31.95300 52.46500 40.40500
H  30.20500 52.37100 40.39600
H  30.70500 54.02700 36.62600
H  29.93000 55.62200 36.71500
H  27.80200 54.47500 36.89300
H  28.59200 53.08900 36.06500
H  35.68000 55.31000 39.64700
H  37.06500 56.40500 39.39300
H  35.93300 56.01300 38.12100
H  36.31800 61.18100 40.90100
H  35.71400 61.26700 39.18600
H  37.48000 61.30100 39.55000
H  32.53500 62.97500 40.33700
H  30.33400 63.06400 42.34000
H  32.35200 63.79800 42.95000
H  33.78200 63.64800 42.00400
H  33.36400 62.28800 43.06800
H  29.00600 63.40700 39.75000
H  30.70400 63.59400 39.36500
H  28.56900 65.08300 40.80500
H  29.96400 65.82600 39.90900
H  30.15500 65.34500 41.61300
H  24.58600 59.60100 41.14900
H  25.03700 60.63500 39.85900
H  25.50100 61.13300 41.48600
H  26.41600 55.75900 38.13600
H  26.54500 51.65800 39.88200
H  24.95700 51.73200 39.23200
H  25.24800 52.46500 40.79900

