158

Mg 41.06500 9.19600 29.50200
C  42.76900 10.19700 32.35200
C  38.62500 8.07900 31.52000
C  39.47400 8.09700 26.73600
C  43.63500 10.42700 27.48000
N  40.91000 8.90300 31.70500
C  41.54900 9.63300 32.69800
C  40.90100 9.63400 34.06900
C  39.69700 8.62800 33.81900
C  39.75800 8.49600 32.25900
C  39.82300 7.25400 34.61300
C  40.44400 11.03000 34.47700
C  40.34800 11.11400 35.96800
H  41.16500 12.21000 36.65500
N  39.37600 8.09000 29.18800
C  38.36500 7.84000 30.11000
C  37.18400 7.31700 29.43600
C  37.43600 7.40400 28.08400
C  38.81300 7.82700 27.92900
C  35.83500 6.89100 30.10500
C  36.48000 7.22400 26.93100
O  36.75900 7.48900 25.76300
C  35.09000 6.72900 27.16300
N  41.54700 9.09900 27.35300
C  40.76100 8.55100 26.48900
C  41.29200 8.75700 25.05000
C  42.44700 9.76200 25.31600
C  42.57100 9.74600 26.81200
C  41.58900 7.38400 24.31600
C  42.18600 11.20000 24.77500
C  41.03300 12.03000 25.34500
N  42.89900 9.95200 29.79200
C  43.82800 10.46900 28.87100
C  44.96700 11.00800 29.57100
C  44.61700 10.98800 30.92500
C  43.31800 10.37500 31.03600
C  46.25400 11.64100 29.12500
C  45.05600 11.34700 32.25900
O  46.12500 11.85000 32.65500
C  43.80200 10.94100 33.25600
C  44.33300 9.99000 34.27500
O  44.75700 8.85800 34.09400
O  44.47600 10.75300 35.41900
C  45.17200 10.14800 36.56200
H  37.68800 7.95000 32.06400
H  39.01700 7.83000 25.78100
H  44.38400 10.89900 26.84000
H  41.65000 9.22500 34.74700
H  38.75500 9.07700 34.13400
H  40.81200 7.15600 35.06200
H  39.68600 6.38100 33.97500
H  39.03000 7.23700 35.36000
H  39.49100 11.26400 34.00300
H  41.16300 11.75600 34.09600
H  40.48600 10.12600 36.40800
H  39.31200 11.38200 36.17700
H  35.93700 6.74700 31.18000
H  35.65400 5.89600 29.69800
H  35.06800 7.63000 29.87700
H  35.00700 5.87500 27.83400
H  34.58200 6.71200 26.19800
H  34.77200 7.60300 27.73200
H  40.51800 9.15800 24.39600
H  43.36400 9.44700 24.81700
H  42.50100 7.48400 23.72700
H  40.72900 7.13200 23.69600
H  41.75700 6.67100 25.12300
H  41.95900 11.13100 23.71100
H  43.15700 11.68900 24.84700
H  40.48600 12.52600 24.54300
H  41.40300 12.78500 26.03900
H  40.24500 11.49900 25.87900
H  46.39200 12.53000 29.74000
H  46.08700 11.92300 28.08500
H  47.08600 11.03600 29.48400
H  43.42800 11.85700 33.71200
H  44.58500 10.08600 37.47800
H  46.07400 10.75100 36.66600
H  45.49100 9.12400 36.36900
Mg 47.91100 16.21800 28.25300
C  46.06400 16.04700 31.24000
C  50.34500 17.94900 29.98300
C  49.38300 16.85100 25.33500
C  45.19100 14.88400 26.61800
N  48.04900 17.18900 30.38800
C  47.29300 16.76600 31.42100
C  47.86200 17.32200 32.77300
C  49.19800 18.04500 32.28400
C  49.15300 17.82300 30.76300
C  49.22300 19.56900 32.64500
C  48.07800 16.32300 33.92900
C  47.43300 16.49600 35.28700
H  47.17300 17.88100 35.87700
N  49.61500 17.20700 27.71900
C  50.53100 17.73000 28.60700
C  51.70200 18.06700 27.82000
C  51.48900 17.82400 26.48100
C  50.08900 17.34800 26.46000
C  52.97900 18.38700 28.51300
C  52.38200 18.16600 25.33800
O  51.97300 18.05000 24.15200
C  53.76600 18.82000 25.54700
N  47.29300 15.89500 26.18800
C  48.17300 16.13100 25.18600
C  47.52600 15.74500 23.84900
C  46.10600 15.26000 24.23900
C  46.22800 15.26400 25.75000
C  47.64100 16.79800 22.69400
C  45.60800 13.87400 23.75400
C  44.62900 13.77900 22.61400
N  46.15200 15.42400 28.79500
C  45.14400 14.90600 28.02600
C  43.96700 14.58100 28.86400
C  44.32900 14.99500 30.14400
C  45.59400 15.50200 30.06600
C  42.63500 14.17100 28.35100
C  43.85100 15.02000 31.43100
O  42.86500 14.48800 31.88000
C  44.96900 15.68000 32.27000
C  44.44500 16.78200 33.13000
O  44.54100 17.91100 32.76800
O  43.80100 16.32400 34.23800
C  42.92800 17.31700 34.89800
H  51.18000 18.27900 30.60400
H  50.01100 16.74200 24.44800
H  44.36600 14.39700 26.09200
H  47.22600 18.17900 32.99200
H  50.11700 17.59400 32.65800
H  48.74000 20.25100 31.94600
H  50.19100 20.03200 32.83400
H  48.68200 19.79100 33.56500
H  49.14100 16.21700 34.14600
H  47.73500 15.37200 33.52100
H  48.15400 15.97500 35.91700
H  46.49100 15.94700 35.28600
H  53.67500 17.69000 28.04500
H  52.95000 18.08100 29.55900
H  53.15200 19.45300 28.37100
H  54.16500 19.13300 24.58200
H  54.47300 18.05400 25.86700
H  53.65000 19.63700 26.25900
H  48.03200 14.82700 23.55100
H  45.51100 16.08200 23.84300
H  47.96200 16.25300 21.80600
H  48.42200 17.51500 22.94800
H  46.72700 17.38100 22.59200
H  45.18200 13.36300 24.61700
H  46.52900 13.38700 23.43200
H  45.20600 13.42100 21.76100
H  44.15100 14.74800 22.47800
H  43.92000 12.97700 22.82300
H  42.45900 13.10200 28.46700
H  42.41400 14.53800 27.34900
H  41.81300 14.68100 28.85200
H  45.31900 14.98700 33.03500
H  42.62000 18.12800 34.23800
H  43.47700 17.68200 35.76600
H  41.98300 16.82900 35.13600

