158

Mg 8.20300 3.08700 27.05800
C  9.37300 1.56800 29.96800
C  5.77100 4.65900 28.93600
C  7.03200 4.54900 24.23600
C  10.42000 1.15400 25.09200
N  7.46900 2.83800 29.19900
C  8.23600 2.32400 30.20300
C  7.73200 2.85500 31.55200
C  6.32800 3.50600 31.14700
C  6.48800 3.66500 29.67100
C  5.01900 2.78500 31.52800
C  8.82600 3.87200 32.12400
C  8.67500 4.37100 33.59400
H  9.79500 3.92400 34.53700
N  6.61600 4.40700 26.63800
C  5.78700 4.96800 27.54500
C  4.95300 6.05700 26.88100
C  5.36100 6.04000 25.52400
C  6.33800 4.92600 25.39800
C  3.99800 6.98200 27.63700
C  4.86900 6.81800 24.39100
O  5.02100 6.61900 23.19000
C  3.99500 8.08500 24.66600
N  8.60600 2.77700 24.94300
C  8.02500 3.58600 23.99800
C  8.79700 3.41400 22.62800
C  9.79900 2.33200 22.99400
C  9.67900 2.15100 24.45300
C  7.75900 3.14500 21.54100
C  11.30600 2.76100 22.68900
C  11.98100 3.69100 23.68300
N  9.58500 1.57900 27.37500
C  10.42800 0.93700 26.46100
C  11.30900 0.06700 27.22700
C  10.96700 0.34000 28.58500
C  9.85800 1.20800 28.65100
C  12.44700 -0.89300 26.62800
C  11.34200 -0.02500 29.95400
O  12.07200 -0.85400 30.45900
C  10.38500 0.90000 30.90400
C  9.76900 0.16500 32.05900
O  8.77500 -0.56700 32.07200
O  10.66600 0.25400 33.09200
C  10.14600 -0.14700 34.37900
H  5.05200 5.24100 29.51700
H  6.91000 5.21500 23.37900
H  11.06000 0.53400 24.46000
H  7.63800 1.97200 32.18500
H  6.24200 4.53500 31.49500
H  5.27300 1.82700 31.98200
H  4.36900 2.58600 30.67600
H  4.38700 3.24700 32.28600
H  8.67800 4.71800 31.45300
H  9.85000 3.60000 31.87200
H  7.66000 4.12100 33.90100
H  8.68400 5.45900 33.65800
H  4.44800 7.96500 27.77400
H  3.75200 6.47100 28.56800
H  3.10600 7.16700 27.03900
H  2.95900 7.83700 24.89700
H  4.07200 8.58700 23.70100
H  4.40500 8.56100 25.55700
H  9.33000 4.31400 22.32300
H  9.47700 1.45200 22.43600
H  8.22000 2.49200 20.80000
H  7.36800 4.09500 21.17500
H  6.93900 2.55900 21.95700
H  11.41300 3.15400 21.67900
H  11.82300 1.80500 22.60300
H  11.37200 4.06000 24.50900
H  12.15300 4.60100 23.10800
H  12.95000 3.30500 24.00100
H  13.29700 -0.88500 27.31100
H  12.73000 -0.44300 25.67600
H  12.00900 -1.86700 26.41100
H  11.10500 1.66600 31.19000
H  9.66000 -1.11200 34.23700
H  9.45800 0.60300 34.76700
H  10.94800 -0.24300 35.11200
Mg 48.01000 24.59000 27.88200
C  48.79000 26.72200 30.46800
C  47.43400 22.06800 30.11900
C  47.24300 22.57100 25.38300
C  49.41100 26.90400 25.59600
N  47.97700 24.44000 30.04600
C  48.39000 25.43400 30.92200
C  48.21600 25.02500 32.41500
C  47.76700 23.51900 32.21200
C  47.81900 23.28500 30.70200
C  48.64500 22.49700 33.04500
C  47.27900 26.02800 33.14300
C  46.91300 25.61100 34.61100
H  46.99500 26.68300 35.72500
N  47.41700 22.57500 27.82400
C  47.15100 21.71100 28.81400
C  46.74200 20.40500 28.39200
C  46.59700 20.51800 26.96200
C  47.06300 21.94800 26.65400
C  46.41100 19.20300 29.32500
C  46.24800 19.46200 25.94900
O  46.13200 19.67700 24.70200
C  45.96700 18.05600 26.43600
N  48.13200 24.75400 25.78400
C  47.75300 23.71800 24.96900
C  47.91200 24.15200 23.52900
C  48.67500 25.45900 23.56100
C  48.78300 25.72400 25.02900
C  48.69900 23.12000 22.72100
C  47.91600 26.71000 22.89900
C  48.69100 27.46700 21.86200
N  48.87900 26.52000 27.94900
C  49.44400 27.23700 26.99200
C  49.80100 28.49300 27.56100
C  49.71800 28.31200 28.97500
C  48.97000 27.12900 29.10600
C  50.49600 29.61000 26.87100
C  50.04700 28.93900 30.25300
O  50.65400 29.99000 30.49800
C  49.32600 27.92500 31.23600
C  50.27900 27.51400 32.34600
O  51.15500 26.64100 32.26100
O  49.93500 28.09100 33.57800
C  50.80900 27.64100 34.63600
H  47.10300 21.33600 30.85900
H  46.84600 21.93500 24.58900
H  49.84200 27.60500 24.87800
H  49.18300 25.00600 32.91800
H  46.71200 23.50900 32.48500
H  47.98500 22.08800 33.81000
H  49.50400 23.01100 33.47500
H  49.01800 21.67800 32.43100
H  46.41100 26.07800 32.48600
H  47.75600 26.99100 33.32800
H  47.45800 24.73700 34.96900
H  45.90200 25.20300 34.62400
H  46.30900 19.50500 30.36800
H  47.20500 18.45600 29.34300
H  45.52100 18.67100 28.98900
H  46.73000 17.65100 27.10000
H  45.71100 17.40500 25.60000
H  45.04400 18.09400 27.01500
H  46.86100 24.20300 23.24600
H  49.68000 25.30100 23.16900
H  49.54900 22.66900 23.23300
H  48.95400 23.31900 21.68000
H  47.94900 22.33000 22.74900
H  47.58600 27.46800 23.61000
H  47.03400 26.34300 22.37300
H  48.74900 28.52800 22.10800
H  48.26800 27.27800 20.87500
H  49.71300 27.09000 21.88700
H  49.73900 30.33000 26.55900
H  51.09900 29.26300 26.03200
H  51.24500 30.08500 27.50600
H  48.43200 28.38900 31.65300
H  50.49900 26.69900 35.08900
H  50.76700 28.40500 35.41200
H  51.85700 27.65400 34.33500

