158

Mg 16.66100 -2.16000 27.31000
C  15.69100 -0.10400 30.03500
C  18.90400 -3.70900 29.40800
C  18.34500 -3.56800 24.54900
C  14.77700 -0.26300 25.07200
N  17.14100 -1.96200 29.54100
C  16.73500 -0.97600 30.41600
C  17.30500 -1.34200 31.84700
C  18.43600 -2.33800 31.49200
C  18.14400 -2.71700 30.10100
C  19.86600 -1.73600 31.69400
C  16.31000 -1.62600 33.00900
C  16.45800 -0.98800 34.40500
H  17.83500 -0.49100 35.05600
N  18.16500 -3.58800 27.03900
C  18.86900 -4.19700 28.05300
C  19.68800 -5.23300 27.52300
C  19.65000 -5.15600 26.06100
C  18.67800 -4.08700 25.85700
C  20.39200 -6.23800 28.41600
C  20.40400 -5.98100 25.00800
O  20.30300 -5.80700 23.77000
C  21.40900 -7.02500 25.44900
N  16.59600 -1.95500 25.28500
C  17.40100 -2.57600 24.32800
C  16.84000 -2.35800 22.82900
C  15.76800 -1.27900 22.99400
C  15.62400 -1.20300 24.57600
C  17.90900 -2.00900 21.77000
C  14.40400 -1.67000 22.26200
C  14.28100 -1.27600 20.76700
N  15.40900 -0.61900 27.48400
C  14.61100 0.06500 26.47100
C  13.84900 1.10200 27.16900
C  14.24700 0.95700 28.54900
C  15.22100 -0.01200 28.68200
C  12.78500 2.04800 26.50100
C  13.89600 1.61500 29.84700
O  13.13300 2.54000 30.15100
C  14.85600 0.88100 30.90300
C  15.68500 1.81100 31.64300
O  16.81900 2.07600 31.35800
O  14.92300 2.28500 32.70400
C  15.46600 3.35500 33.56400
H  19.61400 -4.16600 30.10200
H  18.82000 -3.88000 23.61700
H  14.13200 0.29700 24.39200
H  17.72400 -0.37300 32.11600
H  18.42800 -3.15200 32.21700
H  19.79400 -0.90100 32.39100
H  20.32800 -1.47400 30.74300
H  20.53200 -2.44400 32.18800
H  16.11900 -2.69300 33.12900
H  15.35000 -1.27500 32.62900
H  16.11600 -1.73300 35.12400
H  15.87000 -0.07900 34.53000
H  21.25200 -5.88200 28.98300
H  20.59500 -7.16200 27.87600
H  19.66800 -6.36700 29.22100
H  21.91700 -6.53400 26.27900
H  22.05500 -7.24800 24.60000
H  20.89200 -7.89400 25.85700
H  16.41500 -3.31900 22.54100
H  16.09600 -0.26600 22.76000
H  18.85800 -1.92200 22.29900
H  17.60800 -1.05300 21.34000
H  18.03600 -2.81700 21.05000
H  13.60300 -1.31300 22.90900
H  14.26600 -2.74700 22.35200
H  15.16000 -0.72700 20.43000
H  13.47700 -0.57500 20.54100
H  14.18800 -2.21500 20.22100
H  11.88500 2.22500 27.09100
H  12.34000 1.69900 25.56900
H  13.32400 2.97900 26.32600
H  14.18800 0.39000 31.61100
H  16.45900 3.01700 33.85900
H  14.87200 3.60700 34.44200
H  15.57600 4.17400 32.85300
Mg 26.90700 50.66000 26.98400
C  24.78800 51.76200 29.59700
C  29.33500 49.82800 29.28300
C  28.87000 50.06100 24.42500
C  24.43900 51.99100 24.76100
N  27.03200 50.82600 29.10200
C  26.05800 51.21100 30.01100
C  26.44200 50.94300 31.45000
C  28.00600 50.68800 31.27800
C  28.11900 50.37000 29.82400
C  28.91900 51.85100 31.66900
C  25.66400 49.78600 32.16600
C  25.08100 50.26200 33.51800
H  26.08600 50.56800 34.59300
N  28.86600 49.99200 26.89300
C  29.70600 49.56500 27.89800
C  30.95100 49.00000 27.37100
C  30.87300 49.28900 25.89200
C  29.52300 49.83200 25.68000
C  31.91200 48.28600 28.24900
C  31.84000 48.90200 24.79200
O  31.62600 49.16700 23.61700
C  33.15100 48.16400 25.08600
N  26.71200 51.02900 24.95700
C  27.70400 50.72800 24.07300
C  27.28200 50.90400 22.54900
C  25.76300 51.27600 22.73300
C  25.65800 51.46300 24.29300
C  28.08700 51.77200 21.60700
C  24.79300 50.18500 22.04000
C  24.30000 49.08600 22.92200
N  25.00800 51.71100 27.11300
C  24.16800 52.08500 26.11100
C  23.05100 52.71100 26.70900
C  23.22500 52.63500 28.05800
C  24.44000 51.98000 28.30400
C  21.84800 53.32100 25.95400
C  22.72600 53.08800 29.26300
O  21.75500 53.84700 29.50500
C  23.69100 52.54100 30.40200
C  24.26200 53.69600 31.22500
O  25.23700 54.33500 30.90600
O  23.47400 53.78400 32.39600
C  23.73500 54.80100 33.40200
H  30.14100 49.55700 29.96800
H  29.54200 49.86700 23.58700
H  23.69300 52.42400 24.09100
H  26.16500 51.84400 31.99800
H  28.17800 49.80500 31.89400
H  29.06500 51.83100 32.74900
H  28.34500 52.72800 31.36800
H  29.86700 51.78800 31.13500
H  26.30700 48.92600 32.35200
H  24.87000 49.46500 31.49200
H  24.45300 49.43100 33.84000
H  24.38300 51.09400 33.41800
H  31.57500 47.25000 28.20700
H  31.98800 48.73000 29.24200
H  32.93100 48.34100 27.86600
H  33.04800 47.10000 25.30000
H  33.72100 48.62400 25.89300
H  33.74100 48.27200 24.17600
H  27.51700 49.90300 22.18700
H  25.60900 52.27500 22.32500
H  28.22800 51.29200 20.63800
H  29.08600 51.96100 21.99800
H  27.64900 52.73100 21.33100
H  25.17800 49.77800 21.10500
H  23.96500 50.82800 21.74200
H  24.92600 48.93700 23.80300
H  24.34800 48.14000 22.38200
H  23.24000 49.31000 23.03900
H  21.64200 52.87300 24.98200
H  21.91300 54.39800 25.80500
H  20.88900 53.09500 26.42000
H  23.12800 51.89100 31.07200
H  24.26600 55.53100 32.79100
H  24.36500 54.28500 34.12700
H  22.77000 55.06000 33.83700

