158

Mg 15.92800 51.88800 25.96500
C  17.68300 50.68800 28.84800
C  13.55000 53.09500 28.12500
C  14.39400 53.26000 23.37700
C  18.46600 50.58100 24.11000
N  15.55600 51.68200 28.18200
C  16.39600 51.22600 29.09300
C  15.89500 51.60100 30.58800
C  14.43300 51.99800 30.24900
C  14.49100 52.27400 28.76200
C  13.27600 51.00200 30.55700
C  16.70600 52.61100 31.36600
C  16.78800 52.23500 32.88200
H  15.62400 52.82000 33.79100
N  14.14300 53.04000 25.78200
C  13.32500 53.44000 26.84000
C  12.34300 54.37000 26.22600
C  12.50800 54.32600 24.78600
C  13.72700 53.51600 24.56500
C  11.18000 54.96000 27.06800
C  11.64900 54.96700 23.64900
O  11.89900 54.80400 22.44000
C  10.44100 55.81900 23.98900
N  16.24700 51.74000 24.02100
C  15.55700 52.48100 23.13700
C  16.31600 52.60400 21.79400
C  17.64000 51.79400 22.07300
C  17.43100 51.29000 23.49600
C  15.49000 52.19600 20.54600
C  18.97800 52.55100 21.90500
C  20.22800 51.91300 21.28600
N  17.63300 50.55800 26.37800
C  18.60800 50.18700 25.50300
C  19.67900 49.51700 26.26800
C  19.36900 49.76400 27.57500
C  18.11100 50.37500 27.56600
C  20.95500 48.90100 25.77500
C  19.76900 49.42700 28.87800
O  20.74100 48.77100 29.24000
C  18.69200 50.15400 29.77000
C  18.14000 49.23000 30.78400
O  17.35200 48.31200 30.56900
O  18.68500 49.43100 32.05500
C  18.24500 48.45100 33.08500
H  12.77400 53.34400 28.85200
H  14.07200 53.77700 22.47100
H  19.23200 50.30000 23.38400
H  15.80400 50.72800 31.23500
H  14.03800 52.90200 30.71200
H  12.44900 51.11500 29.85700
H  12.98800 50.89700 31.60300
H  13.60900 49.97500 30.41000
H  16.03800 53.47000 31.42500
H  17.67600 52.84700 30.92800
H  17.71400 52.64200 33.28700
H  16.85300 51.17800 33.14100
H  11.22800 54.55600 28.08000
H  10.18800 54.72000 26.68500
H  11.25700 56.04700 27.09100
H  9.99900 56.31000 23.12200
H  10.70700 56.49900 24.79900
H  9.74500 55.06300 24.35300
H  16.55800 53.66300 21.70800
H  17.66200 50.89000 21.46600
H  16.08500 51.48100 19.97700
H  15.21100 53.06200 19.94600
H  14.59400 51.65200 20.84200
H  19.29000 52.83600 22.91000
H  18.73500 53.53700 21.50900
H  20.50700 52.60800 20.49400
H  20.05400 50.90700 20.90300
H  21.11600 51.73700 21.89200
H  21.16500 49.37900 24.81800
H  20.81100 47.83100 25.62900
H  21.79200 49.13300 26.43400
H  19.12100 50.97600 30.34300
H  17.22300 48.12600 32.89000
H  18.24300 49.01100 34.02000
H  18.93800 47.61500 33.18000
Mg -2.24500 35.38100 27.31900
C  -4.06800 33.45700 29.54200
C  -1.32000 37.45000 29.86500
C  -0.57800 37.13200 25.10500
C  -3.45100 33.24700 24.72200
N  -2.71000 35.49800 29.36400
C  -3.31700 34.55100 30.13000
C  -3.17300 34.75400 31.59900
C  -2.60800 36.11500 31.69000
C  -2.16600 36.38200 30.27400
C  -3.64400 37.15600 32.29200
C  -2.55200 33.60400 32.43200
C  -3.27100 33.04900 33.60900
H  -2.48800 32.51600 34.82000
N  -1.20500 37.09500 27.46400
C  -0.87000 37.78200 28.57300
C  -0.02200 38.93500 28.27900
C  0.21200 38.86800 26.88200
C  -0.52600 37.65700 26.42100
C  0.30300 40.01400 29.28900
C  1.01900 39.75400 26.04100
O  1.13500 39.56700 24.81000
C  1.74300 40.95200 26.68500
N  -2.02300 35.26700 25.27300
C  -1.20900 36.02700 24.55500
C  -1.15000 35.68400 23.03900
C  -2.05300 34.44700 23.00300
C  -2.54900 34.23100 24.44600
C  -1.62500 36.79000 22.02700
C  -1.28200 33.13100 22.46500
C  -1.76200 32.55100 21.09500
N  -3.64600 33.84900 27.08600
C  -3.97300 33.01300 26.02500
C  -4.92500 31.98300 26.41200
C  -4.91800 32.05800 27.78100
C  -4.19000 33.22500 28.18500
C  -5.56100 30.93200 25.55200
C  -5.32500 31.41900 28.94800
O  -5.91300 30.36100 29.10500
C  -4.88200 32.33400 30.20200
C  -6.20200 32.83600 30.89500
O  -7.11600 33.45100 30.24000
O  -6.27600 32.60600 32.18500
C  -7.46200 32.91700 32.88200
H  -0.99600 37.92900 30.79200
H  -0.12700 37.72800 24.30900
H  -3.77300 32.46400 24.03200
H  -4.21600 34.81900 31.90900
H  -1.67600 36.07500 32.25300
H  -3.23300 38.16200 32.37800
H  -3.89700 36.98400 33.33800
H  -4.59000 37.06400 31.75800
H  -1.63400 33.98400 32.88100
H  -2.31000 32.79200 31.74700
H  -3.73400 32.12400 33.26400
H  -4.08400 33.68700 33.95600
H  0.03100 39.85700 30.33200
H  -0.11200 40.94000 28.88900
H  1.39000 40.08900 29.30100
H  2.78600 40.73300 26.91400
H  1.34300 41.39400 27.59800
H  1.58700 41.70100 25.90900
H  -0.13300 35.35000 22.83100
H  -2.97700 34.56700 22.43600
H  -1.12100 36.49100 21.10800
H  -1.57100 37.82100 22.37700
H  -2.68600 36.62100 21.84400
H  -1.34600 32.39200 23.26400
H  -0.21700 33.27000 22.28100
H  -0.79200 32.38500 20.62700
H  -2.45800 33.23400 20.60700
H  -2.30300 31.64200 21.35500
H  -6.43300 30.48500 26.03000
H  -4.88100 30.15900 25.19500
H  -5.88300 31.29700 24.57700
H  -4.23000 31.76500 30.86400
H  -7.15500 33.60400 33.67100
H  -7.88200 31.99400 33.28100
H  -8.28300 33.37700 32.33200

