158

Mg 53.67400 23.30400 45.77000
C  51.41500 25.87800 44.93200
C  51.52000 21.02200 44.41700
C  56.15600 21.06300 45.86600
C  55.79800 25.82800 47.01800
N  51.79200 23.50600 44.60900
C  50.94600 24.61100 44.51600
C  49.69200 24.27700 43.65900
C  49.64900 22.75100 43.93300
C  51.03900 22.34800 44.40800
C  48.37500 22.28500 44.74500
C  49.98400 24.61400 42.12800
C  48.74800 24.99300 41.24200
H  48.35400 23.90200 40.18400
N  53.83000 21.23400 45.30800
C  52.76900 20.51800 44.68700
C  53.19800 19.22200 44.45800
C  54.60000 19.09700 44.88500
C  54.92800 20.48000 45.37400
C  52.26700 18.11400 43.79600
C  55.39900 17.80700 44.83600
O  54.95900 16.74800 44.49600
C  56.76900 17.79300 45.46500
N  55.69600 23.43600 46.11600
C  56.49200 22.39200 46.22300
C  57.81400 22.74800 46.93600
C  57.82400 24.28400 47.19300
C  56.34300 24.52200 46.78400
C  58.05600 22.02400 48.24700
C  58.96000 25.00100 46.44600
C  59.48500 26.27600 47.18000
N  53.58300 25.43100 46.12100
C  54.56300 26.31000 46.62100
C  54.04200 27.60200 46.66400
C  52.72800 27.52300 46.08300
C  52.51200 26.17800 45.69100
C  54.75600 28.85800 47.04500
C  51.58000 28.27500 45.61200
O  51.32400 29.49500 45.60700
C  50.68800 27.22200 44.90100
C  50.55700 27.72500 43.49900
O  51.50000 27.93300 42.73500
O  49.27600 28.15300 43.30400
C  48.89400 28.65200 42.00800
H  50.67300 20.44800 44.03400
H  57.02700 20.40800 45.93000
H  56.41500 26.56200 47.54000
H  48.91000 24.90500 44.08500
H  49.62100 22.18800 43.00000
H  48.69400 21.83600 45.68600
H  47.89600 21.45500 44.22600
H  47.68800 23.10000 44.97400
H  50.33600 23.65900 41.73700
H  50.78100 25.35400 42.04600
H  49.01500 25.87000 40.65200
H  47.84100 25.08600 41.83900
H  51.43400 18.59500 43.28400
H  51.81000 17.43700 44.51700
H  52.91600 17.63200 43.06400
H  57.40200 18.59100 45.07600
H  57.19600 16.81600 45.23900
H  56.78700 18.01900 46.53100
H  58.58300 22.50100 46.20400
H  57.95000 24.48300 48.25800
H  58.27000 22.64600 49.11600
H  58.97900 21.44500 48.20900
H  57.19800 21.41800 48.54000
H  58.55300 25.27200 45.47200
H  59.84900 24.38300 46.32100
H  58.95000 27.11500 46.73500
H  60.50200 26.38000 46.80000
H  59.40000 26.26500 48.26700
H  54.24000 29.72100 46.62300
H  55.77500 28.83500 46.65700
H  54.81500 29.01600 48.12200
H  49.76800 27.17600 45.48400
H  48.50200 29.66300 42.12100
H  48.03600 28.07000 41.67300
H  49.70000 28.75100 41.28100
Mg 26.11800 50.56300 26.04600
C  23.95800 51.66800 28.50000
C  28.42900 49.94100 28.57100
C  28.37300 49.84300 23.66800
C  23.91700 51.76900 23.60900
N  26.20900 50.89800 28.28000
C  25.13500 51.23900 29.04500
C  25.43300 51.19700 30.59000
C  26.99900 50.87600 30.57100
C  27.24100 50.54300 29.04800
C  27.93600 51.96900 31.19300
C  24.58800 50.20100 31.35100
C  24.10500 50.63400 32.77800
H  24.23300 49.44500 33.78700
N  28.10300 49.85100 26.10500
C  28.87000 49.65600 27.25200
C  30.15100 49.03300 26.80300
C  30.14400 48.98200 25.39800
C  28.85600 49.56200 24.94200
C  31.30300 48.73100 27.73100
C  31.20600 48.65000 24.41400
O  31.05600 48.82800 23.21200
C  32.42900 47.97800 24.88000
N  26.06100 50.74900 23.97600
C  27.17100 50.35900 23.16000
C  26.76600 50.35900 21.66500
C  25.35200 51.00700 21.70800
C  25.04700 51.14200 23.20900
C  27.71100 51.16700 20.83800
C  24.31700 50.11000 20.84600
C  23.86500 48.84200 21.49600
N  24.29100 51.55100 26.03800
C  23.45800 51.90700 24.98100
C  22.26600 52.44500 25.42900
C  22.42800 52.42800 26.84400
C  23.64400 51.82200 27.12100
C  21.25500 53.04200 24.51700
C  21.69800 52.73400 28.13400
O  20.59000 53.23600 28.37700
C  22.71800 52.12700 29.22500
C  23.07900 53.29200 30.11500
O  23.84200 54.18800 29.83100
O  22.38300 53.22300 31.28300
C  22.46500 54.26500 32.33200
H  29.20900 49.69300 29.29400
H  28.95700 49.55400 22.79200
H  23.16700 52.05900 22.87100
H  25.43200 52.19700 31.02300
H  27.13500 49.98000 31.17600
H  27.69600 52.99300 30.90800
H  28.96000 51.74600 30.89300
H  27.75600 51.80500 32.25500
H  25.16500 49.28700 31.49200
H  23.81500 49.85200 30.66700
H  23.02900 50.79800 32.72000
H  24.65600 51.51000 33.12000
H  31.66600 47.70400 27.69100
H  30.99800 48.72900 28.77800
H  32.13900 49.43100 27.73700
H  33.12900 47.73200 24.08200
H  32.40300 47.13800 25.57500
H  32.90900 48.82900 25.36300
H  26.69900 49.30600 21.39000
H  25.41100 52.02600 21.32600
H  28.51300 51.64500 21.40000
H  27.24200 51.91600 20.20000
H  28.32100 50.46800 20.26600
H  24.80700 49.87400 19.90200
H  23.39300 50.62100 20.57500
H  24.39000 48.03000 20.99400
H  22.78300 48.75200 21.39700
H  24.04000 48.79300 22.57100
H  20.92600 53.90500 25.09600
H  20.53500 52.23200 24.40500
H  21.68600 53.30700 23.55100
H  22.40000 51.36500 29.93700
H  21.42500 54.48000 32.57900
H  22.84000 55.23800 32.01200
H  22.88700 54.01100 33.30400

