158

Mg 7.55400 2.95000 27.66800
C  9.15200 1.94000 30.68900
C  5.46500 4.78700 29.82100
C  6.48400 4.48000 24.95300
C  9.68700 0.88400 25.83900
N  7.46200 3.37600 29.99100
C  8.20600 2.82800 30.96200
C  8.01300 3.51100 32.30000
C  6.63400 4.31300 32.05000
C  6.44900 4.07800 30.53200
C  5.47100 3.74400 33.00100
C  9.16100 4.46500 32.67200
C  9.10000 5.05500 34.07200
H  9.93900 4.49700 35.29900
N  6.03500 4.32800 27.35200
C  5.27900 4.91300 28.37600
C  4.30000 5.91600 27.70900
C  4.61800 5.84100 26.33100
C  5.70900 4.89700 26.11900
C  3.31300 6.76600 28.53900
C  4.00000 6.68000 25.26000
O  4.31800 6.57700 24.05800
C  3.07100 7.84200 25.57600
N  7.89500 2.60800 25.71600
C  7.38500 3.43500 24.77400
C  7.95100 3.06800 23.33300
C  9.05200 1.99000 23.65000
C  8.89600 1.82400 25.12300
C  6.79500 2.57000 22.42500
C  10.48200 2.24800 23.11700
C  10.94200 1.59300 21.83700
N  8.96100 1.50000 28.12300
C  9.75800 0.77100 27.24500
C  10.64700 -0.10300 28.03100
C  10.47000 0.44800 29.39900
C  9.48300 1.39200 29.35400
C  11.64300 -1.09800 27.46700
C  10.95700 0.33100 30.77700
O  11.84300 -0.47000 31.17200
C  10.09000 1.23600 31.64600
C  9.25300 0.36800 32.61100
O  8.22600 -0.23400 32.37100
O  9.83200 0.37200 33.83100
C  9.18200 -0.19600 35.01400
H  4.92000 5.43600 30.51000
H  6.16600 5.02700 24.06300
H  10.34700 0.24500 25.24900
H  7.96100 2.79100 33.11700
H  6.84700 5.32400 32.39600
H  4.53700 3.76500 32.43900
H  5.36500 4.46600 33.81100
H  5.70100 2.75000 33.38300
H  9.19300 5.29000 31.96100
H  10.05100 3.83900 32.61600
H  8.11100 4.88600 34.49600
H  9.25500 6.12400 33.92300
H  3.16200 6.32400 29.52400
H  2.34700 6.60200 28.06100
H  3.53900 7.83200 28.54800
H  2.57500 8.15800 24.65900
H  3.68400 8.59400 26.07400
H  2.27000 7.50000 26.23100
H  8.38800 3.97600 22.91800
H  8.72700 1.03400 23.24000
H  5.81000 2.54900 22.89100
H  6.94000 1.61600 21.91800
H  6.69700 3.30100 21.62100
H  11.20100 1.98700 23.89300
H  10.62800 3.30700 22.90300
H  10.18100 0.98700 21.34500
H  11.75700 0.90000 22.04500
H  11.27600 2.41600 21.20500
H  11.51900 -2.02900 28.02000
H  12.62200 -0.65200 27.63800
H  11.50100 -1.39200 26.42700
H  10.66900 2.00000 32.16300
H  9.78500 0.30600 35.77100
H  9.20600 -1.27400 35.17000
H  8.15800 0.17300 35.06300
Mg 16.68600 -1.12200 27.40600
C  15.26900 0.70300 30.11500
C  18.63600 -2.71800 29.67800
C  18.18200 -2.57300 24.85400
C  15.00800 1.04900 25.17800
N  16.88300 -1.00900 29.70800
C  16.23000 -0.20200 30.56400
C  16.72900 -0.45000 31.98300
C  17.96000 -1.39400 31.80400
C  17.83200 -1.74100 30.35000
C  19.27700 -0.87900 32.27600
C  15.61500 -1.06400 32.79500
C  15.61800 -0.73800 34.29500
H  16.81700 0.13500 34.88900
N  18.05000 -2.56100 27.28800
C  18.66400 -3.19700 28.34300
C  19.40900 -4.33400 27.85400
C  19.31400 -4.33100 26.41400
C  18.49700 -3.10500 26.10000
C  20.13700 -5.18500 28.76400
C  19.97800 -5.23000 25.38900
O  19.78500 -5.15300 24.14100
C  20.87400 -6.41200 25.73800
N  16.87400 -0.52900 25.35800
C  17.52600 -1.45500 24.53400
C  17.30400 -1.14600 23.03000
C  16.27200 0.01400 23.06800
C  15.99900 0.20500 24.59200
C  18.58000 -0.77900 22.19200
C  15.03400 -0.03000 22.19400
C  14.81000 1.19200 21.29800
N  15.38600 0.46000 27.52600
C  14.75700 1.23600 26.54700
C  13.76000 2.11400 27.16900
C  14.00400 1.94300 28.55800
C  14.98700 0.95300 28.71700
C  12.91400 3.05200 26.41000
C  13.54600 2.43100 29.89200
O  12.66900 3.20700 30.18800
C  14.45400 1.66500 30.87700
C  15.15600 2.63900 31.78800
O  16.29300 3.03900 31.77000
O  14.26800 3.00900 32.78200
C  14.70700 4.02300 33.69400
H  19.19900 -3.20000 30.48000
H  18.52300 -3.22300 24.04500
H  14.40600 1.62800 24.47600
H  17.09900 0.49500 32.38100
H  17.88100 -2.23500 32.49400
H  19.70300 -0.31400 31.44800
H  19.91400 -1.69200 32.62700
H  19.20300 -0.23300 33.15100
H  15.49000 -2.13500 32.63700
H  14.63900 -0.65100 32.53700
H  15.86700 -1.65200 34.83400
H  14.62500 -0.35100 34.52500
H  19.71600 -6.18000 28.90300
H  20.35800 -4.70600 29.71800
H  21.11500 -5.47800 28.38400
H  20.63100 -6.98400 26.63300
H  21.78400 -5.85300 25.95900
H  20.86800 -7.03200 24.84200
H  16.76300 -1.98600 22.59300
H  16.90000 0.83800 22.73100
H  18.40500 0.13200 21.62000
H  18.87400 -1.60300 21.54300
H  19.38900 -0.51600 22.87400
H  14.14200 -0.09600 22.81700
H  15.15600 -0.96300 21.64300
H  15.69900 1.75200 21.00500
H  14.23700 1.93600 21.85100
H  14.28100 0.75600 20.45100
H  13.58800 3.84400 26.08300
H  12.20900 3.55100 27.07400
H  12.33100 2.57800 25.61900
H  13.82400 1.11600 31.57600
H  14.80100 4.88600 33.03500
H  15.70800 3.91300 34.11100
H  13.99900 4.25800 34.48900

