158

Mg 48.95400 46.02300 42.65500
C  45.69900 46.65200 41.53600
C  48.65300 42.98200 41.11200
C  52.16800 45.58200 42.99800
C  49.23800 49.35400 43.69800
N  47.44500 45.03400 41.34500
C  46.23100 45.48200 41.03300
C  45.44600 44.53700 40.08700
C  46.26100 43.18600 40.43400
C  47.54200 43.72100 41.01200
C  45.55400 42.05500 41.25900
C  45.64900 45.00300 38.58300
C  44.38500 44.91500 37.65300
H  44.43400 44.07900 36.37500
N  50.25300 44.45800 42.06900
C  49.97800 43.33100 41.49600
C  51.10800 42.40800 41.43100
C  52.14800 43.09900 42.19300
C  51.56800 44.45200 42.45700
C  51.18100 40.95800 40.80000
C  53.51200 42.57800 42.63900
O  53.68300 41.39600 42.45400
C  54.63500 43.35100 43.27500
N  50.45000 47.33900 43.17100
C  51.71300 46.90800 43.26700
C  52.70600 48.09800 43.61400
C  51.76700 49.30100 43.74400
C  50.40100 48.62800 43.56700
C  53.56600 47.82200 44.87900
C  51.96300 50.47300 42.69600
C  52.82600 51.62700 43.29300
N  47.67400 47.64200 42.75600
C  47.90900 48.89500 43.39900
C  46.59400 49.56700 43.46900
C  45.72800 48.70800 42.74600
C  46.48900 47.59700 42.29500
C  46.37300 50.92800 44.00300
C  44.32500 48.58600 42.30400
O  43.31600 49.20900 42.49000
C  44.38300 47.26600 41.38400
C  43.14500 46.39200 41.70900
O  42.37800 45.96800 40.87800
O  42.90500 46.32200 43.08700
C  41.76600 45.47800 43.50000
H  48.44200 41.94900 40.82800
H  53.25400 45.47200 43.02900
H  49.34200 50.38900 44.02900
H  44.37300 44.47600 40.26700
H  46.57300 42.75500 39.48200
H  46.10100 41.85600 42.18000
H  45.60000 41.17000 40.62400
H  44.52000 42.37000 41.40100
H  46.38900 44.40300 38.05200
H  46.05600 46.01400 38.58900
H  44.16000 45.94800 37.38800
H  43.48900 44.77300 38.25700
H  50.25900 40.86900 40.22500
H  51.04700 40.23300 41.60300
H  51.95800 40.91600 40.03800
H  54.35200 43.92200 44.15900
H  55.12800 43.88000 42.46000
H  55.36500 42.62200 43.62700
H  53.35900 48.25300 42.75500
H  51.84600 49.74800 44.73500
H  53.25600 46.83200 45.21400
H  53.48500 48.47900 45.74600
H  54.59400 47.87800 44.52000
H  51.04200 50.90700 42.30600
H  52.50800 49.93500 41.92000
H  52.35100 52.55200 42.96500
H  53.86700 51.51000 42.99300
H  52.65500 51.71300 44.36600
H  46.57400 51.64900 43.21100
H  46.97700 51.07400 44.89900
H  45.31400 51.07800 44.21300
H  44.23600 47.51500 40.33300
H  41.74100 44.52500 42.97100
H  40.79100 45.95900 43.43400
H  41.87400 45.29500 44.56900
Mg 26.61700 50.49100 26.68000
C  24.94400 52.03000 29.42400
C  29.12300 49.60100 28.98300
C  28.57400 49.20400 24.10100
C  24.57000 52.00700 24.48400
N  26.89400 50.71100 29.00500
C  26.05300 51.27800 29.91500
C  26.50300 51.12900 31.39900
C  27.90900 50.32700 31.19500
C  27.98400 50.17100 29.64600
C  29.02500 50.97900 31.88800
C  25.50400 50.27300 32.30500
C  24.82900 51.16700 33.40300
H  25.73200 51.58900 34.58800
N  28.53700 49.54400 26.48900
C  29.34200 49.22300 27.60200
C  30.59600 48.49800 27.11500
C  30.45000 48.51700 25.65100
C  29.10200 49.06900 25.34600
C  31.67500 48.14300 28.02900
C  31.44700 48.08700 24.57400
O  31.31500 48.24100 23.35200
C  32.65800 47.31500 24.97100
N  26.58100 50.66000 24.58200
C  27.47100 49.98800 23.73200
C  27.03300 50.12100 22.29500
C  25.73800 51.06700 22.33400
C  25.54200 51.18700 23.89600
C  28.29700 50.69500 21.48100
C  24.35500 50.65600 21.62000
C  23.94100 51.60800 20.45100
N  24.99200 51.67400 26.87700
C  24.30800 52.30700 25.84500
C  23.25200 53.10800 26.48800
C  23.47700 53.07000 27.90300
C  24.55700 52.18000 28.04700
C  22.22600 53.88400 25.81300
C  23.06900 53.64000 29.16800
O  22.38200 54.60600 29.40700
C  24.00600 52.94500 30.22400
C  24.67900 54.13700 30.70700
O  25.67400 54.63100 30.21000
O  24.07000 54.59400 31.86000
C  24.62500 55.55200 32.79500
H  29.82400 49.32300 29.77200
H  29.00400 48.72200 23.22000
H  23.88400 52.32400 23.69600
H  26.68600 52.11800 31.81900
H  27.76400 49.33700 31.62800
H  29.23100 50.33000 32.74000
H  28.86800 51.99000 32.26200
H  29.94900 51.05800 31.31600
H  25.99200 49.43900 32.81000
H  24.88500 49.82000 31.53100
H  24.00700 50.54100 33.75100
H  24.38000 52.10300 33.06900
H  31.33000 48.08600 29.06200
H  32.47100 48.87200 27.87800
H  31.95800 47.18600 27.59100
H  33.27600 47.91500 25.63900
H  33.22800 47.10900 24.06500
H  32.39500 46.33500 25.36800
H  26.70300 49.12300 22.00800
H  25.97400 52.04600 21.91700
H  28.84800 49.93000 20.93400
H  28.98900 51.09700 22.22100
H  28.08500 51.50100 20.77900
H  23.53800 50.57000 22.33600
H  24.36300 49.72700 21.05100
H  24.74600 52.30100 20.20700
H  23.16800 52.26800 20.84500
H  23.68900 51.02900 19.56300
H  22.63000 54.53500 25.03800
H  21.71900 54.56000 26.50100
H  21.46300 53.16000 25.52800
H  23.46800 52.47700 31.04900
H  24.92100 56.54600 32.45700
H  25.55900 55.10600 33.13800
H  23.83600 55.54700 33.54700

