158

Mg 52.71800 23.78800 44.17900
C  50.15900 26.08800 43.47200
C  50.80700 21.32500 42.68900
C  55.45800 21.87200 43.99900
C  54.53400 26.42600 45.49700
N  50.75100 23.77900 43.05700
C  49.95000 24.84900 42.89500
C  48.84800 24.36000 41.93100
C  48.80300 22.83500 42.08200
C  50.22700 22.61900 42.64400
C  47.67500 22.29800 43.07400
C  48.94000 24.77300 40.39800
C  50.33900 25.11900 39.87900
H  50.44300 25.95400 38.64600
N  53.07800 21.77200 43.46000
C  52.18400 20.90600 43.01300
C  52.81300 19.58600 42.98400
C  54.18200 19.78900 43.13600
C  54.30500 21.18000 43.60300
C  52.23600 18.22200 42.61000
C  55.28300 18.72700 42.96900
O  54.99000 17.65700 42.55600
C  56.64500 19.11600 43.01800
N  54.74600 24.22500 44.40800
C  55.68500 23.25900 44.30700
C  57.05400 23.70700 44.79700
C  56.73500 25.07800 45.41300
C  55.26900 25.32300 45.12500
C  57.80100 22.76900 45.81400
C  57.40300 26.32900 44.81100
C  57.86500 27.38400 45.78000
N  52.40800 25.85700 44.48400
C  53.21000 26.72600 45.13400
C  52.56400 27.99600 45.22800
C  51.27800 27.79200 44.70900
C  51.26900 26.48300 44.20700
C  53.11100 29.25300 45.82500
C  49.97600 28.37500 44.47000
O  49.59900 29.48300 44.79900
C  49.24300 27.29000 43.54900
C  48.98000 27.87100 42.18500
O  49.85700 28.00600 41.32100
O  47.72100 28.27200 42.09000
C  47.34800 29.12500 40.98600
H  50.20700 20.51900 42.26300
H  56.42300 21.36400 43.92900
H  55.05800 27.16800 46.10300
H  47.85000 24.68900 42.22000
H  48.67300 22.26400 41.16300
H  47.12900 21.50900 42.55700
H  46.92000 23.01100 43.40500
H  48.25600 21.92000 43.91600
H  48.39400 25.69400 40.19200
H  48.55600 23.90300 39.86600
H  50.80700 24.15600 39.67600
H  50.88500 25.55100 40.71800
H  52.38600 17.90700 41.57700
H  51.19900 18.38200 42.90700
H  52.46400 17.40700 43.29700
H  56.86800 19.37000 44.05400
H  56.86000 19.96900 42.37500
H  57.38700 18.37100 42.73000
H  57.69600 23.71900 43.91600
H  56.76800 25.12600 46.50100
H  57.05300 22.05500 46.15800
H  58.26200 23.30500 46.64400
H  58.54000 22.30000 45.16400
H  56.88300 26.80500 43.98000
H  58.28600 25.99800 44.26400
H  58.87300 27.67300 45.48500
H  57.89900 27.03900 46.81400
H  57.25100 28.26800 45.60700
H  52.42800 29.74100 46.52000
H  53.38700 30.06300 45.14900
H  54.04100 29.16500 46.38600
H  48.31600 27.05100 44.07000
H  48.24700 29.69800 40.75700
H  46.57300 29.86500 41.19000
H  47.14000 28.57300 40.06900
Mg 48.14300 35.13600 27.83500
C  46.29600 33.61900 30.52700
C  48.41100 37.85000 29.84000
C  48.97400 36.87600 25.15400
C  47.38600 32.26900 25.87800
N  47.42200 35.63900 29.98200
C  46.95000 34.78000 30.90600
C  47.18000 35.30400 32.26000
C  47.30500 36.86400 31.99700
C  47.80900 36.81100 30.53200
C  46.02200 37.76700 32.08600
C  48.43100 34.73700 33.10700
C  48.15200 34.50200 34.58700
H  47.20300 35.49600 35.31600
N  48.66800 37.08100 27.51600
C  48.83600 38.00600 28.47700
C  49.50800 39.18700 27.96300
C  49.66200 38.93600 26.56600
C  49.12600 37.59100 26.36400
C  49.65800 40.50100 28.72200
C  50.18700 39.84500 25.37300
O  50.17000 39.52900 24.22800
C  50.71400 41.23200 25.75700
N  48.24700 34.61700 25.78700
C  48.56000 35.54800 24.95400
C  48.62000 34.90900 23.49800
C  48.22400 33.41800 23.75100
C  47.97800 33.39700 25.26100
C  47.65500 35.65200 22.47400
C  49.47500 32.45100 23.49100
C  49.32900 31.63100 22.23800
N  47.15600 33.22200 28.15700
C  46.85700 32.21800 27.22000
C  46.02900 31.23700 27.83900
C  45.71600 31.76600 29.11300
C  46.45400 32.99400 29.26800
C  45.59700 29.91600 27.22500
C  44.88500 31.55300 30.28600
O  43.91700 30.83400 30.50100
C  45.21100 32.74600 31.25000
C  45.47800 32.35000 32.61900
O  46.45200 31.63900 32.95400
O  44.61400 32.87800 33.52400
C  44.66000 32.46200 34.95800
H  48.63600 38.69900 30.48900
H  49.32300 37.27900 24.20200
H  47.20800 31.49800 25.12500
H  46.26200 35.17600 32.83400
H  48.05200 37.36100 32.61600
H  45.37300 37.56000 32.93600
H  45.52800 37.54700 31.14000
H  46.23600 38.83400 32.02600
H  49.17600 35.52500 32.99700
H  48.93200 33.86500 32.68600
H  49.09000 34.33800 35.11800
H  47.69900 33.51400 34.50700
H  50.55600 41.05100 28.44300
H  49.83300 40.18800 29.75100
H  48.72300 41.04500 28.58500
H  50.88000 41.73400 24.80400
H  51.67600 41.10100 26.25400
H  50.03700 41.81900 26.37800
H  49.63900 35.06500 23.14200
H  47.32700 32.99300 23.30200
H  48.15900 35.98700 21.56700
H  47.13900 36.49500 22.93500
H  46.95400 34.90300 22.10500
H  49.65400 31.71600 24.27600
H  50.33300 33.10900 23.35200
H  48.47600 31.95600 21.64300
H  49.02600 30.63900 22.57300
H  50.17400 31.66700 21.55100
H  46.35500 29.13300 27.21600
H  45.18700 30.22500 26.26300
H  44.74100 29.58000 27.81200
H  44.21500 33.18600 31.21800
H  43.77100 32.00400 35.39100
H  44.73900 33.31900 35.62700
H  45.60300 31.96700 35.19100

