158

Mg -0.71700 18.08400 27.39000
C  -1.33600 15.80200 30.09500
C  -1.49500 20.57600 29.40500
C  -0.60400 19.96700 24.66900
C  -0.56600 15.14600 25.28500
N  -1.32900 18.19500 29.51400
C  -1.29900 17.16200 30.49700
C  -1.49100 17.70100 31.88700
C  -1.75000 19.21000 31.56700
C  -1.61600 19.31700 30.05700
C  -3.06000 19.79200 32.17400
C  -0.40000 17.41200 33.01300
C  -1.01500 16.90100 34.39500
H  -0.18600 17.25300 35.65600
N  -0.76700 20.04800 27.07200
C  -1.09300 20.95500 28.08300
C  -0.93000 22.30200 27.54300
C  -0.69800 22.14700 26.12300
C  -0.64900 20.70700 25.88500
C  -1.21200 23.57700 28.39700
C  -0.58500 23.17700 25.03800
O  -0.41900 22.94100 23.87800
C  -0.72300 24.62800 25.38000
N  -0.66200 17.61000 25.26600
C  -0.50300 18.63600 24.38400
C  -0.45100 17.97900 22.99000
C  -0.04800 16.57400 23.24400
C  -0.50100 16.43400 24.66000
C  -1.66700 18.29600 22.03100
C  1.57400 16.37600 23.05200
C  2.51000 17.25600 23.92000
N  -0.99200 16.00200 27.52700
C  -0.98400 14.93500 26.60100
C  -1.20800 13.69000 27.15300
C  -1.35100 13.96900 28.47000
C  -1.25700 15.35700 28.72900
C  -1.31600 12.41400 26.35300
C  -1.61700 13.31200 29.75900
O  -1.81300 12.08700 30.03600
C  -1.60300 14.52700 30.83500
C  -0.58500 14.16600 31.90000
O  0.63900 14.18400 31.77700
O  -1.29900 13.62000 32.94400
C  -0.52500 12.91800 34.00100
H  -1.73700 21.44600 30.01900
H  -0.54500 20.67000 23.83600
H  -0.32400 14.30700 24.62800
H  -2.42600 17.29600 32.27300
H  -0.96100 19.79000 32.04600
H  -3.70200 20.16900 31.37800
H  -2.93100 20.71700 32.73600
H  -3.59600 19.04100 32.75300
H  0.19400 18.31600 33.14400
H  0.31500 16.64500 32.71500
H  -1.14300 15.82300 34.49000
H  -1.93100 17.49000 34.44400
H  -1.62000 23.41400 29.39500
H  -1.93900 24.25900 27.95400
H  -0.40400 24.26900 28.63500
H  -0.72800 25.24800 24.48400
H  0.00200 24.99600 26.10700
H  -1.75000 24.66300 25.74500
H  0.34200 18.55600 22.51500
H  -0.67500 15.85500 22.71600
H  -2.02700 17.45100 21.44400
H  -1.12100 18.89200 21.29900
H  -2.47000 18.79100 22.57700
H  1.77800 16.59600 22.00400
H  1.83200 15.32300 23.16800
H  2.97400 16.67900 24.72000
H  2.02700 18.03900 24.50500
H  3.31000 17.65700 23.29700
H  -0.34300 12.01400 26.06800
H  -1.80100 12.60000 25.39500
H  -1.91300 11.65900 26.86500
H  -2.62700 14.53200 31.20900
H  -1.05000 13.25400 34.89600
H  0.53100 13.14900 34.14000
H  -0.68100 11.84200 33.92900
Mg 26.73100 1.09100 28.91500
C  28.70400 0.56800 31.80000
C  23.99200 0.94200 30.92600
C  24.97200 1.30400 26.22400
C  29.61500 0.23400 27.01600
N  26.42000 0.73500 31.09300
C  27.32600 0.75400 32.10600
C  26.76000 0.83700 33.50900
C  25.22400 0.90400 33.13700
C  25.22200 0.75800 31.63100
C  24.23400 -0.06500 33.89600
C  27.22200 2.04900 34.33700
C  26.40800 2.67200 35.49600
H  26.87100 2.07600 36.85200
N  24.72300 1.39600 28.63900
C  23.73200 1.30800 29.57900
C  22.35600 1.39300 28.90400
C  22.69600 1.48300 27.45600
C  24.16600 1.47500 27.39800
C  21.04300 1.29100 29.58700
C  21.76100 1.75400 26.29500
O  22.19700 2.06700 25.15100
C  20.30600 1.72000 26.45700
N  27.22600 0.78800 26.90100
C  26.30800 0.97200 25.97100
C  26.82500 0.85900 24.52100
C  28.30500 0.52400 24.79400
C  28.45200 0.60600 26.29900
C  26.14900 -0.20200 23.60400
C  29.30700 1.51500 24.03300
C  29.99800 2.62100 24.69900
N  28.71700 0.46200 29.24900
C  29.78600 0.10700 28.41400
C  30.92700 -0.29000 29.18800
C  30.58000 0.01500 30.47700
C  29.19200 0.38700 30.46000
C  32.26900 -0.74400 28.68400
C  31.16600 -0.01500 31.85400
O  32.31700 -0.17700 32.29700
C  29.88600 0.29200 32.76200
C  29.60200 -0.78800 33.65300
O  29.22500 -1.91400 33.30600
O  29.80400 -0.40600 34.92600
C  29.49900 -1.40100 35.95000
H  23.09700 0.95800 31.55100
H  24.29000 1.24700 25.37300
H  30.49700 -0.02700 26.42700
H  27.04200 0.02900 34.18300
H  24.83600 1.85100 33.51200
H  24.22800 -1.04300 33.41500
H  23.22500 0.34600 33.91000
H  24.63100 -0.23400 34.89700
H  27.33100 2.92700 33.70100
H  28.23500 1.80900 34.66200
H  25.38900 2.29000 35.43500
H  26.42600 3.76200 35.47700
H  20.53700 2.24500 29.43600
H  21.21200 1.14000 30.65400
H  20.47700 0.42000 29.26000
H  19.88100 1.83400 25.46000
H  20.00900 2.39600 27.25900
H  20.10900 0.71300 26.82300
H  26.78800 1.86100 24.09400
H  28.58000 -0.50100 24.54200
H  26.76300 -1.09200 23.46600
H  25.94700 0.13200 22.58600
H  25.30000 -0.53500 24.20100
H  28.81200 1.86600 23.12800
H  30.14500 0.86400 23.78500
H  29.99000 3.46100 24.00400
H  31.00100 2.35300 25.03200
H  29.38100 3.10100 25.45800
H  32.64600 0.12900 28.15100
H  32.30300 -1.52000 27.92000
H  32.97100 -1.03000 29.46800
H  30.05400 1.23500 33.28100
H  30.09200 -2.28700 35.72100
H  28.46600 -1.73200 36.06100
H  29.85900 -1.05600 36.91900

