158

Mg 47.10100 34.70200 28.45100
C  45.59100 32.87100 31.00200
C  47.54700 37.29700 30.51500
C  47.90900 36.57400 25.79100
C  46.30200 31.99000 26.21600
N  46.80300 34.95700 30.59700
C  46.17900 34.09500 31.45000
C  46.20500 34.68800 32.83800
C  46.39700 36.22900 32.54300
C  47.04200 36.15000 31.14500
C  45.15800 37.20800 32.67400
C  47.47600 34.10500 33.53000
C  47.76000 34.64300 34.98500
H  46.69000 35.54000 35.65300
N  47.81000 36.67300 28.23500
C  47.98500 37.56200 29.20200
C  48.54300 38.80700 28.64900
C  48.63900 38.60200 27.22300
C  48.06700 37.22900 27.01000
C  48.86500 39.88700 29.63300
C  49.17700 39.50500 26.14800
O  49.40600 39.13300 25.00500
C  49.65200 40.85100 26.59100
N  47.06400 34.33400 26.34700
C  47.46700 35.27900 25.44100
C  47.25000 34.75400 23.94600
C  47.13900 33.24400 24.16800
C  46.75100 33.16800 25.69400
C  45.94300 35.55000 23.32400
C  48.42600 32.34400 23.82600
C  48.17200 31.21100 22.71900
N  46.12200 32.81100 28.56200
C  45.87600 31.85600 27.59100
C  45.12000 30.74100 28.17600
C  44.96500 31.10400 29.52400
C  45.58800 32.36500 29.69500
C  44.64200 29.46500 27.42100
C  44.44500 30.71400 30.79100
O  43.94700 29.62900 31.15900
C  44.55500 31.98100 31.76100
C  44.81100 31.57200 33.19600
O  45.79100 31.06000 33.64200
O  43.62600 31.80000 33.91700
C  43.57900 31.54600 35.37200
H  47.55800 38.14200 31.20600
H  48.06100 37.20900 24.91600
H  45.94400 31.18900 25.56600
H  45.28400 34.51100 33.39500
H  47.10200 36.64200 33.26400
H  44.27700 36.59100 32.85100
H  45.02900 37.86100 31.81100
H  45.36100 37.70000 33.62500
H  48.39700 34.42700 33.04400
H  47.48000 33.01700 33.58300
H  48.73600 35.12800 35.02100
H  47.80900 33.74500 35.60100
H  49.83800 40.23800 29.29200
H  49.18200 39.44900 30.57900
H  48.12400 40.64500 29.88800
H  48.84200 41.23500 27.21200
H  49.78200 41.47300 25.70600
H  50.56700 40.92000 27.17900
H  48.10800 35.01300 23.32700
H  46.34600 32.88000 23.51500
H  45.67300 36.39400 23.95900
H  45.13700 34.82100 23.40900
H  46.13400 35.77700 22.27500
H  48.65500 31.74500 24.70700
H  49.28100 33.01400 23.73100
H  47.24700 31.28500 22.14700
H  48.28000 30.23900 23.20000
H  49.06400 31.35500 22.10900
H  43.56900 29.33200 27.28800
H  45.00000 28.60400 27.98400
H  45.05200 29.48700 26.41100
H  43.54700 32.37900 31.64400
H  42.67900 30.96800 35.58700
H  43.54100 32.52600 35.84700
H  44.49000 31.00900 35.63600
Mg 41.20700 40.73800 27.53600
C  40.25600 43.30900 29.76600
C  41.88700 38.75400 30.22800
C  42.14000 38.39400 25.37000
C  40.82800 43.11300 24.92200
N  41.04000 40.97300 29.65000
C  40.48700 42.06100 30.34900
C  40.69200 41.86900 31.83400
C  41.10600 40.36000 31.95000
C  41.48500 40.02500 30.55300
C  42.22900 39.98600 32.91300
C  39.29800 42.12300 32.59300
C  39.34800 43.13300 33.74200
H  38.49400 42.79100 35.00400
N  41.89400 38.75600 27.77600
C  42.06900 38.10400 29.00600
C  42.49500 36.74900 28.69800
C  42.53700 36.68000 27.27000
C  42.19200 37.96100 26.71900
C  42.58000 35.74400 29.75600
C  42.73300 35.41400 26.46300
O  42.67200 35.42600 25.25900
C  43.18600 34.16000 27.17800
N  41.49300 40.75900 25.48100
C  41.91400 39.66500 24.81400
C  42.02700 39.90300 23.26000
C  41.46500 41.37000 23.18000
C  41.18300 41.77800 24.60000
C  43.43500 39.48700 22.71000
C  40.24200 41.67500 22.25400
C  38.91100 40.97400 22.70700
N  40.51800 42.74900 27.30100
C  40.59800 43.54500 26.23800
C  40.20000 44.83600 26.59300
C  40.06500 44.75900 27.99100
C  40.31100 43.49800 28.38100
C  39.84100 46.03700 25.72900
C  39.74000 45.57000 29.16700
O  39.32700 46.70100 29.21900
C  40.02100 44.70200 30.41300
C  41.29700 45.15000 31.09300
O  42.41400 45.11600 30.63300
O  40.88300 45.65600 32.28700
C  41.88000 46.17600 33.16400
H  42.25200 38.09300 31.01700
H  42.43400 37.71300 24.56800
H  40.64200 43.87000 24.15800
H  41.54100 42.49300 32.11400
H  40.23500 39.76800 32.23100
H  43.10900 39.84100 32.28700
H  42.08500 39.16100 33.61100
H  42.32300 40.85700 33.56200
H  38.93300 41.13200 32.86300
H  38.59300 42.55900 31.88500
H  38.95200 44.07000 33.35100
H  40.41900 43.20800 33.93100
H  42.24400 34.78100 29.37200
H  42.08300 36.03400 30.68200
H  43.61200 35.65700 30.09600
H  43.98400 34.38700 27.88500
H  43.52000 33.51200 26.36800
H  42.24100 33.70700 27.47800
H  41.30900 39.26500 22.74500
H  42.33900 41.93100 22.84900
H  44.08000 39.19300 23.53800
H  44.02700 40.21400 22.15500
H  43.42800 38.62900 22.03700
H  40.50000 41.35600 21.24400
H  39.95800 42.72600 22.20400
H  38.23300 41.61300 23.27300
H  39.12300 40.13600 23.37000
H  38.46200 40.58000 21.79600
H  39.58100 45.64400 24.74600
H  40.73900 46.63700 25.58300
H  39.05700 46.67400 26.13800
H  39.11900 44.72900 31.02300
H  41.62100 47.21000 33.39200
H  42.85300 46.10400 32.67800
H  42.12800 45.59100 34.04900

