158

Mg 16.10000 52.16500 25.86800
C  17.95700 51.01100 28.73100
C  13.44900 52.85900 28.10000
C  14.41900 53.01500 23.15100
C  18.75700 50.85000 23.90600
N  15.75000 51.88500 28.18900
C  16.71800 51.57500 29.11400
C  16.30300 51.89400 30.48800
C  14.69800 52.07600 30.30600
C  14.62800 52.29300 28.83100
C  13.75700 50.87900 30.75400
C  16.93000 53.21200 30.96400
C  16.94700 53.24500 32.52700
H  16.18100 52.22000 33.36200
N  14.16600 52.84400 25.63800
C  13.26700 53.07900 26.67800
C  12.14700 53.71200 26.10000
C  12.39600 53.88700 24.67900
C  13.67400 53.27100 24.41200
C  10.98000 54.23800 26.94700
C  11.60900 54.63600 23.64600
O  11.92600 54.73100 22.46900
C  10.28500 55.26800 24.04400
N  16.55300 52.07500 23.85800
C  15.62700 52.46400 22.89800
C  16.27800 52.22600 21.44000
C  17.65300 51.67400 21.80700
C  17.69600 51.55100 23.27800
C  15.41600 51.33700 20.53100
C  18.81300 52.52500 21.27200
C  18.94500 52.39300 19.74100
N  17.99700 51.21600 26.18500
C  18.88900 50.65100 25.31300
C  20.05400 50.05500 26.01300
C  19.73700 50.24800 27.34100
C  18.43300 50.83000 27.42800
C  21.34200 49.45800 25.39200
C  20.10200 50.01000 28.68900
O  21.04900 49.32800 29.13000
C  19.00000 50.52700 29.66900
C  18.53700 49.48100 30.64200
O  17.52800 48.84500 30.59200
O  19.33300 49.41700 31.76000
C  19.04800 48.41900 32.90000
H  12.57600 53.08200 28.71800
H  14.00600 53.36500 22.20300
H  19.56200 50.33000 23.38200
H  16.32900 51.04000 31.16600
H  14.29200 52.94900 30.81700
H  12.89500 50.76900 30.09600
H  13.26800 51.24600 31.65700
H  14.37400 49.98100 30.78500
H  16.30800 54.03800 30.62100
H  17.97600 53.27300 30.66300
H  16.67400 54.25700 32.82600
H  17.98200 53.11100 32.84200
H  10.01700 54.17400 26.44000
H  11.19500 55.24100 27.31500
H  10.91400 53.72800 27.90700
H  10.04200 55.95000 23.22900
H  10.42500 55.87300 24.94000
H  9.47100 54.57600 24.26000
H  16.51400 53.17200 20.95300
H  17.63600 50.67400 21.37500
H  15.55800 51.71200 19.51800
H  14.38500 51.34600 20.88600
H  15.67100 50.28100 20.43900
H  19.61100 51.97600 21.77100
H  18.62000 53.52300 21.66500
H  18.08400 51.80900 19.41700
H  19.80700 51.84700 19.35700
H  19.06700 53.34300 19.21900
H  21.20200 48.37700 25.37700
H  22.13400 49.64400 26.11800
H  21.44800 49.87600 24.39100
H  19.49200 51.28400 30.28100
H  19.67300 47.54800 32.70400
H  18.07400 47.95200 33.04500
H  19.40800 48.86100 33.82900
Mg -2.15700 34.57200 26.15000
C  -3.32300 32.93200 29.00700
C  -0.75000 36.99400 28.17200
C  -1.46600 36.40400 23.36400
C  -3.95900 32.26200 24.20400
N  -1.96700 34.88900 28.38500
C  -2.48900 34.02700 29.33600
C  -2.14200 34.50900 30.75300
C  -1.43000 35.91800 30.48700
C  -1.43100 35.99400 28.90400
C  -2.15400 37.07300 31.16700
C  -1.30200 33.38900 31.64200
C  -1.83100 33.06000 33.03600
H  -0.84100 33.00200 34.24700
N  -1.19600 36.40700 25.79600
C  -0.63300 37.20200 26.75500
C  0.05000 38.33800 26.06600
C  -0.27200 38.26400 24.69300
C  -1.02100 36.99300 24.55300
C  0.79200 39.53700 26.83000
C  -0.00100 39.26300 23.57700
O  -0.25100 39.13400 22.39300
C  0.70500 40.54900 23.79200
N  -2.67000 34.33600 24.08900
C  -2.17900 35.22000 23.20400
C  -2.50400 34.68400 21.74500
C  -3.32500 33.39300 21.96900
C  -3.27300 33.28500 23.50200
C  -3.37600 35.66200 20.91000
C  -2.76100 32.13100 21.21900
C  -1.34900 31.67800 21.60100
N  -3.32700 32.97800 26.48600
C  -4.03900 32.18700 25.62500
C  -4.78800 31.18800 26.33700
C  -4.55000 31.47200 27.71200
C  -3.67300 32.55600 27.74900
C  -5.79700 30.28400 25.78800
C  -4.82700 31.05800 29.09000
O  -5.60400 30.20400 29.51100
C  -4.01700 31.91200 29.99400
C  -4.94300 32.54600 31.04300
O  -5.53600 33.60400 30.93700
O  -4.91400 31.76500 32.21700
C  -5.81500 32.35500 33.24300
H  -0.15500 37.65800 28.80300
H  -1.23400 36.88900 22.41400
H  -4.36400 31.54700 23.48500
H  -3.14700 34.58300 31.17000
H  -0.38300 35.86600 30.78400
H  -1.47400 37.85500 31.50600
H  -2.71200 36.69700 32.02500
H  -2.85000 37.46200 30.42400
H  -0.27200 33.72800 31.75800
H  -1.09100 32.43400 31.16000
H  -2.33700 32.09600 32.98500
H  -2.58500 33.83100 33.19000
H  0.80500 39.37000 27.90700
H  0.34300 40.52800 26.76900
H  1.80800 39.40200 26.45800
H  0.09600 41.16100 24.45700
H  0.74200 41.20100 22.91900
H  1.72900 40.43100 24.14800
H  -1.57800 34.29800 21.31900
H  -4.34500 33.54400 21.61700
H  -3.25400 36.68700 21.25800
H  -4.45500 35.51400 20.96900
H  -3.18000 35.56000 19.84300
H  -2.71900 32.60900 20.24000
H  -3.47700 31.30900 21.23000
H  -1.31200 30.59000 21.65900
H  -0.95200 32.05800 22.54200
H  -0.66300 31.88700 20.77900
H  -6.46800 30.01500 26.60400
H  -5.33100 29.39400 25.36700
H  -6.36000 30.84400 25.04100
H  -3.29500 31.22600 30.43700
H  -6.83400 32.51900 32.89100
H  -5.42900 33.27800 33.67700
H  -5.92100 31.63200 34.05200

