158

Mg 52.91700 23.44600 44.91200
C  50.64700 25.57000 43.50700
C  51.34300 20.78700 43.39900
C  55.59600 21.37100 45.48200
C  54.76700 26.21300 45.81200
N  51.28300 23.31300 43.53400
C  50.41900 24.24300 43.15800
C  49.21600 23.70900 42.41700
C  49.30500 22.22500 42.65800
C  50.76000 22.03200 43.23900
C  48.19900 21.73600 43.65600
C  49.10500 23.99500 40.88300
C  50.46700 24.33300 40.22500
H  51.62100 23.30200 40.15400
N  53.37500 21.30400 44.53300
C  52.50300 20.36300 44.04400
C  53.19500 19.06600 44.11200
C  54.43000 19.20200 44.78700
C  54.50900 20.64400 45.01900
C  52.61200 17.84600 43.58000
C  55.42400 18.05900 45.06700
O  55.11300 16.90500 44.81700
C  56.80600 18.21500 45.69600
N  54.93300 23.73100 45.30300
C  55.86100 22.73700 45.52600
C  57.16500 23.31100 46.09000
C  56.87700 24.84100 46.11400
C  55.43300 25.00800 45.75300
C  57.74400 22.83100 47.39400
C  57.77500 25.71500 45.11100
C  57.41600 25.80600 43.64500
N  52.71800 25.42100 44.90800
C  53.46800 26.42600 45.43400
C  52.68700 27.64000 45.46400
C  51.60300 27.34700 44.69800
C  51.66600 26.04400 44.30200
C  53.04900 28.95800 46.19200
C  50.39000 27.95200 44.17100
O  49.86500 29.02000 44.34900
C  49.80600 26.80700 43.29200
C  49.69100 27.38100 41.91700
O  50.62000 28.02600 41.45100
O  48.46900 27.21500 41.31800
C  48.42400 27.78900 39.90400
H  50.78400 19.97700 42.92500
H  56.32600 20.60900 45.76100
H  55.22200 27.13600 46.17700
H  48.33200 24.13200 42.89400
H  49.22500 21.60200 41.76700
H  47.97100 22.37900 44.50600
H  48.47400 20.72600 43.95900
H  47.21600 21.60400 43.20400
H  48.32900 24.72600 40.65700
H  48.80700 23.13800 40.28000
H  50.97000 25.14200 40.75400
H  50.21400 24.85300 39.30100
H  53.42700 17.29500 43.11100
H  51.93800 18.18000 42.79100
H  52.11300 17.29500 44.37700
H  57.35000 17.27700 45.79900
H  56.87000 18.81700 46.60300
H  57.38900 18.66900 44.89400
H  57.86800 23.15700 45.27100
H  56.94800 25.27100 47.11300
H  57.76400 21.74100 47.40400
H  57.23500 23.21500 48.27800
H  58.82900 22.92800 47.43900
H  58.76500 25.25900 45.10100
H  57.76600 26.74400 45.47000
H  58.33600 26.12500 43.15600
H  56.56200 26.42000 43.36000
H  57.14400 24.80200 43.32000
H  53.61800 28.75700 47.09900
H  52.10500 29.50000 46.26100
H  53.61700 29.55400 45.47900
H  48.81400 26.66600 43.72200
H  49.19400 28.43400 39.48200
H  47.48300 28.32700 40.01800
H  48.08000 26.98700 39.25000
Mg -11.35500 37.40800 42.64900
C  -9.20900 34.76900 41.72600
C  -9.00300 39.66600 41.29600
C  -13.59500 39.79300 42.95500
C  -13.75500 34.99200 43.44900
N  -9.50800 37.26200 41.57000
C  -8.85300 36.05200 41.27000
C  -7.53600 36.27700 40.38100
C  -7.26800 37.83000 40.63000
C  -8.70700 38.33000 41.20400
C  -6.11300 38.14500 41.60500
C  -7.68200 35.83200 38.88100
C  -6.75200 34.68300 38.37800
H  -5.91100 35.01200 37.11900
N  -11.21600 39.48300 42.35800
C  -10.21600 40.17700 41.79200
C  -10.58900 41.60600 41.71700
C  -11.91600 41.70000 42.11400
C  -12.33100 40.29700 42.50300
C  -9.68000 42.65100 41.24700
C  -12.68100 43.02200 41.95500
O  -12.12800 44.07800 41.63100
C  -14.18300 42.99500 42.18100
N  -13.38600 37.39400 43.21300
C  -14.06000 38.54800 43.36400
C  -15.53200 38.33400 43.91200
C  -15.61700 36.78000 43.98900
C  -14.20300 36.33100 43.52700
C  -15.93600 39.06300 45.20100
C  -16.69500 36.05600 43.17500
C  -17.47900 34.90900 43.90300
N  -11.47100 35.30800 42.63800
C  -12.45800 34.49900 43.05500
C  -11.97600 33.14700 43.10400
C  -10.65000 33.24100 42.63400
C  -10.43200 34.57400 42.22800
C  -12.72300 31.86300 43.65000
C  -9.45400 32.45800 42.33100
O  -9.20700 31.25300 42.51100
C  -8.45900 33.37900 41.66100
C  -7.14300 33.28100 42.38000
O  -6.21900 32.69400 41.85000
O  -7.12500 33.92900 43.60000
C  -5.81800 34.13000 44.16000
H  -8.22600 40.42400 41.18200
H  -14.25900 40.63300 43.16900
H  -14.49900 34.28300 43.82000
H  -6.68900 35.67600 40.71100
H  -7.05000 38.28700 39.66500
H  -5.29100 38.46200 40.96400
H  -5.85900 37.25600 42.18200
H  -6.35200 38.98200 42.26100
H  -7.53500 36.63400 38.15800
H  -8.68900 35.46900 38.67600
H  -7.26900 33.72500 38.32300
H  -6.08100 34.46900 39.21000
H  -8.60700 42.54900 41.08600
H  -9.70700 43.54500 41.87100
H  -10.17100 42.83400 40.29100
H  -14.71200 43.80600 41.67900
H  -14.45600 42.92300 43.23300
H  -14.66400 42.10500 41.77600
H  -16.20400 38.79900 43.19000
H  -15.68300 36.55900 45.05400
H  -14.97900 39.33000 45.65000
H  -16.54200 38.40600 45.82500
H  -16.42800 40.02100 45.03200
H  -16.29000 35.78600 42.20000
H  -17.44300 36.80500 42.91400
H  -18.51700 35.23200 43.98500
H  -16.98700 34.68400 44.84900
H  -17.32600 33.99300 43.33200
H  -12.50200 31.54000 44.66700
H  -12.41100 31.10400 42.93200
H  -13.79600 32.04800 43.58600
H  -8.28400 33.01600 40.64800
H  -5.13500 33.36900 43.78300
H  -5.86600 34.09400 45.24800
H  -5.39100 35.12100 44.00000

