158

Mg 6.60500 53.81100 40.79600
C  6.66600 50.19000 40.71300
C  9.72900 53.65000 39.58600
C  6.26700 57.02800 39.82700
C  3.29300 53.60800 41.53300
N  7.95100 52.05300 40.06900
C  7.85700 50.69600 40.22000
C  9.18500 50.03500 39.86100
C  10.05000 51.19000 39.78200
C  9.20700 52.41900 39.79700
C  11.14900 51.37000 40.96100
C  9.28200 49.14700 38.60500
C  8.94800 49.72900 37.16500
H  7.85700 49.08000 36.47300
N  7.84400 55.21200 39.93200
C  9.12100 54.92700 39.54300
C  9.79700 56.12400 39.19100
C  8.86300 57.18300 39.34800
C  7.54900 56.48600 39.66200
C  11.22800 56.06800 38.76800
C  9.11000 58.71700 39.09700
O  10.24400 59.07500 38.73200
C  8.09300 59.73600 39.37500
N  4.87600 55.15500 40.55500
C  5.02300 56.50100 40.29200
C  3.78100 57.28800 40.75400
C  2.90100 56.19200 41.38600
C  3.72100 54.90800 41.22600
C  4.18300 58.50900 41.71500
C  1.54100 56.14600 40.73300
C  0.29700 56.02600 41.65100
N  5.29500 52.29600 41.30700
C  3.99300 52.36900 41.58200
C  3.40600 51.08100 41.94400
C  4.47900 50.19900 41.66200
C  5.63400 50.99300 41.21900
C  1.95100 50.78500 42.16600
C  4.84600 48.83100 41.47800
O  4.18000 47.80800 41.61200
C  6.28900 48.73600 41.04300
C  6.28400 47.85400 39.83500
O  5.87300 48.20300 38.76200
O  6.68000 46.63400 40.19300
C  6.69000 45.59100 39.09400
H  10.81100 53.65800 39.43700
H  5.99700 58.05200 39.56100
H  2.23700 53.59500 41.81200
H  9.44400 49.39800 40.70600
H  10.64900 51.22900 38.87300
H  11.14100 52.37800 41.37400
H  12.13000 51.22900 40.50700
H  10.98000 50.66900 41.77800
H  8.59900 48.31100 38.75600
H  10.26500 48.67700 38.64200
H  9.83200 49.87200 36.54400
H  8.58100 50.70100 37.49500
H  11.48000 56.83600 38.03700
H  11.39200 55.09900 38.29800
H  11.84700 56.18500 39.65700
H  7.35600 59.78200 38.57200
H  8.63500 60.67700 39.28400
H  7.53800 59.75000 40.31300
H  3.36200 57.68000 39.82700
H  2.80700 56.41500 42.44900
H  3.67500 58.46600 42.67800
H  3.84400 59.42200 41.22400
H  5.25400 58.65100 41.85900
H  1.55000 55.25100 40.11100
H  1.38800 56.94100 40.00300
H  -0.17800 57.00300 41.74400
H  0.50500 55.60200 42.63400
H  -0.46100 55.42100 41.15500
H  1.49500 51.60300 41.60800
H  1.69400 50.90600 43.21800
H  1.51500 49.86000 41.79100
H  6.98700 48.50500 41.84800
H  7.42900 44.87100 39.44500
H  6.79600 46.04700 38.10900
H  5.75300 45.03200 39.09100
Mg 1.15800 43.39800 26.97000
C  3.74600 43.09200 29.25400
C  -1.21700 43.00200 29.35200
C  -1.13000 42.94100 24.49100
C  3.70300 43.45500 24.35800
N  1.25700 42.89300 29.07700
C  2.37400 43.06100 29.76800
C  2.02400 43.11900 31.25500
C  0.49700 42.86200 31.32400
C  0.13100 42.98800 29.83500
C  0.06800 41.52400 31.83100
C  2.41400 44.50500 31.91100
C  2.02300 44.59000 33.38300
H  1.66300 43.27400 34.14300
N  -0.90900 42.95800 26.90500
C  -1.70400 42.97100 28.00600
C  -3.08300 42.70900 27.55300
C  -3.11800 42.61700 26.13900
C  -1.67200 42.82900 25.78500
C  -4.24200 42.55300 28.53500
C  -4.27500 42.35000 25.20000
O  -4.12100 42.24700 24.00800
C  -5.65800 42.09000 25.71600
N  1.29400 43.25700 24.75000
C  0.18000 43.08600 23.97000
C  0.47300 43.17300 22.50000
C  2.01300 43.44800 22.44400
C  2.40600 43.42300 23.90900
C  -0.04000 42.06400 21.59400
C  2.51200 44.80800 21.81600
C  1.96800 46.11100 22.47100
N  3.27800 43.31500 26.84200
C  4.16300 43.34700 25.68000
C  5.53000 43.28200 26.21600
C  5.40900 43.20800 27.61900
C  4.06500 43.22700 27.92900
C  6.75900 43.45100 25.45400
C  6.16500 43.14600 28.80100
O  7.37400 43.14500 28.90100
C  5.04800 43.16000 29.94900
C  5.32900 42.01600 30.95500
O  4.99600 40.86500 30.68700
O  5.60700 42.49900 32.27600
C  5.51500 41.50100 33.27700
H  -1.99700 43.11700 30.10700
H  -1.89900 42.87000 23.71900
H  4.40800 43.51100 23.52600
H  2.54000 42.22500 31.60300
H  -0.00100 43.68000 31.84500
H  -0.53400 40.98300 31.10200
H  -0.65500 41.48300 32.64600
H  0.95300 40.92000 32.02800
H  1.67200 45.10400 31.38300
H  3.41700 44.89000 31.72700
H  1.20400 45.30700 33.43500
H  2.96700 44.75900 33.90100
H  -3.85300 42.45600 29.54800
H  -4.51400 41.51400 28.34900
H  -5.12800 43.16000 28.35000
H  -5.97700 42.94500 26.31400
H  -5.67600 41.15800 26.28000
H  -6.27100 41.88500 24.83800
H  -0.08400 44.02200 22.10400
H  2.59300 42.61800 22.04000
H  -0.58100 41.33400 22.19600
H  0.75600 41.70000 20.94400
H  -0.74600 42.50900 20.89300
H  2.23100 44.76800 20.76400
H  3.59500 44.79500 21.69500
H  1.36700 46.59800 21.70400
H  2.81500 46.75200 22.71900
H  1.37100 45.89500 23.35800
H  6.68800 44.34000 24.82700
H  7.13700 42.63700 24.83500
H  7.49900 43.69300 26.21700
H  5.26100 44.11500 30.43000
H  4.50100 41.10300 33.23800
H  5.75900 41.94000 34.24500
H  6.11600 40.60300 33.13300

