158

Mg 16.39000 -2.29100 27.67000
C  15.33600 -0.13500 30.28100
C  18.53700 -3.80100 29.81100
C  17.82700 -3.63800 25.07700
C  14.58700 -0.08000 25.52700
N  16.78000 -2.03300 29.87900
C  16.21500 -1.18000 30.69200
C  16.66900 -1.41500 32.14100
C  17.74800 -2.49300 32.00400
C  17.66100 -2.83700 30.50200
C  19.16200 -2.19000 32.46500
C  15.52900 -1.82500 33.10300
C  15.49600 -0.88100 34.37900
H  16.84900 -0.36700 35.05800
N  17.90100 -3.69300 27.46300
C  18.62500 -4.22600 28.46600
C  19.52900 -5.31600 27.92700
C  19.32300 -5.33400 26.46300
C  18.28400 -4.22400 26.23800
C  20.42700 -6.19800 28.75100
C  19.86900 -6.14400 25.32100
O  19.55500 -5.94800 24.14800
C  20.73900 -7.35100 25.77900
N  16.10400 -2.02900 25.56600
C  16.93400 -2.65400 24.72400
C  16.93900 -2.01200 23.31500
C  15.80100 -1.02300 23.44300
C  15.43500 -1.04700 24.90900
C  18.30300 -1.32800 22.90600
C  14.51300 -1.12300 22.54100
C  14.14900 0.01500 21.55700
N  15.06800 -0.52000 27.81500
C  14.33600 0.15200 26.82900
C  13.56400 1.19200 27.44400
C  14.01400 1.16600 28.79400
C  14.91200 0.10600 28.96000
C  12.51700 2.04500 26.82200
C  13.75900 1.75100 30.10300
O  12.92100 2.54300 30.48500
C  14.71700 0.96100 31.10600
C  15.72800 1.92700 31.59300
O  16.56300 2.51500 30.89400
O  15.44900 2.32900 32.89900
C  16.22400 3.50600 33.31200
H  19.30300 -4.17700 30.49300
H  18.31100 -4.14200 24.23800
H  13.99200 0.44300 24.77500
H  17.09600 -0.47000 32.47700
H  17.35600 -3.42600 32.40900
H  19.98400 -2.04900 31.76400
H  19.28700 -2.96000 33.22700
H  19.18900 -1.25500 33.02500
H  15.60700 -2.87300 33.39200
H  14.54300 -1.66500 32.66700
H  14.91200 -1.43000 35.11700
H  14.80200 -0.07200 34.15400
H  20.07200 -7.22600 28.82700
H  20.61400 -5.78500 29.74200
H  21.40300 -6.15400 28.26800
H  20.15300 -7.86200 26.54300
H  21.61500 -6.77500 26.07800
H  20.93200 -7.92700 24.87400
H  16.65900 -2.73700 22.55000
H  16.20000 -0.00900 23.40800
H  18.94400 -1.54500 23.76100
H  18.27400 -0.24200 22.80800
H  18.68000 -1.90400 22.06100
H  13.55700 -1.26200 23.04600
H  14.62100 -2.01000 21.91700
H  13.84100 -0.41100 20.60100
H  15.12400 0.47400 21.39300
H  13.47500 0.76800 21.96400
H  12.07800 2.83200 27.43600
H  11.66400 1.42400 26.54800
H  12.89800 2.58900 25.95800
H  14.19900 0.42900 31.90400
H  16.14200 4.39400 32.68500
H  17.28400 3.25500 33.34200
H  15.89100 3.86700 34.28500
Mg 48.77400 35.79700 27.98600
C  46.64500 34.39800 30.17500
C  49.17500 38.49200 30.00000
C  50.47300 37.39500 25.45200
C  48.22200 33.10300 25.72100
N  48.01700 36.28300 29.92400
C  47.19100 35.54600 30.67000
C  47.24900 36.02600 32.12900
C  47.54200 37.61400 31.81300
C  48.33900 37.49100 30.46200
C  46.28900 38.54100 31.64700
C  48.22700 35.18500 33.08300
C  49.49900 35.92500 33.56200
H  49.45000 36.47700 35.00000
N  49.59200 37.66300 27.70200
C  49.74200 38.60700 28.69100
C  50.50900 39.71100 28.21800
C  50.82100 39.50600 26.85000
C  50.27100 38.11600 26.59000
C  50.83400 40.96500 29.07600
C  51.55500 40.38600 25.84800
O  51.71500 40.06000 24.71400
C  52.11000 41.65300 26.35400
N  49.37700 35.27600 25.90200
C  49.99700 36.15900 25.14000
C  50.34700 35.48100 23.77200
C  49.63800 34.09300 23.90300
C  48.99300 34.09700 25.26600
C  49.83700 36.42900 22.60200
C  50.62400 32.93400 23.54100
C  50.83200 32.79100 22.01800
N  47.70700 34.09000 27.91600
C  47.60300 33.03100 26.98200
C  46.80100 31.95800 27.53200
C  46.28300 32.52200 28.70700
C  46.92100 33.77100 28.89300
C  46.57700 30.56500 26.99700
C  45.47400 32.19300 29.83000
O  44.89700 31.13900 30.10000
C  45.58500 33.45000 30.81500
C  45.90900 32.77500 32.07700
O  46.96800 32.21100 32.35900
O  44.84300 32.88100 32.93800
C  45.20700 32.87700 34.37500
H  49.42500 39.30700 30.68200
H  51.16900 37.76600 24.69600
H  47.89900 32.30300 25.05100
H  46.26800 35.84400 32.56900
H  48.14800 38.01300 32.62700
H  46.36900 39.32900 32.39700
H  45.38600 37.94000 31.74900
H  46.25000 38.96200 30.64200
H  48.53000 34.21500 32.68800
H  47.65700 35.01700 33.99700
H  49.91100 36.62600 32.83600
H  50.29700 35.20600 33.74700
H  51.88200 40.98700 29.37600
H  50.21500 41.16800 29.95000
H  50.55300 41.82700 28.47200
H  51.37400 42.44800 26.48300
H  52.74900 41.96200 25.52600
H  52.85800 41.70900 27.14400
H  51.43500 35.49600 23.70600
H  48.80200 34.04200 23.20500
H  49.05700 35.97500 21.99100
H  50.72700 36.48700 21.97500
H  49.42500 37.34300 23.02900
H  50.21600 32.05100 24.03200
H  51.56500 33.22700 24.00800
H  50.42300 33.60700 21.42200
H  50.57600 31.82100 21.59200
H  51.92200 32.79300 22.00800
H  47.13200 30.39700 26.07400
H  45.50800 30.46400 26.81300
H  46.87500 29.78600 27.70000
H  44.63500 33.98000 30.88600
H  46.22300 33.22600 34.55500
H  44.99000 31.92100 34.85200
H  44.62600 33.70100 34.78700

