158

Mg 17.70600 -1.51300 26.84900
C  16.48100 0.50500 29.31300
C  19.61500 -3.31900 29.17900
C  18.99100 -3.21800 24.31700
C  16.21200 0.73600 24.30100
N  18.16400 -1.28700 28.90300
C  17.35700 -0.53800 29.76700
C  17.72000 -0.75300 31.20900
C  18.75700 -1.82200 31.12700
C  18.90300 -2.20400 29.68400
C  20.16500 -1.52000 31.73300
C  16.55000 -1.07500 32.06500
C  16.50900 -0.39100 33.52800
H  17.88700 0.12500 34.17200
N  18.98200 -3.18400 26.73500
C  19.70300 -3.79400 27.79600
C  20.42500 -4.91500 27.21500
C  20.15300 -4.93300 25.80200
C  19.24900 -3.80900 25.59600
C  21.27100 -5.80400 28.14000
C  20.67100 -5.88400 24.70700
O  20.44500 -5.75600 23.49200
C  21.61500 -6.98500 25.06700
N  17.39500 -1.40500 24.52800
C  18.20400 -2.17900 23.77600
C  18.21300 -1.77200 22.23200
C  17.31500 -0.55100 22.30800
C  16.88200 -0.36700 23.79200
C  19.66700 -1.49900 21.69900
C  16.14000 -0.57100 21.27700
C  14.70800 -0.94300 21.69400
N  16.51400 0.23600 26.74900
C  15.99400 1.00100 25.71700
C  15.22800 2.10300 26.30500
C  15.46400 1.99700 27.71700
C  16.16800 0.81100 27.96800
C  14.41300 3.13100 25.58600
C  15.28700 2.60800 28.95600
O  14.80300 3.64000 29.35300
C  15.82100 1.64300 30.08000
C  16.80600 2.52200 30.73900
O  17.90700 2.80300 30.31700
O  16.28600 2.95800 31.99000
C  17.14900 3.70700 32.86500
H  20.21300 -3.83200 29.93500
H  19.58800 -3.70600 23.54400
H  15.87900 1.43600 23.53200
H  18.12600 0.18400 31.59000
H  18.39200 -2.72300 31.61900
H  20.27100 -0.48300 32.05000
H  21.00200 -1.78900 31.08900
H  20.34500 -2.22700 32.54400
H  16.34300 -2.13400 32.21800
H  15.72400 -0.64600 31.49800
H  16.23700 -1.16800 34.24200
H  15.69300 0.33100 33.54600
H  21.55600 -5.22800 29.02000
H  22.14500 -6.20700 27.62800
H  20.64600 -6.64200 28.44800
H  21.21200 -7.80800 25.65700
H  22.41500 -6.58400 25.69000
H  21.90200 -7.41800 24.10900
H  17.55600 -2.48300 21.73200
H  17.88500 0.32200 21.98900
H  20.42300 -1.61900 22.47400
H  19.74800 -0.44900 21.41700
H  19.83500 -2.22000 20.89900
H  16.50800 -1.09300 20.39400
H  15.94500 0.43700 20.91100
H  14.36300 -0.15900 22.37000
H  14.66500 -1.88300 22.24400
H  14.19500 -1.02800 20.73600
H  14.00300 2.71700 24.66500
H  15.06200 3.93400 25.23500
H  13.64300 3.52200 26.25000
H  15.11700 1.26300 30.82000
H  18.19400 3.64800 32.56200
H  16.98000 3.36500 33.88500
H  16.94800 4.77400 32.76400
Mg 47.41100 15.81500 28.31200
C  45.46600 15.21200 31.11000
C  49.57700 17.67300 30.10200
C  49.03100 16.74500 25.39400
C  44.85900 14.44500 26.37300
N  47.46200 16.38200 30.34500
C  46.62200 16.00900 31.35300
C  47.08700 16.55900 32.76500
C  48.26700 17.51900 32.27400
C  48.42300 17.26000 30.76200
C  48.10900 19.05500 32.57600
C  47.72000 15.31800 33.68400
C  47.67600 15.53400 35.22900
H  47.26400 16.88800 35.74000
N  49.17100 17.02400 27.88600
C  49.94800 17.66700 28.77800
C  51.09400 18.30300 28.11400
C  50.88200 18.02700 26.73900
C  49.66700 17.23300 26.59100
C  52.26500 18.93500 28.84400
C  51.76100 18.43800 25.58200
O  51.53300 18.13500 24.40300
C  52.95200 19.34500 25.86100
N  47.02200 15.55800 26.25600
C  47.81700 16.04100 25.22500
C  47.24700 15.76000 23.87100
C  45.92400 15.00900 24.20500
C  45.90700 15.04100 25.76000
C  47.01100 16.97600 22.88000
C  45.97600 13.58000 23.59200
C  46.57300 12.44300 24.46600
N  45.63400 14.86100 28.64000
C  44.63900 14.31600 27.75100
C  43.50300 13.77000 28.47400
C  43.83000 14.10000 29.81200
C  45.08400 14.75100 29.84800
C  42.22400 13.01700 27.89300
C  43.36900 14.03000 31.13900
O  42.26300 13.60600 31.57400
C  44.44000 14.69600 32.09100
C  43.67400 15.82600 32.64600
O  43.20200 16.77200 32.02300
O  43.47500 15.55100 33.94700
C  42.71800 16.57700 34.74700
H  50.18000 18.33700 30.72500
H  49.48900 16.93300 24.42000
H  44.01400 14.05000 25.80600
H  46.25900 17.08400 33.24100
H  49.19800 17.29100 32.79300
H  47.21000 19.02500 33.19200
H  47.94300 19.61400 31.65500
H  48.93600 19.54800 33.08600
H  48.80200 15.22300 33.59100
H  47.28900 14.36500 33.37900
H  48.67500 15.48100 35.66100
H  47.04500 14.78300 35.70400
H  52.16700 18.77000 29.91700
H  52.15900 20.01300 28.72000
H  53.23500 18.50600 28.59400
H  53.74600 18.68100 26.20500
H  52.68800 20.19900 26.48400
H  53.23400 19.71200 24.87400
H  48.07700 15.20100 23.43900
H  45.02100 15.57100 23.96500
H  45.97100 17.06500 22.56800
H  47.72400 16.82700 22.06900
H  47.32300 17.87500 23.41200
H  46.55500 13.55700 22.66800
H  45.00300 13.16000 23.33600
H  45.81900 12.01000 25.12400
H  47.42400 12.88900 24.98000
H  46.88700 11.59600 23.85600
H  42.45300 12.72300 26.86800
H  41.46000 13.79000 27.81600
H  41.94600 12.18900 28.54500
H  44.83200 13.98900 32.82200
H  42.78900 17.61000 34.40600
H  43.04400 16.51100 35.78500
H  41.66600 16.29400 34.75800

