158

Mg -11.91800 16.52700 42.58700
C  -8.58300 15.26400 42.06100
C  -10.94800 19.34900 40.89600
C  -15.05300 17.56100 42.90500
C  -12.70600 13.44800 43.89100
N  -9.99200 17.19500 41.48500
C  -8.75500 16.55100 41.42800
C  -7.76800 17.44800 40.56900
C  -8.67300 18.68700 40.20800
C  -9.91500 18.42900 41.03700
C  -7.96400 20.07600 40.33100
C  -7.25000 16.63300 39.33300
C  -5.74200 16.47700 39.20100
H  -5.08500 17.10000 37.96900
N  -12.91900 18.21100 41.87500
C  -12.36200 19.30300 41.29000
C  -13.31900 20.33700 41.15000
C  -14.47700 19.94000 41.83300
C  -14.24100 18.51900 42.15000
C  -12.99300 21.67100 40.51000
C  -15.73600 20.77000 42.02600
O  -15.86400 21.92400 41.54700
C  -16.88200 20.24400 42.75300
N  -13.68800 15.53400 43.02200
C  -14.80400 16.26800 43.31100
C  -15.77200 15.44400 44.14900
C  -15.01100 14.09400 44.42100
C  -13.68600 14.34300 43.69500
C  -16.36100 16.12300 45.41600
C  -15.76600 12.74300 43.89000
C  -15.61200 11.56800 44.87500
N  -10.88000 14.76800 43.05800
C  -11.33600 13.57400 43.60500
C  -10.25600 12.67500 43.93100
C  -9.10100 13.27200 43.28900
C  -9.58800 14.52400 42.74900
C  -10.40300 11.35600 44.56000
C  -7.65400 13.15700 42.92500
O  -6.82800 12.26700 43.17400
C  -7.25600 14.43600 42.11700
C  -6.18400 15.07000 42.89100
O  -6.31300 15.40800 44.02000
O  -4.94600 14.96800 42.27800
C  -3.67600 15.17200 43.02400
H  -10.77700 20.34900 40.49200
H  -16.09400 17.87800 42.99500
H  -13.07700 12.51000 44.30900
H  -6.96400 17.77000 41.23200
H  -8.90800 18.49900 39.16100
H  -8.24300 20.56300 41.26500
H  -8.23800 20.68600 39.47100
H  -6.88500 19.92000 40.31500
H  -7.72200 16.89500 38.38600
H  -7.58100 15.60400 39.46800
H  -5.44800 15.42800 39.18400
H  -5.31100 16.95100 40.08300
H  -13.82500 22.37300 40.56000
H  -12.80600 21.63000 39.43700
H  -12.13000 22.18500 40.93100
H  -17.64200 20.99500 42.97200
H  -16.61300 19.89100 43.74800
H  -17.32800 19.44000 42.16700
H  -16.56500 15.16500 43.45500
H  -14.86000 14.05700 45.49900
H  -16.13200 17.18200 45.29800
H  -16.03400 15.64900 46.34200
H  -17.44600 16.07600 45.50400
H  -15.21400 12.45400 42.99500
H  -16.81600 12.91800 43.65900
H  -16.53400 11.05600 45.15200
H  -15.27700 11.94200 45.84200
H  -15.01800 10.69300 44.61100
H  -10.36600 11.61100 45.61900
H  -9.61000 10.63500 44.36400
H  -11.36800 10.91400 44.31200
H  -6.97400 14.15600 41.10200
H  -2.90600 14.41300 42.88500
H  -3.93000 14.99400 44.06900
H  -3.23600 16.16800 42.97200
Mg -5.89500 24.90800 25.98000
C  -4.35000 26.32000 28.84400
C  -7.76200 22.93400 28.13300
C  -6.95500 23.36100 23.20000
C  -3.62700 26.66600 23.97900
N  -5.78500 24.49000 28.20900
C  -5.24000 25.28400 29.20100
C  -5.76000 24.85200 30.60900
C  -6.69600 23.60700 30.27600
C  -6.79800 23.72400 28.77400
C  -6.08000 22.14900 30.80400
C  -6.50800 26.05700 31.27900
C  -6.39100 26.17900 32.79400
H  -5.92500 24.95600 33.53600
N  -7.38600 23.56600 25.65700
C  -8.03100 22.85800 26.66700
C  -9.08200 22.07100 26.09200
C  -8.78400 22.03800 24.66500
C  -7.66200 22.97700 24.45600
C  -10.15700 21.50400 26.91100
C  -9.46300 21.30200 23.54100
O  -9.19800 21.49000 22.30100
C  -10.70800 20.41000 23.80600
N  -5.25700 24.82300 23.92300
C  -5.86600 24.21200 22.94300
C  -5.41000 24.59900 21.58600
C  -4.49600 25.81000 21.78000
C  -4.47900 25.76700 23.32900
C  -4.73300 23.41800 20.78400
C  -5.09100 27.09100 21.13200
C  -4.25700 27.57900 19.96600
N  -4.33900 26.27200 26.27500
C  -3.56800 26.89300 25.35100
C  -2.69600 27.84700 26.01500
C  -2.90600 27.57100 27.36800
C  -3.94500 26.61600 27.50300
C  -1.70900 28.87400 25.37000
C  -2.45400 27.86800 28.70000
O  -1.47900 28.49000 29.04700
C  -3.42500 27.12100 29.74200
C  -2.55200 26.37300 30.67100
O  -2.08800 25.27500 30.42500
O  -2.43700 26.97100 31.84700
C  -1.76500 26.21100 32.93400
H  -8.47900 22.43900 28.79100
H  -7.48100 22.97600 22.32400
H  -2.90300 27.10600 23.29000
H  -4.90100 24.50800 31.18500
H  -7.63700 23.64400 30.82500
H  -6.86600 21.75800 31.45000
H  -5.23900 22.21700 31.49400
H  -6.02800 21.46600 29.95600
H  -7.53000 25.99900 30.90400
H  -6.12700 26.96700 30.81500
H  -7.38400 26.42300 33.17300
H  -5.75600 27.05000 32.95400
H  -10.45500 22.19600 27.69900
H  -10.01200 20.57100 27.45400
H  -11.03200 21.25500 26.30900
H  -10.40500 19.62500 24.49900
H  -11.08400 20.05700 22.84600
H  -11.46000 20.97800 24.35300
H  -6.37600 24.83100 21.13700
H  -3.47400 25.61500 21.45400
H  -3.81900 23.64100 20.23400
H  -5.47900 23.06800 20.07000
H  -4.42400 22.60500 21.44200
H  -5.24200 27.81800 21.93000
H  -6.08900 26.95400 20.71600
H  -3.60600 26.76800 19.63800
H  -3.62600 28.40400 20.29600
H  -4.92900 27.88600 19.16500
H  -2.02700 29.87500 25.66000
H  -1.71300 28.68600 24.29600
H  -0.69600 28.64200 25.69800
H  -3.91900 27.89700 30.32700
H  -0.69200 26.30100 32.76600
H  -2.06400 25.18200 33.13300
H  -2.11400 26.67400 33.85700

