158

Mg 1.74600 -2.84000 44.17700
C  5.06500 -1.83200 43.42400
C  0.67700 -0.42100 42.11300
C  -1.27600 -4.15700 44.58200
C  3.17600 -5.69500 45.76900
N  2.85300 -1.40700 42.77900
C  4.15500 -1.13800 42.63800
C  4.42200 0.00600 41.65400
C  3.02400 0.71400 41.72500
C  2.09500 -0.40800 42.23500
C  2.99900 1.98300 42.64800
C  4.76300 -0.52800 40.23000
C  6.04500 0.02300 39.56900
H  5.71500 0.83700 38.28800
N  -0.12600 -2.37700 43.51800
C  -0.37100 -1.29900 42.64000
C  -1.78800 -1.09000 42.45500
C  -2.36000 -2.20800 43.13400
C  -1.22800 -2.96200 43.84400
C  -2.42900 0.06900 41.68400
C  -3.84900 -2.54800 42.99500
O  -4.57600 -1.75400 42.39000
C  -4.41100 -3.73200 43.72700
N  1.03800 -4.62000 45.12900
C  -0.31600 -4.92800 45.18300
C  -0.55000 -6.29200 45.86400
C  0.87400 -6.77200 46.18300
C  1.79200 -5.68000 45.62800
C  -1.50200 -6.16800 47.06700
C  1.27000 -8.16000 45.55500
C  0.90600 -9.34800 46.45600
N  3.62500 -3.56400 44.71200
C  4.07100 -4.74700 45.35500
C  5.56600 -4.79200 45.36000
C  5.94300 -3.62700 44.67400
C  4.75600 -2.92000 44.31200
C  6.47200 -5.82100 45.94000
C  7.11900 -2.92400 44.22000
O  8.30200 -3.08500 44.45500
C  6.57400 -1.76700 43.28600
C  7.11400 -0.44500 43.77900
O  7.64500 0.41100 43.14500
O  6.90500 -0.44900 45.15300
C  7.46400 0.78500 45.80500
H  0.29000 0.40000 41.50600
H  -2.26200 -4.59700 44.73900
H  3.74800 -6.52900 46.18000
H  5.30300 0.54400 42.00400
H  2.74400 0.99000 40.70800
H  4.00700 2.04000 43.05900
H  2.25300 1.78600 43.41800
H  2.77800 2.82500 41.99300
H  3.97400 -0.28500 39.51700
H  4.74900 -1.60800 40.37200
H  6.59500 -0.83500 39.18300
H  6.75100 0.45700 40.27700
H  -2.21400 -0.07700 40.62500
H  -1.85200 0.94900 41.96700
H  -3.47900 0.28300 41.87900
H  -4.20100 -3.58100 44.78600
H  -3.88000 -4.65700 43.50100
H  -5.49800 -3.78000 43.66000
H  -0.98600 -7.01700 45.17600
H  0.98400 -6.87900 47.26200
H  -2.11300 -5.27500 46.93500
H  -0.92900 -6.14400 47.99500
H  -2.07900 -7.08900 46.98700
H  2.34500 -8.28400 45.43000
H  0.78700 -8.22800 44.58000
H  1.82700 -9.91100 46.60200
H  0.18400 -9.97500 45.93200
H  0.46100 -8.94000 47.36400
H  5.95100 -6.52100 46.59300
H  7.31000 -5.36400 46.46500
H  6.85000 -6.39900 45.09600
H  6.90100 -1.89600 42.25400
H  7.85800 0.44800 46.76400
H  6.74200 1.54800 46.09400
H  8.20400 1.31400 45.20500
Mg 0.41500 7.57400 25.75100
C  1.23000 9.72600 28.51200
C  0.92200 4.88800 27.71800
C  -0.28100 5.78100 23.03000
C  0.74100 10.56500 23.65300
N  1.06800 7.35000 27.91100
C  1.18200 8.39200 28.83300
C  1.25000 7.74300 30.24600
C  1.38300 6.17500 29.95300
C  1.02000 6.11900 28.47500
C  2.72400 5.52200 30.34900
C  -0.08500 8.15400 31.08600
C  0.06700 8.16800 32.56000
H  1.33000 7.54400 33.20000
N  0.29800 5.69600 25.40600
C  0.61800 4.71800 26.35700
C  0.34700 3.42400 25.83200
C  -0.05400 3.56400 24.47300
C  -0.09100 5.04500 24.20200
C  0.62100 2.13700 26.61800
C  -0.39900 2.53800 23.38500
O  -0.67900 2.86600 22.25800
C  -0.29900 1.09500 23.69000
N  0.22400 8.18500 23.67700
C  -0.12800 7.16500 22.78900
C  -0.07600 7.75500 21.32300
C  0.22700 9.28000 21.56600
C  0.38000 9.39200 23.04500
C  1.02100 7.10300 20.41200
C  -0.80100 10.17300 20.88200
C  -2.17900 10.13000 21.50800
N  0.85100 9.68400 25.99200
C  0.94200 10.78600 25.06000
C  1.24600 12.05300 25.76600
C  1.26800 11.63500 27.12100
C  1.10400 10.23100 27.20400
C  1.28900 13.49200 25.23100
C  1.50900 12.17000 28.44300
O  1.76700 13.28300 28.83100
C  1.37100 10.94000 29.42900
C  2.57500 10.97000 30.25000
O  3.69800 10.79500 29.80200
O  2.15100 11.18000 31.61100
C  3.13900 11.11100 32.62100
H  1.00400 4.06900 28.43600
H  -0.52000 5.17400 22.15400
H  0.65300 11.44200 23.00900
H  2.04200 8.10000 30.90500
H  0.62200 5.67400 30.55100
H  3.42300 6.23800 30.78000
H  3.15500 4.95500 29.52400
H  2.55400 4.87500 31.21000
H  -0.80900 7.37100 30.86100
H  -0.49300 9.08800 30.70200
H  -0.81700 7.63900 32.91900
H  0.01900 9.13900 33.05200
H  0.69600 1.14500 26.17400
H  0.03800 2.09700 27.53800
H  1.59100 2.19500 27.11100
H  -0.85600 0.77400 22.80900
H  -0.91800 0.73500 24.51200
H  0.74600 0.78800 23.72300
H  -1.01700 7.54600 20.81500
H  1.24700 9.54300 21.28800
H  0.87900 7.46700 19.39500
H  1.03600 6.01600 20.33700
H  2.02200 7.35200 20.76500
H  -0.94900 9.89000 19.84000
H  -0.48000 11.21300 20.93800
H  -2.87200 10.62000 20.82500
H  -2.15800 10.74800 22.40600
H  -2.45800 9.09700 21.71700
H  1.08400 13.43500 24.16200
H  2.20600 13.94700 25.60700
H  0.40400 13.88900 25.72800
H  0.51000 11.16700 30.05900
H  3.44300 12.15400 32.71000
H  3.94700 10.44300 32.32000
H  2.75300 10.78500 33.58700

