158

Mg 50.18800 34.56200 27.89100
C  48.05200 33.63100 30.54500
C  50.88200 37.38200 29.49700
C  51.95100 35.47500 25.21800
C  48.99000 31.69300 26.21400
N  49.58100 35.33000 29.80100
C  48.81000 34.71300 30.81600
C  49.08700 35.44700 32.13000
C  49.47100 36.92300 31.66400
C  50.09900 36.52600 30.22700
C  48.31900 37.93600 31.56800
C  50.21400 34.76700 32.90700
C  50.27300 34.92100 34.51700
H  49.18000 35.77800 35.24200
N  51.31000 36.17800 27.43000
C  51.49100 37.28800 28.21200
C  52.45800 38.13200 27.55700
C  52.73600 37.58400 26.25800
C  52.03500 36.34500 26.26800
C  52.95400 39.36200 28.29000
C  53.65300 38.06000 25.18900
O  53.86300 37.46800 24.13800
C  54.57400 39.17000 25.50300
N  50.15000 33.82600 25.85200
C  51.10800 34.34600 25.03600
C  51.43300 33.44000 23.87900
C  50.65100 32.08200 24.27300
C  49.83100 32.58700 25.52600
C  51.02700 34.08800 22.54000
C  51.61000 30.92200 24.60000
C  51.13300 29.51100 24.10600
N  48.77600 32.96500 28.18800
C  48.47100 31.86300 27.51100
C  47.58700 30.97700 28.23900
C  47.31500 31.67900 29.38900
C  48.12000 32.84200 29.37900
C  47.08300 29.68400 27.67900
C  46.52900 31.65800 30.61900
O  45.80400 30.83700 31.10500
C  47.01100 32.95800 31.44600
C  47.37400 32.46500 32.79300
O  48.34600 31.78200 32.95000
O  46.41800 32.92800 33.71400
C  46.63400 32.46700 35.06700
H  51.14300 38.20000 30.17100
H  52.75800 35.53700 24.48500
H  48.90500 30.77700 25.62500
H  48.18900 35.47400 32.74800
H  50.13400 37.45600 32.34500
H  47.67000 37.94400 32.44300
H  47.72500 37.58400 30.72500
H  48.68100 38.94900 31.39400
H  51.15700 35.13100 32.49900
H  50.07800 33.68900 32.81900
H  51.29500 35.15600 34.81300
H  50.15000 33.89600 34.86400
H  54.04200 39.36900 28.34500
H  52.54400 39.57600 29.27700
H  52.70100 40.22800 27.67900
H  54.11900 40.06800 25.92300
H  55.19500 39.45000 24.65300
H  55.25500 38.80500 26.27200
H  52.51200 33.29600 23.91900
H  50.02500 31.80600 23.42500
H  50.71900 35.10500 22.78000
H  50.16100 33.59700 22.09500
H  51.94200 34.05600 21.94700
H  51.69100 30.86200 25.68500
H  52.61300 30.91500 24.17300
H  52.02100 28.96900 23.78100
H  50.44600 29.56800 23.26200
H  50.74300 29.07900 25.02800
H  47.41300 29.62800 26.64200
H  45.99600 29.72900 27.73900
H  47.49300 28.83000 28.21800
H  46.11200 33.57100 31.51000
H  47.60300 32.79400 35.44400
H  46.58200 31.37900 35.09700
H  45.82900 32.73100 35.75300
Mg -6.23100 25.40800 25.98300
C  -4.50800 26.68400 28.76900
C  -8.04200 23.52600 28.03200
C  -7.48900 24.03400 23.24100
C  -3.74500 26.94500 23.91200
N  -6.42000 25.34000 28.15300
C  -5.61700 25.85900 29.13000
C  -6.05200 25.37300 30.55000
C  -6.92100 24.13300 30.19200
C  -7.12300 24.34500 28.68200
C  -6.15800 22.73200 30.43000
C  -6.84800 26.52300 31.33600
C  -7.14200 26.24500 32.88700
H  -6.30100 25.13200 33.55000
N  -7.71700 24.08900 25.69100
C  -8.40800 23.43200 26.67400
C  -9.37900 22.56000 26.05400
C  -9.15700 22.66400 24.69500
C  -8.10900 23.65800 24.47800
C  -10.38900 21.67300 26.92100
C  -9.95500 21.97500 23.60500
O  -9.60700 22.04000 22.41200
C  -11.02000 20.95800 23.87300
N  -5.68300 25.53700 23.85800
C  -6.32200 24.68200 22.96500
C  -5.74000 24.84800 21.53500
C  -4.67300 25.95500 21.66700
C  -4.70300 26.21500 23.21500
C  -5.30600 23.49600 20.89400
C  -5.08100 27.28100 20.95000
C  -4.37300 27.54000 19.57300
N  -4.56800 26.61600 26.23400
C  -3.67100 27.10200 25.32100
C  -2.53700 27.77700 26.00900
C  -2.85000 27.66000 27.31600
C  -4.03900 26.91500 27.44400
C  -1.38100 28.49100 25.37100
C  -2.38700 28.01200 28.64500
O  -1.34400 28.54500 28.97300
C  -3.48600 27.47100 29.70100
C  -2.87700 26.59100 30.71400
O  -2.30900 25.56400 30.40900
O  -3.05200 27.05000 32.01600
C  -2.54100 26.19000 33.10400
H  -8.68100 22.88000 28.63700
H  -7.88800 23.65100 22.29900
H  -2.89000 27.40200 23.40800
H  -5.12700 25.07300 31.04200
H  -7.79800 24.15300 30.83900
H  -5.91900 22.12000 29.56000
H  -6.81600 22.10600 31.03200
H  -5.23300 22.90000 30.98200
H  -7.77900 26.60400 30.77600
H  -6.34100 27.48700 31.30800
H  -8.20300 26.06500 33.05600
H  -6.69100 27.10300 33.38600
H  -9.97800 20.66400 26.92200
H  -11.33700 21.50200 26.41100
H  -10.53500 22.08300 27.92000
H  -11.30900 20.51600 22.92000
H  -11.90800 21.45000 24.26900
H  -10.71700 20.24800 24.64300
H  -6.63700 25.21700 21.03800
H  -3.72300 25.54300 21.32700
H  -5.20900 22.79700 21.72500
H  -4.31200 23.56900 20.45200
H  -6.05600 23.14000 20.18800
H  -4.71100 28.15300 21.49000
H  -6.16800 27.32100 20.88000
H  -4.95100 27.53200 18.65000
H  -3.64500 26.74200 19.42500
H  -3.78000 28.45400 19.60600
H  -1.69300 28.86200 24.39500
H  -0.49600 27.88000 25.19400
H  -1.05300 29.35500 25.94900
H  -3.85700 28.35700 30.21700
H  -1.49900 26.50900 33.12200
H  -2.77900 25.16900 32.80600
H  -3.02500 26.40500 34.05600

