158

Mg -1.69300 16.89800 25.82100
C  -2.10100 14.40400 28.34400
C  -2.24800 19.31400 28.18900
C  -1.71700 19.17800 23.30800
C  -1.80400 14.28000 23.50400
N  -2.09500 16.76700 28.09700
C  -2.25300 15.71800 28.92400
C  -2.60600 16.15200 30.33300
C  -2.78200 17.70400 30.17900
C  -2.28400 17.97200 28.77500
C  -4.13600 18.37500 30.63400
C  -1.52600 15.66800 31.43100
C  -1.30100 16.71200 32.55600
H  -1.03200 16.14400 33.99500
N  -1.90100 18.98300 25.78700
C  -2.13300 19.80000 26.85800
C  -2.08500 21.15400 26.39300
C  -1.95500 21.10700 24.97900
C  -1.81100 19.68700 24.63100
C  -2.29900 22.30800 27.35700
C  -1.91100 22.32400 23.97800
O  -1.65700 22.20400 22.81800
C  -2.07900 23.68500 24.48600
N  -1.81000 16.71400 23.73900
C  -1.67900 17.79500 22.90300
C  -1.72600 17.34700 21.40200
C  -1.88300 15.82500 21.52100
C  -1.79300 15.57000 22.99600
C  -2.66600 18.17400 20.49600
C  -0.98000 14.92500 20.54000
C  -1.80400 13.94100 19.65100
N  -1.79500 14.73000 25.90600
C  -1.84900 13.81600 24.84800
C  -2.03200 12.55700 25.37000
C  -2.04000 12.68100 26.75700
C  -1.96500 14.04900 27.00400
C  -2.17000 11.31300 24.54800
C  -2.07500 11.98300 28.01200
O  -2.06100 10.79100 28.27100
C  -2.23000 13.10800 29.12300
C  -1.27600 12.78600 30.15600
O  -0.08600 13.12200 30.16700
O  -1.88400 12.06800 31.15900
C  -1.02200 11.73500 32.29800
H  -2.41800 19.97200 29.04400
H  -1.66100 19.91000 22.50000
H  -1.82800 13.46200 22.78200
H  -3.58500 15.69400 30.47300
H  -2.06200 18.21700 30.81700
H  -4.88100 17.66000 30.98300
H  -4.60200 19.04200 29.90800
H  -3.84700 19.08800 31.40600
H  -0.52700 15.53400 31.01600
H  -1.62500 14.70900 31.93900
H  -2.20800 17.31000 32.64000
H  -0.52000 17.45000 32.36900
H  -3.32400 22.66000 27.24500
H  -1.71100 23.18100 27.07400
H  -2.11000 22.10900 28.41200
H  -2.97500 23.69300 25.10600
H  -2.25000 24.34000 23.63100
H  -1.20600 24.08000 25.00500
H  -0.70600 17.62100 21.13400
H  -2.90500 15.58000 21.23100
H  -3.42500 18.65000 21.11800
H  -3.14300 17.57700 19.72000
H  -2.02200 18.88600 19.97900
H  -0.08700 14.46800 20.96500
H  -0.60900 15.62800 19.79400
H  -1.65500 12.92900 20.02800
H  -1.49600 13.92200 18.60500
H  -2.86100 14.16200 19.50600
H  -1.27600 11.17300 23.94100
H  -3.10300 11.47200 24.00600
H  -2.32000 10.43300 25.17300
H  -3.23400 13.07700 29.54700
H  -1.15100 12.44200 33.11800
H  0.02500 11.56300 32.05000
H  -1.39500 10.80200 32.72200
Mg 43.43700 3.82200 46.88500
C  41.39000 6.73700 46.61300
C  40.69000 1.92600 46.88900
C  45.30300 1.14800 46.10000
C  46.27400 5.83000 46.42500
N  41.35800 4.36100 46.89100
C  40.71300 5.56500 46.76400
C  39.22100 5.47500 46.95700
C  39.00100 3.96300 47.25400
C  40.44900 3.35300 47.02700
C  38.24600 3.54000 48.56500
C  38.34700 5.97200 45.72800
C  38.57600 5.38800 44.31200
H  39.33800 6.28200 43.40200
N  43.04900 1.78500 46.64000
C  41.82900 1.19300 46.62500
C  41.94100 -0.22500 46.34200
C  43.32900 -0.48000 46.10900
C  43.95900 0.83200 46.23900
C  40.71900 -1.20400 46.42700
C  43.93900 -1.80400 45.76000
O  43.23200 -2.78200 45.71300
C  45.35900 -1.97500 45.29100
N  45.60400 3.55300 46.56900
C  46.06500 2.28000 46.32700
C  47.58900 2.30100 46.40000
C  47.91500 3.87400 46.20900
C  46.54400 4.48100 46.39100
C  48.23900 1.55800 47.65700
C  48.67500 4.25900 44.88200
C  50.22300 4.32100 44.95400
N  43.84000 5.87600 46.64000
C  45.03100 6.54100 46.53700
C  44.72500 7.96400 46.54000
C  43.32200 8.04200 46.53500
C  42.85300 6.74800 46.55200
C  45.75500 9.09500 46.66100
C  42.22900 8.96800 46.42800
O  42.26800 10.13900 46.26200
C  40.91900 8.18600 46.51500
C  40.26400 8.58300 47.78300
O  40.45600 8.10900 48.89800
O  39.26900 9.51500 47.45300
C  38.44500 9.86800 48.62500
H  39.74400 1.38700 46.80700
H  45.89300 0.24500 45.93100
H  47.18800 6.38600 46.20600
H  39.00900 5.97600 47.90200
H  38.42700 3.40600 46.51300
H  37.72300 4.38500 49.01300
H  38.87600 3.23000 49.39800
H  37.55000 2.71200 48.42500
H  38.34900 7.04800 45.55300
H  37.27400 5.95000 45.91700
H  37.55200 5.17500 44.00400
H  39.13500 4.45300 44.30900
H  40.45800 -1.48500 45.40600
H  39.85000 -0.69400 46.84200
H  40.88200 -2.05900 47.08300
H  46.04000 -1.81800 46.12700
H  45.57400 -1.41500 44.38100
H  45.50500 -3.01500 44.99600
H  47.85100 1.70400 45.52600
H  48.55600 4.27900 46.99200
H  48.79100 0.69400 47.28700
H  47.59100 1.09200 48.39900
H  48.85300 2.25200 48.23100
H  48.36200 5.24800 44.54700
H  48.38800 3.60300 44.06000
H  50.52700 3.75100 45.83200
H  50.47200 5.38100 44.91000
H  50.63300 3.78900 44.09500
H  46.26600 9.08900 45.69800
H  46.47400 8.84700 47.44200
H  45.17000 9.98000 46.91000
H  40.18800 8.28500 45.71300
H  37.71600 9.06800 48.75300
H  37.95300 10.78600 48.30600
H  38.98200 10.15300 49.53000

