158

Mg 47.53500 15.18800 28.62100
C  45.33000 15.18500 31.33200
C  49.73100 17.03500 30.31200
C  49.26800 15.13500 25.84000
C  45.03400 13.25600 26.81500
N  47.42100 16.17400 30.55200
C  46.55700 15.91200 31.56500
C  46.99400 16.51800 32.87100
C  48.32200 17.22800 32.49700
C  48.50900 16.87800 31.03000
C  48.49200 18.77300 32.73600
C  47.20700 15.50700 33.95300
C  46.86500 16.05600 35.38800
H  46.99600 17.50200 35.69100
N  49.25900 16.00600 28.12600
C  50.05400 16.80400 28.94100
C  51.27700 17.20500 28.19500
C  51.11400 16.66700 26.87700
C  49.86000 15.87400 26.88800
C  52.40400 17.92000 28.90600
C  52.03400 16.94200 25.66700
O  51.80400 16.36300 24.58000
C  53.22400 17.86400 25.81300
N  47.11900 14.40500 26.53600
C  48.09900 14.43800 25.66800
C  47.75500 13.77400 24.33100
C  46.32700 13.17000 24.66800
C  46.11700 13.57800 26.09700
C  47.75400 14.62800 23.03300
C  46.30900 11.66300 24.38500
C  47.11700 10.79300 25.33400
N  45.67200 14.48300 28.91900
C  44.80200 13.81000 28.11500
C  43.61500 13.39400 28.81600
C  43.77200 13.95700 30.07300
C  45.01900 14.59100 30.11400
C  42.39000 12.76200 28.24500
C  43.12300 14.07300 31.35700
O  41.99200 13.68800 31.74000
C  44.16300 14.77200 32.22100
C  43.52600 15.93500 32.76900
O  43.23200 16.94000 32.10700
O  43.13200 15.70000 34.06100
C  42.26600 16.76000 34.61200
H  50.42600 17.68600 30.84700
H  49.89300 15.05000 24.94800
H  44.26100 12.68200 26.30100
H  46.18200 17.18500 33.16100
H  49.15400 16.84700 33.08900
H  48.61900 19.25300 31.76500
H  49.42400 19.10600 33.19200
H  47.64100 19.22600 33.24500
H  48.22800 15.12700 33.99100
H  46.61000 14.66600 33.60200
H  47.63200 15.59200 36.00800
H  45.88500 15.64200 35.62600
H  52.29900 17.82600 29.98700
H  52.40100 18.97700 28.64100
H  53.39500 17.53800 28.66000
H  53.69900 18.17700 24.88300
H  53.89900 17.24600 26.40400
H  52.96500 18.73600 26.41300
H  48.45900 12.94700 24.23900
H  45.55300 13.75300 24.16800
H  48.24800 15.57400 23.25700
H  46.73800 14.88700 22.73600
H  48.20200 13.98900 22.27200
H  46.61200 11.51200 23.34800
H  45.27600 11.33000 24.48900
H  46.32300 10.26100 25.85600
H  47.67200 11.26200 26.14600
H  47.84200 10.24600 24.73100
H  42.33200 13.15500 27.23000
H  41.51600 12.93300 28.87300
H  42.63600 11.70100 28.27900
H  44.48300 14.07000 32.99100
H  41.30900 16.88500 34.10500
H  42.81400 17.69200 34.74500
H  42.04200 16.50500 35.64800
Mg 30.73100 59.43000 38.86200
C  27.74600 57.94500 37.64700
C  32.52500 56.69600 37.84700
C  33.52100 61.25600 39.14700
C  28.77500 62.34400 39.40700
N  30.23100 57.66200 37.75600
C  28.96700 57.10700 37.48200
C  28.98000 55.69500 36.83100
C  30.46500 55.27200 37.19900
C  31.12100 56.61000 37.65400
C  30.62200 54.31000 38.43900
C  28.56300 55.64800 35.31500
C  27.72900 54.50500 34.74000
H  26.53200 54.97800 33.83100
N  32.79000 58.96400 38.58700
C  33.26700 57.80200 38.26000
C  34.68100 57.93600 38.21300
C  35.06500 59.20700 38.75900
C  33.78200 59.85100 38.85800
C  35.54800 56.71400 37.86500
C  36.48500 59.64100 38.94600
O  37.34300 58.84400 38.70000
C  36.92000 61.00300 39.43800
N  31.09800 61.51000 39.21300
C  32.35300 62.02900 39.32500
C  32.41700 63.51600 39.63000
C  30.91000 63.82700 39.69200
C  30.15400 62.49600 39.41800
C  33.33300 63.88500 40.77600
C  30.39300 65.01600 38.90500
C  29.71600 66.10200 39.73700
N  28.68200 60.04100 38.75000
C  28.09500 61.18000 39.04900
C  26.66200 61.14800 38.81600
C  26.46000 59.84700 38.29900
C  27.75200 59.23100 38.22200
C  25.56700 62.24300 38.78700
C  25.48200 58.84800 37.77400
O  24.31500 58.91600 37.45800
C  26.26700 57.60800 37.47900
C  25.81300 56.63400 38.52900
O  25.60400 56.98600 39.67300
O  25.60100 55.32300 38.04200
C  25.21100 54.30100 39.03900
H  32.99600 55.76400 37.52900
H  34.44800 61.73300 39.47200
H  28.10400 63.15500 39.69600
H  28.23700 55.20800 37.46200
H  31.04800 54.84800 36.38100
H  29.66500 53.78700 38.45800
H  30.72800 54.88100 39.36200
H  31.37400 53.52500 38.36800
H  29.45200 55.52200 34.69800
H  28.06800 56.58500 35.06000
H  27.27000 53.86400 35.49300
H  28.43100 53.83800 34.24000
H  34.97700 55.94800 37.33900
H  35.98500 56.33900 38.79000
H  36.28800 56.95400 37.10200
H  37.98200 61.24100 39.36500
H  36.45000 61.17000 40.40700
H  36.50400 61.65300 38.66900
H  32.65700 63.98600 38.67700
H  30.74700 64.04000 40.74800
H  34.15000 64.57300 40.55900
H  33.92000 63.04100 41.13800
H  32.79100 64.28800 41.63100
H  29.64200 64.51400 38.29500
H  31.14500 65.41100 38.22200
H  29.44900 65.66800 40.70100
H  28.79100 66.41700 39.25500
H  30.33400 66.98000 39.92300
H  24.70000 61.70900 39.17600
H  25.32000 62.38400 37.73500
H  25.83200 63.12700 39.36700
H  25.96800 57.13200 36.54500
H  25.98700 54.31700 39.80400
H  25.21100 53.29200 38.62800
H  24.22600 54.45400 39.48000

