158

Mg 40.72000 41.38000 27.83700
C  39.60100 44.12300 29.99600
C  41.32800 39.56100 30.53900
C  41.58000 39.17700 25.73300
C  40.39700 43.93200 25.26500
N  40.49600 41.83600 29.98200
C  39.90400 42.88400 30.63000
C  39.90300 42.61700 32.19900
C  40.55900 41.18800 32.38100
C  40.80200 40.77600 30.86800
C  41.71100 41.13800 33.43000
C  38.49700 42.84100 32.90700
C  38.09700 42.09100 34.21900
H  37.65500 42.83300 35.45900
N  41.29200 39.53800 28.03000
C  41.67300 38.94100 29.27300
C  42.23600 37.59900 29.00800
C  42.35000 37.52200 27.59100
C  41.70100 38.76000 27.07900
C  42.66400 36.63200 30.08700
C  42.97600 36.38500 26.82800
O  43.02900 36.42200 25.63000
C  43.56700 35.22100 27.52400
N  40.93700 41.51600 25.80800
C  41.23500 40.42400 25.12100
C  41.09800 40.65600 23.67600
C  40.54500 42.15000 23.47300
C  40.53600 42.56000 24.94700
C  42.57400 40.46100 23.10900
C  39.11200 42.13100 22.87900
C  38.12100 41.20300 23.48100
N  40.36500 43.61700 27.64000
C  40.23900 44.44900 26.53800
C  39.83800 45.76500 26.91200
C  39.50800 45.67700 28.26200
C  39.81900 44.35400 28.63600
C  39.69700 46.89900 26.03900
C  38.96000 46.44300 29.40900
O  38.50600 47.58200 29.49700
C  38.99300 45.39100 30.60200
C  39.76400 46.03600 31.73100
O  40.97800 46.29700 31.75400
O  38.80800 46.38400 32.68900
C  39.34200 47.00700 33.95700
H  41.47600 38.93800 31.42300
H  41.88000 38.50000 24.93100
H  40.27600 44.59300 24.40500
H  40.65900 43.35900 32.45400
H  39.77100 40.50500 32.69900
H  42.72400 40.93500 33.08200
H  41.55600 40.58300 34.35500
H  41.89000 42.16700 33.74100
H  37.72800 42.63100 32.16400
H  38.34800 43.87800 33.20700
H  39.01700 41.69100 34.64400
H  37.39200 41.32600 33.89200
H  42.58700 37.19700 31.01600
H  43.69000 36.27900 29.98300
H  41.99000 35.78400 30.20800
H  44.42100 35.51200 28.13500
H  44.04000 34.60500 26.75900
H  42.81300 34.64000 28.05500
H  40.45700 39.88600 23.24600
H  41.10700 42.64400 22.68100
H  42.85200 41.41600 22.66400
H  42.49400 39.67000 22.36300
H  43.30200 40.13000 23.85000
H  39.15300 41.87300 21.82100
H  38.70600 43.14000 22.95700
H  38.55300 40.77900 24.38800
H  37.57400 40.57800 22.77400
H  37.35100 41.84000 23.91600
H  38.70300 47.01600 25.60800
H  40.34700 46.94900 25.16500
H  39.81800 47.81400 26.61800
H  37.99200 45.11700 30.93800
H  39.34700 46.30100 34.78800
H  38.63900 47.77700 34.27600
H  40.36000 47.39000 33.88400
Mg 15.64200 51.63300 25.64900
C  17.69500 50.50700 28.23100
C  13.32600 52.49900 27.96600
C  13.56800 52.13500 23.05100
C  18.01000 50.41300 23.34400
N  15.49300 51.41500 27.84800
C  16.53800 51.03500 28.70300
C  16.22700 51.36500 30.20800
C  14.67600 51.91400 30.10300
C  14.50100 51.97700 28.56900
C  13.70400 50.80700 30.68000
C  17.24100 52.39100 30.92900
C  17.43500 52.34000 32.45200
H  16.58500 51.36600 33.23900
N  13.74000 52.30100 25.54400
C  12.93000 52.54400 26.63500
C  11.61100 53.04000 26.05800
C  11.71100 52.75100 24.63700
C  13.06600 52.37900 24.39700
C  10.48300 53.53800 26.90300
C  10.58700 52.81100 23.60400
O  10.62900 52.48100 22.43600
C  9.21800 53.27900 24.15900
N  15.77900 51.31300 23.55200
C  14.77500 51.63200 22.64400
C  15.28900 51.78400 21.17800
C  16.74400 51.28400 21.33400
C  16.84700 50.94400 22.80800
C  14.41900 50.90600 20.20100
C  17.87300 52.36000 20.87600
C  18.78700 51.73800 19.76900
N  17.53500 50.78500 25.68000
C  18.35200 50.31700 24.68100
C  19.59800 49.78500 25.28100
C  19.33400 49.80600 26.69800
C  18.08400 50.43000 26.86000
C  20.83800 49.31900 24.59000
C  19.86700 49.49600 27.99200
O  20.96400 49.03000 28.29200
C  18.82400 49.97900 29.04500
C  18.52200 48.97800 30.07100
O  17.96100 47.92100 29.88700
O  19.13500 49.32600 31.30300
C  19.10000 48.40000 32.37700
H  12.58400 52.86600 28.67800
H  12.92100 52.32400 22.19200
H  18.83300 50.16600 22.67000
H  16.42300 50.44600 30.75900
H  14.58700 52.84000 30.67100
H  13.24700 50.22400 29.88000
H  13.00600 51.36300 31.30600
H  14.39700 50.17500 31.23500
H  16.83400 53.36300 30.65200
H  18.18400 52.33700 30.38500
H  17.35700 53.32400 32.91400
H  18.43900 51.93700 32.58800
H  10.10800 54.49500 26.53800
H  10.83700 53.75000 27.91200
H  9.63300 52.85600 26.92500
H  8.44200 53.45200 23.41400
H  9.33800 54.24100 24.65800
H  8.95600 52.60100 24.97200
H  15.24900 52.86600 21.05500
H  16.89000 50.35100 20.79000
H  13.45600 50.61700 20.62200
H  14.93200 49.96500 20.00300
H  14.12700 51.36300 19.25600
H  18.49200 52.54400 21.75400
H  17.49300 53.35900 20.66500
H  18.62400 52.49100 18.99900
H  18.59700 50.69200 19.52600
H  19.82500 51.64800 20.09100
H  20.99500 49.80700 23.62800
H  20.66200 48.25800 24.41100
H  21.70200 49.61500 25.18400
H  19.33000 50.82600 29.50800
H  18.03700 48.35600 32.61500
H  19.57300 48.77900 33.28300
H  19.47000 47.38700 32.21700

