158

Mg -1.62400 16.66700 26.13000
C  -1.83800 14.50200 28.93000
C  -2.20100 19.31400 28.28500
C  -1.20400 18.75100 23.54700
C  -1.84400 13.97100 24.14400
N  -2.16500 16.87700 28.31700
C  -2.09200 15.89500 29.27100
C  -2.28400 16.55900 30.60100
C  -2.77500 17.93400 30.39700
C  -2.40600 18.05500 28.87500
C  -4.28200 18.11900 30.61700
C  -1.10300 16.44200 31.56800
C  -1.48300 15.76300 32.90000
H  -2.13000 16.53700 34.06000
N  -1.51400 18.82400 25.92100
C  -1.83800 19.64100 26.95500
C  -1.64300 20.98100 26.44000
C  -1.26900 20.87600 25.06200
C  -1.33000 19.45100 24.75100
C  -1.81400 22.25400 27.20600
C  -0.82200 21.97000 24.15800
O  -0.40800 21.64400 23.04200
C  -0.86200 23.44500 24.57500
N  -1.91000 16.40700 24.08600
C  -1.54700 17.36200 23.19500
C  -1.57600 16.86100 21.75900
C  -1.65400 15.33000 22.07400
C  -1.70700 15.19100 23.55800
C  -2.82600 17.23000 20.88800
C  -0.35800 14.58500 21.48400
C  0.74400 14.17800 22.35600
N  -1.83100 14.69300 26.39800
C  -1.87500 13.66700 25.45800
C  -1.93800 12.44000 26.09100
C  -1.88600 12.69800 27.44900
C  -1.77400 14.08600 27.55900
C  -2.00900 11.17400 25.45800
C  -1.82500 12.04400 28.78200
O  -1.71500 10.86200 29.15100
C  -1.95000 13.27400 29.80700
C  -0.99400 13.17800 31.00300
O  0.20000 13.42400 30.91300
O  -1.59700 12.49000 31.99800
C  -0.73000 12.14900 33.09000
H  -2.47500 20.23300 28.80700
H  -1.07100 19.43800 22.70800
H  -1.95200 13.04900 23.56900
H  -3.09900 15.94500 30.98500
H  -2.38200 18.75000 31.00400
H  -4.46000 19.17200 30.83500
H  -4.64900 17.36500 31.31400
H  -4.77200 17.92000 29.66400
H  -0.80600 17.45900 31.82500
H  -0.23200 16.00500 31.07900
H  -0.56400 15.32200 33.28700
H  -2.15100 14.91300 32.76100
H  -2.60600 22.78600 26.67900
H  -0.88300 22.81700 27.26700
H  -2.22800 22.04900 28.19300
H  -1.89900 23.65800 24.83400
H  -0.61600 23.91200 23.62200
H  -0.09300 23.40600 25.34700
H  -0.61900 17.12900 21.31100
H  -2.46500 14.84100 21.53500
H  -2.65200 17.02500 19.83100
H  -3.07200 18.28700 20.98700
H  -3.71700 16.75300 21.29500
H  0.01000 15.24600 20.70000
H  -0.78200 13.77800 20.88500
H  0.60000 14.62400 23.34100
H  1.64100 14.68100 21.99600
H  0.81100 13.09800 22.48900
H  -0.98200 10.83200 25.33500
H  -2.46500 11.07300 24.47300
H  -2.50600 10.43000 26.08100
H  -2.94100 13.20000 30.25500
H  0.24800 11.75200 32.81800
H  -1.17000 11.42000 33.77000
H  -0.57900 13.04200 33.69800
Mg 8.93400 47.30400 25.86900
C  6.95000 47.66800 28.62400
C  11.44300 49.07000 27.38200
C  10.84400 47.51900 22.91600
C  6.08300 46.80400 23.81200
N  9.12200 48.31100 27.69900
C  8.26300 48.12000 28.82700
C  8.93500 48.67900 30.00400
C  10.00400 49.61200 29.40500
C  10.32000 48.89600 28.08100
C  9.53100 51.04700 29.09300
C  9.39800 47.63600 30.99500
C  8.80500 47.84300 32.43200
H  8.86600 46.51800 33.30900
N  11.05800 47.84900 25.29200
C  11.88100 48.53900 26.13400
C  13.22400 48.67500 25.53900
C  13.08600 48.21200 24.22700
C  11.58400 47.83500 24.05400
C  14.35000 49.23900 26.34400
C  14.11400 48.30000 23.01900
O  13.80400 47.98200 21.85400
C  15.50300 48.77700 23.28100
N  8.48000 47.26900 23.67500
C  9.41600 47.37200 22.67800
C  8.71000 47.32700 21.27900
C  7.20100 46.99100 21.63400
C  7.26100 47.01200 23.16300
C  8.85300 48.60100 20.51400
C  6.63300 45.53500 21.11100
C  5.37400 45.61700 20.35600
N  6.94200 47.24400 26.09500
C  5.87100 46.87700 25.24700
C  4.67300 46.73300 26.05900
C  5.01700 47.01500 27.37500
C  6.39400 47.32200 27.35200
C  3.26900 46.39200 25.67100
C  4.50900 47.09200 28.73200
O  3.35300 47.04700 29.10700
C  5.87000 47.30000 29.61500
C  6.20700 46.07800 30.34400
O  7.06000 45.24800 30.06300
O  5.40100 46.03000 31.44800
C  5.78500 45.00900 32.46100
H  12.23200 49.68300 27.82300
H  11.34200 47.49200 21.94400
H  5.21500 46.70400 23.15600
H  8.22000 49.34400 30.48900
H  10.93800 49.68900 29.96100
H  10.18600 51.76100 29.59300
H  8.53900 51.18200 29.52300
H  9.52700 51.33800 28.04300
H  10.47400 47.58500 31.15800
H  9.08100 46.66900 30.60600
H  7.75700 48.14300 32.42400
H  9.41700 48.58900 32.93800
H  14.23400 49.08000 27.41600
H  14.41200 50.27000 25.99600
H  15.19200 48.63800 26.00000
H  15.38500 49.47900 24.10700
H  15.89900 49.13300 22.33000
H  16.22100 47.97000 23.43200
H  9.08900 46.48800 20.69400
H  6.54300 47.83600 21.42600
H  7.90800 49.11400 20.33500
H  9.23500 48.31800 19.53300
H  9.61800 49.31300 20.82400
H  6.57100 44.80400 21.91700
H  7.38700 45.18600 20.40500
H  5.54800 45.55600 19.28200
H  4.90500 46.58600 20.52300
H  4.75100 44.77800 20.66400
H  2.61700 47.25000 25.84100
H  2.93300 45.54800 26.27300
H  3.26800 46.08500 24.62600
H  5.67800 48.15400 30.26500
H  5.27600 44.05400 32.33200
H  5.39400 45.42600 33.38900
H  6.85100 44.81800 32.58300

