158

Mg 8.69400 3.68200 27.24100
C  10.12300 1.98900 29.85100
C  6.94400 5.61800 29.42100
C  7.15300 5.08900 24.63200
C  9.77800 1.15700 25.02200
N  8.52100 3.72000 29.45300
C  9.40700 3.05800 30.30500
C  9.22400 3.58500 31.63300
C  8.05600 4.70800 31.57200
C  7.81500 4.72300 30.05500
C  6.79100 4.29500 32.40500
C  10.56100 4.13200 32.21600
C  11.08500 3.63100 33.56500
H  10.97800 4.69300 34.74300
N  7.36900 5.30000 27.01900
C  6.66700 5.96200 28.06600
C  5.82000 6.96300 27.59400
C  5.95100 6.88500 26.16200
C  6.87700 5.74800 25.85600
C  4.97100 7.85500 28.42800
C  5.37400 7.86400 25.02600
O  5.75600 7.76100 23.85800
C  4.42500 8.98000 25.36900
N  8.41700 3.17300 25.17300
C  7.86900 4.02100 24.32400
C  8.02700 3.47600 22.78000
C  9.07900 2.32900 22.94800
C  9.04900 2.19200 24.44700
C  6.71600 3.03600 22.05200
C  10.48700 2.56000 22.38200
C  11.22200 1.36700 21.83800
N  9.70500 1.87300 27.33100
C  10.17700 0.95400 26.36900
C  11.00500 -0.02200 27.00700
C  11.05100 0.40100 28.40600
C  10.19700 1.51500 28.52500
C  11.80100 -1.11200 26.39900
C  11.62500 0.15300 29.65200
O  12.33600 -0.76400 30.07000
C  10.99700 1.09000 30.64300
C  10.37800 0.24200 31.75400
O  9.50700 -0.58200 31.68800
O  11.03300 0.50100 32.89100
C  10.53300 -0.05500 34.16300
H  6.41200 6.35400 30.02700
H  6.62300 5.50100 23.77100
H  10.10500 0.32400 24.39700
H  8.99500 2.71900 32.25400
H  8.28100 5.72900 31.88000
H  6.02100 3.98900 31.69800
H  6.48500 5.14100 33.02100
H  7.05000 3.42000 33.00100
H  10.39700 5.20900 32.22000
H  11.36500 3.95100 31.50200
H  12.16500 3.54600 33.44200
H  10.61000 2.72200 33.93300
H  5.00000 7.67000 29.50200
H  3.93100 7.76300 28.11400
H  5.37100 8.86400 28.33200
H  3.49000 8.59200 25.77300
H  4.13800 9.53400 24.47600
H  4.99200 9.66700 25.99900
H  8.59700 4.22300 22.22600
H  8.74300 1.39800 22.49100
H  5.87000 3.41300 22.62700
H  6.65300 1.94900 21.99500
H  6.69300 3.42700 21.03500
H  11.17600 2.82400 23.18500
H  10.45500 3.31100 21.59300
H  12.23900 1.34900 22.22800
H  11.34900 1.34300 20.75600
H  10.74700 0.42200 22.10400
H  11.40800 -1.46500 25.44600
H  11.90900 -1.96200 27.07300
H  12.81400 -0.71000 26.37000
H  11.75600 1.67100 31.16700
H  9.62400 0.41200 34.54200
H  11.25700 0.15000 34.95200
H  10.37100 -1.13300 34.13700
Mg 47.29100 24.59700 28.82600
C  48.24100 26.88600 31.22600
C  46.37300 22.50700 31.47000
C  47.05400 22.07100 26.67000
C  48.76400 26.57700 26.46700
N  47.26900 24.71500 31.09600
C  47.76700 25.74800 31.80500
C  47.45400 25.69900 33.25300
C  47.16900 24.15400 33.34300
C  46.83900 23.77400 31.91700
C  48.24300 23.33200 34.10100
C  46.25500 26.63300 33.62500
C  46.33700 27.38800 34.92000
H  46.96100 26.71800 36.27500
N  46.71100 22.66100 29.02700
C  46.28200 22.01200 30.17000
C  45.88700 20.68000 29.87100
C  45.95900 20.57900 28.44000
C  46.59200 21.76300 27.97700
C  45.39900 19.66600 30.84700
C  45.55000 19.38300 27.58000
O  45.62700 19.43200 26.38700
C  45.09200 18.15900 28.13300
N  47.69800 24.37800 26.79000
C  47.56600 23.24300 26.08400
C  47.90800 23.34800 24.61100
C  48.23000 24.88000 24.51900
C  48.32200 25.30000 26.02700
C  49.12400 22.49800 24.28500
C  47.22300 25.56400 23.56900
C  45.78500 25.81800 23.99300
N  48.26400 26.28700 28.75600
C  48.68100 27.12500 27.71300
C  49.21100 28.38400 28.17300
C  49.12400 28.32800 29.58300
C  48.52700 27.03200 29.89700
C  49.95300 29.31400 27.42100
C  49.44700 28.95300 30.83400
O  50.14900 29.88500 30.99600
C  48.78300 28.12000 31.97500
C  49.70400 28.00000 33.09500
O  50.62600 27.17300 33.21400
O  49.32600 28.94000 34.01100
C  49.97900 28.97300 35.32400
H  46.21300 21.82800 32.31100
H  46.83500 21.34200 25.88700
H  49.25100 27.19200 25.70700
H  48.33600 25.98200 33.82800
H  46.29000 24.03900 33.97800
H  48.98600 23.98600 34.55700
H  48.81300 22.82200 33.32400
H  47.82400 22.58500 34.77500
H  45.39700 25.99300 33.83100
H  46.04600 27.25800 32.75700
H  45.27500 27.52700 35.12200
H  46.89000 28.31200 34.75300
H  45.60700 19.96900 31.87300
H  45.90000 18.69900 30.79400
H  44.31000 19.62100 30.83700
H  45.87500 17.82000 28.81100
H  44.98800 17.37900 27.37900
H  44.13100 18.23200 28.64100
H  47.05000 23.09800 23.98700
H  49.24900 24.92600 24.13400
H  48.97300 21.58700 24.86500
H  50.11200 22.87900 24.54300
H  49.06800 22.49100 23.19700
H  47.21000 24.98800 22.64400
H  47.67100 26.48200 23.18900
H  45.76900 26.89900 23.85300
H  45.58700 25.51400 25.02000
H  44.95600 25.47300 23.37500
H  50.69800 28.76500 26.84500
H  50.47200 29.99100 28.09900
H  49.30300 29.89800 26.77000
H  47.86900 28.61700 32.30200
H  49.36700 28.48600 36.08400
H  50.18500 29.96400 35.72800
H  50.93000 28.44500 35.26300

