158

Mg 44.92000 4.60200 47.00500
C  42.71600 7.26900 46.35700
C  42.32800 2.36700 46.44100
C  47.09000 2.07000 47.15400
C  47.64100 6.89100 46.64400
N  42.70000 4.82700 46.45500
C  42.05600 6.00300 46.22000
C  40.58100 5.64500 45.92500
C  40.42600 4.13400 46.32700
C  41.87600 3.73400 46.40400
C  39.62500 3.71200 47.49500
C  40.27000 6.01400 44.41700
C  38.88900 6.78100 44.29200
H  38.91400 8.00900 43.38000
N  44.77100 2.48600 46.81400
C  43.66200 1.78500 46.64000
C  43.91800 0.32700 46.77400
C  45.30000 0.22100 46.79400
C  45.77800 1.63400 47.02400
C  42.84600 -0.81200 46.76200
C  46.00300 -0.97500 46.50300
O  45.35500 -2.03900 46.33500
C  47.50800 -1.08900 46.37500
N  47.08600 4.50000 46.94000
C  47.72500 3.31900 47.15800
C  49.13600 3.59200 47.65000
C  49.36500 5.09600 47.27900
C  47.96000 5.53900 46.90900
C  49.33300 3.45800 49.16400
C  50.16400 5.16100 45.91600
C  51.75600 4.93700 46.00900
N  45.17100 6.64900 46.61700
C  46.32800 7.40800 46.54300
C  46.02300 8.82800 46.41500
C  44.57700 8.79900 46.36300
C  44.13100 7.44700 46.46300
C  47.04800 9.93800 46.20400
C  43.40800 9.57700 46.10200
O  43.35000 10.80200 45.85200
C  42.18700 8.65600 46.13600
C  41.15700 8.98000 47.17700
O  41.17000 8.60000 48.37500
O  40.23000 9.87600 46.61900
C  39.20000 10.34700 47.62100
H  41.47800 1.68600 46.35300
H  47.84000 1.30600 47.36600
H  48.43600 7.63900 46.66000
H  39.90400 6.25200 46.52600
H  40.00400 3.56700 45.49700
H  40.04700 2.85800 48.02600
H  38.61200 3.37700 47.27300
H  39.46400 4.51700 48.21200
H  40.13500 5.10600 43.82900
H  41.00600 6.56900 43.83700
H  38.21700 6.77200 45.15000
H  38.31000 6.06300 43.71100
H  41.89000 -0.46000 47.14800
H  43.07900 -1.64000 47.43300
H  42.72500 -1.22500 45.76100
H  48.03900 -0.90800 47.31000
H  47.79500 -0.36200 45.61600
H  47.72100 -2.10600 46.04900
H  49.80200 2.88200 47.16000
H  49.86800 5.73400 48.00500
H  50.11900 2.72100 49.32600
H  48.44000 3.00800 49.59800
H  49.58600 4.31200 49.79300
H  50.06800 6.18700 45.56000
H  49.71800 4.63500 45.07200
H  51.95500 3.86700 45.94800
H  52.13800 5.37100 46.93300
H  52.21200 5.39100 45.12800
H  47.63000 9.99300 47.12400
H  46.44500 10.84300 46.28200
H  47.66400 9.82200 45.31200
H  41.69800 8.65700 45.16200
H  38.75300 11.21100 47.12900
H  39.46800 10.73700 48.60300
H  38.46700 9.54900 47.74300
Mg 31.60400 58.50100 40.73000
C  28.48500 57.44700 39.20100
C  32.98300 55.77800 39.05500
C  34.54300 59.92100 40.95700
C  30.04200 61.37000 41.66800
N  30.72400 56.84300 39.27700
C  29.47800 56.58600 38.84200
C  29.38900 55.28400 38.04700
C  30.73600 54.51600 38.44400
C  31.57200 55.74900 39.01200
C  30.63100 53.36300 39.51600
C  29.15200 55.47000 36.56400
C  27.93000 54.75100 35.93400
H  27.83800 54.85300 34.38600
N  33.55700 57.89200 40.22600
C  33.88200 56.79700 39.43400
C  35.26100 56.76300 39.15700
C  35.77100 57.98900 39.65000
C  34.61000 58.70500 40.32900
C  35.95700 55.70700 38.40800
C  37.19200 58.47900 39.60000
O  38.08400 57.84500 39.05800
C  37.52800 59.71600 40.22300
N  32.23500 60.41800 41.38500
C  33.53800 60.74900 41.47200
C  33.73900 62.09400 42.15700
C  32.18500 62.51300 42.36000
C  31.39500 61.40300 41.80500
C  34.52900 62.04700 43.44700
C  31.86300 63.90900 41.75200
C  31.26900 64.85700 42.69200
N  29.60100 59.24700 40.57400
C  29.17100 60.45000 41.04900
C  27.78900 60.56600 40.86800
C  27.37700 59.34800 40.20700
C  28.61400 58.65700 39.93000
C  27.02100 61.73600 41.13500
C  26.32300 58.55300 39.58300
O  25.06800 58.65000 39.53500
C  27.01000 57.33500 38.85600
C  26.33100 56.05300 39.26400
O  26.66700 55.35800 40.22900
O  25.58000 55.59500 38.25300
C  25.21900 54.18800 38.31400
H  33.44200 54.94600 38.51700
H  35.46200 60.48700 41.12600
H  29.54000 62.21900 42.13700
H  28.49400 54.73400 38.33900
H  31.14900 54.20200 37.48500
H  31.24600 52.46700 39.42800
H  29.61400 52.97100 39.48400
H  30.77800 53.67500 40.55000
H  30.01800 55.06800 36.03800
H  29.10700 56.52000 36.27600
H  26.99400 55.15500 36.31800
H  28.08300 53.69800 36.17000
H  35.24300 55.33100 37.67500
H  36.34300 54.90500 39.03700
H  36.66200 55.98600 37.62500
H  36.98300 60.54700 39.77500
H  38.54200 60.05800 40.01800
H  37.42200 59.64200 41.30500
H  34.02400 62.70200 41.29800
H  31.93100 62.41000 43.41500
H  34.92400 61.04200 43.59900
H  33.92700 62.30900 44.31700
H  35.34500 62.76900 43.42700
H  31.19100 63.81500 40.89800
H  32.83300 64.25600 41.39400
H  30.32200 65.17800 42.25800
H  31.93500 65.71700 42.76800
H  31.13200 64.30500 43.62100
H  26.69300 61.82400 42.17000
H  26.10400 61.72200 40.54600
H  27.55400 62.62600 40.79900
H  26.79900 57.45900 37.79300
H  25.93400 53.46400 37.92400
H  24.30400 54.06900 37.73400
H  24.96000 53.80600 39.30200

