158

Mg 9.14600 2.62300 27.65100
C  10.58700 1.17600 30.68900
C  7.19200 4.47900 29.67200
C  7.93900 3.95500 24.83400
C  10.63800 0.06700 25.83700
N  8.94900 2.79300 29.85200
C  9.76100 2.29500 30.87100
C  9.44600 2.92600 32.17700
C  8.17500 3.74700 31.92700
C  7.98000 3.63000 30.38400
C  6.88200 3.24000 32.63900
C  10.75400 3.72900 32.63000
C  10.95300 3.90300 34.12900
H  9.84100 3.45800 35.09800
N  7.81800 4.11900 27.35100
C  7.09600 4.77000 28.23600
C  6.39100 5.87700 27.57900
C  6.50300 5.67100 26.15800
C  7.47900 4.52700 26.03500
C  5.56900 6.89500 28.32400
C  5.92900 6.44100 24.99400
O  6.34200 6.34700 23.85400
C  4.91200 7.43500 25.36000
N  9.25400 2.11300 25.61500
C  8.67700 2.80300 24.63800
C  9.01000 2.26000 23.22000
C  9.93500 1.02600 23.57100
C  10.05300 1.09500 25.15100
C  7.83700 1.87300 22.28300
C  11.38900 0.87700 22.92200
C  11.57800 1.42100 21.54300
N  10.27500 0.89800 28.13100
C  10.78000 -0.04500 27.26300
C  11.58000 -0.98400 28.03700
C  11.56200 -0.55800 29.37500
C  10.73500 0.59700 29.38900
C  12.36600 -2.06000 27.44100
C  12.14700 -0.76300 30.72800
O  12.85000 -1.62000 31.11600
C  11.63800 0.39900 31.60500
C  11.10900 -0.14300 32.90300
O  10.05000 -0.77200 33.04900
O  12.04000 0.04300 33.88700
C  11.74400 -0.48600 35.21500
H  6.73400 5.21600 30.33600
H  7.61800 4.44100 23.91000
H  11.03500 -0.76500 25.25300
H  9.18700 2.09400 32.83100
H  8.29400 4.78600 32.23300
H  6.56300 4.02500 33.32400
H  7.00700 2.38100 33.29900
H  6.17800 2.90400 31.87800
H  10.71400 4.72500 32.19000
H  11.67400 3.26500 32.27400
H  10.99400 4.98200 34.27800
H  11.93100 3.55300 34.45900
H  5.57900 7.88000 27.85800
H  5.87000 6.99300 29.36700
H  4.52600 6.61600 28.46900
H  5.27100 8.40500 25.70200
H  4.19100 7.19400 26.14100
H  4.29700 7.47700 24.46100
H  9.63200 3.03100 22.76500
H  9.49200 0.04000 23.43400
H  6.96000 1.72200 22.91100
H  8.00600 1.02200 21.62300
H  7.68100 2.67300 21.55800
H  11.51800 -0.20100 23.01300
H  12.01400 1.35500 23.67700
H  12.55400 1.90400 21.53100
H  10.82500 2.15000 21.24400
H  11.65000 0.56200 20.87500
H  12.45100 -1.98900 26.35700
H  11.89600 -2.94500 27.87000
H  13.37300 -1.95300 27.84400
H  12.51600 1.03000 31.74800
H  10.88000 -1.14900 35.26700
H  11.48600 0.24400 35.98300
H  12.65700 -1.02400 35.46800
Mg -1.32600 34.20900 27.67000
C  -2.94400 32.66100 30.47200
C  0.18700 36.30900 29.65900
C  -0.57700 36.01300 24.87200
C  -3.31700 32.02900 25.68700
N  -1.61000 34.53800 29.81500
C  -2.13600 33.70800 30.73200
C  -1.53900 34.02700 32.19400
C  -0.55400 35.23700 31.88700
C  -0.62400 35.35000 30.29600
C  -0.64800 36.57900 32.68500
C  -0.92000 32.84300 33.00100
C  -1.55800 32.25800 34.24700
H  -0.67400 32.13100 35.46500
N  -0.20700 35.87700 27.28300
C  0.37700 36.60600 28.28200
C  1.23400 37.56200 27.65000
C  1.08900 37.38300 26.27400
C  0.04800 36.39700 26.03500
C  2.15900 38.44600 28.41000
C  1.83300 37.98400 25.17400
O  1.80600 37.60800 24.02800
C  2.59900 39.24800 25.53800
N  -1.83900 34.10000 25.59300
C  -1.55200 35.03700 24.70900
C  -2.15200 34.71800 23.30100
C  -2.70100 33.24100 23.54200
C  -2.62000 33.07300 24.99200
C  -3.16900 35.70900 22.73000
C  -2.03300 32.03200 22.82800
C  -0.53600 31.87500 22.58800
N  -2.58400 32.53700 27.96200
C  -3.31900 31.81100 27.04800
C  -4.18700 30.88200 27.70800
C  -4.01500 31.18200 29.04200
C  -3.15300 32.20700 29.14300
C  -5.05500 29.85800 27.16500
C  -4.43800 30.85000 30.37100
O  -5.21900 30.00000 30.74600
C  -3.70200 31.77700 31.39600
C  -4.64700 32.61400 32.20700
O  -5.27100 33.54500 31.76500
O  -4.53800 32.24500 33.48100
C  -5.38100 33.06200 34.48000
H  0.83300 36.75100 30.42000
H  -0.27200 36.48200 23.93400
H  -3.89800 31.31800 25.09600
H  -2.29500 34.51200 32.81300
H  0.46200 34.87000 32.03000
H  -1.29700 36.42800 33.54800
H  -1.22600 37.20900 32.00900
H  0.26500 37.07800 33.00800
H  0.07300 33.20200 33.27000
H  -0.67700 32.08300 32.25900
H  -2.00700 31.29500 34.00400
H  -2.35800 32.92400 34.57000
H  3.16100 38.07600 28.19100
H  2.05100 38.47400 29.49400
H  2.07700 39.51800 28.23400
H  1.87500 39.91100 26.01200
H  3.10600 39.76800 24.72500
H  3.38000 38.83300 26.17500
H  -1.37300 34.71700 22.53800
H  -3.75000 33.25000 23.24800
H  -3.81600 36.04300 23.54100
H  -3.85000 35.30700 21.98000
H  -2.69300 36.53900 22.20900
H  -2.52700 31.96700 21.85800
H  -2.35900 31.03300 23.11600
H  0.02400 32.62100 23.15200
H  -0.34800 32.06400 21.53100
H  -0.29600 30.85400 22.88400
H  -4.87200 29.66400 26.10800
H  -6.06100 30.24300 27.33300
H  -4.94900 28.92200 27.71300
H  -2.99000 31.20000 31.98500
H  -4.84500 33.20800 35.41700
H  -6.32500 32.57200 34.71700
H  -5.59000 34.06400 34.10400

