158

Mg 40.24800 9.53900 30.15900
C  42.65000 10.40700 32.62800
C  38.37200 8.12500 32.54300
C  38.26000 8.59400 27.73000
C  42.76500 10.25800 27.73700
N  40.59300 9.27200 32.34700
C  41.45100 9.82200 33.14300
C  40.99500 9.84100 34.59300
C  39.67100 8.98500 34.58900
C  39.54900 8.71300 33.02900
C  39.56300 7.71000 35.45900
C  40.78000 11.24700 35.17700
C  40.11600 11.29700 36.56500
H  40.85900 12.06800 37.70600
N  38.54000 8.44100 30.16000
C  37.90200 7.94500 31.22500
C  36.63900 7.38500 30.84300
C  36.55800 7.48200 29.42700
C  37.81100 8.21000 29.03900
C  35.65700 6.74500 31.83500
C  35.45800 6.98900 28.48500
O  35.46500 7.19300 27.30000
C  34.32700 6.22400 29.02400
N  40.46400 9.54700 28.02100
C  39.44300 9.15300 27.25100
C  39.73200 9.43100 25.83100
C  41.20300 9.96300 25.85400
C  41.52500 9.88900 27.32600
C  39.42600 8.21500 24.87800
C  41.27700 11.43500 25.14900
C  41.11600 12.71800 26.02400
N  42.35300 10.24500 30.08000
C  43.22800 10.46700 29.04700
C  44.45000 11.04100 29.50300
C  44.28100 11.10500 30.96500
C  42.96100 10.57400 31.27000
C  45.50300 11.68100 28.72600
C  44.88200 11.69300 32.17300
O  45.90000 12.28800 32.28600
C  43.84500 11.11000 33.32300
C  44.49800 10.15400 34.27300
O  44.63500 8.94500 34.01300
O  44.94900 10.71900 35.45100
C  45.66600 9.86900 36.44200
H  37.66800 7.92400 33.35300
H  37.48700 8.30500 27.01500
H  43.52200 10.42200 26.96700
H  41.84500 9.44800 35.15200
H  38.81200 9.57100 34.91800
H  40.40400 7.72400 36.15200
H  39.60800 6.86500 34.77200
H  38.60300 7.73800 35.97400
H  40.18600 11.82800 34.47100
H  41.74100 11.75900 35.22400
H  40.01700 10.25900 36.88400
H  39.13100 11.76100 36.51100
H  34.62900 7.05000 31.64300
H  35.86400 6.96800 32.88200
H  35.70200 5.66000 31.73800
H  34.64800 5.26900 29.44100
H  33.74000 6.13400 28.11000
H  33.75400 6.70400 29.81700
H  39.02500 10.23100 25.61000
H  41.72500 9.17700 25.30800
H  40.23000 8.04500 24.16100
H  38.55900 8.62400 24.36100
H  39.16900 7.36300 25.50900
H  40.53900 11.32200 24.35500
H  42.28700 11.53600 24.75400
H  40.12700 13.14500 25.86200
H  41.87800 13.49600 25.97200
H  41.13900 12.30900 27.03400
H  45.09300 11.73400 27.71700
H  46.38300 11.03800 28.75600
H  45.71100 12.73100 28.93000
H  43.47500 11.93900 33.92600
H  45.10600 9.99100 37.36900
H  46.70200 10.11200 36.67800
H  45.53700 8.80100 36.26500
Mg -12.34700 16.73100 41.60200
C  -9.41700 14.79200 41.34200
C  -10.82300 19.25800 39.96700
C  -15.32000 18.15300 41.22900
C  -13.93900 13.62300 42.63700
N  -10.44600 16.94000 40.53300
C  -9.38800 16.08400 40.73400
C  -8.10400 16.66500 40.00400
C  -8.54000 18.11200 39.68400
C  -10.02000 18.11500 40.19100
C  -7.65800 19.27600 40.26100
C  -7.62500 15.84900 38.79500
C  -6.13700 16.16100 38.34600
H  -6.03000 16.55700 36.87500
N  -13.00200 18.58000 40.91900
C  -12.21500 19.49100 40.24500
C  -12.93400 20.66000 39.93100
C  -14.27400 20.37400 40.31500
C  -14.21800 19.01700 40.87400
C  -12.38100 21.97000 39.41200
C  -15.48300 21.29100 40.14200
O  -15.39200 22.45700 39.78600
C  -16.81200 20.81900 40.60100
N  -14.26800 15.91600 41.92100
C  -15.33700 16.81200 41.76200
C  -16.70300 16.11700 41.87500
C  -16.26500 14.72500 42.22900
C  -14.72700 14.72900 42.24500
C  -17.52900 16.87900 43.00400
C  -16.90100 13.59100 41.38100
C  -17.99500 12.80600 42.11500
N  -11.80300 14.63000 42.04300
C  -12.52200 13.54900 42.43600
C  -11.69500 12.39800 42.57600
C  -10.40000 12.84100 42.19800
C  -10.51200 14.23300 41.88500
C  -12.13100 10.99400 43.12200
C  -9.06600 12.46100 42.02400
O  -8.55000 11.41500 42.23600
C  -8.31800 13.65000 41.42900
C  -7.12900 14.03200 42.23400
O  -7.13900 14.42100 43.42300
O  -5.92700 13.85800 41.46900
C  -4.70200 14.30700 42.17800
H  -10.31200 20.12300 39.53800
H  -16.32700 18.44400 40.92300
H  -14.43800 12.66500 42.79800
H  -7.20600 16.64400 40.62200
H  -8.70000 18.29500 38.62100
H  -6.74400 18.87100 40.69500
H  -8.06800 19.77500 41.13800
H  -7.36800 20.03200 39.53100
H  -8.11900 16.11100 37.85900
H  -7.79500 14.78400 38.94800
H  -5.53900 15.26500 38.51000
H  -5.65400 16.82500 39.06400
H  -13.08800 22.49600 38.77100
H  -11.49000 21.68300 38.85500
H  -12.12700 22.67600 40.20200
H  -16.62000 20.54000 41.63700
H  -17.10100 19.96300 39.99200
H  -17.71900 21.41300 40.70800
H  -17.17900 16.16400 40.89600
H  -16.47800 14.56400 43.28600
H  -17.82600 16.21300 43.81400
H  -18.42900 17.11100 42.43300
H  -17.07800 17.74700 43.48300
H  -16.06000 12.91400 41.22900
H  -17.31400 13.89400 40.41800
H  -17.67300 11.82100 42.45400
H  -18.95300 12.74400 41.59800
H  -18.38600 13.27700 43.01600
H  -11.74500 10.28000 42.39400
H  -13.21500 10.97300 43.22900
H  -11.61600 10.78100 44.05900
H  -7.98400 13.22600 40.48200
H  -4.31700 13.46700 42.75600
H  -4.78800 15.23500 42.74200
H  -3.98000 14.47700 41.38000

