158

Mg 25.45400 -8.07900 47.79300
C  28.28000 -5.88300 47.05700
C  23.83400 -6.48000 45.19800
C  23.28800 -10.55100 47.68600
C  27.68500 -10.01000 49.74100
N  26.08700 -6.43600 46.28700
C  27.25600 -5.72600 46.13100
C  27.15400 -4.83500 44.92300
C  25.64400 -4.97200 44.52700
C  25.11500 -6.09000 45.36300
C  24.85900 -3.63100 44.59400
C  28.05000 -5.12200 43.71100
C  28.70200 -3.86900 43.09300
H  28.19600 -3.38100 41.74300
N  23.66500 -8.31300 46.82000
C  23.12900 -7.48800 45.83900
C  21.77800 -7.93100 45.50300
C  21.59400 -9.08300 46.29400
C  22.84700 -9.38200 47.00600
C  20.90800 -7.28600 44.48600
C  20.18000 -9.85100 46.48900
O  19.24200 -9.54400 45.81500
C  19.95200 -10.89900 47.49400
N  25.63500 -10.11000 48.46500
C  24.49500 -10.91700 48.39700
C  24.66600 -12.07200 49.33400
C  26.11000 -11.96700 49.86500
C  26.47400 -10.61000 49.36700
C  23.59600 -12.22600 50.43200
C  27.11200 -13.15300 49.28900
C  27.67500 -13.97400 50.43200
N  27.47900 -7.93400 48.44000
C  28.23100 -8.77600 49.22600
C  29.52500 -8.38900 49.26700
C  29.51700 -7.15800 48.56200
C  28.25300 -6.94000 48.03900
C  30.65000 -9.11800 49.82300
C  30.46100 -6.12100 48.13100
O  31.61700 -5.87300 48.47700
C  29.66300 -5.25000 47.09000
C  29.59900 -3.78100 47.41300
O  29.85300 -3.30800 48.51200
O  29.37000 -3.13800 46.26700
C  29.65600 -1.65700 46.29300
H  23.25800 -5.97700 44.41800
H  22.54200 -11.33900 47.81100
H  28.21300 -10.65900 50.44200
H  27.36500 -3.82800 45.28300
H  25.54000 -5.39000 43.52600
H  23.84600 -3.77400 44.21800
H  25.27900 -2.88900 43.91400
H  24.82900 -3.24400 45.61300
H  27.44200 -5.56700 42.92300
H  28.79500 -5.90400 43.85600
H  29.73800 -4.17300 42.94800
H  28.61200 -3.02400 43.77500
H  21.14100 -7.48400 43.44000
H  21.06800 -6.21100 44.40700
H  19.87500 -7.51200 44.75100
H  20.32000 -10.61900 48.48200
H  20.56200 -11.71600 47.10900
H  18.93000 -11.26600 47.58800
H  24.56400 -12.90600 48.64000
H  26.12000 -11.95400 50.95500
H  23.36800 -13.29200 50.41700
H  22.67000 -11.68000 50.25200
H  24.04700 -11.85100 51.35100
H  27.95300 -12.68900 48.77400
H  26.70900 -13.73900 48.46300
H  28.71100 -13.75800 50.69600
H  27.75000 -15.04900 50.26600
H  27.12100 -13.83300 51.36000
H  30.77500 -9.96000 49.14300
H  30.36200 -9.69500 50.70200
H  31.64100 -8.66900 49.88700
H  30.20400 -5.32700 46.14700
H  29.99400 -1.22500 47.23500
H  28.76900 -1.13100 45.93800
H  30.42900 -1.48200 45.54400
Mg -5.31400 24.97500 26.52500
C  -3.86100 26.99600 29.02200
C  -6.52900 22.73600 28.94500
C  -6.90700 23.46700 24.04100
C  -4.20900 27.50000 24.19100
N  -5.28100 24.99500 28.67100
C  -4.61400 25.87900 29.54100
C  -4.90300 25.50600 31.02700
C  -5.65700 24.08800 30.91000
C  -5.86100 23.89300 29.38200
C  -4.81600 22.98300 31.67100
C  -5.82300 26.61400 31.73900
C  -5.49700 26.88600 33.15200
H  -6.53000 26.45400 34.18500
N  -6.41600 23.30600 26.46700
C  -6.84500 22.48500 27.54000
C  -7.64400 21.40500 27.05600
C  -7.69900 21.59000 25.61500
C  -6.92300 22.84800 25.31200
C  -8.28000 20.36500 27.80700
C  -8.46300 20.74000 24.53900
O  -8.53700 21.12300 23.37900
C  -9.14800 19.50200 24.88200
N  -5.53100 25.42100 24.43100
C  -6.25500 24.60200 23.67300
C  -6.41600 25.14900 22.21600
C  -5.76200 26.60700 22.39400
C  -5.19100 26.58400 23.81400
C  -5.63500 24.39300 21.08500
C  -6.81200 27.75200 22.19500
C  -6.55800 28.75700 21.12000
N  -4.09800 26.81900 26.48000
C  -3.70200 27.65500 25.50400
C  -2.83800 28.71400 25.99900
C  -2.91600 28.55000 27.41500
C  -3.74900 27.37100 27.65800
C  -2.13200 29.64500 25.10100
C  -2.55300 29.08300 28.68800
O  -1.90000 30.05200 28.98100
C  -3.08700 28.11500 29.80100
C  -1.99300 27.53300 30.69400
O  -1.21100 26.62000 30.49400
O  -2.09200 28.21900 31.84900
C  -1.21000 27.68600 32.89000
H  -6.79700 22.06400 29.76300
H  -7.45600 23.01300 23.21300
H  -3.93100 28.31400 23.51700
H  -3.94100 25.25800 31.47500
H  -6.60100 24.20800 31.44100
H  -5.10300 22.92600 32.72100
H  -3.74000 22.98700 31.50000
H  -5.07100 22.02500 31.21900
H  -6.88200 26.44900 31.53900
H  -5.55100 27.56900 31.29000
H  -5.32200 27.93800 33.38000
H  -4.56100 26.47500 33.53100
H  -9.36000 20.32000 27.67100
H  -7.98600 20.56900 28.83700
H  -7.89400 19.41900 27.42700
H  -9.94200 19.82000 25.55800
H  -8.36100 18.87200 25.29700
H  -9.64300 19.07900 24.00800
H  -7.47300 25.17600 21.95000
H  -4.96300 26.81100 21.68100
H  -6.13500 23.43900 20.91400
H  -4.62100 24.10600 21.36300
H  -5.68000 25.09600 20.25300
H  -6.95600 28.38100 23.07400
H  -7.78000 27.33300 21.92100
H  -6.91100 28.36700 20.16500
H  -5.51000 29.04100 21.02900
H  -7.23900 29.59000 21.29700
H  -2.55600 30.63900 25.24200
H  -2.07700 29.28000 24.07600
H  -1.11700 29.61400 25.49600
H  -3.71100 28.70300 30.47400
H  -0.13100 27.60300 32.76600
H  -1.58100 26.66500 32.98700
H  -1.44900 28.13600 33.85400

