158

Mg 35.49000 0.79400 29.91800
C  33.28100 2.15700 32.18700
C  37.92000 1.15500 32.39100
C  37.78800 -0.36900 27.77100
C  33.16600 0.91300 27.41700
N  35.57800 1.52000 32.03700
C  34.48500 1.92400 32.76500
C  34.82800 2.11800 34.23400
C  36.37000 2.14900 34.14700
C  36.66100 1.65800 32.72100
C  37.04600 3.40000 34.53500
C  34.15700 0.92800 34.89500
C  33.49700 1.30200 36.18500
H  34.24400 2.22100 37.15500
N  37.55400 0.47400 29.97600
C  38.37900 0.67500 31.10000
C  39.67100 0.14700 30.84700
C  39.70000 -0.19600 29.44000
C  38.31600 -0.04500 28.96300
C  40.73100 -0.22200 31.85800
C  40.83100 -0.73800 28.57100
O  40.63500 -1.13400 27.44200
C  42.27800 -0.85900 29.15900
N  35.45200 0.32800 27.89300
C  36.53500 -0.25800 27.22500
C  36.20100 -0.51500 25.76100
C  34.66900 -0.28600 25.71100
C  34.39500 0.30700 27.15200
C  37.06100 0.46800 24.89400
C  33.69500 -1.37300 25.27900
C  33.31300 -2.39900 26.30300
N  33.58200 1.41800 29.70600
C  32.69400 1.34500 28.67200
C  31.50100 1.99500 29.11500
C  31.61400 2.24500 30.53300
C  32.95800 1.93700 30.85200
C  30.31300 2.42800 28.20300
C  30.94800 2.88100 31.66100
O  29.83400 3.47300 31.73500
C  31.99900 2.67300 32.87700
C  32.22600 4.00900 33.54500
O  32.79800 5.00500 33.08200
O  31.50800 4.02600 34.69600
C  31.63800 5.25900 35.46100
H  38.67500 1.29700 33.16700
H  38.49800 -0.64200 26.98700
H  32.43600 0.90800 26.60500
H  34.41300 3.05500 34.60600
H  36.71700 1.32200 34.76700
H  37.75600 3.22200 35.34200
H  36.27400 4.02300 34.98600
H  37.34000 3.90600 33.61500
H  34.86900 0.17100 35.22500
H  33.54200 0.29300 34.25700
H  33.25600 0.33700 36.63200
H  32.50900 1.69700 35.94600
H  40.64700 -1.28800 32.06900
H  40.76800 0.38300 32.76400
H  41.73300 0.01300 31.50000
H  42.53400 0.11100 29.58500
H  42.87200 -1.11100 28.28000
H  42.34300 -1.76900 29.75600
H  36.44300 -1.56900 25.62300
H  34.48600 0.57900 25.07400
H  38.13900 0.45000 25.05500
H  36.67300 1.47900 25.01600
H  36.78000 0.21300 23.87200
H  34.02300 -1.88800 24.37600
H  32.75900 -0.88600 25.00300
H  33.79300 -2.26900 27.27300
H  33.48100 -3.39100 25.88400
H  32.24300 -2.29700 26.48500
H  29.69700 3.12300 28.77400
H  29.86400 1.52100 27.79900
H  30.81900 2.90200 27.36300
H  31.69000 1.93200 33.61500
H  32.68000 5.22700 35.77800
H  30.96200 5.22600 36.31600
H  31.40000 6.11600 34.83100
Mg 8.63300 47.59200 27.52100
C  7.06900 47.44900 30.60300
C  11.62000 48.12100 29.01500
C  10.08700 48.37000 24.44900
C  5.56200 47.83200 26.05600
N  9.21700 47.97400 29.61600
C  8.46900 47.67200 30.70700
C  9.30900 47.64900 32.02300
C  10.66600 48.10500 31.41200
C  10.54300 48.02600 29.90300
C  11.08700 49.52400 31.85300
C  9.43200 46.19700 32.70200
C  8.99500 45.96000 34.13100
H  10.01900 45.31500 35.07100
N  10.56900 48.01100 26.80800
C  11.68400 48.16800 27.61100
C  12.88900 48.42600 26.75700
C  12.45300 48.53200 25.45900
C  11.00200 48.25500 25.48800
C  14.24200 48.69400 27.35200
C  13.25000 48.96900 24.16500
O  12.76500 48.78900 23.04100
C  14.67000 49.45500 24.29000
N  7.94400 47.94600 25.50300
C  8.69300 48.26100 24.40600
C  7.85800 48.65600 23.15700
C  6.47600 48.29800 23.74900
C  6.63400 47.85100 25.17300
C  7.88100 50.18100 22.72000
C  5.82900 47.12500 22.90300
C  5.65000 47.45500 21.44300
N  6.64500 47.39400 28.10400
C  5.49000 47.56200 27.44000
C  4.25100 47.47000 28.24300
C  4.85500 47.41400 29.55700
C  6.27500 47.36500 29.42100
C  2.83700 47.45400 27.88800
C  4.59600 47.29200 30.98400
O  3.53900 47.18900 31.60600
C  6.02900 47.30100 31.77200
C  6.09700 46.06300 32.45900
O  6.40000 45.00900 31.95700
O  5.56700 46.09600 33.73400
C  5.15900 44.82000 34.31500
H  12.59500 48.10700 29.50700
H  10.48200 48.73500 23.49900
H  4.57100 47.95700 25.61500
H  8.89800 48.38900 32.71000
H  11.56900 47.57300 31.71200
H  10.79000 50.25300 31.09900
H  12.15600 49.60100 32.05100
H  10.59500 49.63100 32.82000
H  10.47300 45.88200 32.63600
H  8.90300 45.47200 32.08300
H  8.16500 45.25400 34.15600
H  8.77200 46.87700 34.67600
H  14.96400 47.97000 26.97600
H  14.37100 48.51000 28.41900
H  14.58600 49.70100 27.11600
H  14.61200 50.47600 24.66700
H  15.06200 49.54400 23.27700
H  15.35000 48.91000 24.94400
H  8.26400 47.96500 22.41800
H  5.83500 49.16600 23.59300
H  7.77300 50.41700 21.66100
H  8.88100 50.44500 23.06600
H  7.16600 50.83500 23.21700
H  4.85500 46.96100 23.36300
H  6.43000 46.22000 22.99500
H  5.94600 46.62200 20.80600
H  6.14700 48.39900 21.21700
H  4.58400 47.64500 21.32300
H  2.24400 47.27800 28.78600
H  2.60600 46.84500 27.01400
H  2.51700 48.48500 27.73900
H  6.09700 48.11900 32.49000
H  6.01400 44.15200 34.20600
H  4.32000 44.39100 33.76700
H  5.04000 44.95200 35.39000

