158

Mg 2.17400 -1.08700 43.96300
C  5.57600 0.12800 43.49100
C  1.11500 1.65000 42.04400
C  -0.81400 -2.30400 44.07800
C  3.50800 -3.71900 45.71100
N  3.33800 0.63600 42.75700
C  4.65200 0.90600 42.74700
C  4.87200 2.10000 41.85700
C  3.41800 2.68100 41.61500
C  2.52800 1.61400 42.17400
C  3.30200 4.06100 42.33800
C  5.61200 1.46000 40.55600
C  6.85400 2.35500 40.07300
H  7.23800 2.31800 38.57600
N  0.35200 -0.45700 43.07100
C  0.08900 0.72600 42.46700
C  -1.35600 0.95500 42.32900
C  -1.92300 -0.17100 43.03800
C  -0.76600 -1.04900 43.38500
C  -2.06100 2.05800 41.47900
C  -3.43900 -0.42200 43.29200
O  -4.28000 0.30500 42.90900
C  -3.97700 -1.60800 43.99100
N  1.51800 -2.87200 44.56100
C  0.17500 -3.08900 44.63300
C  -0.10800 -4.45200 45.30600
C  1.33300 -5.01000 45.74400
C  2.21400 -3.85400 45.27100
C  -1.14800 -4.58900 46.39500
C  1.78400 -6.38600 45.13400
C  2.58600 -7.37100 46.02900
N  4.10300 -1.73000 44.49000
C  4.52600 -2.78000 45.25400
C  5.94500 -2.76600 45.53800
C  6.34300 -1.63800 44.85400
C  5.22500 -1.05100 44.22000
C  6.67900 -3.80600 46.40100
C  7.53600 -0.91900 44.62400
O  8.68200 -1.14700 44.97500
C  7.10300 0.26900 43.73000
C  7.42700 1.50600 44.40300
O  7.29500 1.74900 45.63600
O  8.06200 2.32500 43.48800
C  8.48900 3.68400 43.98100
H  0.75100 2.60100 41.64800
H  -1.82300 -2.69100 44.23000
H  3.94400 -4.64100 46.10100
H  5.48700 2.86200 42.33400
H  3.24100 2.75200 40.54200
H  4.26000 4.54200 42.53400
H  2.66200 3.88200 43.20200
H  2.72600 4.78000 41.75500
H  4.83500 1.42800 39.79200
H  5.88300 0.40500 40.59100
H  7.61300 2.29700 40.85200
H  6.54900 3.38900 40.23200
H  -2.61400 2.70600 42.15900
H  -2.78900 1.53000 40.86400
H  -1.40400 2.67800 40.86900
H  -4.99500 -1.40300 44.32200
H  -3.46900 -1.70200 44.95100
H  -3.82400 -2.52300 43.41900
H  -0.44600 -4.97800 44.41400
H  1.53300 -4.96200 46.81500
H  -0.79200 -5.14900 47.26000
H  -1.90100 -5.22100 45.92300
H  -1.47400 -3.59600 46.70600
H  2.34200 -6.21000 44.21500
H  0.86600 -6.93000 44.91000
H  2.44600 -7.36100 47.11000
H  3.66100 -7.24800 45.90400
H  2.24500 -8.37100 45.76200
H  7.52100 -3.40900 46.96800
H  7.23600 -4.53100 45.80800
H  6.04700 -4.42900 47.03400
H  7.60100 0.43500 42.77500
H  7.69700 4.34900 43.63500
H  9.45400 3.97000 43.56100
H  8.56400 3.92200 45.04300
Mg 47.89500 15.28900 27.79800
C  46.10600 15.19600 30.67800
C  50.11500 17.61600 29.28200
C  49.52300 15.56100 24.89000
C  45.15400 13.95200 26.18800
N  48.16700 16.21500 29.75100
C  47.33500 15.92600 30.78800
C  47.97400 16.34500 32.10500
C  49.24600 17.24400 31.70900
C  49.08800 17.07900 30.18100
C  49.21600 18.76500 32.15100
C  48.32400 15.18300 33.08000
C  48.25100 15.50600 34.58400
H  48.54800 16.90300 35.07100
N  49.71800 16.31300 27.18800
C  50.47100 17.21300 27.92600
C  51.59600 17.66200 27.09200
C  51.49200 17.01500 25.87600
C  50.24000 16.24400 25.94900
C  52.63100 18.75900 27.49100
C  52.44700 17.08700 24.70100
O  52.21500 16.44300 23.68200
C  53.88300 17.70500 24.81700
N  47.45500 14.76400 25.80500
C  48.27000 14.96900 24.76100
C  47.45500 14.83900 23.39100
C  46.12800 14.18000 23.81900
C  46.22600 14.27900 25.34900
C  47.28900 16.15500 22.54800
C  45.89200 12.67300 23.43400
C  46.41900 11.51300 24.39400
N  46.10300 14.60800 28.28500
C  45.06200 14.11000 27.55100
C  43.89000 13.90600 28.32200
C  44.25300 14.28500 29.63300
C  45.59700 14.67900 29.51700
C  42.55200 13.34700 27.80800
C  43.87300 14.41300 31.05900
O  42.80700 14.19500 31.57800
C  45.04300 14.94900 31.77300
C  44.69200 16.17300 32.47300
O  44.64900 17.27000 31.99000
O  44.37000 15.84100 33.77300
C  43.76100 16.86500 34.59900
H  50.87400 18.17400 29.83400
H  50.02300 15.52800 23.92000
H  44.26400 13.64300 25.63400
H  47.22300 16.98800 32.56400
H  50.15800 16.71500 31.98700
H  48.24900 19.06800 32.55200
H  49.35000 19.53500 31.39200
H  50.04000 18.88900 32.85400
H  49.32100 14.89300 32.74700
H  47.58300 14.44300 32.77800
H  48.98700 14.81000 34.98400
H  47.35900 15.24700 35.15500
H  53.49600 18.39600 28.04700
H  52.17800 19.46900 28.18200
H  53.14500 19.22700 26.65100
H  53.93300 18.79000 24.72500
H  54.45000 17.36100 23.95200
H  54.43600 17.25200 25.64000
H  48.04200 14.24400 22.69000
H  45.34600 14.81700 23.40600
H  47.46600 17.00600 23.20600
H  46.24100 16.26700 22.27300
H  48.02600 16.05000 21.75100
H  46.24000 12.28400 22.47800
H  44.80900 12.62100 23.32500
H  45.59400 11.17500 25.02000
H  47.28000 11.80400 24.99700
H  46.61400 10.65800 23.74600
H  42.77600 12.35500 27.41500
H  42.24900 13.89000 26.91200
H  41.79200 13.21600 28.57800
H  45.19100 14.13100 32.47900
H  43.40600 17.70100 33.99700
H  44.63300 17.13600 35.19500
H  43.02200 16.33300 35.19900

