158

Mg 46.84200 24.91600 28.83600
C  47.32200 27.14600 31.38300
C  45.61500 22.54800 30.93900
C  46.88400 22.68000 26.34200
C  47.88600 27.41900 26.71100
N  46.47600 24.93700 30.88000
C  46.84600 25.85700 31.76800
C  46.44600 25.41200 33.16300
C  46.09200 23.98800 33.01400
C  45.98600 23.80800 31.45800
C  46.96700 22.92000 33.70900
C  45.39300 26.31700 33.81800
C  45.85200 26.95100 35.15000
H  44.87700 27.10300 36.31800
N  46.31000 22.86000 28.65200
C  45.64900 22.08400 29.64800
C  45.28300 20.75700 29.19300
C  45.71900 20.83500 27.77700
C  46.26100 22.16000 27.46800
C  44.74000 19.64700 30.12100
C  45.52600 19.77000 26.67600
O  45.84000 19.98400 25.55400
C  44.80600 18.42100 27.07400
N  47.53000 24.95900 26.85900
C  47.39100 23.94800 26.00500
C  48.01500 24.29800 24.63800
C  47.77900 25.83300 24.63700
C  47.60400 26.14300 26.13700
C  49.46100 23.89500 24.47800
C  46.57700 26.43400 23.82900
C  45.24400 26.59000 24.57400
N  47.60400 26.91900 28.99100
C  47.85000 27.83900 28.00800
C  48.28900 29.04300 28.65000
C  47.99900 28.88500 29.96300
C  47.61200 27.61900 30.09000
C  48.81900 30.29300 27.99300
C  47.98000 29.48400 31.31500
O  48.24200 30.61300 31.74000
C  47.72700 28.26700 32.33500
C  49.00700 28.06000 33.03900
O  50.05100 27.69900 32.51500
O  48.84900 28.36700 34.35500
C  49.97200 28.25600 35.25400
H  45.24200 21.94800 31.77200
H  46.94200 22.06700 25.44000
H  48.08300 28.24700 26.02700
H  47.31300 25.53400 33.81200
H  45.06900 23.81100 33.34500
H  47.17400 22.02100 33.12800
H  46.26800 22.72100 34.52100
H  47.90900 23.40600 33.96400
H  44.42300 25.85200 33.99500
H  45.19900 27.14100 33.13200
H  46.30200 27.91600 34.91700
H  46.62100 26.29000 35.54800
H  44.48500 20.13900 31.05900
H  45.45200 18.84900 30.33300
H  43.80900 19.31800 29.66000
H  43.99500 18.66400 27.76100
H  45.42900 17.84300 27.75700
H  44.40000 17.85200 26.23700
H  47.47300 23.93400 23.76400
H  48.63900 26.33700 24.19600
H  50.06100 24.80200 24.55600
H  49.76900 23.45800 23.52800
H  49.74600 23.19700 25.26600
H  46.35100 25.74800 23.01300
H  46.92800 27.44200 23.60600
H  45.23800 27.48400 25.19700
H  45.03400 25.77600 25.26700
H  44.39700 26.63400 23.89000
H  48.28100 31.10600 28.48000
H  48.71200 30.25200 26.90900
H  49.89700 30.29400 28.15800
H  46.97500 28.48000 33.09500
H  50.19700 29.22200 35.70700
H  50.89100 27.83500 34.84800
H  49.75000 27.61000 36.10300
Mg 0.10400 42.77300 26.53800
C  2.56800 42.41500 28.90200
C  -2.16800 41.36500 28.59100
C  -2.23800 42.93600 23.98200
C  2.55300 43.69600 24.13500
N  0.17900 42.01000 28.45500
C  1.23400 42.09900 29.34700
C  0.84800 41.71800 30.79000
C  -0.58600 41.07800 30.51200
C  -0.88700 41.47300 29.07200
C  -0.62800 39.49700 30.72700
C  0.70000 42.98800 31.68500
C  1.26100 42.88800 33.08000
H  0.69400 41.55100 33.78800
N  -1.92000 42.37800 26.35900
C  -2.69100 41.81600 27.35200
C  -4.06200 41.64400 26.85000
C  -4.17500 42.23400 25.56900
C  -2.71200 42.55700 25.21200
C  -4.99200 40.90400 27.73100
C  -5.44100 42.41600 24.65600
O  -5.39100 42.85000 23.50300
C  -6.77900 42.19800 25.22900
N  0.18100 43.29900 24.39300
C  -0.97000 43.37700 23.61900
C  -0.80400 43.98000 22.25000
C  0.81500 44.18000 22.30200
C  1.25800 43.69100 23.64000
C  -1.32600 43.19900 21.03100
C  1.40000 45.63500 22.06100
C  0.75100 46.80300 22.77100
N  2.13400 42.99100 26.43500
C  3.02000 43.26100 25.45800
C  4.41300 43.18400 25.89400
C  4.26700 42.97900 27.33800
C  2.90600 42.80100 27.56900
C  5.70200 43.43600 25.12300
C  4.96000 42.76900 28.56900
O  6.16200 42.80500 28.83500
C  3.87200 42.53400 29.65100
C  4.23200 41.31100 30.34800
O  4.02100 40.18400 29.94100
O  4.68900 41.59400 31.63500
C  4.78800 40.45900 32.52400
H  -2.89100 41.19900 29.39300
H  -2.98000 42.96700 23.18100
H  3.32700 44.19400 23.54500
H  1.45900 40.95600 31.27300
H  -1.33700 41.50600 31.17700
H  0.39200 39.14000 30.86600
H  -1.09200 38.99500 29.87800
H  -1.30000 39.25700 31.55100
H  -0.37400 43.15300 31.77300
H  1.12100 43.86100 31.18500
H  1.07800 43.85400 33.55000
H  2.34200 42.95000 32.95700
H  -4.51500 40.17500 28.38600
H  -5.59400 40.33400 27.02300
H  -5.62900 41.62300 28.24700
H  -6.89300 41.11600 25.16300
H  -7.46300 42.76500 24.59900
H  -6.69900 42.58500 26.24500
H  -1.38600 44.88400 22.42900
H  1.35700 43.57600 21.57400
H  -0.95000 42.17600 21.01300
H  -1.00300 43.72500 20.13300
H  -2.39100 43.02300 20.87600
H  1.34000 45.67400 20.97400
H  2.47900 45.61900 22.21900
H  0.37800 47.53700 22.05700
H  1.50200 47.27600 23.40500
H  -0.08000 46.43000 23.36900
H  6.29200 42.52700 25.00600
H  6.27200 44.21200 25.63400
H  5.57100 43.78600 24.09900
H  3.78800 43.28900 30.43200
H  3.97000 40.56400 33.23700
H  5.74100 40.49100 33.05100
H  4.73000 39.47900 32.05100

