158

Mg 24.46600 -4.75700 45.92100
C  26.89700 -2.68900 44.45200
C  22.26500 -3.73700 43.36100
C  22.54800 -7.56000 46.33700
C  27.06600 -6.31600 47.55700
N  24.61500 -3.37600 44.03600
C  25.66400 -2.57400 43.78500
C  25.25500 -1.52800 42.71100
C  23.77100 -1.82200 42.43600
C  23.48700 -3.04300 43.30600
C  22.86400 -0.68600 42.85200
C  26.08600 -1.60500 41.40000
C  25.94600 -0.73800 40.14600
H  25.50100 -1.23600 38.78500
N  22.66800 -5.45900 45.04800
C  21.89800 -4.90900 44.05600
C  20.65400 -5.67400 43.88300
C  20.65700 -6.70600 44.80500
C  21.99800 -6.57300 45.48000
C  19.65200 -5.31000 42.74400
C  19.62700 -7.81100 44.93700
O  18.75700 -7.81200 44.10700
C  19.60200 -8.72600 46.16900
N  24.71200 -6.61100 46.77000
C  23.76500 -7.69300 46.89800
C  24.33800 -8.87800 47.57300
C  25.70600 -8.40700 48.06000
C  25.86700 -6.98100 47.47100
C  23.45900 -9.47000 48.74300
C  26.87100 -9.41200 47.68500
C  27.92900 -9.75900 48.77000
N  26.44400 -4.42600 46.26300
C  27.39200 -5.11800 46.95900
C  28.64400 -4.46000 46.97700
C  28.47500 -3.45600 46.03000
C  27.18900 -3.51900 45.52000
C  29.87700 -4.88100 47.72100
C  29.18000 -2.36800 45.34100
O  30.32700 -1.93300 45.50300
C  28.17500 -1.85200 44.29000
C  27.86300 -0.38900 44.44100
O  27.22600 0.13400 45.36600
O  28.30800 0.17300 43.29100
C  28.09800 1.67800 43.18900
H  21.52300 -3.40300 42.63200
H  22.02900 -8.50800 46.49200
H  27.80000 -6.83000 48.18100
H  25.53300 -0.52100 43.02400
H  23.63800 -1.93000 41.36000
H  22.08700 -0.45500 42.12200
H  23.53800 0.14500 43.05800
H  22.39700 -1.03100 43.77400
H  25.70700 -2.51000 40.92700
H  27.14400 -1.72700 41.63200
H  26.86700 -0.16000 40.06800
H  25.14600 -0.09300 40.50700
H  19.96200 -5.92400 41.89900
H  19.55400 -4.24700 42.52500
H  18.68100 -5.57500 43.16200
H  18.60500 -9.15800 46.24900
H  19.78100 -8.14200 47.07200
H  20.35700 -9.49600 46.01200
H  24.44600 -9.59800 46.76200
H  25.68700 -8.28600 49.14300
H  23.83200 -9.54700 49.76500
H  23.51100 -10.53900 48.54000
H  22.43100 -9.11200 48.68900
H  27.46200 -8.92600 46.90900
H  26.43500 -10.31500 47.25600
H  27.83600 -10.81600 49.02000
H  27.66900 -9.07600 49.57900
H  28.95000 -9.58500 48.43300
H  30.57400 -5.38400 47.05000
H  29.65600 -5.43100 48.63600
H  30.42000 -3.96900 47.96500
H  28.70400 -2.04900 43.35800
H  28.47900 2.16900 44.08400
H  27.04400 1.88100 43.00000
H  28.62900 2.04800 42.31100
Mg 54.37100 24.19800 45.42200
C  52.04300 26.50100 44.56800
C  52.55700 21.77000 43.89500
C  57.10700 22.01200 45.49300
C  56.47100 26.67100 46.69700
N  52.47800 24.18300 44.38200
C  51.65100 25.24900 44.12500
C  50.37700 24.80800 43.34200
C  50.46400 23.29200 43.55500
C  51.92900 23.00700 44.06700
C  49.35700 22.63100 44.47200
C  50.37300 25.42100 41.94300
C  50.73300 24.49700 40.80700
H  50.94300 25.01200 39.31200
N  54.74500 22.12000 45.00900
C  53.85400 21.33700 44.33400
C  54.37900 19.96300 44.30800
C  55.70500 20.03400 44.64700
C  55.91500 21.41400 45.11600
C  53.52900 18.79300 43.84200
C  56.67400 18.86100 44.65500
O  56.31100 17.76400 44.24900
C  57.98400 18.95700 45.24000
N  56.44300 24.34800 46.12400
C  57.38200 23.31000 45.92700
C  58.78500 23.67300 46.53900
C  58.57000 25.20500 46.92300
C  57.07800 25.41200 46.61500
C  59.27100 22.75900 47.63300
C  59.48100 26.27000 46.32000
C  60.12200 27.21800 47.40600
N  54.33600 26.21100 45.48700
C  55.24600 27.08000 46.17700
C  54.54700 28.37500 46.23200
C  53.32400 28.20600 45.58200
C  53.27100 26.89200 45.10500
C  55.06900 29.65200 46.90700
C  52.13100 28.88100 45.22300
O  51.78500 30.04000 45.31300
C  51.21900 27.78700 44.61800
C  50.67000 28.23400 43.26800
O  51.34900 28.65900 42.37200
O  49.31300 28.09900 43.23300
C  48.57100 28.68200 42.03200
H  51.80600 21.01600 43.65200
H  58.00400 21.39200 45.55800
H  57.05000 27.55400 46.97600
H  49.47800 25.15300 43.85100
H  50.47900 22.68600 42.64900
H  48.61900 23.32400 44.87600
H  49.78900 21.90100 45.15600
H  48.81400 21.96500 43.80100
H  51.16700 26.15200 41.79200
H  49.40900 25.86400 41.69200
H  49.94100 23.75300 40.72000
H  51.56300 23.86700 41.12500
H  53.55100 18.72900 42.75400
H  52.47800 18.93500 44.09500
H  53.80800 17.83400 44.27700
H  58.51700 18.00700 45.19800
H  57.94800 19.19100 46.30500
H  58.58800 19.66300 44.67100
H  59.43300 23.51400 45.67700
H  58.64500 25.36300 47.99900
H  59.81800 21.93200 47.17900
H  58.51400 22.36000 48.30900
H  59.99600 23.20800 48.31100
H  58.76700 26.83200 45.71900
H  60.19700 25.65500 45.77400
H  60.77700 26.58500 48.00400
H  59.33500 27.52000 48.09700
H  60.41000 28.12300 46.87100
H  55.26200 30.38200 46.12100
H  55.97200 29.42300 47.47300
H  54.36400 30.06300 47.63000
H  50.34400 27.67800 45.25800
H  48.31000 27.98900 41.23200
H  49.01800 29.56100 41.56700
H  47.67000 29.14500 42.43200

