158

Mg 24.97800 2.13100 29.28900
C  27.18100 1.96200 31.98800
C  22.36200 2.15900 31.49400
C  22.91300 1.95500 26.62000
C  27.64700 1.83900 27.10900
N  24.82600 2.15700 31.50400
C  25.84200 2.08900 32.41000
C  25.28500 2.09000 33.80100
C  23.75000 2.08600 33.60900
C  23.60600 2.20500 32.13900
C  23.09900 0.80200 34.09300
C  25.74700 3.38100 34.57700
C  24.87100 3.71800 35.78500
H  25.54700 4.13100 37.16400
N  22.87900 2.07400 29.09200
C  21.98100 2.14900 30.09300
C  20.65400 2.15600 29.46800
C  20.86700 2.17000 28.01700
C  22.28200 2.12800 27.86800
C  19.39200 2.19700 30.30700
C  19.85400 2.23200 26.84200
O  20.18300 2.40300 25.66400
C  18.44100 2.06800 27.17000
N  25.19300 1.71600 27.15700
C  24.22200 1.83700 26.22200
C  24.73400 1.89300 24.76600
C  26.28200 2.14200 24.97400
C  26.36600 1.90600 26.50800
C  24.30600 0.68200 23.92300
C  26.89200 3.58700 24.56200
C  26.32900 4.69700 25.41100
N  26.94700 1.83900 29.48200
C  27.91300 1.74600 28.51000
C  29.23900 1.56100 29.18700
C  28.96800 1.68400 30.53500
C  27.58900 1.85800 30.70400
C  30.55100 1.26800 28.60200
C  29.57000 1.54200 31.85300
O  30.70300 1.31400 32.22900
C  28.42500 1.85100 32.83000
C  28.40300 0.97400 33.99500
O  28.00300 -0.17400 34.02400
O  28.95700 1.69500 35.08200
C  28.92700 1.01500 36.41400
H  21.50600 2.18000 32.17200
H  22.31200 1.91200 25.70900
H  28.41800 2.08300 26.37400
H  25.58200 1.15400 34.27400
H  23.29000 3.00600 33.97000
H  23.62100 0.44900 34.98200
H  23.10700 0.14600 33.22300
H  22.06100 0.89400 34.41300
H  25.86000 4.26400 33.94800
H  26.76000 3.33700 34.97700
H  24.23500 2.86100 36.00400
H  24.25300 4.55800 35.46900
H  18.73800 1.34100 30.14700
H  18.65700 2.90300 29.92100
H  19.52800 2.36100 31.37600
H  18.31300 1.12100 27.69500
H  17.90700 1.99200 26.22300
H  18.17700 2.95200 27.75100
H  24.18800 2.74100 24.35300
H  26.90100 1.31400 24.63000
H  24.03100 1.05000 22.93400
H  23.45100 0.19600 24.39400
H  25.08600 -0.07800 23.87700
H  26.67800 3.72500 23.50200
H  27.94100 3.60700 24.85900
H  25.43200 4.45800 25.98200
H  26.25400 5.51500 24.69500
H  27.06600 5.01500 26.14800
H  31.19600 1.94700 29.16000
H  30.63300 1.46500 27.53300
H  31.01500 0.33100 28.90900
H  28.60400 2.83000 33.27500
H  28.39600 1.59700 37.16700
H  29.97400 0.79100 36.61800
H  28.48600 0.03000 36.26700
Mg 16.91400 51.83500 25.42500
C  19.02800 50.12900 27.80000
C  15.13200 53.00100 28.07700
C  15.21300 53.66300 23.26000
C  18.83900 50.56800 22.92000
N  16.96500 51.32200 27.69400
C  18.03100 50.82600 28.48500
C  17.84000 51.10700 29.99000
C  16.38500 51.86000 30.01700
C  16.09900 52.04300 28.48600
C  15.16700 51.12800 30.64000
C  18.96200 51.90600 30.71000
C  18.96800 51.82900 32.19800
H  18.00400 50.90100 33.02400
N  15.27300 53.09900 25.60700
C  14.64000 53.48900 26.80100
C  13.62500 54.42300 26.55700
C  13.66600 54.73000 25.10200
C  14.74800 53.80000 24.55800
C  12.59900 54.97600 27.57100
C  12.72000 55.51200 24.21500
O  12.85600 55.43700 23.06300
C  11.60300 56.33700 24.83000
N  16.83800 51.82200 23.35600
C  16.16100 52.83400 22.67200
C  16.52400 52.72100 21.11100
C  17.89800 52.05600 21.14400
C  17.84900 51.42200 22.57400
C  15.50900 52.02500 20.27100
C  19.14900 53.00300 20.90300
C  20.13700 52.45200 19.84200
N  18.59700 50.45100 25.32000
C  19.20700 50.03100 24.16700
C  20.21800 49.09100 24.50600
C  20.23200 49.06500 25.93400
C  19.19700 49.97500 26.38600
C  21.28800 48.51200 23.58000
C  20.80900 48.53100 27.13400
O  21.72000 47.72100 27.28700
C  20.15100 49.38600 28.31600
C  19.91300 48.43300 29.46900
O  19.18300 47.48600 29.47900
O  20.78300 48.66800 30.50200
C  20.78700 47.69400 31.59400
H  14.68900 53.56600 28.90000
H  14.71600 54.27600 22.50500
H  19.55600 50.23800 22.16500
H  17.65100 50.12800 30.42900
H  16.45000 52.88800 30.37400
H  15.32300 50.06400 30.81600
H  14.35200 51.15700 29.91700
H  14.94700 51.61900 31.58800
H  18.75800 52.93700 30.42000
H  19.89700 51.56700 30.26400
H  18.88100 52.75900 32.76000
H  19.93700 51.40100 32.45600
H  12.80600 54.44700 28.50200
H  11.57100 54.67900 27.36500
H  12.68800 56.04100 27.78800
H  11.96300 56.86500 25.71200
H  10.68400 55.79700 25.06000
H  11.39000 57.13800 24.12200
H  16.56100 53.71000 20.65500
H  17.90600 51.25400 20.40500
H  15.93400 51.62300 19.35200
H  14.68800 52.62000 19.87000
H  15.12800 51.11200 20.72900
H  19.82800 53.15600 21.74200
H  18.82700 54.00800 20.63100
H  19.96300 52.88200 18.85500
H  20.06200 51.39200 19.60100
H  21.17400 52.68900 20.08200
H  21.05300 49.00900 22.63800
H  21.05900 47.45000 23.49300
H  22.33100 48.78600 23.74200
H  20.94800 50.00600 28.72500
H  20.41100 48.36500 32.36700
H  21.80300 47.35000 31.78600
H  20.15500 46.81100 31.67900

