158

Mg 23.47600 -6.92500 46.95900
C  25.87000 -4.64800 45.70700
C  21.11200 -5.33400 44.98200
C  21.37600 -9.20900 47.88100
C  26.08300 -8.26500 49.03100
N  23.53000 -5.21700 45.46000
C  24.66600 -4.51100 45.07100
C  24.27300 -3.42700 44.08600
C  22.68200 -3.37900 44.15000
C  22.37300 -4.75800 44.91500
C  21.98900 -2.10400 44.69800
C  24.91100 -3.72400 42.69700
C  26.03500 -2.79900 42.24600
H  25.64000 -1.82000 41.23000
N  21.46400 -7.28800 46.55400
C  20.72500 -6.50000 45.67100
C  19.39500 -6.99300 45.63300
C  19.40000 -8.15100 46.46500
C  20.79900 -8.26000 47.07000
C  18.26800 -6.34100 44.78800
C  18.17100 -9.10800 46.72500
O  17.10900 -9.08000 46.11100
C  18.36100 -10.21600 47.74400
N  23.77700 -8.67100 48.19700
C  22.63400 -9.42500 48.50300
C  23.02900 -10.60300 49.43100
C  24.52100 -10.15600 49.95000
C  24.83700 -8.99800 49.02400
C  21.99600 -10.97400 50.53300
C  25.62900 -11.22300 49.84200
C  26.63500 -11.27700 50.99900
N  25.62600 -6.58000 47.38100
C  26.51400 -7.16000 48.27500
C  27.82000 -6.55900 48.16800
C  27.61600 -5.57400 47.15200
C  26.26500 -5.61800 46.70000
C  29.04600 -7.00700 48.82000
C  28.32600 -4.58400 46.32600
O  29.49200 -4.20800 46.43400
C  27.18600 -3.81500 45.52400
C  26.97500 -2.53400 46.23200
O  26.08100 -2.27900 47.03100
O  27.92800 -1.62800 45.77100
C  27.80800 -0.21100 46.05900
H  20.33000 -4.71700 44.53700
H  20.77700 -10.05100 48.23700
H  26.91200 -8.52700 49.69300
H  24.66500 -2.47500 44.44300
H  22.19900 -3.51200 43.18200
H  22.69100 -1.41000 45.16000
H  21.40700 -2.40700 45.56800
H  21.36600 -1.59400 43.96300
H  24.15700 -3.73800 41.91000
H  25.23600 -4.76400 42.65500
H  26.81900 -3.35800 41.73500
H  26.37500 -2.33600 43.17200
H  17.38400 -6.88800 45.11600
H  18.45000 -6.51900 43.72800
H  18.12300 -5.28200 45.00500
H  17.42300 -10.68500 48.04000
H  18.72200 -9.71500 48.64300
H  18.96100 -11.04400 47.36600
H  23.13400 -11.43500 48.73500
H  24.46500 -9.76200 50.96400
H  22.48900 -11.05100 51.50200
H  21.48700 -11.91800 50.33500
H  21.34000 -10.11700 50.68500
H  26.23700 -11.19900 48.93700
H  25.10300 -12.17600 49.79000
H  26.44200 -10.57700 51.81200
H  27.66400 -11.04400 50.72400
H  26.65600 -12.23500 51.51800
H  29.48200 -7.89300 48.35600
H  28.99500 -7.04300 49.90800
H  29.90200 -6.34800 48.67700
H  27.60500 -3.56700 44.54800
H  27.92100 -0.10000 47.13800
H  26.88100 0.26700 45.74200
H  28.68700 0.27900 45.64100
Mg -11.84100 16.40300 41.69400
C  -8.46300 14.99700 41.38000
C  -10.50200 19.29600 40.32500
C  -14.91800 17.43400 41.13600
C  -12.93300 13.10300 42.03900
N  -9.73500 16.97800 40.94900
C  -8.56600 16.29200 40.93400
C  -7.45200 17.12700 40.30600
C  -8.11800 18.53600 39.90500
C  -9.55700 18.21400 40.40300
C  -7.52600 19.82300 40.51300
C  -6.86000 16.36400 39.02400
C  -5.35800 16.30000 38.79600
H  -4.87800 16.98200 37.54100
N  -12.59900 18.14900 40.96400
C  -11.88500 19.28400 40.57400
C  -12.70500 20.35400 40.45700
C  -14.06900 19.88800 40.67200
C  -13.93000 18.42700 40.94300
C  -12.18900 21.81200 40.25400
C  -15.32500 20.82400 40.59200
O  -15.25500 22.03200 40.35000
C  -16.63100 20.22100 41.01800
N  -13.63200 15.36600 41.46500
C  -14.82000 16.09500 41.45400
C  -15.99900 15.15100 41.80900
C  -15.34700 13.79800 42.11500
C  -13.90600 14.09600 41.87700
C  -16.79600 15.75200 43.05300
C  -15.94900 12.71800 41.08800
C  -16.99000 11.70500 41.63300
N  -10.94900 14.53300 41.89300
C  -11.57100 13.29600 42.11200
C  -10.55200 12.28600 42.36000
C  -9.34700 12.91900 42.18000
C  -9.58600 14.29100 41.84300
C  -10.82400 10.88400 42.75000
C  -7.85300 12.76200 42.20500
O  -7.20800 11.75400 42.40800
C  -7.22900 14.05300 41.56800
C  -6.24200 14.52800 42.48800
O  -6.47000 14.70400 43.72100
O  -4.98400 14.71700 41.89200
C  -3.89800 15.26300 42.78600
H  -10.03500 20.24600 40.05600
H  -15.96300 17.74600 41.19100
H  -13.36200 12.12200 42.25500
H  -6.70100 17.27600 41.08200
H  -8.21200 18.70300 38.83200
H  -7.75700 20.56500 39.74800
H  -6.44600 19.68500 40.57000
H  -7.89500 20.09200 41.50300
H  -7.38300 16.85400 38.20300
H  -7.29000 15.36600 38.93100
H  -5.10300 15.24200 38.73500
H  -4.87200 16.75600 39.65800
H  -11.74700 21.96100 39.26900
H  -11.37700 21.97200 40.96400
H  -12.97900 22.55000 40.39100
H  -17.33000 21.02100 40.77300
H  -16.77900 20.08700 42.09000
H  -16.97700 19.36300 40.44100
H  -16.82400 15.10300 41.09800
H  -15.58700 13.43200 43.11300
H  -16.29400 16.51800 43.64600
H  -17.02200 14.94500 43.75000
H  -17.70200 16.15400 42.60000
H  -15.13000 12.07000 40.77400
H  -16.34600 13.23000 40.21200
H  -17.00500 10.75700 41.09500
H  -17.92900 12.20300 41.38900
H  -16.92000 11.61500 42.71700
H  -10.05200 10.41300 43.35900
H  -10.91000 10.34500 41.80700
H  -11.73700 10.78300 43.33700
H  -6.66000 13.85000 40.66100
H  -3.82800 16.26500 42.36200
H  -3.01500 14.75200 42.40100
H  -3.96000 15.15000 43.86800

