158

Mg 26.99500 49.78100 26.31100
C  25.02400 51.05900 29.05900
C  29.34100 48.74100 28.50600
C  29.00900 49.43800 23.69700
C  24.55900 51.23400 24.26000
N  27.22200 50.17100 28.52500
C  26.29600 50.51900 29.44400
C  26.87400 50.24100 30.89200
C  28.22000 49.54800 30.61500
C  28.24500 49.47200 29.09500
C  29.52400 50.24400 31.16200
C  25.77000 49.42500 31.73000
C  26.31400 48.64100 32.93800
H  25.68300 48.81500 34.26000
N  28.98900 49.16500 26.15200
C  29.76800 48.67700 27.15500
C  30.96700 48.07800 26.63100
C  30.93500 48.44900 25.22200
C  29.58500 49.05600 24.97500
C  31.94600 47.30300 27.49500
C  31.95800 48.18500 24.17800
O  31.88100 48.64900 23.06900
C  33.02200 47.23100 24.58900
N  26.83000 50.37300 24.32800
C  27.78500 50.02100 23.42400
C  27.23700 50.30200 22.00000
C  25.75400 50.52100 22.13100
C  25.64400 50.62500 23.67800
C  27.85700 51.37600 21.01500
C  24.83800 49.48800 21.32900
C  24.27400 48.41100 22.21600
N  25.18300 50.87800 26.55300
C  24.31600 51.48700 25.63200
C  23.21500 52.14000 26.25600
C  23.52600 52.02700 27.66400
C  24.63500 51.22200 27.79700
C  22.00200 52.79200 25.61800
C  23.02400 52.33500 28.93000
O  21.98500 52.94600 29.26000
C  23.96000 51.71100 29.92600
C  24.58100 52.82500 30.78200
O  25.56700 53.56300 30.50900
O  23.79500 53.00900 31.87500
C  24.19400 54.14300 32.64900
H  30.03800 48.21700 29.16400
H  29.58900 49.18400 22.80700
H  23.98800 51.59700 23.40300
H  27.11600 51.09200 31.52900
H  28.22200 48.49500 30.89500
H  30.12100 49.61400 31.82200
H  29.16500 51.07400 31.77100
H  30.24300 50.50500 30.38500
H  25.26300 48.77200 31.02000
H  25.13100 50.19200 32.16600
H  27.39500 48.73500 33.04400
H  26.10200 47.58200 32.78900
H  31.64400 47.23700 28.54100
H  32.87100 47.87700 27.55400
H  32.18100 46.29800 27.14500
H  33.67500 47.15300 23.72000
H  32.53200 46.27100 24.74700
H  33.61200 47.58800 25.43400
H  27.29800 49.29500 21.58700
H  25.40900 51.46900 21.71800
H  28.78500 51.74900 21.44800
H  27.20100 52.20700 20.75600
H  28.13300 50.87800 20.08600
H  25.32800 48.93000 20.53100
H  23.97100 49.95700 20.86300
H  24.57900 48.57600 23.25000
H  24.74200 47.46100 21.95700
H  23.19200 48.28400 22.18600
H  21.96000 53.73500 26.16400
H  21.11100 52.18200 25.76700
H  22.14200 53.01000 24.56000
H  23.41800 50.97800 30.52500
H  25.03100 53.95900 33.32200
H  23.27900 54.32600 33.21300
H  24.36200 55.08300 32.12400
Mg -1.92000 35.04300 26.80500
C  -3.73800 33.24900 29.44900
C  -0.22100 36.80000 29.18800
C  -0.81200 37.12900 24.43800
C  -3.93000 33.41100 24.55600
N  -2.04100 35.08100 29.03900
C  -2.74900 34.27800 29.90600
C  -2.34300 34.59500 31.32000
C  -1.42700 35.81500 31.22300
C  -1.21000 35.94500 29.72500
C  -1.91100 37.07500 31.96800
C  -1.60900 33.33700 31.99600
C  -2.36700 32.71900 33.19300
H  -1.53100 32.28000 34.44400
N  -0.58600 36.63100 26.77900
C  0.02000 37.19100 27.85900
C  0.95500 38.21600 27.43200
C  0.82700 38.29500 26.07800
C  -0.26800 37.41700 25.71800
C  1.80300 38.98600 28.43100
C  1.50500 39.18700 25.16000
O  1.33400 39.34300 23.96800
C  2.59400 40.04800 25.78700
N  -2.31500 35.27100 24.78200
C  -1.74200 36.22400 23.98500
C  -2.21300 36.15100 22.55500
C  -3.10700 34.88700 22.51100
C  -3.18700 34.49600 24.05500
C  -2.94400 37.42300 22.07200
C  -2.61400 33.71300 21.66900
C  -1.18200 33.32200 21.96500
N  -3.50100 33.60000 26.88800
C  -4.13100 32.98700 25.90800
C  -4.97200 31.91700 26.45000
C  -4.87100 32.00400 27.85000
C  -3.98800 33.01000 28.08700
C  -5.67700 30.95900 25.55500
C  -5.34300 31.46300 29.16900
O  -6.16100 30.59900 29.42300
C  -4.65000 32.36400 30.29000
C  -5.72200 33.08300 30.95600
O  -6.25900 34.07200 30.58600
O  -6.12200 32.40900 32.07200
C  -7.13600 33.12400 32.84800
H  0.33400 37.30500 29.98200
H  -0.37700 37.65700 23.58600
H  -4.43200 32.71400 23.88300
H  -3.21200 34.87100 31.91700
H  -0.40200 35.56400 31.49500
H  -2.62800 36.78100 32.73400
H  -2.53600 37.63000 31.26800
H  -1.17600 37.77100 32.37300
H  -0.55100 33.39900 32.25100
H  -1.53200 32.63000 31.17000
H  -2.81900 31.79700 32.82800
H  -3.21100 33.32900 33.51300
H  2.86800 38.97200 28.19900
H  1.89800 38.41800 29.35700
H  1.51200 40.02600 28.57600
H  2.20800 40.63700 26.61800
H  3.06100 40.69700 25.04700
H  3.46300 39.52100 26.18300
H  -1.31400 36.08100 21.94300
H  -4.15800 35.04000 22.26500
H  -2.87200 38.12800 22.90000
H  -4.00500 37.25800 21.88100
H  -2.41300 37.79700 21.19700
H  -2.68300 33.97600 20.61400
H  -3.28500 32.88000 21.88000
H  -1.00300 32.29800 22.29200
H  -0.87300 34.00300 22.75800
H  -0.62600 33.55600 21.05700
H  -5.94100 30.02500 26.05200
H  -4.99000 30.81500 24.72100
H  -6.56000 31.48000 25.18500
H  -4.05000 31.70300 30.91600
H  -6.77300 33.89400 33.52900
H  -7.64500 32.35900 33.43600
H  -7.93200 33.49600 32.20500

