158

Mg 29.42600 58.22500 40.46800
C  26.42000 56.58400 39.84100
C  31.08400 55.38400 39.98500
C  32.19900 60.02100 40.68300
C  27.50900 61.17100 41.09400
N  28.79000 56.30200 39.84900
C  27.54500 55.82800 39.54300
C  27.68900 54.45900 38.92400
C  29.06100 53.99300 39.44600
C  29.73000 55.29600 39.84900
C  29.10600 52.95000 40.62500
C  27.41600 54.45200 37.38400
C  26.14800 53.74600 36.85900
H  25.62100 54.11200 35.45200
N  31.44200 57.70900 40.29300
C  31.91100 56.47600 40.10800
C  33.41700 56.53800 40.02900
C  33.73600 57.88400 40.23100
C  32.44500 58.64200 40.40000
C  34.31200 55.35500 39.57600
C  35.19000 58.40000 40.14700
O  36.11700 57.56000 40.01200
C  35.41100 59.80600 40.23500
N  29.83300 60.34300 40.72900
C  31.08100 60.79100 40.84600
C  31.09200 62.33300 41.01600
C  29.58900 62.64600 41.18800
C  28.88300 61.32100 40.97600
C  32.01600 62.83700 42.27200
C  28.92400 63.85800 40.50500
C  28.17900 64.86300 41.33900
N  27.36000 58.79400 40.70600
C  26.75000 60.00100 40.97400
C  25.26700 59.83900 41.05500
C  25.12900 58.52300 40.59800
C  26.37100 57.95500 40.35800
C  24.25600 60.85000 41.44900
C  24.14600 57.52400 40.25300
O  22.93500 57.51200 40.32600
C  24.92700 56.26300 39.72900
C  24.41000 55.14500 40.49500
O  24.56500 54.99300 41.69200
O  23.78400 54.25200 39.69600
C  23.81700 52.84700 40.06900
H  31.57700 54.44800 39.71500
H  33.00400 60.75100 40.79300
H  26.90700 62.06900 41.24700
H  27.03400 53.71800 39.38200
H  29.68600 53.70700 38.60100
H  28.37400 52.14500 40.57400
H  29.13700 53.57600 41.51700
H  30.06600 52.43500 40.57800
H  28.23700 53.87400 36.96200
H  27.38800 55.43500 36.91200
H  25.37400 53.86000 37.61700
H  26.38000 52.68100 36.84100
H  35.09300 55.67000 38.88400
H  33.67000 54.56400 39.18800
H  34.75700 54.85100 40.43400
H  34.75800 60.31300 39.52500
H  36.44800 59.92900 39.92200
H  35.33100 60.06500 41.29100
H  31.48400 62.68000 40.05900
H  29.50200 62.77300 42.26700
H  32.70400 62.00500 42.42800
H  31.44800 63.15500 43.14600
H  32.65300 63.64700 41.91800
H  28.31200 63.35800 39.75400
H  29.66700 64.40900 39.92900
H  28.34400 64.77200 42.41200
H  27.14300 64.57200 41.16300
H  28.40700 65.87600 41.00900
H  24.57300 61.47200 42.28600
H  23.22100 60.51100 41.49700
H  24.36900 61.65100 40.71900
H  24.58200 56.06600 38.71400
H  24.46500 52.70600 40.93400
H  24.15500 52.17400 39.28100
H  22.82100 52.63400 40.45600
Mg -9.92900 17.55500 42.13700
C  -6.46500 16.94600 42.80900
C  -9.18800 20.74700 41.43900
C  -13.18100 18.07300 41.43500
C  -10.51100 14.06500 42.56500
N  -7.93100 18.66100 42.06400
C  -6.74000 18.26400 42.38900
C  -5.73700 19.39400 42.14600
C  -6.69400 20.66200 42.08900
C  -8.02400 20.00500 41.78700
C  -6.74500 21.50000 43.40900
C  -4.81700 19.12600 40.91100
C  -5.37600 18.53000 39.64900
H  -5.10000 19.33300 38.35900
N  -11.03400 19.21300 41.57000
C  -10.54100 20.41300 41.39100
C  -11.56500 21.39900 41.21100
C  -12.77600 20.62600 41.09700
C  -12.35000 19.24200 41.34300
C  -11.42300 22.88000 40.93300
C  -14.17400 21.19300 40.92000
O  -14.36500 22.40200 40.99500
C  -15.41400 20.51000 40.54300
N  -11.64300 16.23600 41.95600
C  -12.92500 16.67300 41.73200
C  -13.90400 15.55100 41.88700
C  -13.05200 14.26500 42.17300
C  -11.65200 14.85400 42.27300
C  -14.87900 15.68100 42.96400
C  -13.17000 13.24200 41.02300
C  -14.13900 11.97100 41.25000
N  -8.80500 15.81600 42.44700
C  -9.14400 14.52800 42.58300
C  -7.94700 13.67500 42.81800
C  -6.89300 14.64100 42.94300
C  -7.44400 15.88700 42.76500
C  -7.83000 12.22700 42.94800
C  -5.43800 14.78300 43.26200
O  -4.55700 13.91600 43.32900
C  -5.19200 16.27800 43.20900
C  -4.61400 16.74600 44.47400
O  -3.59700 17.40700 44.53400
O  -5.45000 16.54000 45.55600
C  -5.20100 17.27000 46.82500
H  -9.01300 21.79600 41.19200
H  -14.23600 18.25900 41.22300
H  -10.67300 12.99000 42.66300
H  -5.09900 19.38900 43.03100
H  -6.29700 21.24600 41.25900
H  -7.77100 21.43800 43.77300
H  -6.53400 22.49900 43.02800
H  -5.88100 21.10000 43.93900
H  -4.28600 18.21400 41.18100
H  -4.06700 19.91500 40.85000
H  -6.44600 18.50600 39.85200
H  -4.98600 17.54100 39.40400
H  -11.36800 23.10400 39.86700
H  -10.45400 23.21600 41.30200
H  -12.18100 23.44500 41.47600
H  -15.54900 19.86500 41.41100
H  -15.29000 19.96300 39.60800
H  -16.23800 21.22200 40.48400
H  -14.38200 15.51100 40.90800
H  -13.18100 13.91400 43.19700
H  -15.68600 16.35800 42.68600
H  -14.38800 16.12800 43.82900
H  -15.24100 14.71000 43.30200
H  -12.16100 12.86500 40.85800
H  -13.49800 13.84100 40.17400
H  -15.03500 11.97600 40.63000
H  -14.44600 12.12400 42.28500
H  -13.63600 11.01000 41.14100
H  -8.63800 11.84900 42.32000
H  -7.99300 11.99300 44.00000
H  -6.78900 12.05500 42.67700
H  -4.30800 16.43700 42.59200
H  -5.09400 18.34500 46.68000
H  -4.30400 16.87800 47.30400
H  -6.10000 17.11400 47.42200

