158

Mg 46.68300 17.17300 29.01500
C  45.09400 16.56700 32.20000
C  49.11900 18.94100 30.93800
C  47.97600 18.33200 26.23500
C  44.06000 15.67300 27.45700
N  47.14100 17.58900 31.37300
C  46.34600 17.18300 32.44900
C  46.85400 17.74200 33.80800
C  48.10700 18.53800 33.35900
C  48.16900 18.32100 31.77900
C  48.05600 20.03900 33.69900
C  47.22200 16.61900 34.86000
C  46.47700 16.87400 36.22300
H  46.30700 18.28900 36.67200
N  48.37600 18.43300 28.64300
C  49.25300 19.04600 29.53700
C  50.28200 19.78900 28.85900
C  50.03600 19.54700 27.42500
C  48.75600 18.76100 27.33500
C  51.43800 20.37300 29.46100
C  50.89800 19.84200 26.18600
O  50.71300 19.32000 25.08700
C  52.04400 20.79600 26.28900
N  46.24400 16.79400 27.16300
C  46.83700 17.51600 26.13200
C  46.14700 17.24400 24.76500
C  45.10200 16.11100 25.12700
C  45.14500 16.15600 26.67700
C  45.62600 18.57500 24.08900
C  45.39800 14.69100 24.60000
C  44.55300 14.38100 23.39700
N  44.98900 16.19300 29.64600
C  43.99300 15.57100 28.85000
C  42.94600 15.02500 29.78600
C  43.35600 15.41500 31.02100
C  44.57700 16.13200 30.97300
C  41.68700 14.42700 29.34300
C  42.96500 15.28800 32.47300
O  41.98200 14.77000 32.97300
C  44.00300 16.19500 33.26500
C  43.39000 17.42600 33.86000
O  42.78600 18.25300 33.23700
O  43.31800 17.25600 35.20100
C  42.36900 18.11200 35.94800
H  49.93400 19.44500 31.46200
H  48.30400 18.68400 25.25500
H  43.17000 15.33400 26.92100
H  46.00600 18.36000 34.10400
H  49.03100 18.12300 33.76300
H  48.00900 20.60300 32.76800
H  48.92400 20.30000 34.30400
H  47.16400 20.18800 34.30700
H  48.29400 16.58000 35.05500
H  46.86200 15.65500 34.50100
H  47.03100 16.40700 37.03700
H  45.49300 16.41800 36.11200
H  51.19700 20.50300 30.51600
H  51.71200 21.34500 29.05100
H  52.37400 19.86900 29.22200
H  52.85300 20.34900 26.86800
H  51.67100 21.68900 26.78900
H  52.42500 21.19900 25.35100
H  46.84600 16.77500 24.07300
H  44.14200 16.44400 24.73300
H  46.25600 19.42400 24.35800
H  44.58400 18.60000 24.40900
H  45.68200 18.51100 23.00200
H  45.20100 13.93000 25.35500
H  46.44000 14.67500 24.28200
H  45.21800 14.21100 22.55100
H  43.91200 15.20200 23.07400
H  43.95900 13.48000 23.54700
H  41.46100 14.78800 28.33900
H  40.93400 14.67000 30.09200
H  41.88600 13.36200 29.46200
H  44.43700 15.54000 34.02100
H  41.35300 17.82700 35.67500
H  42.42100 19.18400 35.75700
H  42.49900 17.93500 37.01500
Mg 30.73800 58.62800 40.42800
C  27.89500 56.75400 39.21200
C  32.80700 56.09300 39.19400
C  33.24200 60.65800 40.75800
C  28.31900 61.28700 40.92800
N  30.31200 56.66900 39.18500
C  29.10900 56.13700 38.92900
C  29.34000 54.75700 38.28900
C  30.86400 54.38800 38.58200
C  31.42600 55.77400 38.99500
C  31.03700 53.25700 39.63600
C  28.91200 54.87300 36.72300
C  28.04900 53.73900 36.19800
H  27.11400 54.07600 35.04900
N  32.74700 58.36600 40.09300
C  33.46200 57.32200 39.57100
C  34.83100 57.59500 39.55400
C  35.06600 58.96700 39.80500
C  33.66800 59.45100 40.24500
C  35.85000 56.55600 39.26300
C  36.36600 59.82900 39.66800
O  37.40600 59.33800 39.25400
C  36.37800 61.18900 40.29800
N  30.77400 60.72200 40.83500
C  32.01500 61.31000 40.91300
C  31.88000 62.83300 41.16200
C  30.32400 62.94200 41.42500
C  29.71700 61.59100 41.02900
C  32.77500 63.42700 42.30500
C  29.67100 64.12800 40.65100
C  28.51200 64.82700 41.30900
N  28.55500 59.00900 40.25000
C  27.75600 60.07500 40.50600
C  26.35800 59.76700 40.19700
C  26.37400 58.46600 39.77200
C  27.73100 58.06200 39.72800
C  25.28100 60.81300 40.24100
C  25.52400 57.38700 39.27100
O  24.29700 57.23900 39.12200
C  26.51200 56.18300 38.90800
C  26.22600 55.03900 39.76100
O  26.60300 55.06000 40.98500
O  25.54500 54.06100 39.09800
C  24.97000 52.93800 39.86400
H  33.53000 55.34400 38.86400
H  33.93200 61.48200 40.95000
H  27.55700 62.00400 41.24000
H  28.61500 54.08800 38.75200
H  31.35700 54.10500 37.65200
H  30.41600 52.39000 39.41300
H  30.93000 53.70000 40.62700
H  32.03100 52.81700 39.55200
H  29.84000 54.90300 36.15100
H  28.41700 55.81500 36.48600
H  27.34300 53.32500 36.91800
H  28.63600 52.88900 35.84900
H  35.52700 56.13700 38.30900
H  35.77500 55.80200 40.04600
H  36.79800 57.07200 39.11000
H  35.97100 61.12600 41.30700
H  35.87300 61.94800 39.70000
H  37.43900 61.43900 40.31200
H  32.23300 63.23500 40.21300
H  30.10600 63.16000 42.47000
H  33.42800 62.59800 42.58000
H  32.16800 63.71200 43.16400
H  33.35500 64.25200 41.89300
H  29.37000 63.77000 39.66600
H  30.42200 64.87200 40.38400
H  27.63300 64.61200 40.70100
H  28.63600 65.90900 41.32600
H  28.41400 64.47100 42.33400
H  24.36200 60.27100 40.01700
H  25.48600 61.61500 39.53200
H  25.33300 61.26900 41.22900
H  26.38600 56.04400 37.83400
H  24.71300 53.28200 40.86600
H  25.71100 52.13900 39.82000
H  23.98700 52.62900 39.50700

