158

Mg 35.54900 48.48500 25.00300
C  36.14600 46.76600 27.93100
C  34.42100 51.23700 26.78200
C  35.00100 50.03400 22.16700
C  36.64700 45.54400 23.29700
N  34.95700 48.84700 27.08800
C  35.46100 47.97300 28.08800
C  35.33800 48.70600 29.45800
C  34.60900 49.99800 29.03000
C  34.64100 50.07500 27.53700
C  33.16300 50.08000 29.61200
C  36.68600 48.86300 30.24200
C  36.65100 48.57300 31.76100
H  35.21100 48.54800 32.38400
N  34.91100 50.43200 24.55500
C  34.55500 51.42100 25.37000
C  34.31100 52.61300 24.59200
C  34.46800 52.24500 23.21100
C  34.77600 50.85200 23.29700
C  34.15900 53.99100 25.27800
C  34.32700 53.08900 21.98700
O  34.37300 52.68800 20.81700
C  34.36700 54.61400 22.25500
N  35.61700 47.78300 23.08700
C  35.42400 48.72900 22.07200
C  35.64700 48.05400 20.68900
C  36.21400 46.66800 21.06200
C  36.18900 46.69200 22.58600
C  34.35400 48.00700 19.80900
C  37.57600 46.44600 20.47300
C  37.72000 45.90300 19.06500
N  36.22000 46.48000 25.45200
C  36.69400 45.46700 24.68800
C  37.08100 44.33600 25.52100
C  36.90000 44.80100 26.85100
C  36.39600 46.14500 26.73500
C  37.52900 42.99900 25.17400
C  36.95600 44.44400 28.27300
O  37.31000 43.46100 28.97800
C  36.57000 45.74500 28.99400
C  35.47300 45.38300 29.96500
O  34.31200 45.19900 29.66800
O  36.08200 45.22200 31.18000
C  35.29800 44.34800 32.12500
H  34.00800 52.00100 27.44300
H  34.93800 50.56800 21.21600
H  36.98900 44.66800 22.74100
H  34.68000 48.08000 30.06100
H  35.09000 50.84800 29.51500
H  33.29900 50.53800 30.59200
H  32.81100 49.07600 29.84800
H  32.45100 50.55200 28.93500
H  37.06800 49.87100 30.08100
H  37.45100 48.24800 29.76900
H  37.19300 49.28200 32.38600
H  37.18600 47.66000 32.02200
H  35.10300 54.53600 25.27800
H  34.05800 54.02300 26.36300
H  33.37100 54.57300 24.80100
H  33.48300 55.00000 22.76200
H  34.35200 55.14800 21.30500
H  35.24800 54.69900 22.89000
H  36.37600 48.63400 20.12400
H  35.65000 45.80200 20.71900
H  34.06800 47.06700 19.33700
H  34.27700 48.75500 19.02000
H  33.49300 48.14100 20.46400
H  38.17100 45.71600 21.02200
H  38.11900 47.38100 20.60700
H  38.04700 44.86500 19.01100
H  38.40400 46.50200 18.46400
H  36.78800 46.04200 18.51700
H  38.48800 42.99600 24.65600
H  36.69600 42.56500 24.62000
H  37.70300 42.30000 25.99200
H  37.49900 45.92600 29.53400
H  35.84200 44.05600 33.02300
H  34.92300 43.41500 31.70500
H  34.39600 44.92800 32.32300
Mg 0.57600 44.36300 26.32000
C  2.83400 44.27100 29.06300
C  -1.94900 43.70400 28.68700
C  -1.44500 43.80000 23.84000
C  3.35700 44.55100 24.21000
N  0.50000 44.01200 28.69200
C  1.52000 44.20500 29.56300
C  1.05500 44.05500 30.96100
C  -0.43900 43.57700 30.79200
C  -0.70800 43.78300 29.30300
C  -0.63400 42.07800 31.30400
C  1.23100 45.43300 31.72700
C  1.60400 45.41800 33.24300
H  1.06000 44.23000 34.04400
N  -1.48500 44.08800 26.23700
C  -2.32200 43.77100 27.34500
C  -3.63600 43.89200 26.88300
C  -3.60800 43.74900 25.41800
C  -2.16800 43.87600 25.11100
C  -4.86400 44.12000 27.82300
C  -4.75400 43.60000 24.42700
O  -4.59100 43.50300 23.25200
C  -6.18100 43.50700 25.03300
N  0.94900 43.96600 24.33500
C  -0.06500 43.86900 23.51500
C  0.47500 43.90500 22.05100
C  1.79700 44.68600 22.19200
C  2.07900 44.39000 23.67900
C  0.51400 42.51600 21.38600
C  1.70500 46.16300 21.91400
C  2.40000 46.60900 20.60000
N  2.63600 44.38700 26.50800
C  3.66300 44.49400 25.57200
C  4.94800 44.63800 26.16000
C  4.63900 44.48800 27.52800
C  3.24600 44.35800 27.70800
C  6.26300 44.67300 25.47200
C  5.29500 44.48600 28.81000
O  6.47200 44.51400 29.09300
C  4.14000 44.25300 29.85000
C  4.33900 43.01400 30.70800
O  4.47800 41.90200 30.22200
O  4.22000 43.28200 32.02000
C  4.32900 42.14300 32.98600
H  -2.65600 43.39900 29.46100
H  -2.10200 43.74100 22.97000
H  4.17400 44.92700 23.59100
H  1.54600 43.24100 31.49600
H  -1.16100 44.09900 31.42000
H  0.26900 41.47500 31.40400
H  -1.22600 41.50900 30.58700
H  -1.21400 42.22700 32.21500
H  0.32000 46.00000 31.53400
H  1.94300 45.99500 31.12300
H  1.12700 46.33300 33.59300
H  2.68300 45.55000 33.32600
H  -5.47900 43.22900 27.95500
H  -5.49300 44.89400 27.38500
H  -4.61200 44.60500 28.76700
H  -6.24100 42.93600 25.96000
H  -6.73500 42.82100 24.39200
H  -6.68700 44.47200 25.04700
H  -0.26600 44.47500 21.48900
H  2.52800 44.15600 21.58200
H  -0.11500 41.81400 21.93300
H  1.47900 42.02200 21.49500
H  0.23800 42.66200 20.34100
H  2.06100 46.74600 22.76300
H  0.72400 46.58300 21.69300
H  3.15800 47.35800 20.83100
H  1.69900 47.16900 19.98100
H  2.98600 45.88800 20.03100
H  6.13600 45.52100 24.79900
H  6.55200 43.73600 24.99600
H  7.01500 44.96500 26.20500
H  4.05100 45.10600 30.52300
H  5.25300 41.59000 32.81600
H  3.48900 41.46300 32.83800
H  4.41200 42.54900 33.99300

