158

Mg 47.11700 15.28900 28.53500
C  44.82100 15.22400 31.39000
C  48.92900 17.66300 30.41300
C  49.18400 15.60500 26.09400
C  44.72600 13.63600 26.68500
N  46.75800 16.45200 30.60700
C  45.91000 16.07000 31.63900
C  46.23900 16.80000 32.96000
C  47.31300 17.79600 32.44900
C  47.76100 17.25200 31.09300
C  46.83600 19.28300 32.43400
C  46.61600 15.92100 34.17000
C  46.85700 16.70100 35.48000
H  47.96100 16.21800 36.40400
N  48.88600 16.41700 28.33200
C  49.51400 17.18400 29.25700
C  50.84600 17.42900 28.72900
C  50.90500 16.92700 27.41800
C  49.68300 16.27900 27.20900
C  51.85100 18.37200 29.40600
C  52.04500 16.98700 26.45200
O  51.93400 16.58600 25.28700
C  53.31000 17.63100 26.90700
N  46.82300 14.92200 26.53000
C  47.93300 15.08000 25.73000
C  47.68200 14.40100 24.36700
C  46.37900 13.63800 24.67700
C  45.92200 14.05300 26.04200
C  47.65700 15.25800 23.09300
C  46.60500 12.10200 24.75900
C  46.45000 11.21400 23.43000
N  45.13800 14.55100 28.90100
C  44.37100 13.80800 28.07800
C  43.26300 13.19100 28.92000
C  43.43000 13.80000 30.13900
C  44.54700 14.57500 30.14000
C  42.14900 12.36700 28.36200
C  42.73500 13.95700 31.47600
O  41.65100 13.44100 31.87100
C  43.74300 14.76600 32.37700
C  43.07900 15.85700 33.13200
O  42.59300 16.83500 32.59100
O  43.06100 15.62200 34.45300
C  42.06900 16.42400 35.16600
H  49.55800 18.32800 31.01000
H  49.83500 15.51000 25.22200
H  44.10200 12.95500 26.10300
H  45.29400 17.29300 33.19100
H  48.15800 17.90900 33.12800
H  46.93100 19.66900 31.41900
H  47.42800 19.81000 33.18200
H  45.80000 19.46000 32.72400
H  47.36600 15.16200 33.94800
H  45.83600 15.23600 34.50400
H  46.02100 16.63000 36.17500
H  46.97900 17.73700 35.16200
H  51.92300 19.31400 28.86300
H  52.80500 17.87800 29.59200
H  51.60200 18.60400 30.44200
H  53.98600 17.52800 26.05800
H  53.76600 17.15200 27.77400
H  53.12600 18.66800 27.18600
H  48.52200 13.74700 24.13400
H  45.58400 13.80800 23.95200
H  46.77500 14.92900 22.54400
H  48.49400 15.09700 22.41300
H  47.48200 16.32600 23.22600
H  45.97000 11.70400 25.55100
H  47.57500 11.99300 25.24500
H  46.14400 11.75800 22.53600
H  45.77500 10.38100 23.62800
H  47.41900 10.72100 23.35200
H  42.11900 11.53100 29.06000
H  42.45000 11.91600 27.41600
H  41.22300 12.93300 28.26000
H  44.18200 14.01700 33.03600
H  41.92200 15.84500 36.07800
H  41.16600 16.60000 34.58100
H  42.53800 17.34400 35.51700
Mg 15.88000 52.07700 25.37500
C  17.90400 51.16200 28.18300
C  13.23800 52.47000 27.49100
C  14.33700 53.11700 22.72400
C  18.55300 50.93400 23.34500
N  15.65800 51.93400 27.51900
C  16.57400 51.67400 28.53900
C  16.10000 52.09600 29.92900
C  14.53700 52.11400 29.64900
C  14.44600 52.10200 28.12700
C  13.82400 50.77800 30.23900
C  16.71600 53.42700 30.22000
C  16.71500 53.83000 31.72000
H  15.79200 53.02000 32.70900
N  13.93000 52.75700 25.15000
C  12.97300 52.78600 26.11200
C  11.77100 53.32900 25.45800
C  12.05200 53.55100 24.08100
C  13.44300 53.17600 23.92200
C  10.39600 53.38300 26.20000
C  11.14200 54.06100 22.97000
O  11.49100 54.23500 21.82000
C  9.67500 54.33800 23.23900
N  16.46000 52.19500 23.34900
C  15.65100 52.67100 22.44200
C  16.20900 52.62700 21.00800
C  17.67500 52.16600 21.29300
C  17.59100 51.78100 22.74100
C  15.40500 51.57200 20.10600
C  18.76100 53.23700 21.12000
C  20.11400 52.77400 20.33600
N  17.75000 50.96300 25.57800
C  18.68700 50.52900 24.73800
C  19.78800 49.90300 25.40000
C  19.51800 50.20900 26.74000
C  18.33300 50.85500 26.82600
C  20.91900 49.18700 24.73400
C  20.13600 50.16600 28.02500
O  21.19800 49.72600 28.40900
C  19.02900 50.65100 29.10300
C  18.56200 49.41200 29.89000
O  18.01800 48.35400 29.48800
O  18.68000 49.70400 31.23100
C  18.06900 48.76700 32.15600
H  12.37700 52.73100 28.11000
H  13.79400 53.34300 21.80400
H  19.39600 50.73900 22.67900
H  16.57800 51.42300 30.64100
H  14.20600 53.03900 30.12200
H  13.27700 50.20300 29.49200
H  13.12000 51.09600 31.00800
H  14.53300 50.17600 30.80700
H  16.11200 54.24800 29.83200
H  17.73500 53.46700 29.83700
H  16.73900 54.91900 31.76000
H  17.71900 53.55500 32.04400
H  9.71400 52.62700 25.80900
H  9.85500 54.32300 26.09200
H  10.54500 53.20300 27.26400
H  9.29000 53.53600 23.87000
H  9.12400 54.32500 22.29900
H  9.45100 55.29400 23.71200
H  16.31100 53.51700 20.38700
H  17.91200 51.26100 20.73300
H  14.65800 52.18000 19.59700
H  14.90900 50.78300 20.67200
H  15.97100 51.09400 19.30600
H  19.06100 53.56800 22.11500
H  18.44500 54.16800 20.64900
H  20.01600 51.70700 20.13500
H  21.04900 52.96200 20.86300
H  20.23900 53.29600 19.38800
H  20.64900 49.12200 23.68000
H  21.00100 48.16100 25.09300
H  21.91600 49.61900 24.81700
H  19.30800 51.43800 29.80400
H  18.93300 48.21800 32.53000
H  17.29100 48.16100 31.69200
H  17.70400 49.25800 33.05800

