158

Mg 43.26300 4.65200 46.45200
C  41.31900 7.66600 46.10900
C  40.29500 2.94700 46.10200
C  45.05000 1.97400 45.92900
C  46.11300 6.70700 46.54600
N  41.10600 5.30000 46.13400
C  40.55200 6.53400 46.24800
C  39.03800 6.45200 46.38200
C  38.71400 4.91400 46.56700
C  40.11500 4.32500 46.17400
C  38.12300 4.46800 48.02600
C  38.26100 6.97400 45.10900
C  38.69700 6.68300 43.66700
H  39.16300 7.75400 42.81600
N  42.76600 2.71300 46.02500
C  41.49700 2.20900 45.88000
C  41.53900 0.77200 45.64800
C  42.92400 0.40400 45.56800
C  43.67500 1.67400 45.84800
C  40.30700 -0.13700 45.61300
C  43.45400 -0.98200 45.27800
O  42.73300 -1.95600 45.15700
C  44.96000 -1.32200 45.21000
N  45.26600 4.40200 46.27900
C  45.73800 3.13200 46.24600
C  47.28000 3.21000 46.48500
C  47.52100 4.65000 46.93900
C  46.23600 5.31600 46.50600
C  47.88700 2.10800 47.45100
C  48.86600 5.33300 46.60700
C  49.52400 6.08300 47.77700
N  43.72200 6.75400 46.44400
C  44.93500 7.41200 46.45900
C  44.69800 8.79900 46.41400
C  43.30100 8.96600 46.36800
C  42.73600 7.66100 46.19700
C  45.80400 9.84200 46.39200
C  42.34100 9.94700 46.26300
O  42.42600 11.18200 46.28800
C  40.97500 9.14100 46.13700
C  40.14400 9.53200 47.28800
O  40.25900 9.15800 48.44500
O  38.90600 10.04400 46.80100
C  37.75600 9.96600 47.73600
H  39.30400 2.49100 46.15100
H  45.78600 1.17700 46.04900
H  47.02900 7.30000 46.59700
H  38.75600 7.07600 47.22900
H  37.93800 4.65600 45.84600
H  37.10300 4.85000 48.08000
H  38.53400 5.12100 48.79600
H  38.30500 3.42000 48.26200
H  38.22000 8.05200 45.26500
H  37.21300 6.67500 45.11800
H  37.87500 6.19300 43.14600
H  39.54500 6.01200 43.80600
H  40.42800 -0.95500 46.32200
H  40.21700 -0.63300 44.64600
H  39.33700 0.32500 45.80100
H  45.58100 -0.81600 45.95000
H  45.35800 -0.90700 44.28400
H  45.12700 -2.39900 45.16500
H  47.77300 3.08000 45.52200
H  47.48200 4.66000 48.02800
H  48.30200 1.36000 46.77500
H  47.11000 1.56300 47.98700
H  48.54900 2.71900 48.06500
H  48.75100 6.03400 45.78100
H  49.44300 4.49000 46.22600
H  50.35800 5.44800 48.07700
H  48.95800 6.47300 48.62300
H  49.75300 7.10400 47.47400
H  45.29200 10.80300 46.33000
H  46.23600 9.95200 45.39700
H  46.58500 9.72000 47.14200
H  40.53800 9.44500 45.18500
H  37.93700 10.52700 48.65300
H  37.44800 8.92700 47.85600
H  36.86500 10.38100 47.26600
Mg 47.71500 34.93200 27.74400
C  46.01000 33.02400 30.19600
C  47.81200 37.62100 29.91200
C  48.70900 36.84100 25.11700
C  46.99600 32.34900 25.32600
N  47.08400 35.20800 29.80000
C  46.55600 34.25500 30.64700
C  46.66100 34.84400 32.11500
C  46.80700 36.33200 31.91500
C  47.28200 36.41100 30.45100
C  45.48300 37.12300 32.11100
C  47.96400 34.15200 32.69200
C  47.88600 34.03300 34.26100
H  46.91800 34.93400 35.10300
N  48.33600 36.91000 27.58200
C  48.28200 37.78600 28.57300
C  48.84200 39.02900 28.12500
C  49.08700 38.87000 26.72900
C  48.79000 37.47300 26.40200
C  49.17200 40.13600 29.03300
C  49.83500 39.84000 25.73400
O  50.17700 39.53000 24.59200
C  50.36600 41.15500 26.28500
N  47.79600 34.59600 25.46600
C  48.29400 35.57800 24.65300
C  48.24900 35.13500 23.17900
C  47.82200 33.66200 23.26300
C  47.47200 33.54100 24.75500
C  47.33000 36.14200 22.39800
C  48.85000 32.62300 22.73300
C  50.13400 32.43000 23.59800
N  46.79900 33.06100 27.73000
C  46.54000 32.12500 26.69400
C  45.98900 30.89400 27.28500
C  45.74000 31.26700 28.62700
C  46.16500 32.59100 28.81300
C  45.80900 29.61900 26.56900
C  45.07800 30.79900 29.88800
O  44.56000 29.71700 30.11800
C  45.10200 32.07500 30.87400
C  45.56400 31.65600 32.18700
O  46.44700 30.89500 32.39700
O  44.73000 32.24500 33.12100
C  44.68500 31.77500 34.52900
H  47.88500 38.48400 30.57800
H  49.16600 37.35500 24.26900
H  46.82100 31.61500 24.53700
H  45.80300 34.76400 32.78200
H  47.55000 36.84200 32.52700
H  44.97400 37.26400 31.15700
H  45.63400 38.08800 32.59500
H  44.72400 36.60100 32.69300
H  48.75800 34.82800 32.37500
H  48.19500 33.22000 32.17500
H  48.89200 34.16300 34.66000
H  47.57400 33.01800 34.50700
H  50.22700 40.37400 28.90300
H  49.00800 40.00400 30.10200
H  48.50100 40.93300 28.71300
H  49.65300 41.76800 26.83700
H  50.57000 41.72900 25.38100
H  51.26800 40.89600 26.83900
H  49.23900 35.20400 22.72800
H  46.92800 33.68500 22.63900
H  46.75200 36.72900 23.11200
H  46.54600 35.70700 21.77800
H  47.93100 36.85700 21.83700
H  49.28000 32.87300 21.76300
H  48.23600 31.73200 22.59700
H  50.39800 31.39600 23.81700
H  49.90900 33.03000 24.48000
H  51.00700 32.94400 23.19400
H  46.16400 28.80900 27.20600
H  46.33400 29.46500 25.62600
H  44.77500 29.36900 26.33100
H  44.07200 32.34400 31.10600
H  44.92700 30.71200 34.53800
H  43.65000 31.90200 34.84500
H  45.40100 32.22600 35.21500

