158

Mg 9.97900 47.62400 25.97000
C  8.23900 47.90500 28.96900
C  12.65500 49.17600 27.56200
C  11.71000 47.58000 23.09500
C  7.06800 46.63600 24.40600
N  10.25400 48.59900 28.00400
C  9.48600 48.45500 29.07400
C  10.12500 48.98400 30.41800
C  11.37600 49.74700 29.82200
C  11.45700 49.12700 28.38400
C  11.11600 51.27900 29.79100
C  10.57700 47.84100 31.40600
C  9.96500 47.87200 32.82200
H  10.19100 46.62000 33.76000
N  11.90900 48.18100 25.44700
C  12.86100 48.76800 26.25700
C  14.12800 48.83600 25.56700
C  13.94900 48.37700 24.23100
C  12.44700 48.01200 24.21700
C  15.28400 49.50900 26.25500
C  14.90900 48.13500 23.14100
O  14.69900 47.58800 22.04400
C  16.27500 48.61100 23.36100
N  9.42300 47.39400 24.05000
C  10.37200 47.28500 22.95300
C  9.69400 46.85200 21.69000
C  8.40700 46.33500 22.22100
C  8.23200 46.87300 23.63800
C  9.53700 47.82700 20.43400
C  8.21900 44.81400 21.96200
C  9.18600 44.08400 22.90600
N  8.00100 47.50700 26.44900
C  6.93700 46.99300 25.78800
C  5.73800 46.98800 26.61700
C  6.28400 47.26400 27.87800
C  7.64500 47.58700 27.77000
C  4.37700 46.62700 26.22400
C  5.90800 47.29700 29.28200
O  4.82000 47.11800 29.77000
C  7.17700 47.67300 30.06500
C  7.45400 46.41500 30.83800
O  8.03800 45.41500 30.41600
O  6.93400 46.43200 32.17500
C  7.11500 45.17800 32.95200
H  13.47200 49.49900 28.21000
H  12.34800 47.69000 22.21500
H  6.29400 46.07400 23.87800
H  9.45600 49.68000 30.92300
H  12.19600 49.54500 30.51100
H  11.89200 51.79800 30.35400
H  10.19000 51.50100 30.32200
H  11.13600 51.55100 28.73600
H  11.65700 47.82800 31.55100
H  10.22100 46.89400 31.00200
H  8.90100 48.07600 32.70100
H  10.31900 48.81900 33.22800
H  15.90900 49.92300 25.46300
H  15.77600 48.96900 27.06400
H  15.10500 50.43600 26.79900
H  16.69500 48.15400 24.25600
H  16.25900 49.69800 23.29000
H  17.02200 48.33500 22.61700
H  10.31400 46.00600 21.39500
H  7.58000 46.71500 21.62200
H  9.95300 48.78300 20.75000
H  8.49400 47.88700 20.12300
H  10.11600 47.41400 19.60800
H  8.36200 44.59400 20.90400
H  7.19300 44.58100 22.24600
H  8.62400 43.73100 23.77000
H  10.03700 44.62500 23.31800
H  9.46500 43.19000 22.34800
H  3.97800 47.44900 25.63000
H  3.75700 46.40600 27.09300
H  4.34500 45.79900 25.51700
H  7.00200 48.45200 30.80700
H  7.51400 45.36300 33.95000
H  7.78400 44.47900 32.45100
H  6.18300 44.63400 33.10300
Mg -1.74600 34.16500 27.36400
C  -3.50600 32.29300 29.65200
C  -0.34500 35.96100 29.89300
C  -0.54300 36.38100 25.00700
C  -3.77000 32.73400 24.88100
N  -1.85900 34.11000 29.43600
C  -2.60500 33.21400 30.27500
C  -2.36900 33.44800 31.84400
C  -1.43700 34.72300 31.79100
C  -1.23900 34.95900 30.27800
C  -2.05200 35.95200 32.57200
C  -1.84500 32.11700 32.48700
C  -2.72700 31.44800 33.57300
H  -1.96800 31.25600 34.86700
N  -0.42300 35.82900 27.42000
C  0.07400 36.39300 28.59100
C  0.97000 37.50300 28.16800
C  0.99300 37.53500 26.76100
C  -0.03300 36.60600 26.34500
C  1.86000 38.16300 29.14200
C  1.89200 38.37500 25.83800
O  1.70500 38.42200 24.60500
C  2.93300 39.21200 26.38900
N  -2.32900 34.59000 25.29500
C  -1.58100 35.44700 24.50800
C  -1.93100 35.44500 23.07400
C  -2.83200 34.17800 23.05700
C  -3.03600 33.84000 24.52200
C  -2.50800 36.76800 22.58200
C  -2.30900 32.95700 22.13500
C  -1.42000 31.96700 22.85400
N  -3.35900 32.80700 27.17400
C  -3.94100 32.23700 26.17500
C  -4.90900 31.25500 26.57500
C  -4.73900 31.20200 27.97000
C  -3.82600 32.16300 28.28900
C  -5.78500 30.47100 25.68300
C  -5.19800 30.51600 29.13100
O  -5.96100 29.53300 29.35000
C  -4.34100 31.18900 30.32200
C  -5.37200 31.81200 31.25300
O  -6.07700 32.79200 30.98500
O  -5.68600 30.93100 32.26100
C  -6.78400 31.36000 33.17400
H  -0.26500 36.58900 30.78200
H  -0.16300 37.00700 24.19700
H  -4.38700 32.31400 24.08400
H  -3.40800 33.53100 32.16100
H  -0.45900 34.52400 32.23000
H  -1.97700 35.66200 33.62000
H  -3.07600 36.16100 32.26300
H  -1.30200 36.74200 32.53100
H  -0.89800 32.33800 32.98000
H  -1.65100 31.39300 31.69600
H  -2.88900 30.43500 33.20500
H  -3.63300 32.01200 33.79400
H  1.80200 39.22100 28.88600
H  2.88200 37.80900 29.00900
H  1.42200 37.98400 30.12400
H  2.69900 39.82800 27.25800
H  3.34700 39.85800 25.61500
H  3.73700 38.54400 26.69700
H  -0.95800 35.28200 22.61200
H  -3.83700 34.45400 22.74000
H  -2.05000 37.03300 21.62900
H  -2.30200 37.58900 23.26900
H  -3.59400 36.69700 22.53200
H  -1.82500 33.37600 21.25300
H  -3.23600 32.43800 21.89100
H  -1.05400 32.34800 23.80700
H  -0.60500 31.80900 22.14900
H  -1.92500 31.02500 23.07100
H  -5.36300 29.59200 25.19600
H  -6.27000 31.13400 24.96600
H  -6.62800 30.05600 26.23500
H  -3.63300 30.46200 30.71800
H  -6.29500 32.00800 33.90000
H  -7.09800 30.39700 33.57800
H  -7.64900 31.84400 32.72000

