158

Mg 47.24000 25.24100 28.18500
C  48.11900 27.53800 30.64800
C  46.19300 23.05200 30.55900
C  46.41700 23.08200 25.74200
C  48.50000 27.39700 25.73300
N  47.24200 25.27400 30.37000
C  47.53300 26.34700 31.17400
C  47.39400 26.03400 32.69800
C  46.84600 24.55600 32.57600
C  46.81900 24.26100 31.06300
C  47.65000 23.58400 33.40300
C  46.54500 27.16700 33.41600
C  45.83700 26.62600 34.69500
H  45.42300 27.63300 35.84000
N  46.43800 23.34900 28.13000
C  46.08100 22.57900 29.21400
C  45.63700 21.26100 28.82300
C  45.55600 21.27900 27.42300
C  46.16000 22.57200 27.00900
C  45.34000 20.09300 29.74700
C  45.04400 20.19400 26.50000
O  45.05100 20.36700 25.28600
C  44.54400 18.90100 27.03000
N  47.36900 25.21600 25.97900
C  47.02700 24.27600 25.27000
C  47.22400 24.43700 23.75500
C  47.69700 25.94300 23.67100
C  47.89900 26.24300 25.22600
C  48.15600 23.39800 23.06100
C  46.80100 26.94400 22.95000
C  47.32100 27.37800 21.51800
N  48.17000 27.04700 28.16600
C  48.56400 27.85300 27.13200
C  49.08900 29.09900 27.62200
C  48.97300 29.07400 28.97900
C  48.36900 27.76600 29.28200
C  49.73100 30.20300 26.91300
C  49.19300 29.74000 30.23900
O  49.65300 30.85000 30.49200
C  48.53100 28.88200 31.30000
C  49.49600 28.71800 32.37400
O  50.31700 27.83300 32.62900
O  49.11800 29.60200 33.37900
C  49.74700 29.48500 34.66700
H  45.69400 22.50600 31.36200
H  46.20100 22.36400 24.94800
H  48.84000 28.09900 24.96900
H  48.44500 26.14100 32.96400
H  45.82500 24.47600 32.95000
H  47.84400 22.71300 32.77700
H  47.08500 23.20500 34.25500
H  48.63700 23.97900 33.64600
H  45.91700 27.73300 32.72800
H  47.21900 27.91200 33.83700
H  46.49800 25.85900 35.09800
H  44.90900 26.15300 34.37300
H  46.04900 19.31800 29.45300
H  44.30400 19.76200 29.81700
H  45.63900 20.37300 30.75700
H  45.44700 18.61600 27.57000
H  44.29600 18.27600 26.17300
H  43.74200 19.05200 27.75300
H  46.27500 24.47200 23.22000
H  48.72400 25.90100 23.30600
H  49.03400 23.89700 22.65100
H  47.63300 23.06100 22.16500
H  48.45500 22.54700 23.67300
H  46.79200 27.77800 23.65100
H  45.77700 26.56900 22.92900
H  46.36900 27.37300 20.98800
H  48.01100 26.61300 21.16100
H  47.75000 28.37800 21.57800
H  49.36300 31.09200 27.42500
H  49.54600 30.29600 25.84300
H  50.80700 30.06800 27.02200
H  47.60300 29.36400 31.60700
H  49.25800 28.78500 35.34400
H  49.90500 30.43600 35.17600
H  50.81100 29.28700 34.53600
Mg 42.18300 41.27600 26.36900
C  41.32700 43.69200 28.67200
C  43.43800 39.33800 28.81000
C  43.08200 39.14500 23.94400
C  41.44700 43.67300 23.73400
N  42.17100 41.50600 28.55800
C  41.79400 42.52400 29.35700
C  41.89500 42.26500 30.89700
C  42.68100 40.92300 30.79300
C  42.86100 40.57900 29.27800
C  43.98600 40.66800 31.63700
C  40.53400 42.20500 31.63000
C  40.28900 43.03900 32.86900
H  39.41600 42.52700 33.93400
N  43.02600 39.47800 26.39800
C  43.53600 38.87100 27.49000
C  44.04200 37.62500 27.09600
C  43.60000 37.41000 25.74300
C  43.21700 38.72500 25.32200
C  44.76600 36.73800 28.09300
C  43.65200 36.10000 24.99000
O  43.24500 36.04300 23.82400
C  44.08600 34.83800 25.63800
N  42.36100 41.46000 24.05700
C  42.71500 40.34700 23.31600
C  42.64800 40.62800 21.85400
C  42.24300 42.10400 21.80800
C  41.86700 42.41400 23.33300
C  43.88700 40.12300 21.00800
C  41.04900 42.47100 20.88600
C  41.08800 43.84700 20.05000
N  41.58400 43.18700 26.16000
C  41.30000 44.03600 25.07600
C  40.78200 45.28400 25.53400
C  40.79700 45.25300 26.90300
C  41.31000 43.91100 27.27000
C  40.41700 46.38700 24.54800
C  40.53800 45.98400 28.13000
O  40.19200 47.15400 28.30800
C  40.77100 44.90800 29.25900
C  41.54700 45.51600 30.41900
O  42.78300 45.64500 30.56500
O  40.58800 45.80000 31.32900
C  41.09100 46.34600 32.65600
H  43.65200 38.61200 29.59800
H  43.39800 38.38300 23.22800
H  41.25000 44.45000 22.99300
H  42.43400 42.99900 31.49600
H  42.02500 40.11900 31.12500
H  44.00000 39.89300 32.40400
H  44.29700 41.65600 31.97700
H  44.79100 40.29900 31.00000
H  40.26800 41.19700 31.94900
H  39.73600 42.49300 30.94500
H  39.74100 43.90400 32.49400
H  41.27800 43.34400 33.21000
H  45.07400 37.46100 28.84800
H  45.61900 36.23000 27.64400
H  44.16800 35.93100 28.51700
H  45.15600 34.85900 25.84400
H  43.72400 33.94300 25.13100
H  43.57700 34.79100 26.60100
H  41.84200 39.98700 21.49600
H  43.06700 42.76400 21.53700
H  44.45200 40.97300 20.62400
H  43.57200 39.45600 20.20600
H  44.55200 39.59000 21.68700
H  40.18000 42.50900 21.54400
H  40.96800 41.69500 20.12500
H  40.25500 44.47600 20.36500
H  41.03300 43.62200 18.98500
H  42.01700 44.39700 20.20000
H  39.77200 45.98600 23.76600
H  41.38800 46.73900 24.19900
H  39.83000 47.18800 24.99600
H  39.79000 44.52700 29.54500
H  41.55500 47.32700 32.56100
H  41.82600 45.79000 33.23700
H  40.25300 46.39900 33.35100

