158

Mg 2.82000 -1.17800 45.12100
C  6.27600 -0.62800 44.54000
C  2.12900 1.54200 43.05000
C  -0.38000 -2.30700 45.03900
C  3.76800 -4.12200 46.90300
N  4.06100 0.32100 43.95200
C  5.46300 0.25000 43.80700
C  5.93400 1.36900 42.91600
C  4.59600 2.12300 42.63000
C  3.49100 1.28700 43.23400
C  4.50400 3.53100 43.24300
C  6.73400 0.72200 41.70900
C  7.96500 1.47700 41.08600
H  7.71000 2.23700 39.79500
N  1.11800 -0.40500 44.23600
C  1.01400 0.72200 43.43100
C  -0.39300 0.98900 43.23600
C  -1.16800 -0.01800 43.84200
C  -0.13800 -0.97600 44.43400
C  -0.94100 2.11100 42.42600
C  -2.68800 -0.13600 43.81000
O  -3.37000 0.70100 43.27500
C  -3.33900 -1.20700 44.60500
N  1.85400 -2.87000 45.79100
C  0.51000 -3.15300 45.66700
C  0.14300 -4.59600 46.20800
C  1.42800 -5.06900 46.96000
C  2.41600 -3.92000 46.50300
C  -1.21400 -4.57400 47.04700
C  1.82700 -6.57500 46.56000
C  1.28400 -7.66200 47.49600
N  4.61600 -2.16300 45.76600
C  4.85900 -3.26200 46.53400
C  6.23800 -3.47200 46.72300
C  6.83300 -2.38400 46.06200
C  5.83600 -1.72700 45.37600
C  6.98800 -4.60500 47.36100
C  8.11500 -1.71100 45.66900
O  9.24400 -1.96300 45.85500
C  7.74700 -0.62500 44.70900
C  8.26800 0.67600 45.28900
O  7.66000 1.34800 46.11500
O  9.40000 1.02900 44.59800
C  9.81500 2.39600 44.91600
H  1.89800 2.30700 42.30600
H  -1.35700 -2.76700 44.87700
H  3.94200 -5.03500 47.47600
H  6.55400 1.99500 43.55700
H  4.35700 2.18500 41.56900
H  5.34600 4.18000 43.00300
H  4.58400 3.26300 44.29600
H  3.53100 3.97400 43.03200
H  6.00100 0.59200 40.91200
H  7.07600 -0.30200 41.85700
H  8.73300 0.73000 40.88400
H  8.27300 2.21100 41.83000
H  -0.91700 1.80200 41.38100
H  -0.23500 2.93900 42.48900
H  -1.90400 2.55500 42.67600
H  -3.14100 -1.14300 45.67400
H  -3.01000 -2.20200 44.30400
H  -4.41500 -1.29400 44.45500
H  -0.06100 -5.27100 45.37700
H  1.21800 -4.87400 48.01100
H  -1.93900 -5.18200 46.50600
H  -1.53300 -3.53800 47.16000
H  -0.96000 -5.07200 47.98200
H  2.90200 -6.62500 46.38600
H  1.47400 -6.78100 45.55000
H  1.00600 -7.22000 48.45200
H  2.10700 -8.37700 47.48400
H  0.44800 -8.20800 47.06000
H  7.16700 -5.41700 46.65700
H  6.38400 -4.83400 48.23900
H  7.94300 -4.23200 47.73200
H  8.30300 -0.82000 43.79200
H  10.62000 2.53200 44.19400
H  10.21000 2.51000 45.92500
H  9.08400 3.17600 44.70500
Mg 30.16400 58.20900 39.99200
C  27.41000 56.30300 38.74700
C  32.21800 55.54300 39.04700
C  32.76500 60.17500 40.34900
C  28.03100 61.00000 40.18400
N  29.77700 56.20300 39.06400
C  28.56000 55.53700 38.76900
C  28.68000 54.01000 38.48800
C  30.21000 53.83200 38.75800
C  30.79500 55.26800 38.90400
C  30.48700 52.87200 39.94600
C  28.09600 53.57100 37.10700
C  28.87500 54.05600 35.83600
H  28.14800 54.67300 34.56900
N  32.29200 57.88400 39.79300
C  32.87100 56.72400 39.37000
C  34.25600 56.96100 39.42700
C  34.50500 58.35000 39.69700
C  33.17600 58.89300 40.05600
C  35.32500 55.87900 39.18400
C  35.89900 59.07200 39.69600
O  36.97900 58.48500 39.46700
C  35.96700 60.55100 40.18400
N  30.40200 60.28000 40.15200
C  31.57900 60.84200 40.44400
C  31.50300 62.31300 40.60000
C  29.98600 62.58500 40.71000
C  29.39800 61.23700 40.33800
C  32.27600 62.88200 41.84700
C  29.34800 63.81600 39.92700
C  28.19300 64.50500 40.72600
N  28.14300 58.59100 39.59300
C  27.42400 59.84800 39.77300
C  26.02400 59.58800 39.39400
C  25.99600 58.24300 39.03000
C  27.30600 57.68300 39.13400
C  24.85200 60.47700 39.45500
C  25.08100 57.19600 38.63500
O  23.88700 57.17600 38.47800
C  25.95300 55.89800 38.51600
C  25.44200 55.02400 39.65900
O  25.25200 55.35200 40.80400
O  25.18900 53.72100 39.16200
C  24.65300 52.75800 40.17800
H  32.94100 54.73800 38.89500
H  33.54700 60.92000 40.51100
H  27.33000 61.83600 40.14400
H  28.00600 53.65200 39.26600
H  30.68100 53.58600 37.80600
H  30.75200 53.54400 40.76200
H  31.26700 52.11800 39.83600
H  29.51200 52.51600 40.27600
H  27.03600 53.79000 36.97700
H  28.04000 52.48400 37.04300
H  29.40300 53.18300 35.45200
H  29.60200 54.75800 36.24400
H  36.27000 56.20500 38.74900
H  34.98800 55.05700 38.55300
H  35.59600 55.52800 40.18000
H  35.52500 60.62900 41.17700
H  35.37000 61.12800 39.47600
H  36.97100 60.96000 40.07200
H  31.95100 62.69500 39.68300
H  29.95600 62.66000 41.79700
H  33.24400 63.20300 41.46200
H  32.39700 62.19600 42.68500
H  31.77800 63.72600 42.32400
H  28.83900 63.31600 39.10300
H  30.06700 64.59200 39.66500
H  27.34800 64.70900 40.06900
H  28.52000 65.41200 41.23600
H  27.83300 63.87700 41.54100
H  24.79600 61.00500 38.50400
H  24.91000 61.28900 40.18100
H  24.02500 59.79700 39.66000
H  25.67200 55.47300 37.55300
H  24.11300 51.99300 39.62000
H  23.87600 53.17300 40.82100
H  25.36800 52.24200 40.81800

