158

Mg 16.80900 -1.26600 27.28300
C  15.60700 0.69900 30.13200
C  18.91700 -2.86800 29.34700
C  17.90700 -2.87700 24.56800
C  14.70200 0.76500 25.33000
N  17.16600 -1.09000 29.52900
C  16.50400 -0.36700 30.45100
C  17.06100 -0.60000 31.87500
C  18.22400 -1.70800 31.58900
C  18.11400 -1.95400 30.08400
C  19.60700 -1.38500 32.14500
C  15.91900 -1.04000 32.94100
C  16.03800 -0.46700 34.36400
H  17.40700 0.13600 34.86700
N  18.28400 -2.60800 26.99400
C  18.99400 -3.23200 27.96300
C  19.83000 -4.15700 27.42500
C  19.54400 -4.16200 26.05300
C  18.54400 -3.21300 25.81200
C  20.81200 -5.07700 28.26400
C  20.11500 -5.01300 25.03900
O  19.73800 -5.07100 23.86400
C  21.22900 -6.01300 25.39100
N  16.39400 -0.99100 25.23000
C  16.93900 -1.84800 24.29300
C  16.47400 -1.51400 22.88400
C  15.42000 -0.36900 23.17400
C  15.50000 -0.19200 24.63200
C  17.50800 -1.10200 21.93600
C  14.05800 -0.72300 22.60800
C  13.15900 -1.70000 23.41900
N  15.39400 0.32700 27.57700
C  14.70000 1.08200 26.71400
C  13.90100 2.10100 27.35200
C  14.24100 2.01500 28.66300
C  15.09500 0.91000 28.80700
C  12.95800 3.03500 26.67100
C  14.04000 2.57700 29.95500
O  13.30900 3.51100 30.29200
C  14.92700 1.69800 30.98800
C  15.75700 2.74900 31.62400
O  16.70300 3.36800 31.24900
O  15.05900 3.06600 32.73600
C  15.46700 4.20600 33.62000
H  19.64800 -3.34600 30.00300
H  18.02500 -3.40800 23.62000
H  14.07100 1.33400 24.64300
H  17.44000 0.38200 32.15900
H  17.93200 -2.64600 32.06100
H  19.92500 -2.18200 32.81700
H  19.64000 -0.46100 32.72300
H  20.26100 -1.37500 31.27300
H  16.12100 -2.09600 33.12000
H  15.01000 -0.76800 32.40500
H  15.62300 -1.17100 35.08600
H  15.39900 0.41500 34.31500
H  20.51500 -6.12400 28.20100
H  20.67900 -4.88700 29.32900
H  21.83500 -4.88500 27.94100
H  20.90300 -6.72900 26.14500
H  21.98200 -5.31100 25.74900
H  21.68800 -6.48800 24.52400
H  15.94600 -2.41800 22.57900
H  15.73700 0.57600 22.73300
H  18.47100 -1.07100 22.44400
H  17.22700 -0.13900 21.50900
H  17.61100 -1.88000 21.17900
H  14.19000 -1.14700 21.61300
H  13.52200 0.21000 22.43900
H  12.34200 -1.14500 23.88100
H  13.77000 -2.22100 24.15700
H  12.78300 -2.38600 22.66100
H  12.29000 3.52000 27.38200
H  12.27500 2.46200 26.04300
H  13.40000 3.88800 26.15600
H  14.20800 1.25300 31.67600
H  15.12300 4.11300 34.65000
H  15.22800 5.20000 33.24000
H  16.55700 4.22700 33.64300
Mg -6.14300 25.26000 25.67800
C  -4.61900 26.59700 28.45600
C  -7.86700 23.28300 27.58000
C  -6.97900 23.54900 22.86000
C  -4.06100 27.25200 23.63100
N  -6.15200 24.89100 27.79800
C  -5.58500 25.63700 28.78700
C  -6.03900 25.28500 30.21100
C  -6.91900 23.96700 29.82300
C  -6.97600 24.04400 28.25700
C  -6.33900 22.68700 30.22600
C  -6.91900 26.30700 30.92400
C  -6.78900 26.47700 32.43500
H  -6.52600 25.30600 33.46100
N  -7.34800 23.73300 25.27400
C  -8.03200 23.05800 26.20500
C  -8.86400 22.06000 25.58900
C  -8.52500 22.04000 24.15700
C  -7.57500 23.15000 24.07400
C  -10.05400 21.32300 26.37100
C  -9.11200 21.13700 23.07700
O  -8.75000 21.31500 21.93500
C  -10.05300 20.01400 23.34900
N  -5.61900 25.37700 23.54000
C  -6.18900 24.62400 22.57800
C  -5.64000 24.85600 21.14100
C  -4.92000 26.22000 21.36000
C  -4.79600 26.28800 22.94200
C  -4.76900 23.66000 20.70100
C  -5.69800 27.49500 20.89700
C  -5.01700 28.16900 19.71400
N  -4.65700 26.67800 25.91300
C  -3.82100 27.34100 25.01800
C  -2.92600 28.27800 25.79600
C  -3.18800 27.88300 27.14000
C  -4.24100 26.91400 27.17700
C  -1.93100 29.26700 25.29000
C  -2.76400 28.16900 28.50500
O  -2.04300 28.97200 29.03900
C  -3.76400 27.32700 29.42100
C  -2.99400 26.47900 30.33100
O  -2.40800 25.44400 30.10700
O  -2.93300 27.13900 31.52800
C  -2.37300 26.37500 32.64500
H  -8.48800 22.66400 28.23200
H  -7.25200 23.04300 21.93200
H  -3.46400 27.97800 23.07500
H  -5.23300 25.07200 30.91400
H  -7.91900 23.94500 30.25700
H  -6.18100 22.01200 29.38400
H  -6.98900 22.18800 30.94500
H  -5.44200 22.78900 30.83700
H  -7.93400 26.14000 30.56100
H  -6.59800 27.30400 30.62100
H  -7.67200 26.98900 32.81700
H  -6.03900 27.23800 32.65200
H  -11.04300 21.30600 25.91300
H  -10.25500 21.77800 27.34100
H  -9.86000 20.25300 26.44600
H  -10.13300 19.44800 22.42100
H  -11.05500 20.33500 23.63300
H  -9.70600 19.32000 24.11400
H  -6.44200 24.93000 20.40700
H  -3.94300 26.09800 20.89300
H  -4.14300 23.89800 19.84100
H  -5.38400 22.87400 20.26300
H  -4.16400 23.27200 21.52100
H  -5.73200 28.27900 21.65400
H  -6.72900 27.29200 20.60700
H  -5.34400 27.77700 18.75100
H  -3.93500 28.04300 19.75200
H  -5.06000 29.24800 19.86500
H  -1.96500 29.46800 24.21900
H  -0.92700 29.05900 25.65900
H  -2.25900 30.21800 25.71000
H  -4.37400 28.05000 29.96300
H  -2.88300 26.66800 33.56300
H  -1.31900 26.58600 32.82700
H  -2.43200 25.29800 32.49500

