158

Mg 8.77500 2.71700 27.42500
C  10.18300 1.34100 30.26600
C  7.24900 5.01000 29.65600
C  7.01700 3.99200 24.85800
C  9.68900 0.07200 25.54300
N  8.65500 3.12400 29.74500
C  9.34600 2.40400 30.65200
C  9.11700 2.85900 32.08400
C  7.99800 4.04500 31.88200
C  7.83400 4.01800 30.35400
C  6.68500 3.87800 32.68600
C  10.46200 3.23600 32.82700
C  10.63200 2.77300 34.28000
H  10.79100 3.84700 35.29600
N  7.45400 4.36800 27.25700
C  7.03400 5.18100 28.28700
C  6.16900 6.22900 27.72900
C  5.96600 5.86000 26.40100
C  6.82400 4.74400 26.12200
C  5.62200 7.40900 28.46000
C  5.07800 6.47200 25.30000
O  4.89600 6.01500 24.14000
C  4.32700 7.70300 25.66700
N  8.34500 2.13200 25.45600
C  7.70700 2.85900 24.56900
C  7.79000 2.22700 23.15400
C  8.57200 0.93500 23.45700
C  8.87500 1.03500 24.95100
C  6.32100 1.96700 22.62100
C  9.96000 0.86300 22.59700
C  11.23700 1.53600 23.16700
N  9.84600 1.12500 27.75600
C  10.16100 0.07300 26.85300
C  10.97400 -0.88700 27.58500
C  10.95900 -0.47000 28.88400
C  10.29500 0.77100 28.98100
C  11.73100 -2.11400 26.96700
C  11.42800 -0.74000 30.26000
O  11.96700 -1.70300 30.73700
C  10.93500 0.42600 31.20700
C  10.13100 -0.17200 32.34500
O  8.92900 -0.47200 32.27900
O  10.91300 -0.31800 33.47500
C  10.19800 -0.63700 34.72700
H  6.85800 5.78900 30.31500
H  6.64600 4.41600 23.92200
H  10.04200 -0.84300 25.06100
H  8.79300 1.99500 32.66400
H  8.44400 5.02300 32.06600
H  6.90000 3.56700 33.70900
H  5.98200 3.25400 32.13300
H  6.21500 4.86100 32.65200
H  10.56900 4.31900 32.88700
H  11.32400 2.97300 32.21400
H  11.58400 2.24800 34.35900
H  9.71400 2.23500 34.51700
H  5.98800 8.27100 27.90300
H  5.92200 7.45100 29.50700
H  4.53300 7.36700 28.43300
H  3.85800 8.04000 24.74300
H  4.99500 8.48300 26.03400
H  3.55500 7.36200 26.35600
H  8.33500 2.99800 22.61000
H  7.98800 0.01500 23.44100
H  5.51300 2.48100 23.14200
H  5.97700 0.93700 22.71800
H  6.19400 2.22200 21.56900
H  9.81100 1.23800 21.58500
H  10.20800 -0.19800 22.57800
H  11.02800 2.08500 24.08600
H  11.74100 2.09200 22.37600
H  11.95000 0.77600 23.48400
H  11.65200 -2.21600 25.88400
H  11.45700 -3.02400 27.50200
H  12.80700 -1.99700 27.10000
H  11.90400 0.76700 31.57200
H  9.29900 -0.02200 34.77700
H  10.90200 -0.35700 35.51000
H  9.96600 -1.69300 34.86800
Mg 41.13500 7.86700 28.67600
C  42.83200 9.23200 31.51600
C  38.79200 6.44700 30.69700
C  39.88300 6.33000 25.97100
C  43.96700 8.77700 26.74800
N  40.87800 7.85100 30.88100
C  41.62000 8.57400 31.83700
C  40.97800 8.42100 33.23800
C  39.72100 7.55200 32.95100
C  39.72500 7.30800 31.37700
C  39.68800 6.13500 33.65200
C  40.55100 9.81800 33.79400
C  39.93100 9.88100 35.19600
H  40.60500 10.59800 36.39300
N  39.52700 6.71100 28.41000
C  38.61400 6.25700 29.31700
C  37.57600 5.49100 28.65100
C  37.79900 5.66300 27.20300
C  39.13400 6.24700 27.13700
C  36.46000 4.71900 29.29600
C  37.01200 5.12300 25.99500
O  37.30400 5.26100 24.81200
C  35.65600 4.43600 26.26000
N  41.87700 7.53600 26.66400
C  41.16500 6.82100 25.72700
C  41.88300 6.77000 24.43800
C  43.27700 7.51100 24.70500
C  43.01100 8.05900 26.10000
C  42.08200 5.35200 23.80400
C  43.61600 8.60300 23.64100
C  43.94200 8.08900 22.24900
N  42.89400 8.89800 28.95600
C  43.89700 9.20500 28.08400
C  45.00400 9.98900 28.80300
C  44.57900 9.95200 30.14000
C  43.37400 9.21000 30.19800
C  46.27200 10.56300 28.24600
C  44.88600 10.34800 31.47600
O  45.88500 10.88300 31.88200
C  43.80200 9.90100 32.42200
C  44.33500 9.03100 33.48900
O  44.86500 7.94000 33.29700
O  44.01500 9.50000 34.73800
C  44.64600 8.72400 35.84800
H  38.10400 5.88200 31.33000
H  39.40800 5.76000 25.17000
H  44.77000 9.17000 26.12200
H  41.70700 7.92000 33.87400
H  38.82400 8.09500 33.25000
H  40.57500 6.03800 34.27800
H  39.71300 5.26500 32.99700
H  38.83000 5.93100 34.29200
H  39.84500 10.23100 33.07400
H  41.32200 10.58400 33.88000
H  39.83800 8.84200 35.51300
H  38.92200 10.29300 35.20500
H  36.41600 4.90700 30.36900
H  36.60400 3.66200 29.07200
H  35.63300 5.20100 28.77700
H  35.87600 3.67800 27.01200
H  35.30300 4.10000 25.28500
H  35.04600 5.27900 26.58700
H  41.34600 7.38400 23.71500
H  44.18300 6.90900 24.77800
H  41.51300 4.51100 24.20200
H  43.13900 5.08700 23.81700
H  41.64100 5.44100 22.81100
H  44.33600 9.37400 23.91400
H  42.77700 9.26500 23.42500
H  43.27000 8.54200 21.52000
H  43.82400 7.00600 22.26000
H  44.97800 8.36800 22.05400
H  46.98000 10.94700 28.98100
H  45.97300 11.30200 27.50200
H  46.86400 9.90300 27.61200
H  43.38300 10.77400 32.92100
H  44.40600 7.66100 35.83300
H  44.53400 9.11600 36.85900
H  45.71400 8.72800 35.63300

