158

Mg 2.37700 -1.67600 43.88500
C  5.75800 -1.29000 43.09500
C  1.73200 1.08900 41.89100
C  -0.82100 -2.33100 44.25700
C  3.10000 -4.86100 45.13000
N  3.53200 -0.43500 42.42200
C  4.92500 -0.40400 42.43400
C  5.49800 0.72100 41.65800
C  4.21000 1.64700 41.36700
C  3.09700 0.76400 41.98900
C  4.19200 2.96300 42.17700
C  6.05400 0.23100 40.36200
C  7.18100 1.18100 39.81000
H  6.84500 1.98600 38.57600
N  0.65600 -0.70500 43.27400
C  0.57000 0.37300 42.46600
C  -0.79700 0.75300 42.28100
C  -1.62500 -0.27900 42.85600
C  -0.65000 -1.17800 43.49600
C  -1.27300 1.88800 41.41200
C  -3.17100 -0.38300 42.75700
O  -3.82900 0.48500 42.24800
C  -3.83900 -1.61100 43.13200
N  1.27800 -3.41100 44.51500
C  -0.06500 -3.36500 44.71600
C  -0.57500 -4.72500 45.08400
C  0.73600 -5.50400 45.51400
C  1.76900 -4.51300 45.04100
C  -1.80800 -4.71400 46.12000
C  0.80700 -6.86000 44.75900
C  1.26400 -8.12200 45.53900
N  4.07400 -2.87300 44.19700
C  4.18800 -4.07200 44.83800
C  5.64100 -4.29400 45.11400
C  6.34500 -3.15500 44.47200
C  5.33700 -2.37900 43.85900
C  6.25700 -5.30000 45.94900
C  7.61800 -2.52600 44.27900
O  8.72200 -2.72100 44.68000
C  7.26300 -1.31300 43.33900
C  7.78000 -0.03200 44.00300
O  7.36300 0.33700 45.08600
O  8.70600 0.58900 43.26800
C  9.08600 1.94400 43.72200
H  1.50900 2.02400 41.37300
H  -1.87300 -2.47100 44.51400
H  3.47200 -5.80800 45.52900
H  6.30200 1.20400 42.21300
H  3.95700 1.76600 40.31300
H  3.76300 3.78800 41.60900
H  5.25300 3.18000 42.30300
H  3.83200 2.76800 43.18700
H  5.20700 0.18100 39.67700
H  6.32100 -0.81600 40.50300
H  7.93300 0.46200 39.48600
H  7.52700 1.90500 40.54700
H  -2.03700 1.47800 40.75300
H  -0.47900 2.20300 40.73600
H  -1.82000 2.67700 41.92800
H  -4.87900 -1.76900 42.84800
H  -3.87200 -1.64500 44.22000
H  -3.24400 -2.46800 42.81600
H  -1.02300 -5.17700 44.19800
H  0.78000 -5.58300 46.60100
H  -1.81600 -5.45800 46.91600
H  -2.73000 -4.70000 45.53900
H  -1.95900 -3.76600 46.63500
H  1.53400 -6.76200 43.95300
H  -0.13900 -7.17300 44.31900
H  0.48200 -8.88100 45.55500
H  1.61100 -7.97500 46.56200
H  2.00900 -8.64800 44.94300
H  5.62400 -5.41800 46.82900
H  7.27800 -5.13700 46.29600
H  6.26700 -6.21200 45.35200
H  7.70700 -1.51300 42.36400
H  10.00300 2.32500 43.27300
H  9.41900 1.86600 44.75800
H  8.34000 2.67800 43.42100
Mg -10.60100 16.17600 42.94100
C  -7.16000 16.89100 43.10700
C  -11.20500 19.38500 42.22000
C  -13.78500 15.30700 42.61500
C  -9.69100 12.77200 43.16100
N  -9.21900 17.95300 42.41700
C  -7.89000 18.03100 42.69800
C  -7.38400 19.46500 42.75000
C  -8.75800 20.26500 42.42300
C  -9.82000 19.17100 42.38400
C  -9.06500 21.48100 43.39600
C  -6.11100 19.68200 41.77400
C  -5.81300 21.09300 41.31200
H  -6.01100 21.50300 39.86800
N  -12.24600 17.15400 42.22300
C  -12.30700 18.50500 42.04100
C  -13.64000 18.84200 41.66600
C  -14.42500 17.67700 41.57900
C  -13.50400 16.66000 42.20800
C  -14.06300 20.33900 41.48100
C  -15.86200 17.53200 41.04900
O  -16.46800 18.40700 40.47300
C  -16.47000 16.14900 41.09400
N  -11.61800 14.22900 42.73800
C  -12.98100 14.17900 42.93500
C  -13.47400 12.79400 43.36800
C  -12.17500 12.01800 43.46600
C  -11.06500 13.05400 43.13200
C  -14.35200 12.75900 44.64600
C  -12.12400 10.72600 42.58000
C  -12.59500 9.50200 43.28800
N  -8.81900 15.03400 43.17000
C  -8.63800 13.68300 43.19500
C  -7.28200 13.33600 43.41600
C  -6.67400 14.56700 43.41200
C  -7.63200 15.58400 43.22400
C  -6.72400 12.00800 43.68900
C  -5.34500 15.22000 43.70800
O  -4.30500 14.70300 43.94400
C  -5.67500 16.76800 43.57000
C  -5.34700 17.37900 44.88200
O  -5.82100 17.11800 45.90800
O  -4.42500 18.44200 44.68100
C  -3.91600 19.10200 45.88900
H  -11.28700 20.45600 42.01900
H  -14.84900 15.07700 42.53200
H  -9.34200 11.76300 43.39100
H  -7.11600 19.73700 43.77100
H  -8.60500 20.65500 41.41600
H  -8.14400 21.83500 43.86000
H  -9.74100 21.21400 44.20800
H  -9.61000 22.23100 42.82300
H  -6.46400 19.09600 40.92600
H  -5.17100 19.33500 42.20300
H  -4.81100 21.45900 41.53800
H  -6.46400 21.82700 41.78500
H  -13.87500 20.78100 40.50300
H  -13.54600 21.02500 42.15100
H  -15.09200 20.45300 41.82400
H  -15.93300 15.33400 40.60900
H  -17.31500 16.32400 40.42800
H  -16.99300 15.91600 42.02200
H  -14.11200 12.47700 42.54300
H  -12.03100 11.77000 44.51700
H  -13.90100 12.12600 45.41100
H  -15.37000 12.53600 44.32900
H  -14.25100 13.80100 44.94800
H  -11.15300 10.48000 42.15000
H  -12.77300 10.90800 41.72400
H  -12.83900 9.76600 44.31800
H  -11.87900 8.68100 43.28900
H  -13.53500 9.17900 42.84200
H  -7.05500 11.32000 42.91100
H  -6.97900 11.63900 44.68200
H  -5.63900 11.97100 43.59600
H  -4.94900 17.18600 42.87400
H  -2.83700 19.24500 45.82100
H  -4.13200 18.57800 46.82000
H  -4.28000 20.12800 45.93200

