158

Mg 17.44600 -1.91800 28.19500
C  16.22700 -0.01100 30.81100
C  19.31800 -3.71000 30.51300
C  18.72600 -3.68600 25.66300
C  15.42100 -0.07300 25.99700
N  17.90400 -1.62900 30.43900
C  17.09200 -0.93500 31.33300
C  17.35000 -1.47000 32.80300
C  18.54600 -2.40600 32.63000
C  18.57500 -2.62000 31.06300
C  19.87800 -1.95300 33.42900
C  16.02000 -1.97700 33.45300
C  15.82200 -1.35500 34.83700
H  17.00200 -0.89300 35.69700
N  18.91900 -3.39400 28.10600
C  19.42500 -4.09600 29.09100
C  20.15900 -5.33700 28.64800
C  19.90200 -5.34700 27.22600
C  19.14300 -4.10200 26.95900
C  20.67400 -6.45200 29.53400
C  20.25000 -6.40600 26.22900
O  19.59300 -6.63100 25.21100
C  21.36200 -7.39600 26.52900
N  17.26700 -1.74200 26.15500
C  17.88400 -2.56900 25.29300
C  17.42900 -2.48200 23.81300
C  16.33600 -1.30600 23.87400
C  16.28500 -1.01600 25.42500
C  18.55600 -2.27000 22.74000
C  14.87800 -1.45000 23.35800
C  14.10100 -2.81200 23.53100
N  16.12700 -0.29400 28.28700
C  15.35600 0.32600 27.35500
C  14.49100 1.27200 27.94700
C  14.79000 1.16500 29.26500
C  15.82500 0.18700 29.46400
C  13.44400 2.12400 27.42800
C  14.37900 1.69000 30.60000
O  13.60900 2.55900 30.95600
C  15.38800 0.94700 31.60000
C  16.07200 2.07500 32.30600
O  16.71700 3.03800 31.80500
O  16.08200 1.81200 33.68700
C  16.79000 2.84700 34.38700
H  19.79700 -4.33200 31.27200
H  19.15800 -4.25200 24.83600
H  14.63300 0.52100 25.53000
H  17.64000 -0.53100 33.27500
H  18.13300 -3.30200 33.09200
H  19.81100 -0.88500 33.63700
H  20.78700 -1.96500 32.82900
H  19.96800 -2.36600 34.43400
H  16.08200 -3.04600 33.65700
H  15.17100 -1.68700 32.83300
H  15.38300 -2.13200 35.46300
H  15.09600 -0.54100 34.82500
H  20.17300 -7.39900 29.33300
H  20.43900 -6.18000 30.56300
H  21.76200 -6.49300 29.48600
H  22.13700 -6.80900 27.02200
H  21.69300 -7.69900 25.53600
H  21.07800 -8.23700 27.16000
H  16.81400 -3.36100 23.61600
H  16.77600 -0.37800 23.50900
H  18.53600 -1.30400 22.23700
H  18.55200 -3.04800 21.97700
H  19.46900 -2.16300 23.32600
H  14.96100 -1.20600 22.29900
H  14.20800 -0.69700 23.77300
H  13.03700 -2.63600 23.69000
H  14.42100 -3.47300 24.33700
H  14.26100 -3.32100 22.58100
H  12.81400 1.48700 26.80600
H  13.84800 2.77000 26.64900
H  12.93800 2.61200 28.26100
H  14.68400 0.55600 32.33500
H  16.48300 3.86800 34.15700
H  17.85400 2.71600 34.18700
H  16.58600 2.51200 35.40300
Mg -1.91600 33.31900 25.84300
C  -3.36200 31.80700 28.62300
C  -0.15900 35.37900 27.87100
C  -0.82700 35.03200 23.11900
C  -4.09300 31.45100 23.82800
N  -1.90000 33.60000 27.97200
C  -2.48800 32.85100 28.96400
C  -1.97400 33.30300 30.32600
C  -1.19200 34.59600 30.04700
C  -1.13400 34.59200 28.51700
C  -1.98900 35.91300 30.41600
C  -1.14900 32.23400 31.19200
C  -0.97700 32.57300 32.70600
H  -1.29700 31.52000 33.74600
N  -0.57200 34.91800 25.50800
C  0.12900 35.49100 26.47300
C  1.17700 36.32800 25.84400
C  0.98400 36.39800 24.46300
C  -0.18500 35.44800 24.27900
C  2.21800 37.02900 26.74100
C  1.68300 37.08200 23.35100
O  1.51400 36.89400 22.16900
C  2.71800 37.98600 23.74600
N  -2.24300 33.15100 23.75600
C  -1.83200 34.15200 22.85600
C  -2.59500 34.09100 21.49700
C  -3.59200 32.89200 21.79600
C  -3.28700 32.42700 23.22500
C  -3.22300 35.47800 21.12300
C  -3.37900 31.80000 20.72500
C  -2.38700 30.63600 21.00900
N  -3.38100 31.95900 26.06000
C  -4.13300 31.24500 25.14700
C  -5.00100 30.30400 25.86400
C  -4.75000 30.51400 27.21800
C  -3.75800 31.49400 27.26600
C  -5.83800 29.35700 25.23300
C  -4.97000 30.05200 28.57900
O  -5.71000 29.17800 28.96000
C  -4.08900 30.87200 29.54400
C  -4.97100 31.67200 30.47900
O  -6.01200 32.25800 30.15600
O  -4.52000 31.50700 31.77600
C  -5.47300 31.82300 32.95400
H  0.54200 35.98500 28.44800
H  -0.57800 35.67500 22.27200
H  -4.77400 30.80700 23.26700
H  -2.80700 33.62900 30.95000
H  -0.24700 34.56300 30.59000
H  -2.97900 35.74500 29.99300
H  -1.67600 36.76300 29.80900
H  -2.01200 36.15300 31.47900
H  -0.16300 32.19800 30.73000
H  -1.60600 31.25000 31.08300
H  -1.73500 33.34200 32.85800
H  -0.01200 33.05400 32.86500
H  3.23400 37.17000 26.37300
H  2.50100 36.45500 27.62400
H  1.91600 38.02600 27.06000
H  2.21400 38.57800 24.51000
H  2.82400 38.66600 22.90100
H  3.66400 37.49200 23.96600
H  -1.86600 33.76200 20.75600
H  -4.62800 33.20700 21.67200
H  -4.27300 35.29300 20.89800
H  -2.77700 35.87600 20.21200
H  -3.21500 36.14500 21.98500
H  -3.08300 32.23700 19.77200
H  -4.32800 31.26800 20.64700
H  -1.97000 30.21000 20.09700
H  -2.77900 29.78100 21.56000
H  -1.62800 31.07800 21.65400
H  -5.27900 28.68400 24.58200
H  -6.62600 29.92900 24.74300
H  -6.25700 28.82600 26.08800
H  -3.27200 30.30200 29.98700
H  -5.77600 32.87000 32.96500
H  -5.05300 31.49100 33.90300
H  -6.37200 31.24100 32.74800

