158

Mg 47.91400 34.41800 26.52400
C  46.15000 33.10400 29.44200
C  48.38400 37.34800 28.34100
C  49.42700 35.70300 23.76400
C  47.21600 31.46800 24.84500
N  47.55200 35.03800 28.67900
C  46.84300 34.34700 29.65500
C  46.88200 35.18200 30.88900
C  47.05700 36.63500 30.40200
C  47.67400 36.37600 29.04600
C  45.78600 37.53500 30.39400
C  47.96100 34.63400 31.90200
C  47.55700 34.64600 33.46500
H  46.51000 35.67400 33.99800
N  48.79500 36.23400 26.12400
C  48.90100 37.31000 27.00200
C  49.48800 38.42200 26.32400
C  49.86200 37.99800 25.03400
C  49.28500 36.61800 24.89200
C  49.75900 39.79800 26.97000
C  50.70600 38.82000 24.03200
O  51.07800 38.22100 23.05900
C  51.31100 40.20700 24.29600
N  48.07600 33.72600 24.39400
C  48.88900 34.44300 23.56900
C  49.31100 33.54300 22.37000
C  48.85200 32.10800 22.87100
C  47.97500 32.43600 24.07000
C  48.76800 34.12700 20.98300
C  49.96600 31.12100 23.25900
C  49.76600 29.73600 22.68400
N  46.80300 32.70100 26.97000
C  46.57100 31.58700 26.12200
C  45.88600 30.61600 26.95900
C  45.62600 31.20800 28.17200
C  46.19300 32.48400 28.16300
C  45.53800 29.17800 26.50700
C  44.94200 30.95900 29.38500
O  44.18800 30.03500 29.66800
C  45.24900 32.19100 30.26800
C  45.99200 31.60300 31.52500
O  47.20000 31.37400 31.65400
O  45.05300 31.45600 32.51400
C  45.45500 30.72600 33.68300
H  48.41400 38.30000 28.87500
H  49.97800 35.97600 22.86200
H  47.19700 30.45300 24.44300
H  45.98100 35.09200 31.49600
H  47.79800 37.18100 30.98700
H  44.91200 37.20400 30.95500
H  45.44700 37.71400 29.37400
H  45.92900 38.48900 30.90100
H  48.85400 35.24600 31.77700
H  48.28200 33.66900 31.51000
H  48.46100 34.91900 34.01000
H  47.23900 33.64400 33.75100
H  50.83600 39.96800 26.96800
H  49.42100 39.80600 28.00600
H  49.24300 40.59900 26.44000
H  50.43500 40.84500 24.41700
H  51.87400 40.52000 23.41700
H  52.05300 40.21900 25.09400
H  50.39600 33.55600 22.27500
H  48.35100 31.75200 21.97100
H  48.30600 33.40700 20.30800
H  49.50000 34.58300 20.31600
H  47.91500 34.80000 21.06400
H  49.95100 30.93900 24.33400
H  50.86900 31.66300 22.97800
H  48.69800 29.54400 22.79500
H  50.39100 29.04700 23.25300
H  50.04800 29.60400 21.64000
H  45.02300 29.25300 25.55000
H  44.76200 28.71200 27.11500
H  46.47000 28.64600 26.31400
H  44.38100 32.76100 30.60100
H  45.76800 29.69800 33.50000
H  44.74000 30.69900 34.50500
H  46.35900 31.20300 34.06100
Mg 35.00400 48.04700 26.54100
C  35.40000 46.25200 29.47600
C  33.99900 50.78100 28.41400
C  34.22200 49.51000 23.53600
C  35.78600 45.04600 24.71100
N  34.69000 48.41400 28.63700
C  35.05300 47.56500 29.68500
C  34.79700 48.21600 31.04500
C  33.99400 49.47200 30.62700
C  34.24400 49.58400 29.16600
C  32.41200 49.22200 30.90200
C  36.18800 48.57700 31.67600
C  36.35700 48.24600 33.17100
H  36.22200 49.39400 34.11900
N  34.28100 49.92600 26.03700
C  33.98800 50.91400 26.96500
C  33.86200 52.10900 26.11500
C  33.78200 51.78000 24.70800
C  34.07800 50.33800 24.68000
C  33.67500 53.47400 26.71600
C  33.58900 52.67900 23.48500
O  33.62000 52.21700 22.34200
C  33.32200 54.26000 23.72000
N  34.91100 47.33100 24.41600
C  34.56000 48.19600 23.39800
C  34.82200 47.57200 22.00200
C  35.41800 46.12800 22.35700
C  35.34100 46.14200 23.90900
C  33.56500 47.48700 21.04400
C  36.80300 45.91000 21.76600
C  36.74000 45.07600 20.38900
N  35.45400 46.03700 26.93300
C  35.71300 44.92200 26.11500
C  36.04800 43.77700 26.95600
C  35.92300 44.25100 28.26000
C  35.53500 45.60300 28.22500
C  36.45200 42.43300 26.61500
C  35.93200 43.88700 29.64200
O  36.07900 42.86600 30.22900
C  35.71900 45.18400 30.44400
C  34.56500 44.95300 31.37200
O  33.38300 44.96600 31.13600
O  35.12300 44.90700 32.63800
C  34.19200 44.85700 33.75800
H  33.62000 51.65100 28.95500
H  34.12400 49.86900 22.50900
H  36.07800 44.20700 24.07600
H  34.23900 47.46600 31.60600
H  34.26000 50.41200 31.11000
H  31.75600 49.30100 30.03500
H  32.38100 50.06200 31.59600
H  32.21200 48.32200 31.48200
H  36.41700 49.63500 31.55200
H  36.97400 48.06100 31.12500
H  37.36300 47.89000 33.39500
H  35.73700 47.43700 33.55600
H  32.72000 53.93500 26.46400
H  34.43900 54.18200 26.39500
H  33.80100 53.46200 27.79900
H  33.22700 54.74400 22.74800
H  34.23200 54.68900 24.13800
H  32.44000 54.40200 24.34500
H  35.55600 48.17900 21.47100
H  34.69800 45.35600 22.08700
H  33.77300 47.84900 20.03700
H  32.77200 48.01600 21.57300
H  33.28100 46.43700 20.96400
H  37.51000 45.33600 22.36500
H  37.29300 46.87500 21.63600
H  37.41300 45.44500 19.61500
H  35.72800 45.22200 20.01200
H  37.00100 44.05000 20.64900
H  37.48100 42.32400 26.95900
H  36.49400 42.36800 25.52800
H  35.79600 41.71200 27.10300
H  36.65900 45.34000 30.97200
H  34.62400 44.22500 34.53400
H  33.25600 44.40900 33.42600
H  33.95400 45.84600 34.15000

