158

Mg 9.04300 48.16200 25.56700
C  6.87000 48.79000 28.19800
C  11.67600 48.64800 27.65100
C  10.94200 47.64100 23.02000
C  6.13700 47.97900 23.54900
N  9.23000 48.77200 27.66100
C  8.24100 48.88700 28.59900
C  8.82500 48.99900 30.03900
C  10.31800 49.33800 29.72300
C  10.43300 48.94500 28.24900
C  10.72300 50.82000 29.97600
C  8.66100 47.70100 30.92200
C  9.46300 47.58200 32.20300
H  8.71700 46.75100 33.33800
N  11.04800 48.20000 25.31600
C  12.01400 48.33000 26.34700
C  13.34000 48.18600 25.80400
C  13.11900 47.71400 24.47800
C  11.68800 47.93800 24.17000
C  14.60500 48.35200 26.57800
C  14.12400 47.13200 23.48800
O  13.72900 46.63400 22.43400
C  15.60700 47.00200 23.67000
N  8.60400 48.09700 23.51900
C  9.63100 47.81100 22.65000
C  9.01200 47.39500 21.34000
C  7.46900 47.81600 21.47200
C  7.35100 47.94400 22.94000
C  9.73700 47.99500 20.11500
C  6.46200 46.86700 20.84900
C  5.35800 47.49300 20.06700
N  6.93800 48.27700 25.84600
C  5.93000 48.13100 24.92800
C  4.59900 48.38200 25.57900
C  4.98000 48.52100 26.90900
C  6.35900 48.52800 26.96100
C  3.21000 48.15600 24.93500
C  4.40900 48.73000 28.21900
O  3.24500 48.73500 28.59300
C  5.65400 48.75500 29.13000
C  5.52000 47.48900 29.88700
O  5.70000 46.34500 29.46800
O  5.13900 47.79600 31.18900
C  4.91500 46.68500 32.18800
H  12.41500 48.79100 28.44200
H  11.53100 47.17400 22.22800
H  5.15500 47.92900 23.07300
H  8.32100 49.82300 30.54400
H  11.00200 48.83300 30.40600
H  10.24500 51.41400 29.19700
H  11.79700 51.00400 29.93300
H  10.32500 51.20400 30.91500
H  8.69200 46.83400 30.26200
H  7.62400 47.68100 31.25900
H  9.69100 48.56100 32.62400
H  10.41100 47.09300 31.97600
H  15.23700 47.47200 26.69500
H  14.30700 48.58900 27.59900
H  15.18200 49.23900 26.31600
H  16.05000 47.28700 22.71600
H  15.91100 46.02600 24.04700
H  15.89500 47.79300 24.36300
H  9.08600 46.30800 21.35200
H  7.36500 48.80100 21.01700
H  10.40300 48.76700 20.50000
H  9.09200 48.38200 19.32600
H  10.34200 47.19800 19.68400
H  5.94500 46.26400 21.59500
H  7.01400 46.16600 20.22300
H  5.29900 48.56300 20.26500
H  4.39300 47.00200 20.18800
H  5.59500 47.36300 19.01100
H  2.90500 47.14600 25.20800
H  3.23400 48.05300 23.85000
H  2.45300 48.91800 25.11900
H  5.60800 49.58000 29.84100
H  3.83500 46.55000 32.24900
H  5.26900 46.98100 33.17600
H  5.36500 45.73600 31.89800
Mg -2.58900 35.13700 26.68000
C  -4.28600 33.44200 29.05600
C  -1.15300 37.26600 29.19900
C  -0.85600 36.68100 24.37200
C  -4.28300 33.31000 24.20800
N  -2.79100 35.36900 28.89400
C  -3.47400 34.45100 29.65100
C  -3.34800 34.78300 31.12600
C  -2.41000 36.03000 31.16100
C  -2.08400 36.28800 29.65500
C  -2.86400 37.37700 31.78100
C  -3.09000 33.63400 32.16300
C  -2.30200 34.01300 33.41700
H  -2.64700 33.26100 34.69300
N  -1.40900 36.94600 26.72300
C  -0.90700 37.58500 27.86300
C  -0.02500 38.68500 27.36200
C  -0.06700 38.59000 25.95500
C  -0.79100 37.35500 25.61500
C  0.65400 39.71600 28.28700
C  0.50800 39.61400 24.96000
O  0.44700 39.36600 23.73800
C  1.25800 40.74600 25.39300
N  -2.60200 35.05300 24.46600
C  -1.72600 35.74600 23.77200
C  -1.75500 35.25900 22.26900
C  -2.97500 34.25600 22.27000
C  -3.31200 34.19600 23.76300
C  -1.74400 36.35800 21.15000
C  -2.72200 32.81500 21.71800
C  -1.68800 31.92100 22.34400
N  -3.89400 33.61500 26.57500
C  -4.55200 32.99600 25.52900
C  -5.31400 31.90400 26.02300
C  -5.30800 32.05200 27.40100
C  -4.40500 33.13100 27.66800
C  -6.01900 30.92700 25.19600
C  -5.74500 31.50100 28.65600
O  -6.52300 30.54900 28.76600
C  -5.14500 32.39400 29.76800
C  -6.17500 33.03000 30.52900
O  -6.73700 34.04100 30.22200
O  -6.47300 32.22400 31.66900
C  -7.70200 32.54700 32.41200
H  -0.40600 37.70900 29.86200
H  -0.29400 37.13600 23.55300
H  -4.77400 32.68400 23.46000
H  -4.37600 35.11600 31.26800
H  -1.51500 35.66400 31.66400
H  -3.88500 37.60800 31.47700
H  -2.11100 38.14800 31.61800
H  -2.84800 37.16500 32.85000
H  -2.68900 32.77500 31.62400
H  -4.07100 33.51400 32.62200
H  -2.69800 35.01600 33.58100
H  -1.21800 33.93700 33.33700
H  0.49400 40.73400 27.93200
H  1.70600 39.43100 28.28200
H  0.26100 39.63500 29.30000
H  0.67600 41.51400 25.90300
H  1.75100 41.19300 24.53100
H  2.03100 40.36000 26.05700
H  -0.89600 34.63800 22.01200
H  -3.85500 34.57400 21.71100
H  -0.83100 36.34500 20.55300
H  -2.07200 37.34600 21.47200
H  -2.51800 36.05900 20.44300
H  -2.41300 33.00000 20.68900
H  -3.76300 32.49400 21.69300
H  -1.00000 31.66500 21.53800
H  -2.04900 30.95500 22.69500
H  -1.21400 32.40900 23.19600
H  -6.05100 29.98200 25.73800
H  -5.56100 30.82500 24.21200
H  -7.08400 31.13600 25.09100
H  -4.52100 31.83900 30.46800
H  -8.50200 32.36600 31.69400
H  -7.65400 33.53100 32.87800
H  -7.72200 31.81200 33.21700

