158

Mg -1.37200 17.67400 27.23700
C  -2.00100 15.31100 29.79700
C  -1.31000 20.13800 29.57800
C  -1.16700 19.73300 24.72900
C  -2.35300 15.10100 25.06200
N  -1.61600 17.71600 29.43800
C  -1.86900 16.64700 30.27000
C  -1.89200 17.10500 31.75200
C  -1.95800 18.66200 31.58500
C  -1.55200 18.90000 30.10500
C  -3.32800 19.42100 31.79600
C  -0.69200 16.53600 32.53700
C  -0.20000 17.24400 33.81800
H  -0.09200 16.42700 35.12900
N  -1.18900 19.70700 27.11400
C  -1.14800 20.52400 28.18600
C  -0.94000 21.90800 27.68900
C  -0.86800 21.89600 26.28700
C  -1.16200 20.40600 25.94800
C  -0.85600 23.05900 28.71300
C  -0.85800 22.97200 25.31700
O  -0.87300 22.79200 24.10400
C  -0.81800 24.44100 25.77400
N  -1.64400 17.46600 25.22200
C  -1.47700 18.42800 24.34700
C  -1.68100 18.01600 22.87000
C  -1.84400 16.45500 22.97600
C  -1.97200 16.32200 24.49600
C  -2.81100 18.68400 22.10600
C  -0.63300 15.64400 22.45600
C  0.86000 15.91400 22.88200
N  -1.91600 15.62400 27.31400
C  -2.25000 14.72700 26.33200
C  -2.37600 13.39400 26.83100
C  -2.28400 13.59600 28.21100
C  -2.05000 14.94100 28.47600
C  -2.79300 12.25900 25.96100
C  -2.33500 12.90400 29.43700
O  -2.33200 11.69000 29.65300
C  -2.25300 13.98400 30.55600
C  -1.15400 13.51300 31.38100
O  0.04600 13.72300 31.22900
O  -1.68100 12.89200 32.44600
C  -0.67000 12.28300 33.38100
H  -1.21500 20.96400 30.28500
H  -1.03600 20.28400 23.79500
H  -2.48500 14.39300 24.24200
H  -2.87500 16.84800 32.14500
H  -1.14700 19.19600 32.08100
H  -3.99200 19.29700 30.94000
H  -3.08200 20.43700 32.10400
H  -3.86500 18.86700 32.56700
H  0.19000 16.28700 31.94500
H  -1.23500 15.65800 32.88600
H  -0.98000 17.97900 34.01400
H  0.64100 17.93000 33.72400
H  -1.33300 23.90500 28.21900
H  0.15300 23.33500 29.02000
H  -1.36100 22.85000 29.65600
H  -1.73500 24.78700 26.25000
H  -0.69200 25.25100 25.05500
H  0.07100 24.33700 26.39600
H  -0.78000 18.20900 22.28700
H  -2.77700 16.15100 22.50200
H  -2.37400 19.28700 21.31100
H  -3.40300 19.25500 22.82100
H  -3.50000 17.95600 21.67600
H  -0.69100 15.62800 21.36700
H  -0.74400 14.63900 22.86300
H  1.38500 15.00300 23.17000
H  0.96500 16.74000 23.58600
H  1.33000 16.18000 21.93500
H  -2.07500 12.27300 25.14100
H  -3.78600 12.27500 25.51100
H  -2.66500 11.30300 26.46900
H  -3.22600 13.83500 31.02300
H  0.28900 12.06200 32.91300
H  -1.00700 11.30900 33.73600
H  -0.60100 12.85700 34.30500
Mg 23.77400 -5.75800 45.91600
C  25.88000 -3.38300 44.14400
C  21.16100 -4.78300 43.93400
C  22.08900 -8.60300 46.66500
C  26.72300 -7.05100 47.36300
N  23.53200 -4.20800 44.31000
C  24.53000 -3.36400 43.67800
C  23.92100 -2.60300 42.50000
C  22.40800 -2.83200 42.69700
C  22.34600 -4.02600 43.67000
C  21.70400 -1.60900 43.19800
C  24.46000 -2.97000 41.07500
C  25.13100 -1.79900 40.27700
H  25.94800 -2.19100 38.99100
N  21.84300 -6.46100 45.57200
C  20.91500 -5.83800 44.79600
C  19.60200 -6.51200 45.00600
C  19.92000 -7.81500 45.65200
C  21.34500 -7.65200 45.98500
C  18.35600 -5.96700 44.48600
C  18.86100 -8.86700 46.11200
O  17.66000 -8.65200 45.86700
C  19.20200 -9.97900 46.90700
N  24.29700 -7.48600 46.91400
C  23.43200 -8.52500 47.12400
C  24.07600 -9.62600 47.93900
C  25.39500 -8.95200 48.38000
C  25.52200 -7.75200 47.45200
C  23.13400 -10.20800 49.07300
C  26.64200 -9.95600 48.36900
C  27.16200 -10.19400 46.89900
N  25.84800 -5.26000 45.90900
C  26.92900 -5.88600 46.48700
C  28.07800 -5.16000 46.31700
C  27.76400 -4.19600 45.36500
C  26.34400 -4.29200 45.15300
C  29.39300 -5.43100 46.98000
C  28.24200 -3.11300 44.50300
O  29.32700 -2.71900 44.27400
C  27.08400 -2.57600 43.66800
C  26.98100 -1.11900 43.99400
O  26.35100 -0.61700 44.89300
O  27.67400 -0.38400 43.12400
C  27.79800 1.02200 43.33100
H  20.25100 -4.47500 43.41500
H  21.67000 -9.56700 46.95800
H  27.54600 -7.37300 48.00400
H  24.13000 -1.56800 42.77100
H  21.96100 -3.00800 41.71900
H  21.69100 -1.50700 44.28300
H  20.66800 -1.68000 42.86700
H  22.09300 -0.68300 42.77600
H  23.60900 -3.29500 40.47700
H  25.12600 -3.81300 41.25900
H  25.73900 -1.31900 41.04400
H  24.30500 -1.16400 39.95900
H  18.17900 -6.49900 43.55100
H  18.47300 -4.92400 44.19000
H  17.52500 -6.19700 45.15200
H  18.28000 -10.55700 46.97700
H  19.59900 -9.58300 47.84200
H  19.93900 -10.62600 46.43200
H  24.22700 -10.51100 47.32100
H  25.20600 -8.51500 49.36000
H  22.34500 -9.46700 49.19800
H  23.65200 -10.57200 49.96000
H  22.61600 -11.11200 48.75200
H  26.33600 -10.93800 48.72800
H  27.44500 -9.69600 49.05900
H  26.86000 -11.22600 46.72000
H  28.24900 -10.26300 46.87900
H  26.81300 -9.51900 46.11800
H  29.88700 -6.21600 46.40700
H  29.19800 -5.68300 48.02200
H  29.96800 -4.50600 46.93400
H  27.19500 -2.48100 42.58800
H  28.27800 1.10900 44.30600
H  26.84800 1.55200 43.39300
H  28.56100 1.47200 42.69600

