158

Mg 24.42300 -5.08900 46.33600
C  26.26400 -2.41500 44.82400
C  21.81900 -4.24600 44.43800
C  23.10100 -8.11600 47.18100
C  27.46200 -6.06200 47.80900
N  24.15200 -3.54900 44.80900
C  25.02700 -2.62400 44.27500
C  24.33500 -1.70900 43.17100
C  22.83800 -2.21900 43.19800
C  22.88800 -3.44500 44.29700
C  21.91400 -1.09400 43.66200
C  24.91800 -1.77700 41.67900
C  25.44300 -0.44000 41.03900
H  25.26500 -0.37200 39.51200
N  22.66400 -5.98800 45.98400
C  21.67600 -5.42300 45.20100
C  20.43100 -6.30400 45.36800
C  20.77300 -7.40400 46.15900
C  22.18100 -7.22400 46.50500
C  19.03900 -5.99300 44.76500
C  19.83300 -8.49900 46.68200
O  18.62000 -8.50800 46.41100
C  20.31300 -9.61400 47.42500
N  25.16600 -6.81000 47.30800
C  24.44600 -7.93000 47.53400
C  25.31500 -8.99600 48.29000
C  26.63400 -8.32700 48.53000
C  26.38900 -6.97900 47.78500
C  24.54200 -9.39800 49.63400
C  27.85700 -9.07700 48.05700
C  29.03500 -9.07300 49.00400
N  26.48200 -4.38100 46.44100
C  27.57000 -4.84300 47.09500
C  28.64800 -3.95600 47.01800
C  28.17100 -3.03600 46.12700
C  26.85400 -3.28900 45.78400
C  29.96700 -3.96000 47.77100
C  28.50900 -1.84500 45.40700
O  29.52100 -1.16800 45.42200
C  27.32700 -1.37500 44.53000
C  26.96100 0.02600 44.70200
O  26.41700 0.55300 45.66500
O  27.27900 0.81000 43.60700
C  26.84300 2.27900 43.56700
H  20.94000 -4.03600 43.82500
H  22.64100 -9.07700 47.41900
H  28.37600 -6.37800 48.31700
H  24.48400 -0.67600 43.48400
H  22.49200 -2.66100 42.26400
H  21.19900 -0.93800 42.85500
H  22.37100 -0.10800 43.74700
H  21.39400 -1.29900 44.59800
H  24.16200 -2.17600 41.00300
H  25.76400 -2.45600 41.79200
H  26.42600 -0.06600 41.32700
H  24.75600 0.31600 41.41900
H  18.49400 -6.81100 44.29400
H  19.22400 -5.29800 43.94600
H  18.28300 -5.52500 45.39500
H  19.45700 -10.28700 47.44700
H  20.54600 -9.36200 48.46000
H  21.14000 -10.07400 46.88300
H  25.46800 -9.82700 47.60200
H  26.75400 -7.96300 49.55100
H  25.15100 -9.15600 50.50500
H  24.34600 -10.46900 49.58400
H  23.57600 -8.90700 49.75700
H  28.15500 -8.49700 47.18300
H  27.74100 -10.07300 47.63100
H  29.67800 -8.27400 48.63500
H  29.59100 -10.00700 48.92200
H  28.86400 -8.95400 50.07400
H  30.50300 -3.05200 47.49300
H  30.58200 -4.81100 47.48200
H  29.88800 -4.07900 48.85200
H  27.62200 -1.49900 43.48800
H  27.67000 2.89700 43.21700
H  26.47800 2.69500 44.50500
H  26.02100 2.35800 42.85600
Mg 46.61000 16.81400 27.62600
C  44.71000 16.54000 30.53600
C  48.94100 18.64600 29.57200
C  48.55600 17.40800 24.96500
C  44.13700 15.49700 25.76100
N  46.79000 17.64200 29.86500
C  45.86900 17.24300 30.88500
C  46.29200 17.70600 32.28000
C  47.55500 18.58100 31.95400
C  47.78100 18.36500 30.35100
C  47.55000 20.20700 32.15300
C  46.64300 16.47000 33.30600
C  46.42900 16.72700 34.78200
H  46.39000 18.19300 35.33800
N  48.60100 17.67900 27.38700
C  49.34700 18.36400 28.28800
C  50.60400 18.75900 27.62100
C  50.48600 18.32100 26.28100
C  49.21100 17.78200 26.14600
C  51.79700 19.25900 28.39600
C  51.49600 18.58800 25.18800
O  51.27900 18.58100 23.98100
C  52.95700 18.99700 25.58800
N  46.41100 16.53200 25.72600
C  47.30000 16.82600 24.70400
C  46.90800 16.26300 23.32000
C  45.66400 15.49400 23.69700
C  45.37700 15.86400 25.13200
C  46.58000 17.33500 22.33100
C  45.80100 13.98300 23.52100
C  45.18400 13.43100 22.20100
N  44.73500 16.14900 27.98300
C  43.88200 15.51800 27.12600
C  42.73900 15.02100 27.90800
C  43.00800 15.45700 29.24600
C  44.28100 16.10200 29.20000
C  41.50000 14.21200 27.36000
C  42.45100 15.54800 30.60400
O  41.37600 15.20300 31.00800
C  43.53400 16.32600 31.45900
C  42.89800 17.53900 32.02200
O  42.93300 18.65100 31.51700
O  42.36300 17.13900 33.24900
C  41.62600 18.16000 33.93700
H  49.68900 19.31600 30.00300
H  49.18000 17.71600 24.12300
H  43.43500 14.93500 25.14100
H  45.55800 18.35700 32.75400
H  48.40700 18.19400 32.51200
H  48.25900 20.36200 32.96600
H  46.66900 20.79700 32.40300
H  47.91700 20.73100 31.27000
H  47.69400 16.20600 33.18200
H  46.07200 15.57400 33.06600
H  47.24100 16.14000 35.21200
H  45.50800 16.18300 34.98800
H  52.69900 18.73300 28.08300
H  51.71900 19.18800 29.48100
H  51.92200 20.30600 28.12000
H  53.55200 18.28200 26.15800
H  52.89200 19.91200 26.17700
H  53.52500 19.12700 24.66700
H  47.66300 15.58300 22.92400
H  44.75100 15.83500 23.20900
H  45.50800 17.45400 22.17700
H  47.00900 17.03200 21.37600
H  46.95500 18.30900 22.64800
H  45.41100 13.43300 24.37800
H  46.80600 13.56000 23.49500
H  44.53200 14.24500 21.88600
H  44.48600 12.59900 22.29300
H  45.89400 13.27200 21.38900
H  41.79300 13.87300 26.36600
H  40.59300 14.81700 27.34000
H  41.33700 13.36300 28.02400
H  43.78900 15.64400 32.27000
H  42.29700 18.97700 34.20200
H  41.19400 17.78200 34.86400
H  40.89500 18.64700 33.29100

