158

Mg 48.02700 34.90500 26.85500
C  46.48800 33.37300 29.64900
C  48.63400 37.66700 28.74200
C  49.05100 36.24400 24.07400
C  46.92500 31.93900 25.01600
N  47.61800 35.46300 28.99600
C  47.05800 34.65300 29.97500
C  47.11900 35.40900 31.36900
C  47.45700 36.88400 30.92700
C  47.94600 36.64900 29.49200
C  46.24100 37.85500 30.89400
C  48.23600 34.81300 32.19700
C  47.87800 34.66700 33.65300
H  48.95800 34.96900 34.74400
N  48.87800 36.67000 26.43900
C  49.16400 37.66200 27.35200
C  49.93600 38.66100 26.69600
C  49.91400 38.40900 25.26400
C  49.16900 37.10300 25.24700
C  50.35900 39.94600 27.43100
C  50.48300 39.23700 24.18100
O  50.33400 39.02000 22.97000
C  51.37100 40.40500 24.53000
N  48.00000 34.11400 24.90400
C  48.47600 34.96800 23.92600
C  48.44100 34.29500 22.56000
C  47.86000 32.82800 22.89300
C  47.51000 32.96400 24.38700
C  47.72600 35.18300 21.56700
C  48.95500 31.73700 22.65000
C  48.41900 30.32800 22.39700
N  46.92500 32.99500 27.23900
C  46.62100 31.92000 26.33600
C  45.92500 30.83400 27.13900
C  45.77200 31.41100 28.39600
C  46.42300 32.71800 28.38000
C  45.43800 29.51300 26.67700
C  45.29600 31.14400 29.74700
O  44.73900 30.13200 30.19200
C  45.70400 32.47500 30.55700
C  46.31800 32.04900 31.89100
O  47.49200 31.70200 31.97300
O  45.45200 31.96300 32.93500
C  45.97300 31.13400 34.03100
H  48.76900 38.68300 29.11900
H  49.63500 36.63700 23.23900
H  46.58100 31.04000 24.49900
H  46.18900 35.46100 31.93500
H  48.28700 37.34600 31.46300
H  46.32700 38.59800 31.68600
H  45.35100 37.27700 31.14200
H  46.08800 38.41500 29.97200
H  49.07600 35.50600 32.22600
H  48.52500 33.86800 31.73600
H  47.69300 33.59300 33.66700
H  46.96900 35.20900 33.91600
H  50.01400 40.81300 26.86800
H  51.44200 39.85600 27.52500
H  50.01700 40.08500 28.45600
H  50.78500 41.26500 24.85700
H  51.91700 40.69800 23.63300
H  52.12200 40.09400 25.25600
H  49.49700 34.20000 22.30700
H  47.03400 32.68200 22.19700
H  47.22800 35.91400 22.20400
H  46.98000 34.62200 21.00400
H  48.36400 35.77300 20.90800
H  49.59100 31.58100 23.52100
H  49.55300 32.06300 21.79900
H  48.83100 29.58900 23.08400
H  48.56200 30.00200 21.36600
H  47.33200 30.33700 22.48400
H  45.81400 28.77300 27.38400
H  45.93600 29.34100 25.72200
H  44.38200 29.60400 26.42600
H  44.77500 33.00400 30.77100
H  45.40100 31.51500 34.87700
H  47.03100 31.35800 34.16700
H  45.76400 30.06600 33.96200
Mg 30.32900 58.58000 40.27400
C  27.55200 56.91400 39.32700
C  32.29600 56.06400 38.83000
C  33.12500 60.45000 40.55400
C  28.36600 61.47300 40.93900
N  29.95700 56.72000 39.28300
C  28.70600 56.22500 38.97800
C  28.80100 54.96300 38.14600
C  30.21200 54.48200 38.52400
C  30.89800 55.80700 38.86200
C  30.28100 53.49400 39.78700
C  28.52800 55.24100 36.62100
C  27.50000 54.24900 35.90900
H  26.56200 54.82300 34.95300
N  32.49000 58.28400 39.94200
C  33.09000 57.18600 39.28400
C  34.55000 57.37600 39.24700
C  34.84200 58.66700 39.74200
C  33.50000 59.17700 40.08300
C  35.47400 56.33200 38.71200
C  36.18200 59.30400 39.91600
O  37.20800 58.69100 39.57900
C  36.36600 60.68300 40.59200
N  30.67300 60.66700 40.68800
C  31.92000 61.12600 40.89300
C  31.96700 62.63000 41.31000
C  30.43100 62.99400 41.31000
C  29.78200 61.64900 40.94500
C  32.60100 62.82100 42.80000
C  30.11000 64.05300 40.23500
C  29.96500 65.54800 40.70100
N  28.33900 59.05600 40.25700
C  27.69800 60.25700 40.56000
C  26.27500 60.03400 40.49300
C  26.17900 58.75800 39.91800
C  27.46400 58.19700 39.83800
C  25.10300 60.95300 40.89200
C  25.29300 57.73300 39.47800
O  24.06900 57.70200 39.40900
C  26.14200 56.55600 39.02000
C  25.61900 55.36900 39.71400
O  25.99100 55.04300 40.83400
O  24.74700 54.65700 38.97300
C  24.14000 53.39600 39.48300
H  32.98600 55.28500 38.50200
H  33.97700 61.12300 40.67400
H  27.71700 62.30000 41.23500
H  28.15400 54.20200 38.58400
H  30.66600 53.92700 37.70300
H  30.75100 54.02700 40.61400
H  30.84000 52.61800 39.45600
H  29.27900 53.13300 40.01800
H  29.40500 55.16600 35.97900
H  28.01100 56.18700 36.46500
H  26.97500 53.74100 36.71800
H  28.01600 53.51900 35.28600
H  36.45500 56.72800 38.45300
H  35.09000 55.88300 37.79600
H  35.65200 55.59900 39.49900
H  37.42800 60.71600 40.83600
H  35.64600 60.74600 41.40800
H  36.05400 61.41800 39.85000
H  32.63700 63.20500 40.67100
H  30.12600 63.40000 42.27400
H  32.75800 63.89100 42.93500
H  33.46100 62.25000 43.15300
H  31.84900 62.41900 43.47800
H  29.23100 63.73900 39.67100
H  30.95700 63.92200 39.56100
H  29.07400 66.05000 40.32400
H  30.84000 66.11100 40.37800
H  29.87700 65.54800 41.78800
H  25.47200 61.72500 41.56700
H  24.28500 60.42800 41.38600
H  24.70400 61.56400 40.08200
H  25.90900 56.45800 37.96000
H  24.41900 53.27600 40.53000
H  24.51700 52.52800 38.94100
H  23.05200 53.45100 39.51000

