158

Mg 49.69100 47.42900 42.60400
C  46.27000 47.76700 41.63000
C  49.68600 44.42100 40.91000
C  52.95200 47.35200 43.01900
C  49.59400 50.67600 43.86000
N  48.09900 46.28300 41.36900
C  46.80800 46.61100 41.13800
C  46.08200 45.48200 40.38900
C  47.17100 44.30900 40.31300
C  48.39400 45.05700 40.84900
C  46.84100 42.98800 41.07800
C  45.43600 45.94100 39.03800
C  43.99400 45.66400 38.90500
H  43.34500 45.27100 37.59500
N  51.03100 45.98600 42.18100
C  50.88500 44.81300 41.47100
C  52.09300 44.08000 41.48800
C  53.07600 44.86800 42.13800
C  52.39400 46.19000 42.44400
C  52.23700 42.63900 40.88500
C  54.54900 44.50600 42.29600
O  55.05900 43.48300 41.85900
C  55.49600 45.50800 43.02500
N  51.13900 48.89300 43.15700
C  52.39500 48.59600 43.38200
C  53.16900 49.75600 44.06500
C  52.09300 50.80800 44.39500
C  50.85100 50.06700 43.75700
C  54.13000 49.39700 45.20600
C  52.23400 52.20100 43.93700
C  52.19700 53.32500 45.01900
N  48.30200 49.01800 42.61500
C  48.41700 50.24300 43.20400
C  47.15500 50.93200 43.15300
C  46.30100 49.97000 42.60200
C  47.01000 48.83400 42.28800
C  46.88900 52.35500 43.62400
C  44.89800 49.76200 42.18500
O  43.89400 50.48000 42.37700
C  44.84800 48.24900 41.49800
C  43.91400 47.56400 42.31700
O  44.14600 47.36800 43.53600
O  42.86500 47.02800 41.57500
C  42.10500 46.01000 42.27500
H  49.75600 43.48200 40.35700
H  54.01700 47.32500 43.26000
H  49.66700 51.62400 44.39700
H  45.27400 45.11000 41.01900
H  47.34400 44.06600 39.26500
H  45.76200 42.84900 41.13600
H  47.22700 42.98200 42.09800
H  47.34800 42.11000 40.67800
H  46.01600 45.56400 38.19600
H  45.59200 47.01600 39.12700
H  43.57900 46.65000 39.11100
H  43.55600 45.03000 39.67600
H  51.36400 42.00700 40.72400
H  52.88000 42.09500 41.57700
H  52.84900 42.68600 39.98400
H  55.57800 46.40800 42.41700
H  56.49100 45.08600 43.16100
H  55.03000 45.63700 44.00200
H  53.75800 50.13500 43.22900
H  51.90700 50.78200 45.46800
H  55.16300 49.50800 44.87500
H  53.97800 48.34800 45.46100
H  53.92800 49.99800 46.09200
H  51.46700 52.43800 43.20000
H  53.20900 52.41500 43.49900
H  53.20500 53.66000 45.26200
H  51.83300 52.94600 45.97400
H  51.55200 54.15500 44.73000
H  45.86000 52.67400 43.45900
H  47.53200 53.15800 43.26300
H  46.90900 52.38100 44.71300
H  44.46100 48.16100 40.48300
H  42.68400 45.08800 42.23000
H  41.20600 45.88700 41.67200
H  41.80800 46.22100 43.30200
Mg 17.68700 52.25700 26.77200
C  19.80600 50.76200 29.25800
C  15.32100 52.51900 29.33100
C  15.67500 53.42000 24.55100
C  19.80400 50.92700 24.29500
N  17.69000 51.75600 29.11700
C  18.66800 51.26200 29.92200
C  18.29900 51.31900 31.38900
C  16.69000 51.44300 31.26900
C  16.54000 51.95700 29.83400
C  15.83800 50.19000 31.66500
C  19.10800 52.38800 32.16500
C  18.91700 52.62100 33.76300
H  17.81100 51.76500 34.44900
N  15.80300 52.92400 26.86500
C  14.99500 53.00100 28.04900
C  13.77400 53.67000 27.73700
C  13.82700 53.90200 26.32300
C  15.17400 53.45700 25.86600
C  12.67000 53.89600 28.70100
C  12.70700 54.41800 25.39600
O  12.86800 54.44400 24.18700
C  11.38700 54.83400 25.83000
N  17.85100 52.28500 24.73800
C  16.87400 52.92000 23.99300
C  17.16600 52.82400 22.44000
C  18.55200 52.07200 22.39000
C  18.79100 51.72300 23.93400
C  15.98100 52.10900 21.74200
C  19.72200 53.01000 21.83500
C  20.26700 54.07800 22.71500
N  19.53400 51.12300 26.72800
C  20.24700 50.60100 25.63300
C  21.33500 49.73800 26.09700
C  21.22600 49.90000 27.54500
C  20.09200 50.66000 27.83400
C  22.22600 48.88700 25.27200
C  21.89100 49.50700 28.80600
O  22.93800 48.94900 28.95200
C  20.95200 50.02000 29.94500
C  20.59100 48.88000 30.79900
O  20.01100 47.93900 30.32100
O  20.87500 49.19000 32.11400
C  20.38500 48.31500 33.11200
H  14.60500 52.49100 30.15500
H  15.02000 53.73600 23.73600
H  20.32800 50.52900 23.42400
H  18.61400 50.34000 31.75100
H  16.26300 52.23700 31.88200
H  15.29600 49.74900 30.82900
H  14.95800 50.58300 32.17300
H  16.30500 49.41200 32.26900
H  19.06300 53.29900 31.56800
H  20.10000 51.96200 32.01700
H  18.76400 53.68900 33.92200
H  19.81800 52.29400 34.28100
H  12.26400 54.90800 28.68500
H  13.04300 53.77400 29.71800
H  11.88600 53.15100 28.56600
H  10.97400 54.04100 26.45400
H  10.71700 54.93600 24.97700
H  11.40000 55.81700 26.30000
H  17.20900 53.80500 21.96700
H  18.58000 51.15700 21.79800
H  15.92900 51.09300 22.13400
H  15.96400 52.15000 20.65300
H  15.09200 52.71300 21.92400
H  19.29300 53.43400 20.92700
H  20.57900 52.36900 21.62500
H  20.39500 54.99200 22.13500
H  21.18700 53.69400 23.15600
H  19.74900 54.22800 23.66200
H  21.78600 48.58600 24.32200
H  22.31900 48.00500 25.90600
H  23.25000 49.25500 25.21900
H  21.50000 50.77700 30.50600
H  19.55800 47.64600 32.87200
H  20.05200 48.95700 33.92700
H  21.17100 47.63300 33.43500

