158

Mg 25.61000 0.73300 29.69400
C  27.44200 0.47100 32.56700
C  22.75200 1.40300 31.68000
C  23.69800 0.80600 26.89100
C  28.43400 -0.24300 27.82400
N  25.14900 0.79200 31.77700
C  26.16700 0.94000 32.74900
C  25.59600 1.28400 34.11200
C  24.03700 1.37700 33.93400
C  23.97700 1.16800 32.37200
C  23.20700 0.25000 34.73000
C  26.35500 2.56300 34.70500
C  27.12100 2.29800 35.95700
H  26.94300 3.35600 37.09200
N  23.56700 1.01300 29.30000
C  22.62500 1.21700 30.30100
C  21.35100 1.38300 29.61200
C  21.53500 1.25000 28.23200
C  23.01400 1.11100 28.05900
C  20.12700 1.77600 30.30500
C  20.48400 1.40000 27.07700
O  20.76100 1.16200 25.89100
C  19.07700 1.71200 27.44000
N  25.98000 0.51200 27.65600
C  25.08900 0.61800 26.65700
C  25.79100 0.37000 25.23400
C  27.26600 0.12700 25.57700
C  27.26000 0.13900 27.12100
C  25.11700 -0.86300 24.50800
C  28.21700 1.21900 24.97600
C  28.15900 1.62900 23.47900
N  27.48000 0.12100 30.08500
C  28.53800 -0.23100 29.23600
C  29.74600 -0.45500 30.02200
C  29.34500 -0.25200 31.30700
C  27.98700 0.10100 31.31400
C  31.09300 -0.95400 29.40300
C  29.80400 -0.29900 32.66800
O  30.86200 -0.57000 33.19400
C  28.58600 0.16100 33.56200
C  28.26600 -0.91300 34.58000
O  27.48500 -1.85700 34.40900
O  28.96400 -0.55900 35.68500
C  28.63900 -1.33200 36.89500
H  21.98500 1.76900 32.36600
H  23.06800 0.85300 26.00100
H  29.25700 -0.56200 27.18100
H  25.71300 0.37000 34.69300
H  23.67200 2.38000 34.15800
H  22.89700 -0.48800 33.99000
H  22.30700 0.69300 35.15800
H  23.88300 -0.09200 35.51400
H  25.62100 3.32100 34.97800
H  27.01600 2.89200 33.90300
H  28.17000 2.36400 35.67000
H  26.94700 1.28400 36.31900
H  19.45700 0.95300 30.55400
H  19.38800 2.46600 29.89800
H  20.33000 2.21600 31.28200
H  18.26800 1.62700 26.71400
H  19.19300 2.75500 27.73700
H  18.79600 1.04200 28.25200
H  25.63100 1.19500 24.53900
H  27.75000 -0.78500 25.22700
H  24.70300 -1.63700 25.15400
H  26.00300 -1.36400 24.11800
H  24.32800 -0.47800 23.86100
H  29.26800 0.96400 25.11300
H  28.10100 2.13500 25.55400
H  29.18200 1.64100 23.10200
H  27.76200 2.64300 23.51600
H  27.60500 0.96200 22.81900
H  31.35800 -0.48900 28.45400
H  30.86400 -1.98500 29.13300
H  31.99900 -0.91100 30.00800
H  28.88800 1.12000 33.98400
H  28.74100 -2.38800 36.64300
H  27.63800 -1.17200 37.29500
H  29.34500 -1.07500 37.68500
Mg 27.47400 50.69800 26.91100
C  25.47400 51.70400 29.63200
C  30.02400 49.81600 29.03100
C  29.49300 50.01300 24.26100
C  24.92300 51.81700 24.78600
N  27.61400 50.74500 29.05700
C  26.71700 51.01500 30.02200
C  27.15600 50.74700 31.43500
C  28.67000 50.31100 31.21100
C  28.80100 50.21900 29.60600
C  29.69900 51.17200 31.82100
C  26.30800 49.59600 32.01800
C  25.24300 49.96400 33.05600
H  25.15400 49.11000 34.37300
N  29.45100 49.87900 26.66500
C  30.34200 49.62100 27.66600
C  31.60100 49.11300 27.14800
C  31.52900 49.47400 25.72600
C  30.11800 49.89900 25.45800
C  32.72400 48.40600 28.01400
C  32.70400 49.57900 24.75500
O  32.53000 50.06500 23.67300
C  34.08200 49.12700 25.09900
N  27.29200 51.04300 24.82400
C  28.16800 50.45400 23.91400
C  27.59200 50.44700 22.51100
C  26.06000 50.79700 22.75400
C  26.11600 51.35000 24.17500
C  28.33700 51.35100 21.42100
C  25.01900 49.66400 22.56300
C  23.64700 50.01900 21.94500
N  25.58900 51.54000 27.02700
C  24.68600 52.01300 26.11300
C  23.55600 52.63600 26.76100
C  23.83900 52.57400 28.14600
C  25.03500 51.88500 28.26200
C  22.44000 53.44000 26.16400
C  23.29700 52.84600 29.48900
O  22.22600 53.36100 29.75700
C  24.27800 52.33700 30.46500
C  24.78400 53.47500 31.29300
O  25.51600 54.40900 30.84000
O  24.30600 53.38100 32.57300
C  24.76100 54.48400 33.44200
H  30.82400 49.47000 29.68900
H  30.00900 49.77000 23.33000
H  24.09800 51.93900 24.08100
H  27.06600 51.71200 31.93300
H  28.96600 49.31100 31.52600
H  30.74100 50.87800 31.94900
H  29.30600 51.40200 32.81100
H  29.62500 52.12800 31.30300
H  27.00000 48.94900 32.55700
H  25.81800 49.13800 31.15900
H  24.32000 49.87500 32.48300
H  25.37100 51.03200 33.23000
H  32.25400 48.00000 28.90900
H  33.44700 49.15400 28.34000
H  33.12200 47.65600 27.33100
H  34.71600 49.21100 24.21600
H  34.10100 48.07200 25.37300
H  34.56900 49.74000 25.85700
H  27.50000 49.39600 22.23700
H  25.72800 51.64400 22.15300
H  29.15800 51.91800 21.86100
H  27.69800 52.03600 20.86300
H  28.76800 50.76400 20.61000
H  24.90800 49.13200 23.50800
H  25.43500 48.90100 21.90400
H  22.90300 49.32300 22.33200
H  23.74000 49.91500 20.86400
H  23.30900 51.03600 22.14600
H  21.47300 53.08500 26.52100
H  22.38600 53.35000 25.07900
H  22.58400 54.49500 26.39700
H  23.91900 51.53800 31.11300
H  25.83200 54.60900 33.60200
H  24.39400 54.48300 34.46900
H  24.46700 55.45400 33.04200

