158

Mg 8.57400 3.50100 27.62500
C  9.99700 1.98300 30.43500
C  6.36800 5.23400 29.75800
C  6.72600 4.46200 24.95300
C  10.25900 1.14900 25.59300
N  8.20100 3.52400 29.76800
C  9.01200 2.96500 30.75700
C  8.73000 3.48100 32.19000
C  7.42000 4.33200 31.91400
C  7.28200 4.38100 30.38900
C  6.18100 3.94100 32.88300
C  9.86800 4.31400 32.87500
C  9.57300 5.23700 34.06500
H  10.17900 4.67700 35.34200
N  6.90700 4.90900 27.35300
C  6.19000 5.47800 28.34700
C  5.28200 6.46900 27.74800
C  5.35500 6.23100 26.25700
C  6.29500 5.07100 26.15200
C  4.35100 7.38300 28.60500
C  4.57900 6.87800 25.18700
O  4.74400 6.61600 24.01500
C  3.63800 7.98700 25.45100
N  8.57400 3.04200 25.66300
C  7.84700 3.62400 24.64000
C  8.18200 3.15800 23.23500
C  9.40100 2.21500 23.50200
C  9.41600 2.09300 25.00300
C  6.98700 2.32900 22.55700
C  10.84500 2.68500 23.01500
C  11.45400 1.92600 21.85300
N  9.84900 1.84500 27.90800
C  10.50200 0.95000 26.99800
C  11.38600 0.06300 27.74500
C  11.14300 0.47300 29.06700
C  10.23100 1.53200 29.11800
C  12.19100 -1.08100 27.24000
C  11.55700 0.18100 30.36300
O  12.27000 -0.75700 30.75900
C  10.88100 1.16900 31.30900
C  10.15400 0.44000 32.36600
O  9.21300 -0.32500 32.20000
O  10.60500 0.89300 33.56200
C  10.03300 0.37300 34.83500
H  5.67100 5.90900 30.25800
H  6.26000 4.83200 24.03700
H  10.68300 0.39800 24.92300
H  8.45100 2.64800 32.83500
H  7.67800 5.37200 32.11400
H  6.39800 3.27600 33.71900
H  5.59300 3.27500 32.25000
H  5.71800 4.81900 33.33300
H  10.29800 4.94000 32.09300
H  10.61500 3.58700 33.19400
H  8.49800 5.28700 34.23900
H  9.92500 6.25700 33.91000
H  4.67100 8.42200 28.68100
H  4.22300 7.13600 29.65900
H  3.31200 7.37200 28.27400
H  3.19200 8.39800 24.54500
H  4.11200 8.81200 25.98200
H  2.85700 7.72900 26.16600
H  8.53400 4.02400 22.67600
H  9.18300 1.24800 23.05000
H  6.04000 2.46600 23.08100
H  7.08600 1.27700 22.28700
H  6.83700 2.82400 21.59700
H  11.56600 2.67000 23.83200
H  10.78700 3.72600 22.69900
H  10.69600 1.39600 21.27600
H  12.14400 1.14500 22.17300
H  11.92900 2.69100 21.23700
H  12.34000 -0.93700 26.17000
H  11.82000 -2.10200 27.32700
H  13.17800 -1.06500 27.70300
H  11.46700 1.93800 31.81200
H  9.13500 -0.23100 34.70500
H  9.66100 1.18200 35.46300
H  10.77500 -0.20600 35.38500
Mg -2.28200 34.36000 27.61300
C  -3.88900 32.54800 30.11900
C  -0.80200 36.27100 30.12300
C  -0.84800 36.26700 25.15300
C  -4.17300 32.60200 25.19500
N  -2.38000 34.37800 29.82200
C  -3.16800 33.63700 30.65000
C  -2.91700 33.91600 32.22900
C  -2.04900 35.21900 32.10400
C  -1.61800 35.27500 30.60700
C  -2.58700 36.63800 32.50100
C  -2.34500 32.67700 33.00000
C  -3.08800 32.14600 34.27600
H  -2.33200 32.14700 35.63500
N  -1.04600 36.07000 27.66700
C  -0.51600 36.66700 28.75900
C  0.38700 37.69800 28.34100
C  0.48500 37.67400 26.89500
C  -0.52200 36.66400 26.49900
C  1.15500 38.54800 29.29400
C  1.34900 38.54900 25.98900
O  1.34700 38.40600 24.75700
C  2.00400 39.74800 26.47600
N  -2.51800 34.48800 25.46900
C  -1.75700 35.28700 24.71000
C  -2.15000 35.12600 23.25400
C  -2.93000 33.78600 23.25800
C  -3.23100 33.60800 24.73700
C  -3.00700 36.36000 22.81600
C  -2.05600 32.68600 22.77500
C  -2.22400 32.27800 21.31600
N  -3.62000 32.84000 27.57500
C  -4.36800 32.26000 26.51200
C  -5.24400 31.26600 27.03500
C  -5.08100 31.31700 28.45300
C  -4.08900 32.29200 28.75100
C  -6.14000 30.39000 26.18700
C  -5.60500 30.79600 29.71800
O  -6.36600 29.89500 29.98500
C  -4.82000 31.58600 30.83800
C  -5.87400 32.19000 31.73500
O  -6.76600 32.95400 31.36800
O  -5.67100 31.73000 33.02800
C  -6.82600 31.76400 33.90900
H  -0.38900 36.90200 30.91200
H  -0.45100 36.83800 24.31000
H  -4.81200 32.21700 24.39700
H  -3.89700 34.23100 32.58600
H  -1.25900 35.08400 32.84300
H  -1.79400 37.14200 33.05400
H  -3.46000 36.61900 33.15300
H  -2.79000 37.12000 31.54400
H  -1.36600 32.91000 33.41800
H  -2.20200 31.79800 32.37100
H  -3.31000 31.10500 34.04400
H  -3.99300 32.73400 34.43200
H  0.53400 38.75800 30.16500
H  1.56700 39.50000 28.95800
H  1.97700 37.94600 29.68000
H  1.35400 40.38200 27.07900
H  2.38200 40.31200 25.62400
H  2.81100 39.34300 27.08700
H  -1.29700 35.11300 22.57600
H  -3.93100 33.87600 22.83700
H  -2.59100 36.93600 21.99000
H  -3.06500 37.01700 23.68500
H  -3.98800 35.99200 22.51500
H  -2.09200 31.87600 23.50400
H  -1.00400 32.96900 22.81800
H  -1.26700 32.56200 20.87900
H  -3.07800 32.81800 20.90700
H  -2.47500 31.22500 21.19000
H  -5.42400 29.75100 25.67100
H  -6.56700 30.94600 25.35200
H  -6.80600 29.86100 26.86900
H  -4.24200 30.78800 31.30400
H  -7.07800 30.85300 34.45200
H  -7.66900 31.98700 33.25500
H  -6.74300 32.60600 34.59600

