158

Mg 8.33200 4.05200 27.71400
C  9.49000 2.59700 30.71400
C  5.97400 5.91300 29.67400
C  7.24800 5.52900 24.95800
C  10.26000 1.81700 25.87500
N  7.80700 4.13500 29.91700
C  8.50200 3.59600 30.94500
C  7.99100 4.14200 32.29400
C  6.68800 4.90200 31.89300
C  6.83800 5.03000 30.37300
C  5.33600 4.15500 32.24900
C  8.96300 4.95700 33.17400
C  9.23800 4.39200 34.59000
H  9.91100 5.31800 35.64000
N  6.85800 5.56200 27.34200
C  5.99600 6.19400 28.23500
C  5.24200 7.15700 27.57400
C  5.57400 7.13300 26.22700
C  6.59200 5.99400 26.11100
C  4.19600 8.06800 28.26700
C  5.10000 8.04500 25.02000
O  5.43500 7.86900 23.81300
C  4.19000 9.04800 25.29200
N  8.66200 3.58900 25.72000
C  8.22100 4.51600 24.77600
C  8.82000 4.22200 23.42300
C  9.91500 3.17500 23.74500
C  9.62200 2.81300 25.21800
C  7.83400 3.78600 22.30700
C  11.39800 3.57600 23.48400
C  11.97900 4.57800 24.47700
N  9.56600 2.44100 28.17400
C  10.29400 1.62900 27.36200
C  10.98100 0.57700 28.10600
C  10.73600 0.94100 29.45700
C  9.84300 2.04900 29.41300
C  11.82500 -0.43600 27.50700
C  11.04700 0.57900 30.77500
O  11.67300 -0.26700 31.31100
C  10.31000 1.73800 31.73700
C  9.54100 0.89800 32.75600
O  8.45700 0.33900 32.58200
O  10.23400 0.87500 33.91100
C  9.75700 0.04500 35.06700
H  5.33900 6.54600 30.29700
H  6.96700 6.09000 24.06400
H  10.96000 1.14200 25.37700
H  7.66300 3.19900 32.73200
H  6.69200 5.89100 32.35200
H  4.64600 4.34600 31.42700
H  5.01600 4.56600 33.20700
H  5.51200 3.11700 32.53300
H  8.54100 5.96200 33.18200
H  9.96200 4.96400 32.73800
H  9.91200 3.53900 34.51300
H  8.33900 3.85900 34.90100
H  4.10600 8.01500 29.35200
H  3.25600 7.86300 27.75400
H  4.51600 9.11000 28.27800
H  3.26100 8.56600 25.59900
H  4.09500 9.69200 24.41800
H  4.68300 9.53000 26.13600
H  9.30800 5.14100 23.09800
H  9.78600 2.24700 23.18800
H  6.87900 3.77600 22.83100
H  8.08600 2.80400 21.90700
H  7.87300 4.58600 21.56700
H  11.43600 4.04200 22.49900
H  11.99800 2.66900 23.41200
H  11.33800 4.61800 25.35800
H  11.89200 5.51300 23.92400
H  13.00800 4.52100 24.83400
H  12.39000 0.04800 26.71100
H  11.36200 -1.25700 26.95900
H  12.52800 -0.77900 28.26700
H  11.12000 2.34800 32.13700
H  8.87800 0.58900 35.41400
H  10.50300 -0.07200 35.85300
H  9.38100 -0.90500 34.68700
Mg 56.21600 25.31200 44.88700
C  53.46600 26.97000 43.36600
C  54.95900 22.35400 43.45600
C  59.17100 23.88400 45.33100
C  57.49900 28.31300 45.70300
N  54.38300 24.75800 43.56400
C  53.50200 25.61300 42.97700
C  52.49200 24.84300 42.14100
C  52.81500 23.42000 42.51700
C  54.18300 23.48700 43.16800
C  51.79600 22.60000 43.32000
C  52.68600 25.15500 40.64000
C  51.56200 25.62800 39.84000
H  50.90000 24.65200 38.83600
N  57.01000 23.36800 44.60600
C  56.28600 22.28200 43.97700
C  57.06200 21.06700 44.15400
C  58.41100 21.54200 44.56700
C  58.26500 22.96700 44.80000
C  56.55300 19.65400 43.86800
C  59.68400 20.68800 44.53700
O  59.61900 19.46000 44.34700
C  61.02200 21.27900 44.87100
N  58.10500 26.05500 45.18000
C  59.18300 25.23400 45.36000
C  60.33600 25.95600 45.69400
C  59.85100 27.44500 45.83000
C  58.38600 27.27500 45.61000
C  61.20100 25.43200 46.93200
C  60.55500 28.34000 44.72900
C  60.70000 29.90900 44.98500
N  55.60900 27.32000 44.70000
C  56.15500 28.41600 45.28000
C  55.23200 29.47300 45.19300
C  54.12700 29.01100 44.45900
C  54.45100 27.62600 44.12900
C  55.45600 30.86600 45.76000
C  52.85300 29.28400 43.88100
O  52.14200 30.28100 43.95100
C  52.40200 28.03500 43.16100
C  52.17800 28.38300 41.77000
O  53.03900 28.70300 40.93700
O  50.84400 28.21400 41.50200
C  50.38500 28.47000 40.12600
H  54.53500 21.37500 43.22200
H  60.15700 23.51200 45.61900
H  57.83400 29.29500 46.04600
H  51.52100 25.21800 42.46500
H  53.02000 22.89800 41.58200
H  50.95700 23.09400 43.81000
H  52.38400 22.17900 44.13600
H  51.44000 21.71800 42.78700
H  52.97500 24.23600 40.12900
H  53.52300 25.83600 40.48400
H  51.88000 26.52300 39.30500
H  50.67400 25.88400 40.41800
H  55.49900 19.46400 44.07200
H  57.15100 18.97300 44.47300
H  56.70200 19.34900 42.83300
H  61.20200 22.01700 44.09000
H  61.72600 20.44700 44.85900
H  61.04300 21.85400 45.79700
H  61.09600 25.83900 44.92200
H  60.17400 27.80600 46.80700
H  62.08900 24.91700 46.56300
H  60.64300 24.69800 47.51300
H  61.51200 26.19500 47.64600
H  60.11500 28.27800 43.73300
H  61.58500 28.00800 44.60300
H  60.46400 30.52500 44.11600
H  61.73300 30.14800 45.23900
H  60.04800 30.28300 45.77400
H  56.35200 30.78200 46.37500
H  54.57300 31.09200 46.35700
H  55.63500 31.58700 44.96200
H  51.47500 27.68300 43.61400
H  49.84600 27.63700 39.67400
H  51.16000 28.75500 39.41600
H  49.59900 29.21300 40.26400

