158

Mg 48.47500 35.83300 28.43300
C  46.53300 33.87100 30.55900
C  48.74900 38.25100 30.80200
C  49.77100 37.93800 26.09300
C  48.25300 33.32600 25.98800
N  47.61700 36.03000 30.39000
C  47.11300 35.05900 31.15900
C  47.43200 35.30000 32.62100
C  47.60900 36.85800 32.60000
C  48.09000 37.09900 31.21300
C  46.40900 37.79200 33.01500
C  48.72400 34.54300 33.03500
C  49.09500 34.37300 34.50700
H  48.29800 35.21700 35.55900
N  49.37100 37.70700 28.51900
C  49.34800 38.49200 29.61400
C  49.98300 39.77400 29.28900
C  50.30600 39.72100 27.91300
C  49.75700 38.44300 27.44500
C  50.37100 40.84600 30.31100
C  51.04600 40.72100 27.19200
O  51.32000 40.41300 26.04600
C  51.47900 42.03400 27.82200
N  48.88900 35.66100 26.34700
C  49.38500 36.66700 25.56100
C  49.69600 36.09200 24.11900
C  49.47300 34.65000 24.29900
C  48.86500 34.51700 25.62600
C  48.73200 36.76500 23.11800
C  50.86100 33.86800 24.21200
C  50.94800 32.73200 23.16500
N  47.49600 33.95300 28.23700
C  47.55500 32.99200 27.19700
C  46.63100 31.97600 27.52000
C  46.21100 32.24100 28.83800
C  46.84300 33.42300 29.22800
C  46.33000 30.82500 26.60500
C  45.40300 31.77700 29.97400
O  44.64000 30.80800 30.06200
C  45.69900 32.76000 31.14000
C  46.42800 32.01000 32.20200
O  47.48200 31.38000 32.02000
O  45.82600 32.20100 33.48300
C  46.55600 31.79000 34.64600
H  48.89100 38.96500 31.61600
H  50.20400 38.49000 25.25600
H  48.32700 32.59100 25.18300
H  46.53200 35.16800 33.22200
H  48.42300 37.23000 33.22200
H  45.55100 37.15000 33.21500
H  46.08600 38.42500 32.18900
H  46.85500 38.39600 33.80500
H  49.54500 35.00000 32.48300
H  48.56900 33.49600 32.77200
H  50.15900 34.55100 34.66300
H  49.10000 33.30400 34.71900
H  51.43600 41.07000 30.24600
H  50.01200 40.65400 31.32300
H  49.74800 41.72600 30.15000
H  50.64300 42.52100 28.32400
H  51.78500 42.59800 26.94100
H  52.31100 41.87900 28.50800
H  50.68600 36.33100 23.73100
H  48.79200 34.25500 23.54500
H  49.28800 37.03800 22.22100
H  48.33200 37.71200 23.48300
H  47.94400 36.02300 22.99100
H  51.08500 33.50200 25.21400
H  51.63300 34.61600 24.03100
H  51.84100 32.17300 23.44600
H  51.05700 33.21800 22.19500
H  50.07700 32.11300 23.38100
H  45.49000 30.17800 26.85800
H  47.28400 30.30200 26.53300
H  46.04900 31.19200 25.61800
H  44.74200 33.11200 31.52400
H  46.73700 32.66200 35.27400
H  47.50500 31.30800 34.41400
H  45.84800 31.11100 35.12200
Mg -12.28800 17.22600 42.16400
C  -9.46200 15.39600 41.80100
C  -10.63700 20.04500 40.96900
C  -15.23900 18.79700 41.74300
C  -14.03800 14.19800 42.78600
N  -10.26400 17.66600 41.28900
C  -9.26000 16.72700 41.35700
C  -7.87500 17.39500 40.96900
C  -8.28500 18.94200 41.03700
C  -9.82100 18.93300 41.16000
C  -7.68900 19.82400 42.17600
C  -7.30000 16.96300 39.60400
C  -5.91200 16.29500 39.60200
H  -5.82200 14.99600 38.72200
N  -12.87800 19.07900 41.53900
C  -12.05600 20.12900 41.08600
C  -12.86400 21.31400 40.86900
C  -14.17200 20.98300 41.16800
C  -14.17300 19.60200 41.53700
C  -12.30900 22.67900 40.41300
C  -15.28200 21.95300 40.95900
O  -15.09300 23.08700 40.57200
C  -16.65500 21.71500 41.47700
N  -14.35500 16.59300 42.36000
C  -15.38200 17.43400 42.10200
C  -16.76300 16.72800 42.30100
C  -16.37200 15.24600 42.62100
C  -14.83600 15.30700 42.53800
C  -17.85800 17.31100 43.27200
C  -17.01100 14.21400 41.69300
C  -17.95700 13.18400 42.36500
N  -11.87400 15.22700 42.43800
C  -12.66700 14.11000 42.66600
C  -11.86700 12.92200 42.70100
C  -10.63500 13.38700 42.38500
C  -10.70500 14.75900 42.11400
C  -12.19200 11.47800 43.11100
C  -9.27400 13.02000 42.22100
O  -8.72400 11.95000 42.38700
C  -8.42100 14.27000 41.85100
C  -7.39000 14.28200 42.92000
O  -7.58500 14.30600 44.10400
O  -6.16100 14.25200 42.36900
C  -5.00400 14.35000 43.19400
H  -10.17900 21.01200 40.75200
H  -16.20300 19.23100 41.46800
H  -14.63000 13.28100 42.82300
H  -7.17400 17.09800 41.74900
H  -8.05800 19.47700 40.11500
H  -6.86200 20.46300 41.86500
H  -7.25300 19.11500 42.88000
H  -8.39400 20.46900 42.70100
H  -7.31900 17.88300 39.02000
H  -8.01100 16.34500 39.05600
H  -5.57800 16.05700 40.61200
H  -5.16800 17.02300 39.27800
H  -12.86600 23.04400 39.55100
H  -11.27700 22.55200 40.08700
H  -12.24200 23.38500 41.24100
H  -16.70100 21.11400 42.38500
H  -17.25900 21.19300 40.73500
H  -17.15700 22.65300 41.71700
H  -17.26800 16.76400 41.33500
H  -16.47600 14.94300 43.66300
H  -18.66000 17.69400 42.64200
H  -17.39100 18.16700 43.75900
H  -18.27900 16.53700 43.91500
H  -16.14200 13.67900 41.31100
H  -17.51300 14.75400 40.89100
H  -18.93500 13.66400 42.32100
H  -17.65500 13.01700 43.39900
H  -17.96700 12.30200 41.72500
H  -11.50500 11.00800 43.81400
H  -12.26900 10.90800 42.18600
H  -13.12000 11.57900 43.67500
H  -8.00300 13.96900 40.89100
H  -4.32700 13.58500 42.81500
H  -5.15900 14.27600 44.27000
H  -4.52900 15.30300 42.96200

