158

Mg 44.56200 4.04500 47.29700
C  42.40700 6.75400 47.00800
C  41.74500 1.88100 47.21800
C  46.61800 1.42000 47.22300
C  47.23500 6.23900 47.26800
N  42.37700 4.33200 47.01000
C  41.75700 5.49900 46.86800
C  40.32200 5.26800 46.68700
C  39.93600 3.77200 47.02600
C  41.41300 3.21100 47.11000
C  39.03900 3.56100 48.24000
C  40.01600 5.60800 45.14400
C  39.06300 6.67600 44.80100
H  39.42100 7.64300 43.66800
N  44.20900 2.00200 47.28200
C  43.05700 1.30600 47.28200
C  43.29500 -0.11800 47.08900
C  44.69800 -0.27100 47.19100
C  45.22000 1.10700 47.17600
C  42.30500 -1.15900 46.79900
C  45.44000 -1.60500 47.11100
O  44.88100 -2.67500 47.24900
C  46.88300 -1.73600 46.81200
N  46.67300 3.86400 47.25800
C  47.30000 2.65700 47.18800
C  48.86100 2.84500 47.20100
C  49.02200 4.37900 47.11500
C  47.59400 4.89700 47.25700
C  49.50800 2.34800 48.48100
C  49.62500 4.92000 45.76800
C  51.10300 5.43000 45.89600
N  44.83100 6.17400 47.12300
C  45.98600 6.90100 47.15100
C  45.56000 8.30200 47.14100
C  44.17100 8.34300 47.14200
C  43.77500 6.97700 47.12000
C  46.48000 9.55500 47.28000
C  42.97300 9.17700 47.16000
O  42.84200 10.36300 47.20900
C  41.80700 8.16000 47.05200
C  40.91100 8.25400 48.27100
O  41.07200 7.62000 49.33000
O  40.01500 9.25200 48.04900
C  39.01200 9.52500 49.05300
H  40.82900 1.28900 47.18200
H  47.32300 0.58700 47.18400
H  48.04600 6.95500 47.42000
H  39.70800 5.95800 47.26600
H  39.58400 3.14200 46.20900
H  38.57500 2.57500 48.23200
H  38.35600 4.40100 48.37300
H  39.76000 3.63300 49.05400
H  39.66500 4.73000 44.60200
H  40.95600 5.85500 44.65100
H  38.99100 7.42400 45.59000
H  38.12300 6.16500 44.59200
H  42.31100 -1.68900 45.84600
H  41.28300 -0.88200 47.05800
H  42.53400 -2.01800 47.42900
H  46.98200 -1.00100 46.01300
H  47.24700 -2.65800 46.35800
H  47.53200 -1.47500 47.64800
H  49.17600 2.19800 46.38100
H  49.47900 4.86100 47.97900
H  50.16700 1.52000 48.22200
H  48.75200 1.94700 49.15600
H  50.14900 3.10600 48.93200
H  48.92700 5.69300 45.44500
H  49.67000 4.13100 45.01700
H  51.61900 5.41700 44.93600
H  51.64800 4.75900 46.56000
H  51.09600 6.46400 46.24100
H  46.78800 9.75700 48.30600
H  46.08000 10.47400 46.85100
H  47.34200 9.27800 46.67300
H  41.30400 8.41900 46.12000
H  38.76100 10.58600 49.03700
H  39.34400 9.30700 50.06700
H  38.06000 9.01800 48.89400
Mg 46.45400 25.97400 28.19600
C  47.13600 28.09100 30.85300
C  45.58000 23.50100 30.62000
C  46.02400 23.88300 25.70900
C  48.02800 28.15800 26.09000
N  46.28100 25.87100 30.50000
C  46.57600 26.91700 31.33200
C  46.30300 26.54600 32.77800
C  46.06500 25.03100 32.67400
C  45.99500 24.70600 31.20500
C  47.11100 24.15100 33.41700
C  45.13800 27.44200 33.38100
C  44.84600 27.12700 34.80500
H  44.90300 28.24400 35.80900
N  45.86500 23.97300 28.13500
C  45.58400 23.16500 29.22200
C  45.35000 21.84600 28.65000
C  45.47500 21.89900 27.21400
C  45.75600 23.30000 26.97500
C  45.12200 20.60700 29.58100
C  45.44100 20.82700 26.18900
O  45.76400 20.99200 25.00400
C  45.01600 19.50200 26.61900
N  47.00200 25.99400 26.23200
C  46.54600 25.05300 25.35500
C  46.60800 25.50100 23.86100
C  47.27000 26.95500 23.97100
C  47.37800 27.06800 25.53700
C  47.32500 24.57900 22.86900
C  46.48800 28.12100 23.27700
C  47.40800 29.07800 22.39100
N  47.34500 27.79900 28.33700
C  48.05900 28.56800 27.42000
C  48.56200 29.72800 28.03400
C  48.22900 29.65700 29.37800
C  47.54100 28.40400 29.53500
C  49.42000 30.75700 27.35000
C  48.35500 30.27200 30.67800
O  48.85200 31.31300 31.09500
C  47.69500 29.20700 31.73700
C  48.81300 28.68600 32.64000
O  49.67600 27.93400 32.28100
O  48.80400 29.39500 33.79000
C  49.95400 29.13400 34.67000
H  45.13500 22.75700 31.28400
H  45.97200 23.31500 24.77800
H  48.33600 28.85400 25.30700
H  47.18400 26.78300 33.37500
H  45.06900 24.95100 33.10900
H  47.75800 24.68300 34.11500
H  47.71000 23.65300 32.65400
H  46.56900 23.40300 33.99500
H  44.21300 27.15900 32.87800
H  45.42300 28.48900 33.27900
H  45.65100 26.47400 35.14300
H  43.91300 26.56300 34.81000
H  44.20400 20.11000 29.26700
H  44.91800 20.77600 30.63800
H  45.94100 19.89800 29.46200
H  45.83300 19.09100 27.21100
H  45.00100 18.78700 25.79700
H  44.05300 19.56200 27.12600
H  45.61600 25.64800 23.43400
H  48.26000 26.83800 23.53200
H  46.51600 23.91500 22.56600
H  48.13300 24.06600 23.39000
H  47.75800 25.10600 22.01900
H  46.12300 28.69600 24.12800
H  45.65400 27.61000 22.79700
H  47.21400 29.03000 21.32000
H  48.45700 28.78500 22.43800
H  47.33400 30.08800 22.79400
H  49.71100 30.61400 26.31000
H  50.36100 30.92600 27.87200
H  48.81900 31.65700 27.48400
H  47.05200 29.92400 32.24700
H  50.31100 28.10500 34.62700
H  49.67400 29.48500 35.66300
H  50.73600 29.86500 34.46300

