158

Mg 41.40700 8.15400 29.17900
C  43.32600 9.66500 31.67800
C  39.38700 6.80700 31.64300
C  39.58300 6.61800 26.73800
C  43.94200 8.99600 26.81900
N  41.40600 8.07500 31.36900
C  42.12300 8.95600 32.14600
C  41.63700 9.01300 33.57600
C  40.62900 7.89600 33.57700
C  40.41900 7.58800 32.08000
C  40.88300 6.67600 34.38200
C  41.13000 10.37200 34.06000
C  40.38800 10.31800 35.46900
H  41.00300 10.99000 36.66200
N  39.68100 7.06400 29.16900
C  38.99200 6.55400 30.28100
C  37.69000 6.02300 29.84500
C  37.67400 6.09300 28.45100
C  39.01700 6.65300 28.00900
C  36.70700 5.43400 30.80000
C  36.51600 5.77700 27.44600
O  36.62200 5.71300 26.22800
C  35.14500 5.60000 28.04900
N  41.83600 7.56400 27.14100
C  40.86100 7.05700 26.31700
C  41.43500 6.84500 24.89500
C  42.54700 7.94900 24.89400
C  42.84000 8.22100 26.40100
C  41.92900 5.40100 24.64200
C  42.11100 9.24600 24.11000
C  41.28400 10.35800 24.84400
N  43.24700 9.16300 29.16800
C  44.17400 9.46500 28.13400
C  45.13900 10.29500 28.66700
C  44.84100 10.42500 30.02800
C  43.69400 9.72300 30.31200
C  46.31000 10.87000 27.86900
C  45.31300 11.02200 31.25700
O  46.18600 11.82300 31.51000
C  44.31900 10.47200 32.38900
C  45.00200 9.76200 33.47300
O  45.40300 8.60300 33.46800
O  45.12100 10.62700 34.46300
C  45.41500 9.93800 35.73300
H  38.72700 6.54200 32.47200
H  39.00000 6.07200 25.99300
H  44.54100 9.32800 25.96900
H  42.45500 8.79700 34.26400
H  39.67800 8.27900 33.94800
H  40.59300 5.75400 33.87700
H  40.23300 6.70000 35.25600
H  41.86200 6.55100 34.84500
H  40.52100 10.84500 33.29000
H  41.97800 11.01000 34.30900
H  39.94700 9.35700 35.73500
H  39.55700 11.00900 35.32800
H  35.96600 6.09100 31.25700
H  37.37300 5.04600 31.57100
H  36.22400 4.53800 30.41100
H  35.13100 4.59600 28.47400
H  34.43900 5.49500 27.22500
H  34.73400 6.37400 28.69700
H  40.73000 7.21900 24.15300
H  43.47800 7.57200 24.47200
H  41.98300 5.30400 23.55800
H  41.23300 4.62600 24.96500
H  42.92200 5.21100 25.04900
H  41.64000 9.00200 23.15800
H  43.05600 9.74000 23.88500
H  40.46200 10.66600 24.19800
H  41.93900 11.21100 25.02200
H  40.97700 9.89800 25.78300
H  46.41400 11.94800 27.99700
H  46.15900 10.65300 26.81200
H  47.19300 10.32600 28.20500
H  43.71500 11.26600 32.82900
H  46.12300 9.11100 35.69200
H  44.46400 9.64100 36.17600
H  45.75300 10.65300 36.48200
Mg 15.89000 51.08800 25.43900
C  17.62200 49.96300 28.33000
C  13.24300 52.05600 27.57000
C  14.30400 52.12700 22.79100
C  18.65500 50.18400 23.63500
N  15.57500 50.99400 27.74900
C  16.48400 50.61300 28.70700
C  15.95000 50.94700 30.05400
C  14.38400 51.23500 29.76400
C  14.42900 51.49100 28.26600
C  13.47900 49.99300 30.10200
C  16.67300 52.32700 30.54100
C  16.93400 52.49700 32.07000
H  16.14300 51.49800 32.91000
N  14.03600 52.04000 25.23300
C  13.07300 52.28400 26.23700
C  11.86400 52.85600 25.49600
C  12.14400 52.84800 24.10100
C  13.57400 52.32800 24.02400
C  10.59000 53.10500 26.30600
C  11.29000 53.34000 22.94700
O  11.78800 53.44400 21.84300
C  9.91500 53.71600 23.23200
N  16.33200 50.94600 23.54500
C  15.51700 51.47900 22.60800
C  16.21800 51.57100 21.17600
C  17.65800 51.07400 21.57700
C  17.58100 50.80300 22.99300
C  15.49400 50.68600 20.15900
C  18.77600 52.05900 21.13300
C  19.07000 52.12600 19.55000
N  17.70300 50.14300 25.81500
C  18.72100 49.82900 24.94500
C  19.81900 49.22300 25.66500
C  19.47600 49.26700 27.05500
C  18.10200 49.70700 27.05000
C  21.10100 48.54800 25.08000
C  19.82200 48.80300 28.41200
O  20.79600 48.27100 28.82800
C  18.65200 49.35500 29.26800
C  18.07300 48.36300 30.28400
O  17.02800 47.73300 30.13000
O  18.86600 48.37800 31.35100
C  18.46700 47.49700 32.49000
H  12.50600 52.31900 28.33100
H  13.68700 52.28800 21.90400
H  19.58200 50.09500 23.06600
H  15.93700 50.17900 30.82800
H  13.92000 52.04000 30.33500
H  13.07900 50.12700 31.10700
H  14.02400 49.05000 30.15600
H  12.67400 49.83000 29.38500
H  15.98900 53.12200 30.24400
H  17.58300 52.41700 29.94700
H  16.51500 53.47100 32.32300
H  17.98900 52.29500 32.25500
H  9.74900 52.61700 25.81300
H  10.36900 54.16600 26.42300
H  10.68300 52.72900 27.32500
H  9.28800 52.83800 23.38300
H  9.43900 53.98100 22.28800
H  9.75000 54.51800 23.95200
H  16.24600 52.62900 20.91400
H  17.98200 50.15200 21.09500
H  16.17600 49.89500 19.84700
H  15.30200 51.34900 19.31600
H  14.53000 50.24000 20.40600
H  19.75300 51.87200 21.57900
H  18.45400 53.08000 21.33800
H  20.15600 52.18500 19.47500
H  18.56000 53.01400 19.17500
H  18.76400 51.22000 19.02600
H  21.73500 49.32200 24.64600
H  20.71700 47.91900 24.27700
H  21.55700 47.91600 25.84200
H  19.05100 50.24400 29.75700
H  19.19400 46.75100 32.81000
H  17.70100 46.75100 32.27700
H  18.14800 48.11800 33.32700

