158

Mg 5.48000 53.50400 41.47200
C  5.06100 50.19200 40.80700
C  8.70500 53.32100 40.02500
C  5.67900 56.84600 41.35900
C  2.14900 53.77500 42.26400
N  6.78000 51.88000 40.43300
C  6.40400 50.61600 40.32500
C  7.52300 49.72900 39.71400
C  8.76300 50.73500 39.80500
C  8.08600 52.09000 40.07500
C  9.65100 50.39200 41.04900
C  7.29500 49.11700 38.29400
C  6.49900 50.02700 37.31000
H  5.76300 49.29300 36.16100
N  7.07000 54.90500 41.03800
C  8.26900 54.56100 40.48000
C  9.06600 55.80500 40.43500
C  8.18700 56.88500 40.77000
C  6.88200 56.27100 40.98100
C  10.50100 55.82000 40.06400
C  8.55700 58.31300 40.66400
O  9.70200 58.68900 40.31000
C  7.71900 59.33200 41.18700
N  4.13300 55.11500 41.76000
C  4.40100 56.43300 41.71900
C  3.33000 57.37200 42.27200
C  2.18200 56.39300 42.51900
C  2.85500 55.00400 42.12800
C  3.90200 58.19800 43.54100
C  0.95100 56.89100 41.60500
C  1.11300 56.63200 40.15200
N  3.85000 52.26500 41.59300
C  2.58500 52.44700 41.99100
C  1.85100 51.18300 42.02700
C  2.81400 50.26700 41.64300
C  4.00400 51.01000 41.30100
C  0.42100 51.00600 42.53800
C  3.06100 48.93400 41.48900
O  2.42500 47.92600 41.76600
C  4.52700 48.76300 40.91700
C  4.41200 47.97300 39.65100
O  3.65700 48.23200 38.67500
O  5.06000 46.82600 39.76400
C  4.67800 45.78900 38.76300
H  9.73200 53.35800 39.65500
H  5.67000 57.92500 41.19300
H  1.07900 53.85500 42.46600
H  7.72200 48.88200 40.37100
H  9.45500 50.74000 38.96200
H  9.80000 51.28400 41.65700
H  10.59600 49.95200 40.73100
H  9.07000 49.71700 41.67700
H  6.73400 48.18300 38.25600
H  8.20800 48.90100 37.73900
H  7.04600 50.84900 36.85000
H  5.77600 50.55600 37.93200
H  10.63200 56.07700 39.01300
H  11.05700 54.88800 40.16500
H  10.98600 56.62600 40.61400
H  8.17400 60.27700 41.48300
H  7.33500 58.82100 42.07000
H  6.91300 59.37900 40.45600
H  3.09600 58.00900 41.41900
H  1.94300 56.37500 43.58200
H  4.89100 57.82800 43.80900
H  3.27600 58.02200 44.41600
H  3.94600 59.26700 43.32900
H  0.79100 57.95200 41.79900
H  0.03700 56.38300 41.91400
H  0.88400 57.53500 39.58700
H  0.43800 55.80200 39.94300
H  2.11900 56.32700 39.86600
H  0.44200 51.02900 43.62700
H  0.17700 49.96700 42.31600
H  -0.36400 51.61900 42.09600
H  5.03700 48.09700 41.61300
H  5.53700 45.68700 38.10100
H  3.80000 46.11500 38.20400
H  4.38900 44.86400 39.26300
Mg 9.34400 48.13000 26.55800
C  7.49000 48.29300 29.62100
C  12.03600 49.53700 28.33200
C  11.11100 48.24600 23.76300
C  6.37400 47.64800 24.91600
N  9.64600 48.78400 28.72700
C  8.76100 48.72300 29.78900
C  9.54600 49.27600 31.11300
C  10.78500 50.04200 30.51800
C  10.83400 49.40100 29.08400
C  10.59600 51.64600 30.56700
C  9.92900 48.08900 32.00900
C  9.71600 48.07900 33.56700
H  9.82800 46.84900 34.44500
N  11.37200 48.61000 26.15300
C  12.35800 49.11000 26.97200
C  13.60500 49.05200 26.37800
C  13.34000 48.58300 25.04000
C  11.88800 48.52100 24.90300
C  14.84300 49.31300 27.08600
C  14.37900 48.16100 23.93100
O  14.00300 47.96100 22.75400
C  15.80500 48.09300 24.31400
N  8.83000 48.10900 24.66200
C  9.73600 48.19700 23.61600
C  9.09200 48.01200 22.23000
C  7.65900 47.55900 22.59900
C  7.60900 47.80000 24.14400
C  9.12700 49.32200 21.41300
C  7.43600 46.08700 22.25100
C  7.71300 44.99300 23.30600
N  7.29800 47.99100 27.12800
C  6.23900 47.77400 26.29900
C  5.04000 47.75400 27.09100
C  5.49100 47.82500 28.42500
C  6.88100 47.98900 28.42100
C  3.67000 47.35200 26.70600
C  5.15900 47.82200 29.76300
O  4.06700 47.93900 30.29100
C  6.47700 47.99300 30.63000
C  6.58400 46.74400 31.38700
O  6.97200 45.68000 30.93500
O  6.28600 46.96300 32.69300
C  6.20800 45.72300 33.55700
H  12.89200 49.95900 28.86200
H  11.62800 48.18400 22.80300
H  5.55700 47.47300 24.21200
H  8.82600 49.92300 31.61300
H  11.70000 49.70600 31.00600
H  9.77600 52.05200 31.16000
H  10.27700 51.81100 29.53800
H  11.41600 52.17700 31.05000
H  11.00500 47.91800 32.04600
H  9.47500 47.18300 31.60600
H  8.65700 48.33700 33.56700
H  10.37400 48.83400 33.99800
H  15.54300 48.51600 26.83600
H  14.89600 49.42800 28.16800
H  15.26400 50.24300 26.70300
H  16.29200 47.56500 23.49400
H  15.84000 47.35000 25.11100
H  16.15700 49.06200 24.66700
H  9.63000 47.26100 21.65200
H  6.96300 48.20500 22.06300
H  10.13500 49.43800 21.01300
H  8.76500 50.23400 21.88800
H  8.60700 49.19700 20.46300
H  7.90300 45.79400 21.31100
H  6.39400 45.99800 21.94600
H  6.83200 44.88900 23.93900
H  8.52400 45.32400 23.95400
H  7.98700 44.03100 22.87500
H  3.46600 47.33200 25.63500
H  2.88400 47.88000 27.24700
H  3.63300 46.31700 27.04400
H  6.44600 48.84300 31.31100
H  5.81600 45.95000 34.54900
H  7.19900 45.31300 33.75400
H  5.59500 44.98300 33.04200

