158

Mg 1.08700 43.43500 26.25000
C  2.53200 43.46400 29.37900
C  -1.71000 41.99200 27.62100
C  0.01000 42.56300 23.15400
C  4.18600 44.32400 24.85800
N  0.47000 42.83100 28.34900
C  1.20800 43.03000 29.44300
C  0.40400 42.57500 30.66000
C  -0.93800 41.99700 30.01500
C  -0.72000 42.27300 28.57000
C  -1.37200 40.53100 30.45300
C  0.20600 43.56400 31.83600
C  1.13800 43.44200 33.02500
H  0.78200 42.38900 34.07600
N  -0.77200 42.68100 25.51000
C  -1.68900 41.95900 26.22000
C  -2.64300 41.36400 25.39200
C  -2.16400 41.60000 24.06800
C  -0.91500 42.33400 24.18800
C  -3.85000 40.50100 25.94600
C  -2.79400 41.20100 22.76400
O  -2.27200 41.27200 21.65400
C  -4.18300 40.55100 22.73100
N  2.04300 43.36800 24.19200
C  1.29600 43.07700 23.05600
C  2.17100 43.34300 21.82500
C  3.34600 44.18400 22.45300
C  3.25300 43.93800 23.91900
C  2.67900 42.08200 21.04100
C  3.18700 45.68100 22.19300
C  4.13400 46.34800 21.09600
N  2.99100 43.85600 26.90300
C  4.12600 44.21800 26.25500
C  5.14400 44.44600 27.22300
C  4.56900 44.17700 28.48300
C  3.23900 43.80200 28.23200
C  6.50800 44.91200 26.94500
C  4.90900 44.18700 29.91300
O  5.83100 44.49200 30.65400
C  3.61700 43.54200 30.46400
C  4.03600 42.20900 30.94800
O  4.19800 41.16000 30.26100
O  4.25800 42.24000 32.32800
C  4.40200 40.96800 33.00100
H  -2.59000 41.54300 28.08700
H  -0.24400 42.37300 22.10900
H  5.10200 44.76500 24.46000
H  0.96000 41.75100 31.10800
H  -1.74000 42.54300 30.51300
H  -2.45100 40.57100 30.60400
H  -0.97100 40.35100 31.45000
H  -1.11900 39.74700 29.73800
H  -0.75600 43.37600 32.31300
H  0.29700 44.57700 31.44500
H  1.25300 44.42000 33.49300
H  2.08200 43.07300 32.62200
H  -3.89200 40.59700 27.03100
H  -3.66000 39.46600 25.66300
H  -4.74600 40.90900 25.47600
H  -4.45900 40.33000 21.70000
H  -4.81500 41.31700 23.18000
H  -4.03500 39.70500 23.40300
H  1.61500 44.00000 21.15600
H  4.32300 43.77200 22.19700
H  3.56200 41.68600 21.54300
H  2.87700 42.33700 20.00000
H  1.94200 41.27900 21.01800
H  3.36600 46.23500 23.11400
H  2.11300 45.84400 22.10200
H  4.70400 47.12700 21.60400
H  3.37000 46.81100 20.47200
H  4.84000 45.67600 20.60800
H  6.44500 45.82000 26.34500
H  7.23300 44.33500 26.37000
H  6.98100 45.13000 27.90300
H  3.31600 44.08100 31.36200
H  5.40100 40.64300 32.70800
H  3.65400 40.20700 32.78000
H  4.38800 41.11000 34.08200
Mg -11.05700 17.47200 41.35700
C  -7.85600 16.01300 40.97100
C  -9.81300 20.51700 40.86800
C  -14.28600 18.66500 41.29200
C  -12.29100 14.19300 41.24100
N  -9.04600 18.15000 41.08300
C  -7.91000 17.39500 40.95200
C  -6.67800 18.32000 40.92900
C  -7.35000 19.79100 41.08800
C  -8.84500 19.43900 41.04000
C  -6.86500 20.54500 42.40600
C  -5.95200 18.22300 39.52300
C  -4.46900 17.71700 39.54200
H  -4.08100 16.53100 38.62000
N  -11.93400 19.32800 41.24200
C  -11.22800 20.44400 40.92800
C  -12.14300 21.55500 40.72000
C  -13.45600 21.07500 40.95600
C  -13.27000 19.60900 41.18600
C  -11.71900 22.94700 40.23500
C  -14.72000 21.85500 40.84900
O  -14.71900 23.02600 40.51100
C  -16.08600 21.22800 41.22000
N  -12.98200 16.55800 41.25800
C  -14.14000 17.26600 41.37400
C  -15.36200 16.35600 41.23400
C  -14.72400 14.98100 41.53400
C  -13.17800 15.21300 41.35100
C  -16.59900 16.66700 42.17900
C  -15.31000 13.70300 40.83300
C  -15.39700 12.44900 41.58400
N  -10.25600 15.44700 41.07500
C  -10.85000 14.22000 41.12000
C  -9.89100 13.12100 40.91500
C  -8.68400 13.84600 40.99900
C  -8.97900 15.23800 41.04000
C  -10.19600 11.66000 40.75600
C  -7.21500 13.64500 41.24000
O  -6.55700 12.63100 41.24000
C  -6.65300 15.12000 41.22400
C  -5.82400 15.36300 42.48400
O  -4.56200 15.34900 42.49200
O  -6.53600 15.42800 43.63300
C  -5.70700 15.68300 44.79000
H  -9.42000 21.53400 40.80300
H  -15.31600 18.95500 41.07300
H  -12.64900 13.16200 41.26000
H  -6.16600 18.01200 41.84100
H  -7.16200 20.38900 40.19600
H  -7.63800 20.54600 43.17500
H  -6.54200 21.54500 42.11500
H  -6.01000 19.95100 42.72800
H  -6.07700 19.14300 38.95200
H  -6.51700 17.43700 39.02200
H  -4.18200 17.31200 40.51300
H  -3.79700 18.56900 39.44400
H  -10.82900 22.66300 39.67200
H  -11.55200 23.64300 41.05700
H  -12.50200 23.49300 39.70900
H  -16.31600 20.53200 40.41400
H  -16.85300 22.00200 41.21600
H  -15.99400 20.70300 42.17100
H  -15.64400 16.37700 40.18100
H  -14.96900 14.81900 42.58300
H  -17.04800 15.77400 42.61400
H  -17.28800 17.20200 41.52600
H  -16.29700 17.26900 43.03600
H  -14.73500 13.41000 39.95500
H  -16.24100 14.01800 40.36300
H  -14.38900 12.13700 41.85700
H  -15.82900 11.63700 41.00000
H  -15.95100 12.57200 42.51500
H  -10.52600 11.28600 41.72500
H  -9.29700 11.26200 40.28400
H  -11.03100 11.46200 40.08400
H  -6.03500 15.25800 40.33700
H  -5.03000 16.49300 44.51800
H  -5.22800 14.74600 45.07400
H  -6.18000 16.17100 45.64300

