158

Mg 24.06700 -7.16600 45.85200
C  26.35700 -4.87700 44.52600
C  21.81600 -5.99600 43.57700
C  22.32300 -9.81000 46.54900
C  26.86000 -8.65500 47.65400
N  24.19000 -5.78700 44.04300
C  25.23600 -4.94000 43.76000
C  24.98200 -4.15200 42.48500
C  23.41000 -4.24800 42.35300
C  23.09900 -5.42400 43.34100
C  22.58900 -2.93500 42.70300
C  25.79400 -4.77400 41.24200
C  26.44800 -3.62300 40.27900
H  25.85300 -3.36900 38.93800
N  22.23300 -7.76300 45.22000
C  21.43300 -7.13100 44.33200
C  20.15000 -7.77800 44.19200
C  20.21300 -8.92600 45.10100
C  21.60600 -8.93600 45.65300
C  18.95500 -7.43000 43.29000
C  19.09000 -9.86400 45.45100
O  17.97700 -9.72600 44.99000
C  19.24800 -10.93200 46.49500
N  24.61900 -9.06200 46.76600
C  23.60600 -9.87400 47.09900
C  24.03400 -10.99500 48.06300
C  25.44000 -10.57600 48.46400
C  25.65400 -9.34600 47.57500
C  23.02700 -11.30900 49.22300
C  26.48500 -11.68900 48.51500
C  27.63700 -11.64300 49.53100
N  26.16400 -6.76700 46.27600
C  27.19700 -7.48400 46.93300
C  28.40000 -6.64300 47.00400
C  28.11400 -5.68800 45.99300
C  26.74700 -5.75000 45.61100
C  29.65700 -7.01000 47.86500
C  28.74100 -4.58300 45.25000
O  29.83900 -4.03600 45.36900
C  27.62200 -4.05100 44.31200
C  27.35200 -2.60800 44.59600
O  27.24700 -1.99400 45.65300
O  27.31900 -1.90800 43.43100
C  27.04900 -0.47300 43.40700
H  21.04100 -5.65000 42.89000
H  21.73900 -10.70300 46.78000
H  27.65900 -9.07100 48.27100
H  25.21500 -3.09200 42.58900
H  23.19500 -4.57700 41.33600
H  23.26100 -2.09600 42.88500
H  21.98900 -3.02600 43.60800
H  21.95400 -2.66100 41.86100
H  25.09200 -5.34200 40.63100
H  26.57700 -5.43000 41.62000
H  27.51300 -3.84200 40.20200
H  26.33000 -2.65900 40.77400
H  18.64800 -8.35500 42.80300
H  19.27900 -6.73700 42.51400
H  18.05500 -6.98600 43.71500
H  19.46100 -10.40100 47.42200
H  20.03000 -11.64100 46.22300
H  18.37700 -11.57800 46.60900
H  24.06900 -11.90900 47.47000
H  25.37900 -10.23000 49.49600
H  22.46300 -12.19700 48.93800
H  22.26900 -10.54400 49.39300
H  23.42200 -11.62600 50.18800
H  26.86300 -11.91100 47.51700
H  26.03400 -12.63300 48.82000
H  27.75800 -12.56400 50.10000
H  27.41100 -10.83800 50.23000
H  28.50500 -11.64300 48.87200
H  29.41600 -7.19300 48.91200
H  30.30900 -6.14500 47.97500
H  30.16700 -7.90800 47.51700
H  27.87600 -3.99600 43.25300
H  26.27300 -0.22200 44.13000
H  26.75200 -0.22400 42.38800
H  27.96600 0.05500 43.66800
Mg 26.10900 50.56800 26.56100
C  23.88500 51.67800 28.82500
C  28.34000 49.93000 29.16000
C  28.32300 49.33200 24.29100
C  23.90800 51.17300 23.88900
N  26.10800 50.90500 28.70400
C  24.97600 51.10800 29.45300
C  25.20200 50.83100 31.00100
C  26.69200 50.62800 31.01300
C  27.10800 50.45900 29.56700
C  27.46700 51.79900 31.76000
C  24.34200 49.64000 31.57000
C  23.87800 49.67000 33.02200
H  24.37300 50.79000 33.96300
N  28.09200 49.84700 26.73400
C  28.79000 49.61600 27.88300
C  30.05300 49.02000 27.49300
C  30.10400 48.92500 26.12100
C  28.75700 49.36500 25.66300
C  31.18400 48.82900 28.48100
C  31.17500 48.44700 25.22000
O  31.25200 48.49800 23.97900
C  32.38400 47.80600 25.85900
N  26.14900 50.37500 24.37300
C  27.12900 49.77900 23.70400
C  26.84200 49.69900 22.20000
C  25.34000 50.11500 22.13500
C  25.09000 50.60600 23.56000
C  27.82100 50.54600 21.35200
C  24.22200 49.11700 21.58000
C  23.57400 49.65900 20.24400
N  24.34000 51.40900 26.37800
C  23.57300 51.69700 25.21600
C  22.42800 52.52000 25.67500
C  22.43600 52.49300 27.07100
C  23.65100 51.85000 27.38600
C  21.31000 53.08900 24.80100
C  21.74900 52.81100 28.29900
O  20.62100 53.30100 28.47700
C  22.67600 52.36900 29.45700
C  23.03500 53.54700 30.29100
O  24.01000 54.31600 30.06600
O  22.22000 53.70600 31.43300
C  22.35300 54.98300 32.07700
H  28.89200 49.48700 29.99100
H  29.00100 48.95600 23.52200
H  23.15400 51.29600 23.10900
H  24.99100 51.80400 31.44600
H  27.08100 49.72900 31.49000
H  27.79800 52.61900 31.12200
H  28.26300 51.24800 32.26000
H  26.82600 52.11800 32.58200
H  24.92700 48.73700 31.39500
H  23.41200 49.58000 31.00500
H  23.98300 48.69100 33.48800
H  22.79000 49.62700 32.97300
H  31.48000 47.82300 28.77500
H  30.99300 49.33300 29.42800
H  32.00500 49.46700 28.15400
H  32.93600 47.43500 24.99600
H  32.09200 46.92100 26.42500
H  33.02100 48.49600 26.41300
H  26.98300 48.69000 21.81100
H  25.22900 50.93000 21.41900
H  28.26200 50.02700 20.50100
H  28.69200 50.81600 21.94800
H  27.39000 51.49300 21.02700
H  23.39500 48.99000 22.28000
H  24.68100 48.15600 21.34900
H  24.29400 49.43600 19.45700
H  23.50200 50.74600 20.26800
H  22.52700 49.36100 20.17500
H  20.76100 53.83400 25.37600
H  20.58400 52.40800 24.35700
H  21.86200 53.64900 24.04600
H  22.11900 51.69500 30.10800
H  22.65000 55.84100 31.47400
H  23.10200 54.83100 32.85400
H  21.46500 55.13300 32.69100

