158

Mg 52.75000 23.71100 44.70100
C  49.93400 25.83700 44.02200
C  50.74200 21.11100 43.65000
C  55.44800 21.85400 44.67300
C  54.49900 26.58100 45.69000
N  50.64200 23.53700 43.80000
C  49.76100 24.52600 43.59300
C  48.51400 24.05000 42.86000
C  48.52500 22.53000 43.35600
C  50.07900 22.32900 43.49500
C  47.86300 22.12100 44.66200
C  48.67200 24.29600 41.33700
C  47.41700 24.82900 40.58400
H  46.94100 24.07100 39.36000
N  52.98400 21.71400 44.23000
C  52.06700 20.75900 43.91900
C  52.64500 19.45400 43.94600
C  54.07700 19.60400 44.19100
C  54.28500 21.07400 44.36300
C  51.70800 18.22700 43.98900
C  55.04100 18.48700 44.26000
O  54.64700 17.30600 44.14000
C  56.40500 18.63700 44.69100
N  54.75200 24.14800 45.00700
C  55.71200 23.20500 44.99900
C  57.01600 23.74700 45.57400
C  56.72900 25.31700 45.80000
C  55.23700 25.39000 45.40300
C  57.72500 22.96300 46.69500
C  57.58100 26.25600 44.88600
C  58.85700 26.82300 45.55800
N  52.34300 25.79700 44.87200
C  53.12500 26.81900 45.36600
C  52.36900 28.05800 45.43700
C  51.11000 27.71400 44.93400
C  51.15200 26.36300 44.57400
C  52.80400 29.36100 45.99200
C  49.73500 28.21000 44.64900
O  49.21700 29.30300 44.81400
C  48.98500 27.05800 43.92600
C  48.49900 27.43200 42.63100
O  49.22200 27.87000 41.70600
O  47.16800 27.43900 42.68000
C  46.46600 28.22900 41.73000
H  50.01200 20.30300 43.57500
H  56.39600 21.33400 44.51200
H  55.03000 27.43600 46.11400
H  47.65900 24.54300 43.32200
H  48.19200 21.87100 42.55400
H  48.62300 21.57500 45.22000
H  46.92900 21.62100 44.40300
H  47.62200 23.04800 45.18200
H  49.02800 23.41300 40.80500
H  49.34300 25.14400 41.20300
H  47.63800 25.83700 40.23500
H  46.57500 24.95600 41.26500
H  52.13100 17.23300 43.84500
H  50.89300 18.35900 43.27800
H  51.13400 18.28100 44.91500
H  56.84700 19.20700 43.87400
H  56.95100 17.70200 44.81400
H  56.36000 19.21400 45.61500
H  57.67000 23.54600 44.72500
H  56.91400 25.48300 46.86200
H  57.60300 23.49200 47.64000
H  58.73200 22.63000 46.44500
H  57.07200 22.10800 46.87000
H  56.89400 27.00600 44.49600
H  57.99700 25.66400 44.07000
H  58.88100 26.32900 46.53000
H  58.87600 27.87200 45.85400
H  59.74900 26.63500 44.96200
H  52.11900 30.09100 45.56000
H  53.82500 29.53900 45.65400
H  52.85400 29.52500 47.06900
H  48.10400 26.69200 44.45500
H  46.95800 29.18500 41.54800
H  45.45300 28.31600 42.12200
H  46.43800 27.63000 40.82000
Mg 41.05200 41.50400 26.63000
C  40.42000 43.97200 29.11000
C  41.66800 39.36900 29.25500
C  42.14400 39.26500 24.32700
C  40.54600 43.91500 24.20000
N  41.22100 41.81000 28.98600
C  40.73200 42.81600 29.74800
C  40.64500 42.37200 31.22300
C  41.13400 40.90600 31.20200
C  41.21600 40.63900 29.68300
C  42.50900 40.72600 32.01500
C  39.21500 42.46200 31.80400
C  38.98000 41.92100 33.20300
H  38.34300 42.82700 34.32100
N  41.84300 39.56200 26.80200
C  42.07900 38.85900 27.97700
C  42.55600 37.49700 27.71100
C  42.58900 37.44700 26.23400
C  42.21600 38.81900 25.72100
C  42.84800 36.49900 28.87500
C  43.02100 36.25700 25.41000
O  43.18100 36.33900 24.18300
C  43.09000 34.92400 26.11700
N  41.38900 41.64100 24.56100
C  41.68200 40.50700 23.83700
C  41.26000 40.68600 22.36200
C  40.55400 42.06300 22.36600
C  40.80400 42.57100 23.81000
C  42.38500 40.57300 21.30200
C  39.10800 42.05100 21.97800
C  38.22600 40.98300 22.61000
N  40.69000 43.48700 26.57600
C  40.47600 44.35500 25.51900
C  40.18800 45.68500 25.95600
C  40.18700 45.62100 27.37200
C  40.42300 44.25200 27.72200
C  40.00700 46.97400 25.07200
C  39.93700 46.38300 28.56600
O  39.71500 47.55800 28.75500
C  40.17200 45.33400 29.83500
C  41.36500 45.98300 30.61300
O  42.57200 45.99200 30.30200
O  40.87600 46.46500 31.85400
C  41.80300 47.19700 32.67300
H  41.63700 38.65200 30.07800
H  42.46600 38.50700 23.61000
H  40.27300 44.67500 23.46400
H  41.25000 43.04300 31.83300
H  40.39500 40.19400 31.57000
H  42.73200 41.65500 32.53900
H  43.42700 40.50900 31.47000
H  42.36800 39.99300 32.80900
H  38.53900 41.89100 31.16600
H  38.81800 43.46600 31.65500
H  39.95500 41.65100 33.60900
H  38.34000 41.04900 33.06800
H  43.15000 37.03600 29.77400
H  43.73200 35.93800 28.57300
H  42.03300 35.78000 28.96000
H  42.12500 34.63400 26.53400
H  43.85800 35.00500 26.88600
H  43.38800 34.25600 25.30900
H  40.56200 39.92500 22.01300
H  41.05700 42.82900 21.77500
H  41.93400 40.63700 20.31100
H  43.01200 39.70200 21.48900
H  43.00500 41.46600 21.37700
H  39.05000 41.93400 20.89600
H  38.76500 43.04600 22.26200
H  37.39300 41.50500 23.08300
H  38.76600 40.26000 23.22100
H  37.85900 40.36400 21.79100
H  40.83200 47.68500 25.11100
H  39.21000 47.59100 25.48500
H  39.84700 46.63600 24.04800
H  39.30600 45.29400 30.49600
H  41.27200 47.99900 33.18600
H  42.71100 47.60900 32.23300
H  42.24200 46.51400 33.39900

