158

Mg 1.53100 -1.67800 44.17100
C  4.67400 -0.55300 43.41100
C  0.14400 0.89500 42.59700
C  -1.43400 -3.47600 43.98200
C  3.06300 -4.70200 45.29100
N  2.32200 -0.19900 42.82800
C  3.59500 0.19200 42.88700
C  3.76700 1.63400 42.40100
C  2.25200 2.19500 42.54900
C  1.50900 0.87700 42.62000
C  2.06700 3.08900 43.81800
C  4.41300 1.70400 40.94300
C  5.79100 2.17200 40.76900
H  6.57800 1.57900 39.61400
N  -0.46800 -1.21800 43.57100
C  -0.81200 -0.08400 42.88600
C  -2.31500 -0.10300 42.70300
C  -2.73700 -1.33600 43.15700
C  -1.53900 -2.09000 43.55000
C  -3.05900 1.09700 42.34300
C  -4.20700 -1.83500 43.16200
O  -5.20000 -1.10800 42.93600
C  -4.54000 -3.32500 43.44100
N  0.95800 -3.76900 44.56500
C  -0.37900 -4.16400 44.49200
C  -0.52500 -5.64800 44.81900
C  0.89400 -5.97700 45.39100
C  1.74900 -4.75400 45.09800
C  -1.61200 -5.98800 45.85200
C  1.48100 -7.36300 44.87000
C  1.85400 -8.36400 46.00100
N  3.47200 -2.49600 44.36800
C  3.89600 -3.64600 44.97100
C  5.36200 -3.59000 45.12500
C  5.68100 -2.41700 44.46900
C  4.50300 -1.79100 44.02400
C  6.25400 -4.51000 45.77400
C  6.76300 -1.55300 44.11200
O  7.97400 -1.64500 44.31900
C  6.14100 -0.25200 43.49500
C  6.41200 0.89500 44.43300
O  5.56900 1.23300 45.23000
O  7.66500 1.54200 44.26900
C  7.79200 2.73100 45.12900
H  -0.35100 1.79900 42.23400
H  -2.34000 -4.08400 43.93000
H  3.56000 -5.60700 45.64400
H  4.38200 2.20500 43.09700
H  1.90500 2.70800 41.65200
H  1.40100 2.58200 44.51700
H  1.53500 3.94900 43.41000
H  2.95100 3.35600 44.39700
H  3.68400 2.24000 40.33500
H  4.48200 0.69900 40.52700
H  6.35100 2.08800 41.70000
H  5.71600 3.25000 40.62400
H  -4.14000 0.96200 42.36400
H  -2.84500 1.32000 41.29700
H  -2.86100 1.90300 43.04800
H  -4.32900 -3.51200 44.49400
H  -4.09800 -4.07200 42.78100
H  -5.60500 -3.54000 43.34400
H  -0.71700 -6.20900 43.90400
H  0.92400 -5.80200 46.46700
H  -2.31700 -5.16400 45.74100
H  -1.26500 -6.15900 46.87100
H  -2.20200 -6.82300 45.47400
H  2.32400 -7.19100 44.20100
H  0.71600 -7.86500 44.27700
H  2.94100 -8.42800 46.05700
H  1.56400 -9.38300 45.74800
H  1.42400 -7.98200 46.92700
H  5.82900 -5.00700 46.64500
H  7.07300 -3.83500 46.02500
H  6.53800 -5.25000 45.02500
H  6.60200 -0.07900 42.52200
H  8.25400 2.47000 46.08100
H  6.90900 3.27600 45.46300
H  8.43200 3.51200 44.71900
Mg 0.86000 7.79800 27.09400
C  1.26200 9.81300 29.84000
C  1.04400 4.97700 29.16100
C  0.90300 5.91900 24.29600
C  0.72200 10.64700 25.08000
N  1.09600 7.49800 29.26600
C  1.07900 8.47300 30.20200
C  1.15800 7.87700 31.64100
C  1.24600 6.35900 31.43600
C  1.08600 6.23500 29.87100
C  2.44900 5.54200 32.02800
C  -0.14000 8.33200 32.36800
C  -0.03600 8.38500 33.92800
H  1.12700 7.70900 34.67200
N  1.12000 5.70000 26.80300
C  1.12200 4.72300 27.73200
C  0.89600 3.43500 27.01000
C  0.94700 3.66600 25.56500
C  0.98100 5.18200 25.52400
C  0.79500 2.07600 27.73200
C  1.05600 2.72800 24.39400
O  1.16300 3.08400 23.22700
C  1.17000 1.30000 24.70100
N  0.88600 8.22000 24.98200
C  0.88200 7.26000 24.05000
C  0.67500 7.77100 22.62600
C  0.57900 9.27500 22.83900
C  0.72100 9.45800 24.42500
C  1.70800 7.20800 21.66200
C  -0.69000 9.87400 22.23200
C  -1.88800 9.83700 23.13300
N  0.94500 9.87200 27.34600
C  0.88200 10.94800 26.46500
C  1.23000 12.17000 27.08600
C  1.34100 11.80900 28.45600
C  1.28300 10.38300 28.53000
C  1.44800 13.50700 26.46600
C  1.65200 12.28000 29.79600
O  1.98900 13.40800 30.06600
C  1.58200 11.02300 30.75500
C  2.76800 10.98000 31.68400
O  3.89600 10.59300 31.39800
O  2.40900 11.36900 32.94800
C  3.32000 11.43500 34.06500
H  0.98700 4.05100 29.73700
H  0.77200 5.42100 23.33300
H  0.60100 11.55400 24.48400
H  2.11800 8.26500 31.98100
H  0.37900 5.85100 31.85900
H  3.15200 6.24600 32.47400
H  3.00000 4.98700 31.26900
H  2.09000 4.82400 32.76500
H  -1.00400 7.79300 31.98000
H  -0.34400 9.33900 32.00300
H  -0.99000 7.96000 34.24000
H  -0.11700 9.44100 34.18400
H  1.67800 1.44700 27.83600
H  -0.05400 1.50300 27.35700
H  0.60100 2.27100 28.78700
H  1.86000 1.14000 25.52900
H  1.45700 0.74800 23.80600
H  0.15800 0.94100 24.89300
H  -0.36100 7.55400 22.36400
H  1.38200 9.91500 22.47100
H  2.47400 7.93500 21.39100
H  1.15400 6.83800 20.80000
H  2.18700 6.31000 22.05200
H  -1.02000 9.40600 21.30400
H  -0.58100 10.94000 22.03200
H  -2.28600 10.82000 23.38600
H  -1.75400 9.20100 24.00900
H  -2.58700 9.38300 22.43100
H  2.27600 13.92700 27.03700
H  0.54300 14.11300 26.50700
H  1.76700 13.28800 25.44800
H  0.75100 11.38100 31.36300
H  4.31300 11.37200 33.62100
H  3.15500 10.63800 34.79000
H  3.27400 12.38600 34.59600

