158

Mg 47.22000 16.66200 28.51900
C  45.17900 16.57700 31.37200
C  49.44600 18.65300 30.41300
C  48.74300 17.67500 25.62200
C  44.66200 15.31300 26.82200
N  47.25300 17.45100 30.70100
C  46.35700 17.23800 31.69300
C  46.91800 17.56500 33.02500
C  48.13300 18.51400 32.61600
C  48.33400 18.18100 31.13400
C  47.78500 19.99400 32.83800
C  47.38900 16.26800 33.78000
C  47.13900 16.16500 35.29900
H  46.70300 17.41700 36.02100
N  48.97200 17.77700 28.10400
C  49.71700 18.47100 29.01400
C  50.87000 19.12200 28.31000
C  50.66900 18.90100 26.94800
C  49.44000 18.08500 26.80800
C  51.85400 20.05100 29.07500
C  51.49100 19.52000 25.81400
O  51.17600 19.36400 24.64000
C  52.78600 20.36800 25.99200
N  46.79600 16.57600 26.49800
C  47.52200 17.00900 25.48100
C  46.79000 16.87900 24.10600
C  45.77400 15.82400 24.53200
C  45.72900 15.80200 26.06800
C  46.15200 18.16900 23.52100
C  46.02200 14.31900 23.96100
C  45.03600 13.76100 22.97100
N  45.34900 15.95400 28.98700
C  44.42800 15.41500 28.18000
C  43.29100 14.95300 28.91100
C  43.56500 15.41900 30.15400
C  44.75700 16.09500 30.17000
C  42.18900 14.17700 28.32500
C  42.99600 15.45200 31.51500
O  41.92800 15.05000 31.95000
C  44.13200 16.12900 32.39300
C  43.47000 17.27800 33.06700
O  43.31300 18.41400 32.60200
O  42.99800 16.92800 34.33400
C  42.38900 17.93800 35.17700
H  50.08400 19.25600 31.06300
H  49.30700 18.00100 24.74500
H  43.86600 14.75100 26.32800
H  46.15600 18.15400 33.53500
H  49.13800 18.37100 33.01400
H  47.83000 20.67500 31.98700
H  48.41400 20.32400 33.66500
H  46.74900 20.07200 33.16700
H  48.47100 16.16200 33.69900
H  46.95800 15.42300 33.24200
H  48.02900 15.71800 35.74400
H  46.37600 15.39500 35.41200
H  52.86700 19.80600 28.75600
H  51.92100 20.06000 30.16300
H  51.83400 21.04900 28.63700
H  53.27100 20.64200 25.05500
H  53.33400 19.61900 26.56400
H  52.68000 21.28700 26.56800
H  47.54300 16.49900 23.41500
H  44.80600 16.19700 24.19800
H  45.08800 18.29300 23.72200
H  46.30500 18.13700 22.44300
H  46.59600 19.06600 23.95200
H  46.07900 13.72300 24.87200
H  47.05200 14.36800 23.60600
H  44.76600 12.71400 23.10400
H  45.43900 13.72400 21.95900
H  44.15000 14.38700 22.87000
H  42.64700 13.39800 27.71500
H  41.60100 14.83100 27.68200
H  41.58300 13.81600 29.15700
H  44.34900 15.32000 33.09100
H  42.51700 17.65900 36.22300
H  41.34300 18.04300 34.89000
H  42.87300 18.90700 35.05900
Mg -5.88400 25.33100 25.52800
C  -4.13200 26.88700 28.27900
C  -7.21100 23.21300 27.67700
C  -6.73800 23.53500 22.82100
C  -3.55600 27.22500 23.42400
N  -5.61300 25.03600 27.85800
C  -5.05900 25.91600 28.73600
C  -5.55600 25.73700 30.12200
C  -6.35000 24.39200 29.95100
C  -6.42100 24.18400 28.40800
C  -5.75800 23.25700 30.85400
C  -6.38500 26.92200 30.70000
C  -6.36400 27.10900 32.22100
H  -5.76200 25.99500 33.11000
N  -7.07700 23.74300 25.26500
C  -7.39300 22.86800 26.32600
C  -8.14600 21.81700 25.72800
C  -8.09900 21.86400 24.33800
C  -7.28500 23.05400 24.04800
C  -8.83700 20.76900 26.53700
C  -8.61000 20.99600 23.24700
O  -8.59100 21.26700 22.07600
C  -9.28100 19.68800 23.70400
N  -5.25500 25.40700 23.45300
C  -5.91000 24.61300 22.54100
C  -5.33000 24.88300 21.12600
C  -4.42000 26.15800 21.26100
C  -4.43000 26.29000 22.80500
C  -4.80800 23.69700 20.30600
C  -4.81900 27.36600 20.39100
C  -4.09200 27.53400 19.05500
N  -4.27000 26.89900 25.69200
C  -3.47300 27.55800 24.77900
C  -2.57600 28.45200 25.48300
C  -2.82100 28.22700 26.84000
C  -3.79800 27.31700 26.91700
C  -1.56600 29.42200 24.94400
C  -2.39000 28.54800 28.18600
O  -1.52900 29.36000 28.50400
C  -3.27100 27.64700 29.17300
C  -2.31700 26.75400 29.93600
O  -1.61000 25.85300 29.45600
O  -2.34000 27.09900 31.30400
C  -1.48500 26.33700 32.14100
H  -7.59700 22.58300 28.48000
H  -7.04200 22.94800 21.95100
H  -2.88300 27.70700 22.71300
H  -4.71800 25.56400 30.79700
H  -7.42100 24.54500 30.07700
H  -5.50800 22.42100 30.20100
H  -6.55000 23.07100 31.57900
H  -4.82100 23.54100 31.33400
H  -7.46500 26.78300 30.64200
H  -6.11000 27.85600 30.21000
H  -7.42100 27.14500 32.48400
H  -5.88900 28.07400 32.39600
H  -9.88200 20.87500 26.24400
H  -8.97600 21.01400 27.59000
H  -8.35500 19.80100 26.40000
H  -9.42600 19.12200 22.78400
H  -10.24400 19.92600 24.15600
H  -8.65400 19.23300 24.47100
H  -6.23700 25.10900 20.56600
H  -3.41000 25.81100 21.04400
H  -4.96700 22.74000 20.80300
H  -3.76200 23.70300 20.00200
H  -5.34500 23.71600 19.35800
H  -4.62800 28.32000 20.88300
H  -5.90000 27.42200 20.26400
H  -4.81500 27.67300 18.25100
H  -3.44000 26.67700 18.88400
H  -3.51700 28.43600 19.26500
H  -2.14200 30.22400 24.48200
H  -0.86100 28.83800 24.35200
H  -1.05000 29.85900 25.79900
H  -3.77700 28.34700 29.83700
H  -0.51700 26.43900 31.65000
H  -1.71800 25.27400 32.20200
H  -1.33900 26.78300 33.12500

