158

Mg 24.66400 -8.29300 47.45300
C  27.11100 -6.19700 46.16600
C  22.59400 -7.30900 44.77500
C  22.65400 -10.96800 47.96000
C  27.18200 -9.86400 49.30700
N  24.86200 -7.06300 45.64100
C  25.93400 -6.16700 45.42300
C  25.63600 -5.24800 44.22000
C  24.14300 -5.54100 43.84200
C  23.84200 -6.74200 44.78800
C  23.19000 -4.30800 44.07200
C  26.72200 -5.31800 43.09000
C  27.55000 -3.96600 42.74300
H  27.64900 -3.52900 41.24400
N  22.77400 -8.90400 46.66600
C  22.08600 -8.33900 45.59800
C  20.76700 -9.00000 45.51200
C  20.70900 -9.93200 46.51000
C  22.09000 -9.96600 47.15700
C  19.79900 -8.59700 44.40500
C  19.50900 -10.75400 46.86500
O  18.54900 -10.75700 46.13700
C  19.41200 -11.72600 48.00400
N  24.79000 -10.08500 48.65000
C  23.83100 -11.00500 48.75800
C  24.22500 -12.24600 49.49600
C  25.72600 -11.94600 49.86800
C  25.90600 -10.47400 49.29100
C  23.32300 -12.56600 50.77600
C  26.72100 -12.96800 49.29400
C  27.42300 -13.80300 50.40000
N  26.70500 -7.92900 47.91400
C  27.57600 -8.71300 48.60100
C  28.86200 -8.11300 48.48300
C  28.72300 -7.05700 47.60300
C  27.39100 -7.08100 47.23400
C  30.21400 -8.55000 48.97600
C  29.44700 -6.03500 46.93900
O  30.55600 -5.60800 47.07000
C  28.40600 -5.40600 45.99700
C  28.23800 -3.99000 46.36900
O  27.57300 -3.55000 47.30400
O  28.88700 -3.17800 45.46700
C  28.71100 -1.71400 45.67500
H  21.90900 -6.74200 44.14000
H  21.95700 -11.78100 48.17400
H  27.99900 -10.42600 49.76400
H  25.66800 -4.28700 44.73400
H  24.09000 -5.86500 42.80200
H  22.79600 -4.13000 45.07200
H  22.26600 -4.31200 43.49400
H  23.69900 -3.39100 43.77600
H  26.43100 -5.62400 42.08500
H  27.41500 -6.12500 43.32800
H  28.54200 -4.25300 43.09200
H  27.14000 -3.17100 43.36500
H  18.75400 -8.57900 44.71200
H  19.87500 -9.30000 43.57500
H  19.96700 -7.68900 43.82700
H  19.83800 -11.16000 48.83200
H  19.95600 -12.62400 47.71200
H  18.40200 -11.98400 48.32500
H  24.25100 -13.06800 48.78200
H  25.74800 -11.78000 50.94500
H  22.70400 -13.41300 50.48000
H  22.57600 -11.79800 50.97200
H  23.86500 -12.90100 51.66000
H  27.49300 -12.48700 48.69300
H  26.14900 -13.60400 48.61900
H  26.72200 -14.41500 50.96800
H  27.99600 -13.11000 51.01400
H  28.15900 -14.45600 49.93100
H  30.26700 -9.42600 49.62200
H  30.72800 -7.73000 49.47900
H  30.75700 -8.71400 48.04600
H  28.77400 -5.62400 44.99400
H  29.53700 -1.21000 45.17400
H  28.73600 -1.54700 46.75100
H  27.73700 -1.35100 45.34500
Mg 36.02000 49.71400 24.86300
C  36.09700 47.64800 27.84100
C  35.31500 52.39200 26.95100
C  35.54400 51.41100 22.10700
C  36.61200 46.65500 23.10500
N  35.74100 50.00600 27.12300
C  35.87400 49.06300 28.10300
C  35.65900 49.71400 29.52700
C  35.15000 51.12900 29.10700
C  35.39500 51.21300 27.61700
C  33.73700 51.41000 29.69300
C  37.03400 49.77200 30.41300
C  36.82000 49.39800 31.92600
H  35.59600 49.87700 32.61500
N  35.54800 51.67800 24.53200
C  35.39300 52.66000 25.55400
C  35.25800 53.93200 24.91400
C  35.15500 53.68600 23.48800
C  35.38900 52.19300 23.30000
C  35.35900 55.23500 25.67700
C  34.83800 54.72600 22.35100
O  34.76200 54.39300 21.15900
C  34.57800 56.12900 22.63600
N  35.89100 49.04000 22.84400
C  35.90600 50.01200 21.93200
C  36.35600 49.44900 20.56100
C  36.87500 47.97900 20.95000
C  36.40400 47.87000 22.40100
C  35.21400 49.52900 19.36800
C  38.44000 47.90700 20.71100
C  38.93300 47.05300 19.56600
N  36.22600 47.59800 25.28400
C  36.41500 46.49300 24.48800
C  36.67000 45.31900 25.28200
C  36.46100 45.67700 26.55200
C  36.26500 47.08300 26.57600
C  36.86200 43.90100 24.78600
C  36.37200 45.24000 27.92900
O  36.44500 44.14500 28.42700
C  36.23900 46.47900 28.75500
C  35.08200 46.35700 29.65000
O  33.87400 46.30800 29.24700
O  35.43500 46.11000 30.92800
C  34.46200 45.67000 31.85800
H  35.24400 53.25500 27.61600
H  35.42700 51.93900 21.15800
H  37.02900 45.94200 22.39100
H  34.86300 49.12500 29.98300
H  35.81500 51.90300 29.49000
H  32.91900 51.20300 29.00200
H  33.66700 52.46100 29.97400
H  33.59000 50.74000 30.54100
H  37.40500 50.79300 30.32300
H  37.76700 49.14700 29.90300
H  37.66400 49.82100 32.47000
H  36.84600 48.31200 32.02600
H  34.39100 55.72400 25.57400
H  36.13200 55.82600 25.18500
H  35.72900 55.20700 26.70200
H  35.28100 56.63800 23.29500
H  33.60900 56.05600 23.12900
H  34.63000 56.67500 21.69400
H  37.17300 50.11200 20.27800
H  36.29300 47.23200 20.41100
H  34.18700 49.78800 19.62700
H  35.18000 48.59600 18.80600
H  35.54200 50.33100 18.70800
H  38.91500 47.57100 21.63400
H  38.84200 48.91000 20.57100
H  38.43300 47.33000 18.63700
H  38.78600 45.97500 19.62300
H  39.98200 47.28700 19.38100
H  35.88300 43.46600 24.58600
H  37.40400 43.33200 25.54100
H  37.44300 43.95300 23.86500
H  37.09300 46.70500 29.39300
H  33.98100 46.40600 32.50300
H  34.97500 45.08000 32.61800
H  33.60900 45.10000 31.48900

