158

Mg 29.88900 57.70400 41.11200
C  27.28500 55.52700 40.20100
C  32.05800 55.48300 39.89300
C  32.26300 60.17000 40.80800
C  27.40700 60.34900 41.56400
N  29.60600 55.75000 40.21400
C  28.46300 54.98900 39.94000
C  28.89500 53.64800 39.43200
C  30.41200 53.62000 39.52900
C  30.73800 55.03600 39.85800
C  30.94200 52.53800 40.59200
C  28.40400 53.38300 38.01500
C  28.48700 54.54100 36.97100
H  27.79500 54.26700 35.68900
N  31.95200 57.74500 40.59200
C  32.66700 56.64600 40.21700
C  34.05400 57.02000 40.09800
C  34.17900 58.45000 40.31600
C  32.73300 58.87100 40.55200
C  35.15100 56.15400 39.67600
C  35.50800 59.14900 40.20600
O  36.56700 58.51800 40.11600
C  35.57500 60.65900 40.36700
N  29.80100 59.99200 41.02100
C  30.95300 60.74300 40.98000
C  30.66300 62.19100 41.43800
C  29.18200 62.16900 41.88500
C  28.76000 60.67300 41.60700
C  31.74000 62.88800 42.47400
C  28.30700 63.33100 41.20100
C  27.71600 64.33000 42.19300
N  27.84400 57.90100 41.03500
C  26.93300 59.00800 41.22200
C  25.57600 58.56700 41.01700
C  25.67000 57.24900 40.63900
C  27.03100 56.88300 40.61500
C  24.37000 59.41400 41.05600
C  24.87300 56.09800 40.18900
O  23.67200 55.82400 40.06800
C  25.96400 55.00300 39.91600
C  25.76600 53.88200 40.97000
O  25.87400 53.91600 42.17800
O  25.32700 52.71000 40.37200
C  25.21700 51.49900 41.23300
H  32.79800 54.75800 39.54700
H  32.97600 60.98400 40.95700
H  26.60900 61.03600 41.85300
H  28.49400 52.90000 40.11600
H  30.80200 53.46900 38.52200
H  32.02000 52.64400 40.71900
H  30.73500 51.55000 40.18000
H  30.48200 52.58500 41.57900
H  27.34900 53.10900 38.03100
H  28.84600 52.46400 37.62900
H  29.53900 54.75200 36.78100
H  27.85700 55.32000 37.39900
H  35.78500 56.61500 38.92000
H  34.73900 55.25500 39.21900
H  35.76500 55.69200 40.45000
H  35.17500 60.95100 41.33800
H  34.95700 61.12600 39.60000
H  36.60900 60.99700 40.43200
H  30.69300 62.64200 40.44600
H  29.07100 62.35400 42.95300
H  31.25400 63.53000 43.20900
H  32.42900 63.54100 41.93800
H  32.39400 62.16900 42.96600
H  27.42100 62.89800 40.73600
H  28.98400 63.74600 40.45500
H  26.69000 64.01500 42.38600
H  27.65000 65.35700 41.83400
H  28.30800 64.29900 43.10700
H  23.68800 59.20000 41.87900
H  23.82300 59.27900 40.12300
H  24.59000 60.48000 41.10900
H  25.82400 54.64600 38.89600
H  26.15500 50.95200 41.32900
H  24.61100 50.75400 40.71900
H  24.68000 51.74500 42.14900
Mg 36.61300 49.62900 25.13600
C  36.76800 47.62600 28.04300
C  35.66900 52.26000 27.05000
C  36.32300 51.37100 22.37600
C  37.67100 46.78300 23.28600
N  36.34300 49.86300 27.32200
C  36.47900 48.94500 28.34300
C  36.20800 49.50900 29.70400
C  35.74300 50.99900 29.33500
C  35.90700 51.04600 27.80400
C  34.36800 51.42600 29.90100
C  37.41000 49.43500 30.68200
C  37.11200 48.78700 32.09600
H  35.73400 48.90100 32.67100
N  36.16300 51.63600 24.74300
C  35.79000 52.56100 25.67500
C  35.54500 53.82300 25.00400
C  35.69100 53.52800 23.64300
C  36.06800 52.11600 23.51400
C  35.08600 55.09700 25.73100
C  35.59400 54.57400 22.50300
O  35.81000 54.33000 21.28000
C  35.13800 56.02600 22.78500
N  36.98700 49.13800 23.22600
C  36.72500 50.06700 22.23000
C  36.76600 49.46000 20.85000
C  37.64500 48.09800 21.14000
C  37.45700 47.96300 22.67100
C  35.43400 49.13100 20.18300
C  39.10500 48.16000 20.60000
C  39.83000 46.78300 20.52000
N  37.10800 47.57600 25.51500
C  37.47800 46.59500 24.69800
C  37.61400 45.43300 25.41300
C  37.27900 45.77100 26.66400
C  36.99900 47.12000 26.72500
C  37.85700 44.17000 24.89800
C  37.22300 45.21000 28.00800
O  37.43700 44.08200 28.32900
C  36.88300 46.42600 28.97500
C  35.61400 46.19200 29.83600
O  34.47700 46.41700 29.49400
O  36.00600 45.61600 31.01600
C  34.97400 45.15100 32.00000
H  35.42400 53.14700 27.63800
H  35.91700 51.79000 21.45300
H  37.93100 45.91100 22.68200
H  35.43500 48.89100 30.16100
H  36.44400 51.76000 29.67700
H  33.70000 51.66400 29.07300
H  34.53200 52.31000 30.51800
H  34.01200 50.59800 30.51400
H  38.02300 50.33400 30.75600
H  38.04500 48.79500 30.07000
H  37.65400 49.33600 32.86600
H  37.61900 47.82200 32.08800
H  35.62700 55.97400 25.37700
H  35.28600 54.99800 26.79800
H  34.02700 55.23500 25.51400
H  34.92600 56.44000 21.79900
H  36.01100 56.52100 23.21100
H  34.21000 55.96700 23.35400
H  37.33600 50.24000 20.34500
H  37.19300 47.21300 20.69300
H  34.57600 49.38200 20.80700
H  35.28900 48.12700 19.78500
H  35.33800 49.84100 19.36100
H  39.72300 48.72700 21.29500
H  39.12700 48.67700 19.64000
H  40.51000 46.74600 21.37100
H  40.32300 46.54000 19.57900
H  39.19500 45.91000 20.66800
H  38.92300 43.95700 24.82200
H  37.50200 44.11400 23.86900
H  37.36100 43.36300 25.43700
H  37.77100 46.47000 29.60600
H  34.81700 44.10000 31.76000
H  34.09300 45.78400 31.89500
H  35.37000 45.19800 33.01400

