158

Mg 40.22500 10.23500 29.19300
C  42.03500 11.20600 31.85000
C  37.80600 8.86100 31.30900
C  38.53200 8.66200 26.50000
C  42.83100 10.76700 27.06300
N  39.98300 10.09900 31.28300
C  40.77400 10.74300 32.19800
C  40.18900 10.68100 33.60900
C  39.02300 9.59700 33.48200
C  38.94200 9.49000 31.91600
C  39.18700 8.30800 34.37900
C  39.99200 12.02000 34.33600
C  39.15900 12.07100 35.57900
H  39.57100 12.85000 36.82500
N  38.25500 9.24500 28.98900
C  37.44200 8.74400 30.01200
C  36.30200 8.15800 29.43400
C  36.50700 8.11000 28.00900
C  37.79900 8.70400 27.78700
C  35.27500 7.42900 30.21800
C  35.52000 7.71800 26.85800
O  35.86900 7.84000 25.70800
C  34.07800 7.49200 27.20700
N  40.58300 9.79900 27.02600
C  39.77100 9.16700 26.13800
C  40.37800 9.18900 24.72900
C  41.64000 10.12000 24.95800
C  41.73200 10.15400 26.46300
C  40.60700 7.74800 24.21900
C  41.64700 11.49500 24.21800
C  40.73600 12.58500 24.69700
N  42.01600 10.99300 29.32300
C  42.99500 11.17700 28.37000
C  44.17600 11.86700 28.97300
C  43.82000 11.83500 30.32500
C  42.55000 11.29700 30.48400
C  45.45800 12.44600 28.26400
C  44.29700 12.23000 31.66000
O  45.31600 12.80500 31.96700
C  43.19600 11.74300 32.64800
C  43.73000 10.76000 33.58200
O  43.92000 9.59300 33.31900
O  44.19100 11.38300 34.68300
C  44.81700 10.61900 35.74900
H  37.03800 8.47400 31.98300
H  38.13300 8.08300 25.66500
H  43.63800 10.99800 26.36400
H  40.93500 10.22800 34.26100
H  38.05900 10.04000 33.73400
H  39.98500 8.50000 35.09800
H  39.48100 7.46600 33.75300
H  38.24100 8.16300 34.90000
H  39.59900 12.82500 33.71400
H  40.99900 12.26500 34.67400
H  38.94900 11.01300 35.73200
H  38.32800 12.66900 35.20400
H  34.36800 8.00300 30.02800
H  35.43300 7.28400 31.28700
H  35.24300 6.45900 29.72300
H  33.56300 8.25400 27.79200
H  33.96400 6.49500 27.63100
H  33.52800 7.55800 26.26800
H  39.67800 9.74300 24.10300
H  42.50400 9.57800 24.57500
H  39.65900 7.42600 23.78900
H  40.90900 7.03500 24.98700
H  41.29500 7.68600 23.37600
H  41.44100 11.38200 23.15300
H  42.63500 11.95400 24.19500
H  41.33200 13.36500 25.17200
H  40.05100 12.13800 25.41700
H  40.06500 13.02800 23.96100
H  45.54000 13.53000 28.18800
H  45.59300 11.84700 27.36200
H  46.32000 12.14400 28.85800
H  42.84400 12.61800 33.19400
H  45.52400 9.84100 35.46300
H  44.06700 10.25200 36.44900
H  45.45600 11.35100 36.24200
Mg 52.89200 24.73100 44.27900
C  50.05100 26.98100 43.73100
C  50.85500 22.30600 42.94500
C  55.62800 22.97000 44.00400
C  54.68400 27.63300 45.26800
N  50.78700 24.72400 43.24500
C  49.83400 25.72500 43.13300
C  48.43800 25.19600 42.75900
C  48.58200 23.66300 42.98400
C  50.15300 23.52500 43.07700
C  47.80800 23.19000 44.22400
C  47.90500 25.67800 41.32400
C  49.02500 26.02200 40.21700
H  48.90000 25.37300 38.78300
N  53.23900 22.91900 43.61100
C  52.30800 22.05600 43.09800
C  52.91500 20.74400 42.83000
C  54.31800 20.94500 43.09000
C  54.42300 22.32000 43.61200
C  52.26200 19.52200 42.33200
C  55.46100 19.96300 42.70700
O  55.15400 18.82300 42.31500
C  56.96100 20.34100 42.70600
N  54.92000 25.29600 44.51900
C  55.85000 24.32600 44.39100
C  57.23000 24.81200 44.92500
C  56.85600 26.39400 45.27100
C  55.38300 26.47600 44.99500
C  57.98700 24.04800 46.07900
C  57.63500 27.45800 44.42100
C  58.46700 28.62200 45.20200
N  52.47100 26.79700 44.66400
C  53.27900 27.83300 45.10100
C  52.49600 28.97300 45.40000
C  51.20000 28.70900 44.86400
C  51.21700 27.40400 44.37000
C  52.98200 30.22700 46.09000
C  49.88700 29.28800 44.59800
O  49.42200 30.42800 44.78000
C  49.20100 28.21400 43.69300
C  49.00500 28.78100 42.32200
O  49.87400 28.94100 41.40600
O  47.72300 29.22300 42.24500
C  47.31000 29.97400 41.10200
H  50.14000 21.48900 42.82700
H  56.58400 22.44500 44.03900
H  55.31700 28.42900 45.66700
H  47.82300 25.54900 43.58700
H  48.38200 23.01700 42.13000
H  48.49100 22.99600 45.05100
H  47.15200 22.33200 44.07400
H  47.12000 23.95500 44.58500
H  47.34200 26.61000 41.37200
H  47.20900 24.92800 40.94900
H  49.99500 25.75900 40.64000
H  48.90000 27.09200 40.05000
H  52.52900 19.13700 41.34800
H  51.19500 19.74300 42.35100
H  52.45500 18.68300 43.00000
H  57.51200 19.65700 42.06000
H  57.10700 20.26500 43.78300
H  57.07300 21.37500 42.37800
H  57.93600 24.89100 44.09900
H  57.01100 26.56600 46.33600
H  57.50500 23.10500 46.33400
H  58.00900 24.74900 46.91400
H  58.96600 23.81700 45.65800
H  56.81600 28.05300 44.01800
H  58.09900 27.02800 43.53300
H  59.53400 28.46500 45.04800
H  58.23600 28.48500 46.25800
H  58.03300 29.51900 44.75900
H  53.74300 30.07800 46.85600
H  52.14300 30.77600 46.52000
H  53.35900 30.99400 45.41300
H  48.23000 28.03600 44.15500
H  46.29200 30.32800 41.26600
H  47.32300 29.23300 40.30300
H  48.05100 30.72900 40.84100

