158

Mg 30.75700 59.28800 38.83100
C  27.83200 57.37600 38.10700
C  32.59600 56.52000 38.17600
C  33.37700 61.18900 38.79700
C  28.62600 62.03200 39.26200
N  30.21800 57.26800 37.91700
C  28.94700 56.66700 37.92200
C  29.09500 55.21200 37.43400
C  30.55000 54.86800 37.99900
C  31.20900 56.31700 38.04800
C  30.54700 54.41400 39.48400
C  28.77300 55.14400 35.85600
C  27.55500 54.34100 35.46500
H  26.71100 55.03300 34.33600
N  32.65200 58.98300 38.28100
C  33.23500 57.71900 38.10500
C  34.64400 57.84200 37.82200
C  34.94800 59.26500 38.03000
C  33.62900 59.90500 38.40000
C  35.57900 56.71500 37.53200
C  36.34400 59.90800 37.93600
O  37.23200 59.11700 37.63500
C  36.69800 61.37000 38.26600
N  31.00300 61.32900 38.98300
C  32.19300 61.87000 39.11300
C  32.11000 63.35200 39.43500
C  30.58700 63.60100 39.67700
C  30.02300 62.23600 39.27400
C  33.06200 63.73600 40.64100
C  29.98000 64.73600 38.80900
C  28.87600 65.62400 39.43000
N  28.66200 59.66400 38.83500
C  27.97200 60.80900 39.06200
C  26.58300 60.56300 38.87200
C  26.40400 59.25600 38.51500
C  27.73300 58.72300 38.52300
C  25.43000 61.48900 39.06200
C  25.42800 58.26200 38.09700
O  24.17200 58.28000 38.12100
C  26.37600 56.97300 37.81100
C  26.02000 55.82900 38.67100
O  26.29000 55.71500 39.84800
O  25.23400 54.90400 38.02200
C  24.37200 54.13900 38.90400
H  33.16600 55.58900 38.19700
H  34.20400 61.90000 38.83900
H  27.99900 62.89300 39.50300
H  28.41100 54.60700 38.02900
H  31.11700 54.24200 37.31000
H  29.61900 53.91800 39.76700
H  30.64400 55.30500 40.10400
H  31.39800 53.73800 39.56900
H  29.73200 54.79700 35.47200
H  28.61200 56.11400 35.38600
H  27.00800 54.18900 36.39500
H  27.97500 53.43200 35.03500
H  35.13000 55.80300 37.14000
H  36.19900 56.39100 38.36800
H  36.24500 57.01300 36.72200
H  37.75000 61.47600 37.99900
H  36.51400 61.74600 39.27200
H  36.07800 61.92400 37.56100
H  32.44200 63.94600 38.58400
H  30.32000 63.75500 40.72300
H  34.02600 64.04300 40.23500
H  33.25800 62.89700 41.30900
H  32.59400 64.50200 41.25800
H  29.58700 64.30100 37.89000
H  30.74800 65.44700 38.50500
H  29.16900 66.59100 39.84000
H  28.34400 65.09800 40.22200
H  28.27700 65.83100 38.54300
H  24.87900 61.72700 38.15200
H  25.64700 62.24200 39.81900
H  24.72500 60.83600 39.57500
H  26.27500 56.68900 36.76300
H  23.99900 53.29600 38.32300
H  23.44800 54.70700 39.01400
H  24.72800 53.73100 39.84900
Mg 8.60400 48.94500 28.59700
C  6.67700 47.87500 31.25600
C  11.37200 48.89900 30.52700
C  10.32700 50.16200 26.00900
C  5.58200 49.54500 26.76300
N  8.95400 48.59200 30.75600
C  8.00600 48.04600 31.65500
C  8.69000 47.89900 33.08800
C  10.20900 48.33700 32.80200
C  10.18200 48.73300 31.27200
C  10.67300 49.50200 33.79200
C  8.65100 46.45600 33.72800
C  9.78100 45.87900 34.67800
H  9.53600 45.02100 35.97500
N  10.57600 49.31800 28.26200
C  11.60600 49.11400 29.17500
C  12.86300 49.12200 28.48100
C  12.63700 49.44500 27.14100
C  11.15200 49.65400 27.06900
C  14.16700 48.68800 29.18200
C  13.55300 49.43400 25.96600
O  13.11500 49.61500 24.84400
C  15.03900 49.24600 26.16900
N  7.93100 49.61000 26.58000
C  8.90300 50.20600 25.77800
C  8.30800 50.94500 24.56400
C  6.76300 50.65000 24.78900
C  6.74400 49.96500 26.16300
C  8.53200 52.50900 24.43900
C  6.05800 49.70000 23.70500
C  6.80800 48.49400 23.22700
N  6.55800 48.68100 28.83900
C  5.43900 48.85700 27.98800
C  4.25500 48.33800 28.63900
C  4.69100 47.99100 29.93100
C  6.15200 48.15200 30.00600
C  2.91700 48.09900 27.95300
C  4.21800 47.35900 31.20600
O  3.11400 46.98300 31.57500
C  5.53400 47.31500 32.10900
C  5.68100 45.95200 32.60700
O  6.05600 44.98000 31.99000
O  5.15900 45.86600 33.86100
C  5.24000 44.53700 34.47400
H  12.21800 48.70800 31.19100
H  10.90400 50.50300 25.14700
H  4.61000 49.71700 26.29500
H  8.17400 48.62200 33.72100
H  10.93400 47.52900 32.89700
H  10.86500 50.43700 33.26700
H  11.58500 49.13400 34.26300
H  9.93300 49.56000 34.59000
H  8.43300 45.74300 32.93300
H  7.68600 46.51100 34.23400
H  10.41400 46.70300 35.00700
H  10.39900 45.22400 34.06500
H  14.73000 47.84100 28.79200
H  13.95800 48.32300 30.18800
H  14.86000 49.52700 29.25300
H  15.34000 49.92700 26.96500
H  15.48800 49.54400 25.22100
H  15.28300 48.18500 26.20900
H  8.65300 50.55800 23.60500
H  6.05100 51.45100 24.99000
H  7.58500 53.04700 24.39200
H  9.13800 52.71300 23.55600
H  8.99700 52.89800 25.34400
H  6.01800 50.25900 22.77000
H  5.10700 49.32400 24.08300
H  7.11700 48.52600 22.18200
H  6.18300 47.61000 23.35100
H  7.66300 48.33900 23.88500
H  3.08800 47.74700 26.93500
H  2.33100 49.01700 27.92800
H  2.41500 47.33900 28.55200
H  5.32800 47.93000 32.98400
H  4.85300 43.67000 33.93800
H  4.52200 44.60800 35.29100
H  6.24400 44.25500 34.79100

