158

Mg 26.86100 49.50200 27.39800
C  24.86700 50.96800 29.92500
C  29.25200 48.80800 29.77800
C  28.79100 48.46300 24.91200
C  24.54200 50.74700 25.05900
N  26.97000 49.76900 29.56600
C  26.04700 50.35000 30.40900
C  26.55900 50.31400 31.89000
C  27.99600 49.79400 31.78800
C  28.08700 49.46700 30.26800
C  29.16500 50.72800 32.28500
C  25.62100 49.45100 32.90300
C  25.07000 50.32500 34.11200
H  24.99700 49.59300 35.43300
N  28.76000 48.61100 27.35300
C  29.50500 48.35000 28.44500
C  30.66900 47.62900 27.99300
C  30.65800 47.62800 26.60400
C  29.36400 48.23200 26.22900
C  31.66800 46.98100 28.91500
C  31.63800 47.15900 25.54400
O  31.48600 47.27700 24.32700
C  32.95900 46.70800 26.00100
N  26.80500 49.86000 25.24400
C  27.66900 49.24200 24.48600
C  27.27700 49.32200 23.03800
C  25.82300 49.94400 22.97700
C  25.64200 50.12200 24.52300
C  28.31800 49.92700 22.02500
C  24.73100 49.08600 22.24500
C  24.17600 47.82300 23.01700
N  25.13300 50.72200 27.40200
C  24.31700 51.14000 26.40300
C  23.19200 51.93000 26.93000
C  23.34000 51.88600 28.31600
C  24.55600 51.16700 28.57100
C  22.07000 52.66300 26.21400
C  22.73500 52.21600 29.55900
O  21.75900 52.87200 29.88200
C  23.63800 51.58500 30.66100
C  23.97200 52.61200 31.60700
O  24.93400 53.35600 31.61400
O  23.04300 52.56400 32.60800
C  23.31300 53.34600 33.79300
H  30.02300 48.55500 30.50900
H  29.37300 47.96700 24.13300
H  23.66500 51.06400 24.49200
H  26.58700 51.37600 32.13200
H  28.23100 48.90800 32.37900
H  29.60700 51.22000 31.41900
H  29.91200 50.07000 32.72900
H  28.94300 51.46900 33.05200
H  26.07800 48.57600 33.36500
H  24.79400 49.02500 32.33500
H  24.07900 50.65000 33.79600
H  25.63500 51.24200 34.28300
H  31.29800 47.05700 29.93700
H  32.70600 47.28800 28.78200
H  31.61200 45.90600 28.74500
H  33.28900 47.53000 26.63600
H  33.63100 46.59200 25.15100
H  32.88100 45.80500 26.60600
H  27.16400 48.31200 22.64500
H  25.73500 50.93600 22.53500
H  29.02200 50.56100 22.56400
H  27.90700 50.54600 21.22800
H  28.86000 49.11800 21.53600
H  25.11600 48.65700 21.32000
H  23.80400 49.63200 22.07100
H  23.33500 48.09400 23.65500
H  25.05300 47.54700 23.60200
H  23.92200 47.06500 22.27600
H  21.95600 52.07600 25.30200
H  22.37500 53.65900 25.89300
H  21.20400 52.54100 26.86400
H  23.13800 50.78900 31.21300
H  24.37400 53.43700 34.02700
H  22.75300 52.84600 34.58300
H  22.89400 54.35000 33.72300
Mg 9.13200 48.16800 26.26200
C  6.81200 48.35200 28.79200
C  11.63500 48.74400 28.42800
C  11.25400 47.79400 23.64700
C  6.58400 47.83400 23.90600
N  9.21000 48.38700 28.33800
C  8.17900 48.40400 29.24900
C  8.63800 48.68200 30.72100
C  10.13300 49.06000 30.45500
C  10.34300 48.65300 29.01600
C  10.58800 50.52800 30.70200
C  8.35100 47.48600 31.67800
C  9.22800 47.53900 33.00600
H  8.49700 47.33800 34.38000
N  11.17700 48.39100 25.99100
C  12.03700 48.62300 27.04500
C  13.36500 48.55400 26.55600
C  13.30900 48.26900 25.21700
C  11.87900 48.19200 24.86300
C  14.52900 48.77100 27.51800
C  14.40500 48.19400 24.20000
O  14.12800 47.98500 23.00400
C  15.87600 48.27600 24.59400
N  8.95800 48.28400 23.98100
C  9.95700 47.95600 23.23200
C  9.63700 47.53300 21.85100
C  8.05800 47.42900 21.91000
C  7.78300 47.86400 23.32400
C  10.15500 48.49500 20.74500
C  7.43100 46.12000 21.49000
C  6.26600 46.12100 20.42400
N  7.13000 48.22300 26.27900
C  6.24100 48.08900 25.25000
C  4.86900 48.22200 25.86800
C  5.09600 48.24800 27.26500
C  6.45300 48.30100 27.43800
C  3.44100 48.12500 25.20000
C  4.37200 48.33000 28.48100
O  3.20900 48.17500 28.74400
C  5.51400 48.40300 29.58400
C  5.22900 47.25700 30.50300
O  5.48700 46.10700 30.23100
O  4.71600 47.66600 31.68900
C  4.64500 46.65000 32.74400
H  12.32800 48.89600 29.25900
H  11.96300 47.32000 22.96500
H  5.76700 47.66000 23.20200
H  8.05200 49.48700 31.16500
H  10.83500 48.39500 30.95800
H  11.55400 50.41900 31.19500
H  9.96200 51.03000 31.43900
H  10.72000 51.07400 29.76700
H  8.35200 46.50600 31.20000
H  7.30500 47.58900 31.96500
H  9.68800 48.52700 33.00500
H  9.97300 46.76200 32.83400
H  14.22600 48.71900 28.56400
H  14.80200 49.75900 27.14700
H  15.37100 48.09300 27.37400
H  16.02500 47.49500 25.34100
H  16.19000 49.29500 24.81700
H  16.38700 47.84600 23.73300
H  9.99200 46.51200 21.71600
H  7.59900 48.26300 21.37900
H  10.50600 49.43300 21.17400
H  9.37300 48.68000 20.00800
H  10.92600 48.04200 20.12200
H  6.98700 45.69800 22.39100
H  8.20100 45.50000 21.03100
H  6.18600 47.14300 20.05500
H  5.31400 45.76700 20.82000
H  6.57800 45.42500 19.64600
H  2.80900 48.88000 25.66700
H  2.99100 47.15600 25.41600
H  3.60100 48.16800 24.12300
H  5.40900 49.31400 30.17300
H  3.76800 46.99000 33.29500
H  5.63400 46.46400 33.16000
H  4.38900 45.68500 32.30500

