158

Mg 55.28800 23.95100 44.64600
C  52.67700 26.24300 43.94400
C  53.22600 21.55300 43.39200
C  57.89300 21.91400 44.57200
C  57.42100 26.75600 44.92800
N  53.27200 23.94400 43.78300
C  52.30700 24.93200 43.67200
C  50.96700 24.37200 43.12400
C  51.12100 22.84500 43.36700
C  52.59900 22.76600 43.57800
C  50.20600 22.26800 44.47000
C  50.64000 24.81100 41.66800
C  49.19800 25.28400 41.30900
H  48.63100 24.54800 40.07700
N  55.50600 22.03700 44.02000
C  54.49800 21.17500 43.61300
C  55.02300 19.80200 43.58400
C  56.37800 19.85800 44.09200
C  56.67900 21.27900 44.19900
C  54.12300 18.55000 43.32500
C  57.36600 18.69800 44.50300
O  56.92100 17.57000 44.76300
C  58.74200 18.89700 44.89400
N  57.36000 24.33100 44.70100
C  58.20500 23.23000 44.75000
C  59.64700 23.67200 45.06800
C  59.50500 25.24200 45.07800
C  58.03200 25.50700 44.81700
C  60.27200 23.03800 46.30300
C  60.59900 26.00900 44.28600
C  61.88000 26.28700 45.15100
N  55.08500 26.08800 44.81600
C  56.03500 27.07900 44.83900
C  55.39200 28.34300 44.86200
C  54.04900 28.05900 44.54400
C  53.94200 26.67000 44.42400
C  56.02200 29.64900 45.02400
C  52.74000 28.63500 44.37000
O  52.41900 29.84500 44.36800
C  51.80300 27.46200 43.74900
C  51.72500 27.88600 42.29600
O  52.57500 27.66500 41.43200
O  50.59900 28.57200 42.02500
C  50.29000 28.77800 40.63200
H  52.55400 20.71200 43.20400
H  58.78800 21.30300 44.70400
H  58.05000 27.62700 45.12100
H  50.20100 24.70300 43.82600
H  50.96000 22.13800 42.55300
H  49.26800 21.88900 44.06300
H  49.85900 23.04900 45.14700
H  50.66800 21.49900 45.08900
H  50.91000 23.93700 41.07500
H  51.29900 25.67100 41.55200
H  49.14300 26.35100 41.09400
H  48.57400 25.12700 42.18900
H  54.56300 17.84600 42.61900
H  53.09500 18.86400 43.14200
H  54.10000 17.93200 44.22300
H  59.19400 19.24900 43.96700
H  59.22400 17.96700 45.19300
H  58.70600 19.61800 45.71100
H  60.11800 23.28700 44.16400
H  59.67100 25.70700 46.05000
H  59.43600 22.58600 46.83500
H  60.73200 23.78700 46.94700
H  60.95500 22.22600 46.05000
H  60.20300 26.97200 43.96600
H  60.85700 25.40600 43.41500
H  62.63600 25.68200 44.65100
H  61.78000 25.82200 46.13100
H  62.23900 27.31400 45.07600
H  56.65800 29.76400 45.90200
H  55.17900 30.33800 44.97300
H  56.54900 29.82400 44.08600
H  50.87000 27.59100 44.29600
H  50.66200 27.95300 40.02400
H  50.76700 29.64900 40.18200
H  49.20900 28.84400 40.51500
Mg 0.56000 43.70400 26.40200
C  2.46500 43.08800 29.46800
C  -2.23900 43.36100 28.29400
C  -1.03400 43.24700 23.54500
C  3.64800 43.50100 24.75700
N  0.24600 43.14000 28.62100
C  1.09000 43.10700 29.66700
C  0.30300 42.91300 30.99100
C  -1.17500 42.74800 30.42100
C  -1.03200 43.20300 29.03700
C  -1.65100 41.27300 30.45500
C  0.47300 44.02700 31.98500
C  0.54700 43.79500 33.50000
H  0.24600 42.39200 34.04600
N  -1.40700 43.46000 25.98300
C  -2.42200 43.39200 26.89400
C  -3.72300 43.40900 26.13300
C  -3.40600 43.41500 24.80300
C  -1.87000 43.26600 24.68400
C  -5.05000 43.46900 26.91300
C  -4.34000 43.43700 23.58800
O  -3.85500 43.31700 22.45500
C  -5.78200 43.50700 23.74700
N  1.19800 43.44700 24.45300
C  0.34700 43.26600 23.38500
C  1.13500 43.20900 21.99400
C  2.56000 43.45000 22.42500
C  2.50200 43.48700 23.99200
C  0.83800 41.95500 21.04100
C  3.32800 44.82000 22.04500
C  4.19900 44.77600 20.78800
N  2.62600 43.49400 26.94000
C  3.77000 43.42700 26.12800
C  4.93100 43.33500 26.95100
C  4.43900 43.15000 28.26100
C  3.06400 43.19500 28.18700
C  6.39000 43.27800 26.59200
C  4.86600 42.93800 29.64600
O  5.98500 42.86300 30.06200
C  3.58300 42.98500 30.51400
C  3.58300 41.68700 31.20300
O  3.53600 40.49400 30.81400
O  3.78300 42.01400 32.55700
C  4.21000 40.96100 33.49700
H  -3.14800 43.26700 28.89100
H  -1.59400 43.10700 22.61800
H  4.50400 43.38300 24.08900
H  0.45700 41.95200 31.48100
H  -1.90300 43.31200 31.00400
H  -0.86500 40.64100 30.86800
H  -2.03300 40.89400 29.50700
H  -2.45800 41.04900 31.15300
H  -0.29800 44.78200 31.82900
H  1.42400 44.52300 31.79400
H  -0.02800 44.57300 34.00200
H  1.55300 44.01200 33.85700
H  -5.81500 44.12500 26.49800
H  -4.91200 43.69100 27.97100
H  -5.31800 42.41700 26.81400
H  -6.28400 43.84700 22.84200
H  -5.99400 44.25500 24.51200
H  -6.10000 42.50900 24.04800
H  0.89300 44.06300 21.36200
H  3.22900 42.61400 22.22000
H  0.49600 42.30500 20.06700
H  0.03800 41.32000 21.42100
H  1.73000 41.34700 20.89000
H  3.78000 45.29400 22.91600
H  2.53500 45.55700 21.91200
H  5.14600 45.30200 20.91200
H  3.54200 45.36800 20.15100
H  4.40000 43.79100 20.36700
H  6.54500 43.89100 25.70500
H  6.62400 42.24000 26.35700
H  6.94800 43.75200 27.40000
H  3.53500 43.86500 31.15500
H  3.53000 40.12600 33.33300
H  4.02100 41.32300 34.50800
H  5.26700 40.70000 33.54200

