158

Mg 35.86000 2.24400 30.69900
C  33.22000 3.21700 32.79000
C  38.04800 2.50700 33.39300
C  38.35200 1.65100 28.57600
C  33.60800 2.51700 27.99100
N  35.65000 2.86400 32.79100
C  34.42900 3.03300 33.46600
C  34.67400 3.15000 34.94900
C  36.22000 3.35800 35.01300
C  36.67900 2.92400 33.64300
C  36.60000 4.81700 35.47700
C  34.16100 1.88400 35.67100
C  33.67000 2.09500 37.13000
H  34.18700 3.25100 37.93900
N  37.91800 2.08400 30.91600
C  38.63800 2.22200 32.14400
C  40.01300 1.92000 31.90700
C  40.13100 1.61900 30.50100
C  38.76000 1.73700 29.92700
C  41.01400 2.09000 33.03900
C  41.36700 1.24500 29.66000
O  41.22900 0.86500 28.50200
C  42.77200 1.16900 30.23700
N  35.97300 2.00600 28.51600
C  37.14600 1.80800 27.90500
C  36.98700 1.67100 26.36000
C  35.43000 1.86200 26.23900
C  34.96800 2.27100 27.63600
C  37.82700 2.59000 25.43500
C  34.71200 0.55500 25.85600
C  33.70500 0.60300 24.73900
N  33.80800 2.76600 30.34100
C  33.02400 2.77200 29.22100
C  31.59600 3.13600 29.55700
C  31.69400 3.33200 30.95100
C  33.03900 3.07000 31.37300
C  30.38700 3.46800 28.77700
C  30.95700 3.73800 32.13600
O  29.82200 4.10400 32.23000
C  31.85900 3.56900 33.32900
C  31.92600 4.86200 34.01000
O  32.48600 5.83300 33.56800
O  31.20900 4.82300 35.17400
C  31.05700 6.06600 35.99100
H  38.73200 2.43000 34.24100
H  39.16000 1.38200 27.89300
H  32.89900 2.68700 27.17800
H  34.13000 4.00600 35.34800
H  36.63600 2.72600 35.79800
H  37.12200 4.80700 36.43400
H  35.78300 5.51100 35.67500
H  37.30100 5.17700 34.72500
H  35.00200 1.19300 35.72700
H  33.42100 1.52300 34.95600
H  33.81500 1.15500 37.66300
H  32.58800 2.21900 37.08800
H  40.82400 1.35900 33.82600
H  40.88400 3.09900 33.43000
H  42.00700 1.95900 32.61000
H  43.42000 0.63900 29.53900
H  42.86500 0.54400 31.12600
H  43.05300 2.19600 30.46800
H  37.40200 0.68600 26.14500
H  35.10100 2.61600 25.52400
H  38.51700 1.89900 24.95100
H  38.25100 3.37600 26.06100
H  37.23800 3.14200 24.70200
H  34.24500 0.05500 26.70400
H  35.44200 -0.18600 25.53100
H  34.05400 0.14300 23.81400
H  33.36800 1.61100 24.49900
H  32.82500 0.07400 25.10600
H  30.45700 3.20100 27.72200
H  30.00100 4.47600 28.92600
H  29.62500 2.81300 29.20100
H  31.48500 2.79400 33.99800
H  31.86200 6.16100 36.72000
H  30.10700 5.99700 36.52100
H  30.88200 6.94700 35.37500
Mg 47.74700 15.86000 28.47500
C  45.91500 15.97100 31.52400
C  50.21000 17.41300 30.09700
C  49.19800 16.44900 25.50900
C  44.91500 14.72600 26.94100
N  47.97300 16.80500 30.54600
C  47.10500 16.57500 31.61700
C  47.77500 17.14600 32.89100
C  49.10300 17.88400 32.33500
C  49.17100 17.27000 30.93700
C  49.16400 19.44100 32.36200
C  48.03900 15.99400 33.87700
C  47.45300 16.17800 35.29600
H  47.03900 17.56200 35.79200
N  49.51800 16.67000 27.91300
C  50.46100 17.23500 28.72000
C  51.58300 17.57300 27.86300
C  51.34500 17.17300 26.52800
C  49.93500 16.80700 26.60200
C  52.85400 18.13900 28.45100
C  52.20300 17.30300 25.27500
O  51.81100 17.16700 24.11000
C  53.58500 17.79200 25.45300
N  47.04000 15.84400 26.51300
C  47.92100 15.95400 25.42100
C  47.24000 15.61300 24.03700
C  45.84300 15.05900 24.51000
C  45.86200 15.24800 26.06900
C  47.28900 16.71800 22.93800
C  45.53800 13.63300 24.06900
C  46.45400 12.55500 24.55300
N  45.90200 15.28400 29.04800
C  44.90600 14.70600 28.29400
C  43.90700 14.24900 29.16800
C  44.23600 14.70000 30.43200
C  45.42900 15.37800 30.29400
C  42.69000 13.39700 28.80500
C  43.80000 14.81800 31.83100
O  42.78700 14.30600 32.34000
C  44.84000 15.69900 32.60000
C  44.17200 16.89800 33.19300
O  44.12700 18.00600 32.78000
O  43.59200 16.42000 34.32700
C  42.69700 17.40800 34.90500
H  50.99900 17.94200 30.63600
H  49.77000 16.44800 24.57900
H  44.02500 14.21500 26.56600
H  47.04300 17.86400 33.26200
H  49.97000 17.59000 32.92600
H  49.98800 19.78900 32.98400
H  48.22800 19.98000 32.51200
H  49.53400 19.69100 31.36800
H  49.11400 15.82400 33.92700
H  47.69500 15.01000 33.55900
H  48.21000 15.80100 35.98400
H  46.65300 15.44500 35.40100
H  52.85300 18.70600 29.38200
H  53.18700 18.88700 27.73200
H  53.62700 17.38000 28.57100
H  54.18400 17.61700 24.55900
H  54.00900 17.09500 26.17600
H  53.64800 18.85400 25.69300
H  47.90800 14.90600 23.54600
H  45.02900 15.66600 24.11500
H  47.90400 17.55100 23.27800
H  46.30300 17.05500 22.61700
H  47.78200 16.31800 22.05200
H  45.38400 13.64100 22.99000
H  44.52000 13.44500 24.41200
H  46.50000 11.83200 23.73900
H  45.99200 12.04600 25.39900
H  47.44000 12.94600 24.80600
H  42.94100 12.44900 28.32800
H  42.04000 13.88200 28.07800
H  42.14200 13.27400 29.73900
H  45.10900 15.07400 33.45100
H  41.76700 17.55500 34.35600
H  43.13700 18.40400 34.96200
H  42.58400 17.15400 35.95900

