158

Mg 16.53600 -2.69000 28.20200
C  15.47300 -0.45500 30.77700
C  18.18000 -4.56900 30.46200
C  18.21300 -4.25400 25.62200
C  15.02700 -0.50500 25.87300
N  16.79100 -2.41400 30.34400
C  16.17600 -1.56800 31.24400
C  16.41000 -1.99900 32.68700
C  17.39100 -3.19200 32.52500
C  17.45700 -3.47300 30.98700
C  18.80000 -3.07100 33.09700
C  15.12900 -2.26900 33.51000
C  14.97800 -1.89300 34.98600
H  16.19600 -1.30700 35.63300
N  17.97700 -4.24400 28.06100
C  18.47900 -4.92800 29.11300
C  19.25300 -6.08000 28.60700
C  19.42300 -5.91100 27.17400
C  18.54000 -4.75500 26.91400
C  19.83400 -7.09900 29.50500
C  20.06500 -6.83800 26.14500
O  19.88900 -6.81100 24.91700
C  21.05500 -7.83100 26.60200
N  16.70400 -2.35000 26.07800
C  17.34300 -3.24100 25.23900
C  17.14500 -2.83100 23.77200
C  16.11400 -1.65900 23.88300
C  15.86500 -1.56400 25.39300
C  18.51000 -2.60500 23.06200
C  14.80000 -1.88200 23.11400
C  14.62200 -1.08400 21.86900
N  15.50400 -0.90600 28.26500
C  14.91200 -0.19100 27.20500
C  14.40400 1.06800 27.73500
C  14.51800 0.99500 29.14300
C  15.20700 -0.25800 29.40900
C  13.75100 2.12700 26.91200
C  14.23100 1.62200 30.37400
O  13.48700 2.59700 30.63100
C  14.91500 0.75200 31.47600
C  15.95800 1.57700 32.16000
O  16.98400 1.93300 31.58700
O  15.59500 1.94500 33.40300
C  16.53300 2.91600 34.07100
H  18.68000 -5.14900 31.24100
H  18.75400 -4.70300 24.78700
H  14.43000 0.14900 25.23400
H  16.92500 -1.15800 33.15200
H  16.99100 -4.10400 32.96800
H  18.77300 -2.31100 33.87700
H  19.59100 -2.94800 32.35600
H  19.06400 -3.99500 33.61300
H  14.93200 -3.32900 33.35200
H  14.38400 -1.67800 32.97800
H  14.72800 -2.84000 35.46500
H  14.09800 -1.26300 35.11900
H  19.52200 -8.03800 29.04900
H  19.58400 -6.93400 30.55300
H  20.92200 -7.02500 29.50700
H  21.45800 -7.47700 27.55100
H  21.79300 -8.09000 25.84300
H  20.45500 -8.70200 26.86900
H  16.65100 -3.67100 23.28400
H  16.58900 -0.75100 23.51200
H  19.21100 -2.60800 23.89700
H  18.46800 -1.66300 22.51500
H  18.66600 -3.46200 22.40700
H  13.94900 -1.59500 23.73200
H  14.62700 -2.91400 22.80600
H  13.92400 -0.24700 21.85000
H  14.35600 -1.79100 21.08300
H  15.52400 -0.51800 21.63600
H  12.78400 1.81600 26.51600
H  14.27900 2.30600 25.97500
H  13.68700 3.02900 27.52100
H  14.03400 0.50600 32.06900
H  16.08600 3.41500 34.93100
H  16.77100 3.73200 33.38900
H  17.42200 2.41000 34.44900
Mg 16.97300 51.19800 26.31100
C  18.80800 50.40500 29.16800
C  14.44500 52.30100 28.35600
C  14.97300 51.82900 23.64500
C  19.31900 49.93800 24.36000
N  16.62800 51.16300 28.50500
C  17.60500 51.02600 29.48000
C  17.12500 51.39900 30.87100
C  15.66300 51.80200 30.60000
C  15.54600 51.77300 29.03800
C  14.59300 51.00600 31.32200
C  18.02200 52.50200 31.54300
C  18.36000 52.12900 33.04400
H  17.40100 51.23400 33.84300
N  14.92300 52.02000 26.03300
C  14.09300 52.40300 27.02200
C  12.83500 52.81300 26.49500
C  13.02500 52.72900 25.03800
C  14.35000 52.16700 24.83800
C  11.59100 53.13600 27.32500
C  12.01800 53.15100 23.92400
O  12.33200 53.01500 22.78500
C  10.64800 53.66200 24.30600
N  17.15700 51.02100 24.23100
C  16.22900 51.28300 23.30300
C  16.63600 50.85000 21.94100
C  18.11400 50.38700 22.09000
C  18.29000 50.49300 23.67000
C  15.62800 49.89100 21.26900
C  19.28900 51.16400 21.35800
C  20.07900 50.44200 20.29800
N  18.75000 50.31600 26.62200
C  19.61500 49.86400 25.71200
C  20.70900 49.32500 26.41200
C  20.50500 49.58400 27.76800
C  19.24600 50.17800 27.88200
C  21.91900 48.67800 25.74200
C  21.01100 49.35400 29.12000
O  21.95700 48.66700 29.51400
C  19.92100 49.93300 30.10800
C  19.56300 48.76600 31.08000
O  18.60300 48.04200 31.04200
O  20.32600 48.85500 32.15400
C  20.16400 47.86200 33.24600
H  13.72600 52.56700 29.13400
H  14.38100 52.08000 22.76200
H  20.07600 49.44900 23.74300
H  17.25000 50.46600 31.42000
H  15.52600 52.84900 30.87000
H  13.99200 51.72600 31.87800
H  15.07200 50.20000 31.87700
H  13.79900 50.61300 30.68800
H  17.42100 53.40900 31.60000
H  18.92400 52.72200 30.97300
H  18.26200 53.09200 33.54300
H  19.38400 51.76200 33.12100
H  11.38200 54.19300 27.15700
H  11.79400 53.05300 28.39300
H  10.77600 52.48600 27.00900
H  10.05100 53.77100 23.40100
H  10.84500 54.51900 24.95000
H  10.09200 52.88500 24.83100
H  16.56300 51.73200 21.30600
H  18.10600 49.32200 21.85600
H  16.07400 48.95800 20.92300
H  15.08800 50.40000 20.47000
H  14.90900 49.60700 22.03700
H  19.97700 51.48600 22.14000
H  18.81200 52.05000 20.94100
H  19.69700 49.43500 20.13000
H  21.10000 50.34700 20.67000
H  20.08700 51.06300 19.40300
H  21.87300 48.64000 24.65400
H  22.22400 47.76500 26.25300
H  22.75800 49.36400 25.86000
H  20.33100 50.84000 30.55100
H  20.93100 48.04600 33.99800
H  20.44200 46.86500 32.90700
H  19.18100 48.07000 33.66900

