158

Mg -1.33900 18.18200 27.58800
C  -1.96500 15.88700 30.22400
C  -2.35400 20.62400 29.77600
C  -1.24700 20.31800 25.08400
C  -1.36000 15.48000 25.34400
N  -1.77100 18.20200 29.88000
C  -1.95400 17.20600 30.71500
C  -2.28800 17.69500 32.19200
C  -2.52300 19.19500 31.98000
C  -2.23000 19.37900 30.44000
C  -3.97400 19.76600 32.25900
C  -1.13200 17.37300 33.17400
C  -1.59900 16.88900 34.49000
H  -0.69300 16.99400 35.66400
N  -1.50100 20.18400 27.50200
C  -1.96600 20.99800 28.50200
C  -2.07300 22.40600 28.01900
C  -1.69000 22.38000 26.58300
C  -1.41800 20.91300 26.34300
C  -2.64400 23.41300 28.89800
C  -1.60700 23.47400 25.64800
O  -1.31900 23.40900 24.46100
C  -1.72700 24.87800 26.24200
N  -1.41000 17.92000 25.45000
C  -1.18600 19.00400 24.59900
C  -1.05400 18.51400 23.15300
C  -0.75600 16.95200 23.39900
C  -1.20400 16.76800 24.85900
C  -2.24100 18.80100 22.20800
C  0.68700 16.41400 23.25600
C  1.64900 16.99700 24.29100
N  -1.63400 16.10400 27.69800
C  -1.56300 15.15800 26.67200
C  -1.93200 13.89000 27.31800
C  -2.04100 14.09900 28.66500
C  -1.83000 15.45900 28.88900
C  -1.84000 12.58300 26.64200
C  -2.19500 13.36500 29.89700
O  -2.24200 12.16300 30.10900
C  -2.10900 14.54900 30.95100
C  -0.96800 14.25800 31.83000
O  0.22700 14.28400 31.49200
O  -1.48200 13.92400 33.14100
C  -0.44700 13.33000 34.02600
H  -2.89300 21.31200 30.43100
H  -1.09500 20.97300 24.22400
H  -1.37500 14.62600 24.66400
H  -3.19600 17.16500 32.47900
H  -1.85300 19.90000 32.47200
H  -4.62200 19.68600 31.38600
H  -4.04300 20.84600 32.38800
H  -4.52100 19.38300 33.12100
H  -0.66800 18.29800 33.51900
H  -0.30300 16.79800 32.76000
H  -1.89000 15.84200 34.40300
H  -2.42400 17.56100 34.72600
H  -2.46000 23.27600 29.96400
H  -3.72900 23.31200 28.92600
H  -2.31300 24.41800 28.63700
H  -2.75400 25.11600 26.51700
H  -1.26900 25.55800 25.52300
H  -1.08200 24.95900 27.11600
H  -0.13900 18.81100 22.64100
H  -1.28700 16.23300 22.77600
H  -3.13100 18.21300 22.43500
H  -1.96700 18.64800 21.16400
H  -2.55700 19.83200 22.36800
H  1.04900 16.68600 22.26500
H  0.59600 15.33100 23.33000
H  1.37400 16.85400 25.33600
H  1.70100 18.08200 24.19200
H  2.65300 16.63600 24.07100
H  -0.89700 12.12100 26.93400
H  -1.96500 12.60300 25.56000
H  -2.67600 11.94300 26.92400
H  -3.04800 14.55900 31.50400
H  0.32000 12.75500 33.50700
H  -0.94000 12.78700 34.83200
H  0.20700 14.05400 34.51200
Mg 47.32200 24.58800 27.91000
C  48.14600 26.48800 30.56700
C  47.00900 21.73700 30.00700
C  46.44600 22.68200 25.21200
C  48.14800 27.15700 25.73200
N  47.67300 24.20400 30.04500
C  47.76700 25.17700 30.97200
C  47.68900 24.66200 32.42100
C  47.58900 23.16700 32.11700
C  47.39100 22.97100 30.63300
C  48.64600 22.17300 32.75200
C  46.57300 25.37900 33.22000
C  46.90400 26.32600 34.33300
H  45.87900 26.57300 35.53200
N  46.85900 22.51600 27.63300
C  46.78500 21.56000 28.57600
C  46.59900 20.26800 27.92200
C  46.25500 20.54800 26.55300
C  46.47800 21.95600 26.43600
C  46.64400 18.93500 28.69600
C  45.87900 19.61800 25.41900
O  45.61700 19.99400 24.27100
C  45.79100 18.22200 25.70900
N  47.44500 24.83000 25.76700
C  46.91500 23.94500 24.91700
C  46.82700 24.56500 23.46500
C  47.21000 26.02400 23.63400
C  47.59900 26.08900 25.13400
C  47.63400 23.79800 22.36000
C  45.97600 26.99700 23.29800
C  46.19300 28.38600 22.68300
N  48.08600 26.40400 28.03600
C  48.40900 27.36800 27.09500
C  49.05400 28.45800 27.77300
C  48.90600 28.19400 29.15800
C  48.31100 26.94000 29.27300
C  49.65800 29.60000 27.04300
C  49.12800 28.73100 30.46900
O  49.67800 29.84000 30.72700
C  48.62700 27.66000 31.43500
C  49.88400 27.24800 32.31500
O  50.64000 26.26300 32.11900
O  49.96200 28.11800 33.35800
C  50.73600 27.65500 34.50200
H  46.83900 20.91300 30.70300
H  46.11800 22.26900 24.25500
H  48.47100 27.96100 25.06600
H  48.63000 24.79600 32.95400
H  46.60300 22.83400 32.44000
H  49.12300 22.72800 33.56000
H  49.41400 21.92600 32.02000
H  48.11300 21.31300 33.15900
H  45.89100 24.56800 33.47800
H  46.04100 25.93000 32.44400
H  46.98300 27.31300 33.87700
H  47.84700 26.04200 34.80200
H  47.03100 18.23600 27.95400
H  45.64600 18.59500 28.97100
H  47.33500 18.96300 29.53800
H  46.80600 17.87700 25.51700
H  45.10800 17.72400 25.02100
H  45.29500 17.95100 26.64100
H  45.77400 24.50800 23.19100
H  48.10300 26.23500 23.04600
H  48.28400 23.08500 22.86800
H  48.20900 24.45400 21.70700
H  47.04500 23.09600 21.76800
H  45.47900 26.92500 24.26600
H  45.35800 26.57100 22.50800
H  45.84400 28.41300 21.65100
H  47.23500 28.70600 22.71400
H  45.54100 29.12400 23.14800
H  50.11200 29.19200 26.14000
H  50.50100 30.06200 27.55600
H  48.89700 30.35900 26.86500
H  47.87900 28.03200 32.13500
H  50.62600 28.45400 35.23600
H  51.80400 27.67800 34.28700
H  50.34800 26.67100 34.76600

