158

Mg 48.14300 35.13600 27.83500
C  46.29600 33.61900 30.52700
C  48.41100 37.85000 29.84000
C  48.97400 36.87600 25.15400
C  47.38600 32.26900 25.87800
N  47.42200 35.63900 29.98200
C  46.95000 34.78000 30.90600
C  47.18000 35.30400 32.26000
C  47.30500 36.86400 31.99700
C  47.80900 36.81100 30.53200
C  46.02200 37.76700 32.08600
C  48.43100 34.73700 33.10700
C  48.15200 34.50200 34.58700
H  47.20300 35.49600 35.31600
N  48.66800 37.08100 27.51600
C  48.83600 38.00600 28.47700
C  49.50800 39.18700 27.96300
C  49.66200 38.93600 26.56600
C  49.12600 37.59100 26.36400
C  49.65800 40.50100 28.72200
C  50.18700 39.84500 25.37300
O  50.17000 39.52900 24.22800
C  50.71400 41.23200 25.75700
N  48.24700 34.61700 25.78700
C  48.56000 35.54800 24.95400
C  48.62000 34.90900 23.49800
C  48.22400 33.41800 23.75100
C  47.97800 33.39700 25.26100
C  47.65500 35.65200 22.47400
C  49.47500 32.45100 23.49100
C  49.32900 31.63100 22.23800
N  47.15600 33.22200 28.15700
C  46.85700 32.21800 27.22000
C  46.02900 31.23700 27.83900
C  45.71600 31.76600 29.11300
C  46.45400 32.99400 29.26800
C  45.59700 29.91600 27.22500
C  44.88500 31.55300 30.28600
O  43.91700 30.83400 30.50100
C  45.21100 32.74600 31.25000
C  45.47800 32.35000 32.61900
O  46.45200 31.63900 32.95400
O  44.61400 32.87800 33.52400
C  44.66000 32.46200 34.95800
H  48.63600 38.69900 30.48900
H  49.32300 37.27900 24.20200
H  47.20800 31.49800 25.12500
H  46.26200 35.17600 32.83400
H  48.05200 37.36100 32.61600
H  45.37300 37.56000 32.93600
H  45.52800 37.54700 31.14000
H  46.23600 38.83400 32.02600
H  49.17600 35.52500 32.99700
H  48.93200 33.86500 32.68600
H  49.09000 34.33800 35.11800
H  47.69900 33.51400 34.50700
H  50.55600 41.05100 28.44300
H  49.83300 40.18800 29.75100
H  48.72300 41.04500 28.58500
H  50.88000 41.73400 24.80400
H  51.67600 41.10100 26.25400
H  50.03700 41.81900 26.37800
H  49.63900 35.06500 23.14200
H  47.32700 32.99300 23.30200
H  48.15900 35.98700 21.56700
H  47.13900 36.49500 22.93500
H  46.95400 34.90300 22.10500
H  49.65400 31.71600 24.27600
H  50.33300 33.10900 23.35200
H  48.47600 31.95600 21.64300
H  49.02600 30.63900 22.57300
H  50.17400 31.66700 21.55100
H  46.35500 29.13300 27.21600
H  45.18700 30.22500 26.26300
H  44.74100 29.58000 27.81200
H  44.21500 33.18600 31.21800
H  43.77100 32.00400 35.39100
H  44.73900 33.31900 35.62700
H  45.60300 31.96700 35.19100
Mg 36.38300 49.05400 24.12700
C  36.71000 47.49100 27.20700
C  35.25400 51.87500 25.57200
C  35.69600 50.33900 21.01600
C  37.59400 46.21200 22.63300
N  35.83800 49.49400 26.12500
C  36.17900 48.80600 27.29600
C  35.70000 49.54800 28.53700
C  35.10100 50.92100 27.94600
C  35.32100 50.71200 26.41400
C  33.64000 51.23700 28.29900
C  36.89400 49.88500 29.52000
C  36.57300 49.65800 31.07300
H  35.16700 49.60000 31.57500
N  35.61300 50.84300 23.45900
C  35.26700 51.90600 24.21900
C  34.81600 53.02000 23.37300
C  34.88800 52.56100 22.04500
C  35.39400 51.20000 22.14200
C  34.63600 54.38100 23.90400
C  34.60900 53.33200 20.72100
O  34.74500 52.93000 19.55900
C  34.15000 54.74900 20.87500
N  36.49400 48.38400 22.10000
C  36.16800 49.06200 21.01200
C  36.56300 48.25800 19.65900
C  37.54700 47.16000 20.24700
C  37.27000 47.27800 21.75000
C  35.31800 47.75500 18.80400
C  39.02200 47.10300 19.68800
C  39.94200 48.11800 20.28800
N  37.03400 47.19700 24.74500
C  37.40400 46.08600 24.02300
C  37.57800 44.95800 24.92600
C  37.36200 45.50000 26.18900
C  37.10300 46.87900 26.02900
C  37.97000 43.54200 24.46400
C  37.42200 45.16600 27.61200
O  37.81300 44.17900 28.27900
C  36.91100 46.50400 28.30600
C  35.61300 46.10900 28.95000
O  34.50300 46.11700 28.44000
O  35.90700 45.75700 30.29200
C  34.79800 45.08400 30.93900
H  34.91100 52.81500 26.00900
H  35.56600 50.82000 20.04400
H  38.12100 45.38300 22.15500
H  34.93300 49.00400 29.08800
H  35.73400 51.72200 28.32700
H  33.50100 52.31800 28.30900
H  33.37500 50.89900 29.30100
H  33.01400 50.71500 27.57500
H  37.33200 50.86900 29.34800
H  37.66600 49.14900 29.29400
H  36.99200 50.53500 31.56500
H  37.15400 48.83000 31.48100
H  35.16300 55.14000 23.32600
H  35.16500 54.43400 24.85500
H  33.55900 54.54700 23.89700
H  33.31800 54.92800 21.55600
H  33.91700 55.03200 19.84900
H  35.03500 55.35700 21.06300
H  37.19600 48.90800 19.05500
H  37.19300 46.18300 19.91900
H  34.31000 48.11900 19.00500
H  35.38100 46.67500 18.67100
H  35.41400 48.15200 17.79400
H  39.07400 47.23900 18.60800
H  39.50100 46.18000 20.01300
H  39.33400 48.83900 20.83500
H  40.39800 48.66100 19.46000
H  40.66800 47.74300 21.00800
H  37.44500 43.48000 23.51100
H  37.55700 42.77200 25.11500
H  39.03900 43.34900 24.37200
H  37.56300 46.83500 29.11400
H  34.23800 44.54200 30.17700
H  34.13700 45.74200 31.50300
H  35.28300 44.39700 31.63200

