158

Mg 44.14700 3.36600 47.25900
C  43.33600 6.62400 46.22200
C  40.97700 2.34000 45.94900
C  45.22700 0.22500 47.33700
C  47.44900 4.42700 47.78300
N  42.37900 4.37100 46.24400
C  42.35200 5.73600 45.91600
C  41.03900 5.94300 45.13200
C  40.18000 4.70500 45.49900
C  41.21900 3.75200 45.86200
C  39.10100 4.96000 46.49700
C  41.24600 6.23800 43.62200
C  40.38200 7.35800 42.96800
H  39.32000 6.90800 41.94200
N  43.20400 1.56300 46.83700
C  41.91900 1.33600 46.39500
C  41.57400 -0.07000 46.38000
C  42.86200 -0.73200 46.81700
C  43.83700 0.35600 47.00500
C  40.28300 -0.69000 45.89600
C  43.02900 -2.26700 47.01200
O  42.07100 -3.05200 46.83700
C  44.27300 -2.91200 47.45800
N  46.01000 2.40700 47.69700
C  46.23000 1.11700 47.68700
C  47.62800 0.69600 48.04100
C  48.40300 2.02000 48.14300
C  47.20000 3.05400 47.88700
C  47.63400 -0.12100 49.35600
C  49.59600 2.14200 47.23200
C  50.66600 3.00700 47.80300
N  45.16000 5.17300 47.22500
C  46.51500 5.42000 47.40100
C  46.71600 6.84100 47.30100
C  45.47800 7.37800 46.88100
C  44.57700 6.30000 46.70200
C  47.95400 7.67900 47.66800
C  44.77700 8.57900 46.57100
O  45.15700 9.73500 46.55500
C  43.28700 8.17500 46.16400
C  42.42200 8.81200 47.20300
O  42.56100 8.77500 48.38900
O  41.21900 9.25100 46.63600
C  40.40200 9.99000 47.55600
H  39.97800 1.92800 45.79000
H  45.53900 -0.82200 47.35800
H  48.43500 4.86900 47.94300
H  40.47200 6.75800 45.58200
H  39.66400 4.47800 44.56600
H  38.90300 3.96700 46.90200
H  38.22000 5.45000 46.08200
H  39.58800 5.53200 47.28700
H  40.96600 5.35200 43.05200
H  42.30000 6.27500 43.34800
H  41.02700 8.18600 42.67300
H  39.82800 7.84100 43.77200
H  39.49200 0.05000 46.02200
H  40.03700 -1.52400 46.55200
H  40.34400 -1.07800 44.87900
H  44.73900 -2.60100 48.39300
H  45.02200 -2.92400 46.66600
H  43.97100 -3.95500 47.54900
H  47.96500 0.03800 47.24000
H  48.74500 2.09000 49.17600
H  48.30300 0.38700 50.05100
H  47.92200 -1.16900 49.26800
H  46.65300 -0.09700 49.83200
H  49.29300 2.59700 46.28900
H  49.96300 1.13600 47.03000
H  51.55900 2.46400 48.11100
H  50.32500 3.65200 48.61200
H  50.96500 3.78600 47.10200
H  48.35000 7.60800 48.68100
H  47.70200 8.70900 47.41500
H  48.70200 7.42300 46.91700
H  43.01900 8.51000 45.16200
H  40.68600 11.04200 47.52500
H  40.50900 9.70700 48.60300
H  39.39200 9.77000 47.20900
Mg 47.42500 15.89300 27.98500
C  45.81200 15.60800 31.13000
C  49.46600 18.19100 29.26800
C  48.64500 16.31100 24.86500
C  44.89900 13.91100 26.68000
N  47.63300 16.67500 30.02700
C  46.97300 16.38400 31.15200
C  47.56200 17.25900 32.27400
C  48.51500 18.19600 31.64700
C  48.60700 17.61100 30.22100
C  48.11300 19.65400 31.64000
C  48.03100 16.43000 33.44600
C  47.96500 17.05500 34.85100
H  49.05300 16.59800 35.81300
N  48.92900 16.94300 27.18300
C  49.60100 17.91000 27.87900
C  50.53300 18.62700 26.99800
C  50.42600 17.98500 25.72200
C  49.27700 17.03900 25.87000
C  51.39600 19.76900 27.42900
C  51.24700 18.21500 24.50000
O  51.01100 17.64000 23.43900
C  52.38000 19.11700 24.54400
N  46.89600 15.22000 26.00100
C  47.59800 15.38200 24.90800
C  47.01000 14.61400 23.68500
C  45.98900 13.70200 24.42700
C  45.91400 14.27500 25.78600
C  46.48000 15.49600 22.50300
C  46.41100 12.22000 24.26900
C  47.64400 11.79800 25.08500
N  45.69700 15.01900 28.71000
C  44.73700 14.34900 28.00200
C  43.60900 14.03800 28.82100
C  44.02600 14.45700 30.07900
C  45.31200 15.08200 29.94000
C  42.45100 13.15000 28.44300
C  43.64500 14.54300 31.47900
O  42.62300 14.17500 32.04800
C  44.74900 15.31100 32.21400
C  44.27300 16.58900 32.82600
O  43.84800 17.55300 32.13800
O  44.43200 16.59900 34.13700
C  43.95300 17.80700 34.79400
H  50.19200 18.90800 29.65800
H  48.96700 16.42800 23.82800
H  44.18400 13.21400 26.23700
H  46.79800 17.95400 32.62300
H  49.46400 18.04200 32.16200
H  47.29800 19.93500 32.30700
H  47.80100 19.99200 30.65200
H  49.02600 20.16800 31.94300
H  49.07900 16.19300 33.26500
H  47.56100 15.45800 33.59600
H  46.99700 16.75600 35.25300
H  47.96800 18.14400 34.80500
H  52.48000 19.65200 27.40700
H  51.00300 20.19200 28.35300
H  51.20800 20.61700 26.77000
H  53.13800 18.65900 25.18000
H  51.94700 20.09500 24.75600
H  52.77200 19.25600 23.53700
H  47.87600 14.07800 23.29700
H  44.98500 13.73300 24.00200
H  46.45300 16.56100 22.73300
H  45.44500 15.30700 22.21600
H  47.23000 15.29000 21.74000
H  46.46700 11.98700 23.20500
H  45.57800 11.58100 24.56200
H  47.84100 12.34300 26.00800
H  48.51000 12.09800 24.49400
H  47.56400 10.73900 25.32900
H  41.73800 13.69000 27.82000
H  42.01100 12.73600 29.35000
H  43.01500 12.46100 27.81500
H  45.09600 14.69800 33.04600
H  44.27100 18.69800 34.25300
H  44.49100 17.91700 35.73500
H  42.91800 17.79800 35.13400

