158

Mg 3.07700 -0.31100 44.99500
C  6.57200 0.35400 44.68700
C  2.60300 2.44100 42.89400
C  -0.04500 -1.10300 44.95400
C  3.99700 -3.49900 46.43200
N  4.40400 1.16600 43.89400
C  5.78000 1.16600 43.90300
C  6.36900 2.26300 42.98200
C  5.08500 3.08300 42.71100
C  3.95900 2.16600 43.11600
C  4.90200 4.52700 43.26800
C  7.14300 1.59600 41.81200
C  8.59700 2.07200 41.48200
H  9.05200 2.00700 40.07700
N  1.49000 0.61700 44.16700
C  1.48500 1.69500 43.39300
C  0.06600 2.01900 43.08900
C  -0.74100 0.97300 43.55300
C  0.19200 0.11800 44.35000
C  -0.35600 3.29000 42.35800
C  -2.24500 0.79800 43.27800
O  -2.77700 1.63400 42.57300
C  -2.97900 -0.34200 43.76500
N  2.18100 -2.07600 45.52600
C  0.82800 -2.12900 45.42800
C  0.35700 -3.52000 45.78500
C  1.57000 -4.30500 46.41600
C  2.67000 -3.28300 46.03800
C  -0.81100 -3.55900 46.76100
C  1.94600 -5.72400 45.83800
C  0.74000 -6.65900 45.37700
N  4.87500 -1.40600 45.51900
C  5.03600 -2.61900 46.15300
C  6.45800 -2.73200 46.49100
C  7.06400 -1.60400 45.92600
C  6.09100 -0.80900 45.33800
C  7.14300 -3.76300 47.25900
C  8.32900 -0.91200 45.73600
O  9.45300 -1.17600 46.05800
C  8.06700 0.33300 44.91700
C  8.49300 1.47000 45.79400
O  7.88500 1.83300 46.83000
O  9.68300 1.99800 45.28800
C  9.93700 3.36800 45.80600
H  2.35100 3.25700 42.21300
H  -1.08400 -1.44100 44.95600
H  4.17000 -4.43500 46.96600
H  7.04900 2.84800 43.60100
H  5.06300 3.07100 41.62100
H  4.93400 5.20600 42.41500
H  5.78700 4.76100 43.86100
H  3.94800 4.64900 43.78100
H  6.58200 1.85600 40.91500
H  7.05400 0.51600 41.69200
H  9.34200 1.59000 42.11400
H  8.76800 3.10900 41.77200
H  -0.90400 3.07500 41.44100
H  0.48700 3.93800 42.11900
H  -1.12100 3.71000 43.01000
H  -4.04500 -0.16700 43.61900
H  -2.71900 -0.49000 44.81300
H  -2.71000 -1.26800 43.25800
H  0.13800 -3.90600 44.79000
H  1.57700 -4.26200 47.50500
H  -0.89400 -2.66700 47.38100
H  -0.81900 -4.48000 47.34400
H  -1.70800 -3.68500 46.15500
H  2.56300 -6.27100 46.55200
H  2.60800 -5.72400 44.97200
H  0.96800 -7.69400 45.63100
H  0.60300 -6.72200 44.29700
H  -0.25500 -6.38400 45.72700
H  7.20200 -4.71700 46.73500
H  6.56500 -3.78900 48.18400
H  8.12400 -3.40800 47.57500
H  8.57100 0.38200 43.95200
H  10.35500 4.02100 45.03900
H  10.62500 3.43400 46.64800
H  9.03600 3.91100 46.09000
Mg 0.90300 43.20600 25.62800
C  2.84100 42.99100 28.50600
C  -1.86100 42.43000 27.73700
C  -0.99400 42.55000 22.88800
C  3.69400 43.29600 23.67300
N  0.49800 43.00300 27.92100
C  1.46600 42.96300 28.87700
C  0.83500 42.74300 30.24800
C  -0.62500 42.54400 29.94500
C  -0.67300 42.63400 28.41900
C  -1.47200 41.41000 30.62200
C  1.17900 43.99600 31.14100
C  1.46600 43.71500 32.59900
H  0.89000 42.45300 33.33700
N  -1.14300 42.77100 25.36300
C  -2.11500 42.58200 26.35100
C  -3.40900 42.69800 25.72300
C  -3.19100 42.67200 24.24100
C  -1.71600 42.59300 24.11000
C  -4.71000 42.83800 26.51100
C  -4.25000 42.69400 23.18500
O  -3.94600 42.66200 22.00300
C  -5.70400 42.73500 23.52500
N  1.32700 42.82000 23.55900
C  0.35700 42.70900 22.60400
C  0.91600 42.97900 21.20900
C  2.47400 43.38300 21.51500
C  2.53600 43.11000 23.01200
C  0.77900 41.85300 20.13400
C  2.91700 44.81500 21.20200
C  4.20000 44.99400 20.49500
N  2.86800 43.27100 25.93100
C  3.89100 43.28000 25.06100
C  5.18400 43.14900 25.73100
C  4.78500 43.08100 27.11000
C  3.40000 43.17700 27.19300
C  6.56000 43.21700 25.12600
C  5.30900 42.91300 28.44300
O  6.45900 42.79100 28.78900
C  4.04600 42.97400 29.40600
C  4.13500 41.74000 30.25100
O  4.34200 40.60300 29.82100
O  3.98800 42.09800 31.59200
C  4.20300 40.99700 32.47100
H  -2.72600 42.32700 28.39600
H  -1.65100 42.45400 22.02100
H  4.59500 43.41300 23.06700
H  1.30800 41.84100 30.63600
H  -1.13500 43.45400 30.25800
H  -2.35500 41.86400 31.07100
H  -0.82400 40.91500 31.34500
H  -1.79000 40.70400 29.85400
H  0.32800 44.67600 31.10800
H  1.91200 44.71300 30.77300
H  1.02900 44.56100 33.13000
H  2.55300 43.76300 32.66200
H  -5.33400 43.66800 26.17900
H  -4.59400 42.82100 27.59500
H  -5.24900 41.93900 26.21400
H  -6.24700 42.87300 22.59000
H  -5.82200 43.67000 24.07300
H  -6.02400 41.86300 24.09600
H  0.37700 43.85600 20.85000
H  3.12800 42.71500 20.95400
H  0.16200 41.01100 20.44900
H  1.74300 41.38100 19.94800
H  0.30800 42.24400 19.23200
H  2.86100 45.38700 22.12800
H  2.13000 45.26000 20.59300
H  4.10100 45.74600 19.71300
H  4.38600 44.13000 19.85700
H  5.04700 45.28200 21.11900
H  6.69000 42.44900 24.36400
H  7.29800 42.92100 25.87200
H  6.81400 44.17100 24.66400
H  4.04800 43.80200 30.11500
H  5.23400 40.64400 32.42600
H  3.58400 40.10000 32.45400
H  4.16700 41.42200 33.47400

