158

Mg -1.63200 17.33600 26.51900
C  -1.72300 14.88300 28.98000
C  -2.29400 19.72400 28.86100
C  -1.72500 19.72200 24.00800
C  -1.55400 14.84300 23.98000
N  -1.90100 17.25000 28.65600
C  -1.80100 16.16700 29.52400
C  -1.91200 16.55700 31.00700
C  -2.26700 18.07900 30.89600
C  -2.16900 18.36000 29.41300
C  -3.74600 18.37900 31.34100
C  -0.47400 16.30300 31.66400
C  -0.19500 17.15200 32.88200
H  0.24900 16.36400 34.16600
N  -1.97500 19.43700 26.49700
C  -2.17800 20.24500 27.56600
C  -2.24200 21.64900 27.22100
C  -2.15200 21.62800 25.77300
C  -1.96000 20.22000 25.35800
C  -2.50000 22.78000 28.19100
C  -2.21400 22.72900 24.83500
O  -2.22300 22.61200 23.59600
C  -2.35300 24.15900 25.30300
N  -1.69700 17.32300 24.28400
C  -1.58400 18.44800 23.50600
C  -1.62700 18.12800 21.99100
C  -1.54800 16.49600 22.06500
C  -1.56500 16.20300 23.47900
C  -2.90100 18.56500 21.24100
C  -0.33400 15.80700 21.31200
C  -0.76400 14.96000 20.07700
N  -1.71600 15.33500 26.44000
C  -1.57800 14.44200 25.33600
C  -1.62400 13.09100 25.87300
C  -1.62200 13.22000 27.26400
C  -1.70100 14.57400 27.52900
C  -1.71000 11.83700 25.07600
C  -1.53700 12.47600 28.52900
O  -1.26200 11.27600 28.62500
C  -1.46500 13.55300 29.67700
C  -0.10400 13.35900 30.16100
O  0.87100 14.07600 29.87700
O  -0.09800 12.45600 31.19800
C  1.17900 12.49400 31.97400
H  -2.39500 20.45600 29.66500
H  -1.56300 20.41300 23.17800
H  -1.43700 14.02000 23.27200
H  -2.68200 15.95600 31.49100
H  -1.60700 18.72300 31.47700
H  -4.25300 18.95000 30.56300
H  -3.72200 19.05900 32.19300
H  -4.30500 17.49500 31.64600
H  0.32300 16.29500 30.92100
H  -0.59800 15.27200 31.99500
H  -1.02200 17.75200 33.26100
H  0.65000 17.82600 32.74200
H  -1.65000 23.44100 28.36100
H  -2.71700 22.54700 29.23400
H  -3.33900 23.30200 27.73400
H  -1.68200 24.43600 26.11600
H  -3.36700 24.30100 25.67800
H  -2.31500 24.83100 24.44500
H  -0.75400 18.63800 21.58400
H  -2.47500 16.03500 21.72200
H  -2.66900 19.52400 20.77800
H  -3.79600 18.76900 21.82900
H  -3.23600 17.85300 20.48700
H  0.26200 15.13700 21.93100
H  0.28900 16.60700 20.91100
H  -0.16600 15.24200 19.20900
H  -1.81300 15.10100 19.81600
H  -0.62800 13.95100 20.46400
H  -1.54600 11.93000 24.00200
H  -2.69100 11.44100 25.33800
H  -0.85900 11.24200 25.40800
H  -2.32400 13.19200 30.24200
H  1.02200 12.84100 32.99600
H  1.94400 13.14700 31.55400
H  1.58400 11.48700 32.07900
Mg 40.62300 8.05600 29.49800
C  42.64500 9.21200 32.31600
C  38.43400 7.05800 31.63400
C  39.17000 6.74800 26.78500
C  43.38500 8.99200 27.46000
N  40.67100 7.99600 31.79100
C  41.43000 8.68400 32.68500
C  40.70000 8.67600 34.07700
C  39.39900 7.95500 33.74900
C  39.44000 7.69900 32.29900
C  39.21500 6.75000 34.68800
C  40.49000 10.12300 34.71400
C  41.32700 10.34500 35.99900
H  41.16600 9.54900 37.22700
N  39.09800 7.03800 29.24200
C  38.20300 6.74700 30.27900
C  36.98500 6.09200 29.77000
C  37.23900 5.93700 28.40600
C  38.52900 6.61500 28.06800
C  35.90200 5.58600 30.73600
C  36.36000 5.41100 27.33700
O  36.56400 5.46400 26.14900
C  34.99700 4.89500 27.74700
N  41.19200 7.96000 27.39300
C  40.38000 7.43700 26.45000
C  40.90700 7.69900 25.05100
C  42.19100 8.53000 25.31000
C  42.31500 8.49700 26.79600
C  41.17000 6.30800 24.37200
C  42.18400 9.97000 24.64300
C  41.42100 11.01300 25.51500
N  42.66200 8.87900 29.78200
C  43.54900 9.31400 28.80700
C  44.63000 10.05300 29.36200
C  44.35000 10.01100 30.78000
C  43.14400 9.24100 30.99500
C  45.64800 10.84600 28.65900
C  44.81800 10.45500 32.05900
O  45.74900 11.11700 32.39200
C  43.74300 10.05600 33.09600
C  44.51200 9.23300 34.17100
O  44.79700 8.05800 34.11400
O  44.84600 10.03900 35.20200
C  45.37600 9.38200 36.39800
H  37.64700 6.80000 32.34600
H  38.71500 6.23500 25.93400
H  44.07900 9.44500 26.74900
H  41.33200 8.10300 34.75500
H  38.49600 8.54800 33.89700
H  39.50500 5.80900 34.22000
H  38.14200 6.65600 34.85600
H  39.82100 6.81500 35.59200
H  39.46100 10.22800 35.05600
H  40.80500 10.90000 34.01600
H  41.22600 11.38700 36.30200
H  42.39400 10.22800 35.80600
H  35.85700 4.49800 30.68100
H  35.07000 6.14000 30.30100
H  36.12300 5.94900 31.73900
H  35.25200 4.20500 28.55100
H  34.51700 4.35300 26.93200
H  34.45700 5.73400 28.18500
H  40.20500 8.33400 24.51000
H  43.04100 8.10500 24.77500
H  40.40600 5.54900 24.53900
H  42.11600 5.90600 24.73400
H  41.29700 6.44300 23.29700
H  41.76500 9.98400 23.63700
H  43.16700 10.37900 24.40900
H  41.12700 10.56000 26.46200
H  40.46300 11.32200 25.09600
H  42.08900 11.83800 25.76200
H  45.73000 11.83100 29.11800
H  45.54400 11.04100 27.59200
H  46.58500 10.32300 28.85200
H  43.32900 10.95000 33.56300
H  46.06100 8.54600 36.25500
H  44.59700 9.10900 37.11000
H  45.91100 10.07000 37.05300

