158

Mg 47.55200 16.19800 28.71400
C  45.35300 15.93900 31.36500
C  49.55600 18.22900 30.57000
C  49.59100 16.54500 26.12300
C  45.23200 14.51300 26.78200
N  47.51100 16.92300 30.74800
C  46.55300 16.60900 31.64500
C  46.92800 17.22100 33.08100
C  48.07900 18.22900 32.65100
C  48.45100 17.72600 31.26000
C  47.71300 19.70600 32.71800
C  47.39200 16.14100 34.10600
C  47.50600 16.58900 35.61500
H  47.01300 17.99300 36.00300
N  49.46000 17.03000 28.51800
C  50.05200 17.89200 29.34200
C  51.27100 18.38600 28.71400
C  51.36800 17.72100 27.52700
C  50.10200 17.03600 27.33100
C  52.22000 19.32800 29.45200
C  52.48100 17.78300 26.51400
O  52.36200 17.24300 25.42700
C  53.70600 18.52800 26.76500
N  47.35600 15.66300 26.65900
C  48.39300 15.88000 25.80700
C  48.15900 15.21700 24.46200
C  46.80700 14.44200 24.72800
C  46.42300 14.91100 26.13600
C  48.25100 16.11300 23.19600
C  46.72700 12.92300 24.45000
C  45.52800 12.45400 23.62800
N  45.60600 15.40500 28.97900
C  44.83300 14.71000 28.06300
C  43.55000 14.37600 28.67700
C  43.70800 14.79900 29.91800
C  44.96200 15.39100 30.10300
C  42.48800 13.50800 28.12500
C  43.07100 14.86500 31.19100
O  41.97100 14.50000 31.61000
C  44.18100 15.51700 32.24000
C  43.51600 16.53500 33.01900
O  42.99300 17.54800 32.59300
O  43.44200 16.17400 34.31100
C  42.80800 17.19200 35.14400
H  50.17500 18.90700 31.16200
H  50.23300 16.58400 25.24000
H  44.45500 13.94600 26.26500
H  46.09700 17.77000 33.52400
H  48.93400 18.09600 33.31300
H  48.02200 20.22200 31.80900
H  48.17400 20.27600 33.52400
H  46.63000 19.77800 32.61100
H  48.32300 15.84200 33.62400
H  46.79900 15.23100 34.00600
H  48.57600 16.39800 35.69800
H  46.91200 15.91000 36.22600
H  53.18900 18.83300 29.51600
H  51.89100 19.57500 30.46200
H  52.42200 20.22600 28.86800
H  53.56800 19.58300 27.00100
H  54.29800 18.57100 25.85100
H  54.29900 18.03100 27.53300
H  48.84800 14.38600 24.31400
H  46.18500 14.86900 23.94100
H  48.05100 17.14700 23.47500
H  47.48100 15.78400 22.49800
H  49.24600 16.08000 22.75300
H  46.62700 12.50800 25.45200
H  47.58500 12.42300 24.00000
H  45.94800 11.87800 22.80300
H  44.95500 13.27400 23.19600
H  44.88100 11.83200 24.24800
H  42.87100 12.86200 27.33500
H  41.78600 14.13100 27.57200
H  41.93200 12.88200 28.82400
H  44.54200 14.69800 32.86200
H  41.73100 17.28100 34.99800
H  43.26800 18.17900 35.17200
H  42.95000 16.77400 36.14100
Mg 29.40000 58.69800 40.20800
C  26.56900 57.21100 39.02600
C  31.29800 56.31800 38.89200
C  32.08500 60.76700 40.69400
C  27.36000 61.48900 41.32800
N  28.89500 56.96000 39.09900
C  27.69600 56.51000 38.67200
C  27.85100 55.24000 37.80600
C  29.37700 54.86600 38.06300
C  29.90400 56.09400 38.78900
C  29.64100 53.53800 38.87200
C  27.47700 55.47000 36.31500
C  26.54000 54.41100 35.63400
H  25.59400 55.00200 34.49500
N  31.42000 58.61000 39.80000
C  32.03400 57.50400 39.31000
C  33.48400 57.64100 39.21500
C  33.73300 58.90400 39.81500
C  32.36100 59.51900 40.13900
C  34.46100 56.62500 38.77700
C  35.06900 59.56200 39.91100
O  36.08600 58.96000 39.50000
C  35.24900 60.93200 40.47500
N  29.66300 60.90600 40.72000
C  30.91700 61.37100 41.01100
C  30.82600 62.77700 41.62700
C  29.29400 62.87400 42.11700
C  28.71600 61.71500 41.27400
C  31.80700 63.03000 42.77300
C  28.71500 64.32000 41.95000
C  27.75900 64.73300 43.11000
N  27.43900 59.25500 40.28900
C  26.76500 60.34700 40.79700
C  25.30800 60.17300 40.62900
C  25.22300 58.95400 39.96000
C  26.51400 58.37900 39.78600
C  24.18600 61.12500 40.95400
C  24.23100 58.03400 39.39400
O  23.01300 58.02600 39.39300
C  25.06700 56.85000 38.75300
C  24.60000 55.65400 39.47500
O  24.67700 55.45900 40.68100
O  24.19000 54.69400 38.61600
C  23.99300 53.32900 39.12400
H  31.93400 55.53700 38.47000
H  32.92400 61.43200 40.91200
H  26.65000 62.14500 41.83600
H  27.22300 54.43700 38.19400
H  29.99400 54.71100 37.17800
H  30.35800 53.72700 39.67100
H  30.09600 52.83300 38.17700
H  28.70700 53.15200 39.28200
H  28.40000 55.66400 35.76800
H  26.94900 56.42300 36.26400
H  25.98300 53.81100 36.35400
H  27.18200 53.74200 35.06300
H  34.07000 55.66400 39.11300
H  35.38900 56.72200 39.34000
H  34.60100 56.60600 37.69600
H  36.31600 61.14900 40.52100
H  34.86300 61.08900 41.48200
H  34.80000 61.64100 39.77900
H  30.99700 63.54800 40.87500
H  29.18700 62.51400 43.14000
H  32.37300 63.90300 42.44800
H  32.40400 62.14200 42.97700
H  31.21700 63.36500 43.62600
H  28.15200 64.36700 41.01800
H  29.45800 65.11400 41.88700
H  26.72800 64.64800 42.76700
H  27.92100 65.73500 43.50700
H  27.85000 64.11100 44.00100
H  23.31300 60.47300 40.93800
H  24.05200 61.95200 40.25800
H  24.29900 61.52300 41.96200
H  24.89600 56.82000 37.67600
H  23.00800 53.05800 39.50400
H  24.74600 53.19000 39.90100
H  24.13500 52.68300 38.25800

