158

Mg 47.02800 16.55500 28.92100
C  44.94100 15.84300 31.75300
C  49.19700 18.21700 31.03100
C  48.60700 17.61500 26.23900
C  44.57200 15.12900 26.90500
N  47.00700 16.92300 31.16000
C  46.10700 16.48500 32.10100
C  46.58700 16.88600 33.52900
C  47.80700 17.79300 33.21400
C  48.05700 17.63600 31.71400
C  47.67400 19.25900 33.48700
C  46.92200 15.63700 34.28700
C  47.60800 15.87500 35.63000
H  47.34600 17.06100 36.47300
N  48.66200 17.69500 28.62500
C  49.49100 18.17900 29.62200
C  50.63900 18.81000 29.04100
C  50.42300 18.78600 27.64600
C  49.22200 17.99900 27.43100
C  51.84400 19.31000 29.81200
C  51.31300 19.32000 26.56600
O  50.99600 19.25200 25.36500
C  52.61900 19.99300 26.87400
N  46.78100 16.26800 26.86100
C  47.56000 16.82900 25.90900
C  47.16200 16.38500 24.48000
C  45.82100 15.60500 24.75400
C  45.70100 15.58700 26.28400
C  47.04600 17.63800 23.53000
C  45.64700 14.18400 24.05000
C  45.88200 12.88600 24.84200
N  45.17400 15.61500 29.24000
C  44.30400 15.08000 28.27600
C  43.18200 14.55100 28.95200
C  43.35100 14.83800 30.35400
C  44.61200 15.47400 30.45700
C  41.92400 14.08200 28.29700
C  42.72500 14.86300 31.61200
O  41.64500 14.56400 32.02700
C  43.79700 15.38800 32.56600
C  43.22800 16.61400 33.31300
O  42.89600 17.64400 32.76700
O  43.01600 16.43000 34.64700
C  42.58600 17.60400 35.35700
H  49.87000 18.72700 31.72300
H  49.20300 17.82200 25.34700
H  43.93100 14.57100 26.22000
H  45.82800 17.49300 34.02300
H  48.65200 17.45500 33.81400
H  48.20500 19.47300 34.41500
H  46.64200 19.55700 33.67600
H  48.16000 19.82500 32.69300
H  47.58800 14.97700 33.73000
H  45.96500 15.15200 34.47900
H  48.68900 15.75200 35.56000
H  47.20900 15.15200 36.34100
H  52.05300 20.32000 29.46200
H  52.69100 18.69900 29.50100
H  51.69900 19.36800 30.89100
H  53.09900 20.25800 25.93200
H  53.29200 19.29400 27.37100
H  52.43100 20.94800 27.36400
H  47.92700 15.76300 24.01600
H  44.95800 16.21300 24.48400
H  47.71700 17.56400 22.67500
H  47.38300 18.52100 24.07300
H  46.02900 17.75900 23.15700
H  46.30600 14.02300 23.19600
H  44.61800 14.30000 23.71000
H  46.10000 13.13200 25.88100
H  46.74200 12.29800 24.51900
H  45.04900 12.18700 24.76400
H  41.69800 14.54100 27.33500
H  41.15000 14.34900 29.01700
H  41.92800 12.99400 28.21900
H  44.04000 14.60100 33.28000
H  41.67600 17.94100 34.86100
H  43.32400 18.40500 35.38400
H  42.44700 17.29300 36.39200
Mg 49.44200 34.99100 28.16800
C  47.28600 33.49900 30.44300
C  49.62600 37.83600 30.13700
C  51.24200 36.46300 25.77300
C  49.14100 32.09100 26.24200
N  48.53600 35.57200 29.97900
C  47.84300 34.73300 30.87100
C  47.97400 35.25600 32.35500
C  48.26200 36.81400 32.07500
C  48.81400 36.75400 30.65700
C  47.01800 37.76100 32.32800
C  49.18000 34.56700 33.12500
C  49.27400 34.69000 34.69200
H  48.24600 35.49600 35.40600
N  50.37900 36.88300 27.99300
C  50.28400 37.90600 28.89800
C  51.14100 38.96400 28.45800
C  51.65800 38.61100 27.12100
C  51.10300 37.25400 26.85000
C  51.32700 40.25500 29.29200
C  52.61300 39.33200 26.23200
O  53.00100 38.86800 25.18400
C  52.98400 40.73000 26.57000
N  49.95700 34.43300 26.13300
C  50.82400 35.16700 25.39300
C  51.32000 34.31600 24.20100
C  50.76200 32.88900 24.50600
C  49.87400 33.16400 25.69100
C  50.98700 34.91500 22.85800
C  51.88000 31.83200 24.79000
C  51.83900 30.58800 23.86000
N  48.29400 33.23100 28.17700
C  48.30800 32.16700 27.36500
C  47.57100 31.13300 27.90500
C  47.05500 31.61800 29.06200
C  47.50600 32.92700 29.21400
C  47.43600 29.74600 27.39900
C  46.16000 31.38500 30.13400
O  45.50200 30.44100 30.45600
C  46.17700 32.65700 31.14800
C  46.53600 32.25500 32.52500
O  47.47900 31.58800 32.84500
O  45.47200 32.60900 33.36500
C  45.69000 32.45200 34.80100
H  49.68200 38.74800 30.73500
H  51.89300 36.80200 24.96400
H  49.42900 31.15800 25.75300
H  47.01900 35.02600 32.82600
H  49.09100 37.20600 32.66500
H  46.56800 38.11000 31.39900
H  47.18300 38.68900 32.87500
H  46.28200 37.10400 32.79200
H  50.12000 35.02000 32.81000
H  49.15800 33.53000 32.78900
H  50.20900 35.21200 34.89400
H  49.27700 33.69100 35.12800
H  52.38900 40.49800 29.33700
H  50.93900 40.33500 30.30700
H  50.93400 41.08400 28.70400
H  51.99100 41.16300 26.68900
H  53.47800 41.13800 25.68800
H  53.70400 40.69500 27.38700
H  52.40300 34.42400 24.24800
H  50.20100 32.47500 23.66800
H  51.97000 35.03100 22.40200
H  50.41100 35.82000 23.05200
H  50.40800 34.23300 22.23500
H  51.90400 31.57000 25.84700
H  52.83800 32.32100 24.61300
H  51.44900 29.82600 24.53500
H  52.80500 30.30100 23.44200
H  51.10500 30.75600 23.07200
H  48.08100 29.05400 27.94000
H  47.91800 29.79500 26.42200
H  46.40900 29.38400 27.35900
H  45.18500 33.10300 31.22300
H  46.76900 32.43200 34.95200
H  45.25500 31.55500 35.24200
H  45.40000 33.34900 35.34900

