158

Mg 0.29700 7.16300 26.13200
C  1.41300 9.30700 28.90100
C  0.03600 4.66300 28.37000
C  -0.57000 5.22100 23.57300
C  1.00000 9.81600 23.98800
N  0.63500 7.00400 28.42500
C  1.00700 7.97800 29.38600
C  0.92300 7.38900 30.78200
C  0.54200 5.84400 30.54700
C  0.34600 5.87100 29.00200
C  1.64300 4.82900 30.95300
C  -0.16300 8.12900 31.61900
C  0.16700 8.47900 33.10300
H  1.36600 7.79500 33.66500
N  -0.11100 5.18500 25.93500
C  -0.19200 4.32800 27.03400
C  -0.66800 3.04400 26.58900
C  -0.99000 3.22000 25.19500
C  -0.57200 4.60300 24.80600
C  -0.86400 1.85800 27.60700
C  -1.58700 2.22900 24.24900
O  -1.99400 2.57100 23.14900
C  -1.77400 0.81400 24.64700
N  0.31500 7.46600 24.08500
C  -0.10500 6.48000 23.20300
C  -0.24800 7.01200 21.72500
C  0.16100 8.54000 22.00100
C  0.50600 8.62600 23.50200
C  0.78100 6.39100 20.67800
C  -0.96800 9.53900 21.66500
C  -0.62300 10.74600 20.65400
N  1.05400 9.14100 26.39100
C  1.31900 10.09700 25.32500
C  1.86100 11.26900 25.89900
C  1.99000 11.04600 27.25400
C  1.45300 9.71100 27.52000
C  2.07800 12.58300 25.19700
C  2.30900 11.73200 28.49700
O  2.64700 12.88500 28.71300
C  1.81100 10.61000 29.63600
C  3.00600 10.31400 30.49900
O  3.86600 9.42600 30.40900
O  2.91800 11.16900 31.53700
C  4.06500 11.31000 32.51600
H  0.05200 3.85400 29.10400
H  -0.84500 4.58600 22.72800
H  1.12900 10.58400 23.22200
H  1.97000 7.38600 31.08400
H  -0.30300 5.43900 31.10400
H  1.36000 3.99400 31.59400
H  2.45700 5.33500 31.47200
H  2.04400 4.33700 30.06700
H  -1.08200 7.54400 31.61200
H  -0.49400 9.00500 31.06100
H  -0.75300 8.14400 33.58300
H  0.31900 9.53700 33.31600
H  -1.72600 1.23800 27.35900
H  -1.09900 2.20500 28.61300
H  0.09400 1.33700 27.58300
H  -2.20200 0.24700 23.82000
H  -2.52300 0.86000 25.43700
H  -0.80800 0.39600 24.93300
H  -1.28200 6.80200 21.45200
H  1.05100 8.81400 21.43500
H  1.59000 5.85600 21.17500
H  1.24700 7.14000 20.03800
H  0.26600 5.68700 20.02500
H  -1.34400 9.84800 22.64000
H  -1.79300 8.99300 21.20900
H  0.35400 10.50000 20.23900
H  -0.51000 11.62700 21.28600
H  -1.45800 10.88700 19.96700
H  1.28700 12.82300 24.48600
H  3.07000 12.64100 24.75000
H  2.10500 13.34200 25.97800
H  0.96500 10.95800 30.22900
H  4.30700 12.35300 32.72100
H  5.01700 11.00900 32.07900
H  3.78500 10.89500 33.48400
Mg 40.15000 9.41600 30.36100
C  42.11100 10.66300 33.03200
C  37.71200 8.42000 32.67800
C  38.64000 7.67500 27.95400
C  43.06700 9.76400 28.25900
N  40.00500 9.41000 32.68800
C  40.87600 10.11300 33.52500
C  40.25700 10.17500 34.87300
C  38.92200 9.31600 34.77800
C  38.80900 9.15800 33.25900
C  38.96000 7.93000 35.48600
C  40.04300 11.62400 35.38200
C  40.79700 11.94700 36.65900
H  39.96900 12.54000 37.79100
N  38.36200 8.24200 30.29400
C  37.51400 7.94200 31.39500
C  36.47100 7.05000 30.85000
C  36.74300 6.86900 29.46200
C  37.94600 7.63900 29.19100
C  35.30500 6.52100 31.67500
C  35.99700 5.89500 28.46600
O  36.46200 5.63500 27.35000
C  34.70200 5.31100 28.90200
N  40.84000 8.76800 28.41600
C  39.87700 8.24000 27.53500
C  40.33100 8.31100 26.09500
C  41.75200 8.87000 26.27700
C  41.89800 9.20400 27.76000
C  40.18800 7.04100 25.29700
C  42.14300 9.98300 25.27600
C  41.27200 11.26500 25.36600
N  42.14600 10.16600 30.54400
C  43.14100 10.28800 29.55600
C  44.19800 11.10800 30.13400
C  43.84800 11.26500 31.53300
C  42.58600 10.69300 31.67700
C  45.36800 11.75700 29.41500
C  44.27000 11.88800 32.79900
O  45.25900 12.52800 32.95300
C  43.16700 11.44200 33.85400
C  43.85900 10.75900 34.92800
O  44.61300 9.82100 34.88500
O  43.66900 11.50700 36.00600
C  44.29900 11.07000 37.24200
H  36.85000 8.18200 33.30500
H  38.09800 7.24300 27.11100
H  43.77900 10.08200 27.49400
H  40.90100 9.63800 35.56900
H  37.96300 9.76700 35.03300
H  38.17300 7.83300 36.23300
H  39.84600 7.77700 36.10200
H  38.77900 7.27600 34.63300
H  38.97700 11.81300 35.51400
H  40.39300 12.28500 34.59000
H  41.42200 12.82400 36.48800
H  41.37100 11.09700 37.02600
H  35.19600 6.89500 32.69300
H  35.42700 5.43800 31.64500
H  34.35900 6.63500 31.14500
H  33.96100 6.10500 28.99000
H  34.76000 4.78300 29.85400
H  34.43000 4.44800 28.29400
H  39.74900 9.06800 25.56900
H  42.48400 8.09700 26.04400
H  39.56700 6.22700 25.67000
H  41.09500 6.49000 25.04900
H  39.93100 7.37300 24.29100
H  41.91600 9.40500 24.38000
H  43.17100 10.32500 25.39100
H  40.39400 11.23600 26.01000
H  40.94200 11.41000 24.33700
H  41.82200 12.10100 25.79700
H  45.11600 12.66300 28.86200
H  45.85600 11.07100 28.72300
H  46.23500 12.04000 30.01200
H  42.77300 12.38300 34.23600
H  43.57800 11.36400 38.00500
H  45.21600 11.65600 37.31100
H  44.66600 10.05600 37.40000

