158

Mg 43.00000 41.81700 26.51400
C  42.07300 44.21000 28.84200
C  44.16000 39.91800 28.95700
C  43.95700 39.66900 24.14300
C  42.95400 44.43700 24.13300
N  42.87100 41.99200 28.66300
C  42.46200 43.05800 29.43600
C  42.51500 42.67500 30.91600
C  43.47700 41.43900 30.85500
C  43.49700 41.10200 29.40500
C  44.91700 41.71300 31.47500
C  41.12000 42.35700 31.48300
C  40.59600 43.02200 32.76300
H  41.51400 43.03300 33.94500
N  43.85900 40.05100 26.56500
C  44.27800 39.38600 27.64800
C  44.66100 38.03000 27.36800
C  44.58400 37.93700 25.90300
C  44.07000 39.27200 25.47100
C  45.09700 36.94500 28.36200
C  44.80100 36.70500 24.96700
O  44.83700 36.68900 23.76300
C  44.88400 35.39100 25.61400
N  43.37900 42.02000 24.42700
C  43.80900 41.00700 23.68700
C  43.82700 41.40100 22.16700
C  43.35000 42.93200 22.21900
C  43.17800 43.16700 23.71200
C  45.22800 41.29500 21.52000
C  41.96100 43.21400 21.51500
C  40.67300 42.86700 22.32500
N  42.44100 43.90500 26.38600
C  42.49900 44.85300 25.40900
C  41.91200 46.11900 25.81200
C  41.69600 45.88300 27.19600
C  42.10300 44.55500 27.47200
C  41.66900 47.32000 25.02200
C  41.26200 46.50300 28.46100
O  40.93400 47.65800 28.63100
C  41.51600 45.37400 29.58800
C  42.29100 45.92500 30.68900
O  43.51700 46.08700 30.67100
O  41.50700 46.10300 31.77200
C  42.22900 46.39500 32.98400
H  44.60400 39.35500 29.78100
H  44.09800 38.96100 23.32400
H  42.90400 45.17400 23.32900
H  42.84100 43.41700 31.64400
H  43.14600 40.56600 31.41800
H  45.10700 40.92700 32.20600
H  44.92000 42.65500 32.02300
H  45.66300 41.58600 30.69000
H  41.06800 41.28700 31.68700
H  40.40700 42.54700 30.68100
H  39.65200 42.57000 33.06900
H  40.33400 44.05300 32.52500
H  46.17200 36.90000 28.18700
H  44.66600 35.95200 28.23300
H  44.87000 37.23200 29.38900
H  44.76800 34.66300 24.81100
H  43.97600 35.26400 26.20400
H  45.75500 35.37700 26.27000
H  43.12700 40.75100 21.64300
H  44.08500 43.60100 21.77000
H  46.03500 40.91100 22.14500
H  45.58700 42.25800 21.15800
H  45.17900 40.71100 20.60100
H  41.88700 42.57900 20.63200
H  41.98900 44.27100 21.25100
H  40.46100 41.80400 22.21200
H  39.90200 43.45700 21.82900
H  40.69700 42.97900 23.40900
H  42.02900 48.22800 25.50700
H  40.59500 47.35500 24.84000
H  42.15600 47.19500 24.05500
H  40.56400 45.06500 30.02100
H  42.92700 45.58300 33.18800
H  41.69000 46.40600 33.93100
H  42.65200 47.39900 32.96300
Mg 30.52100 57.80100 40.40600
C  27.66100 56.15700 38.92600
C  32.46300 55.13800 39.60200
C  33.12900 59.82400 40.79500
C  28.31100 60.50700 41.13600
N  30.12700 55.95700 39.26700
C  28.87700 55.39300 38.80900
C  29.05700 53.99900 38.32200
C  30.38700 53.57300 38.97900
C  31.09600 54.97400 39.28500
C  30.32100 52.58000 40.12700
C  29.00700 54.05300 36.76300
C  28.16500 52.95600 36.03300
H  27.41900 53.49800 34.76300
N  32.54400 57.60400 40.12900
C  33.16800 56.39700 39.89500
C  34.59200 56.52800 39.94900
C  34.86400 57.89700 40.09900
C  33.53400 58.53900 40.34000
C  35.51500 55.38500 39.78500
C  36.25300 58.54100 40.28200
O  37.31400 57.85900 40.15800
C  36.46200 59.97900 40.46500
N  30.60500 59.88300 40.66400
C  31.87700 60.43700 40.98300
C  31.66400 61.90800 41.33600
C  30.18500 62.01200 41.63900
C  29.70000 60.72200 41.09100
C  32.57200 62.47400 42.36000
C  29.51600 63.35200 41.06700
C  28.39000 63.97700 41.90800
N  28.38000 58.23800 40.21400
C  27.64800 59.32300 40.64700
C  26.25700 59.19100 40.22100
C  26.18500 57.88100 39.59100
C  27.50800 57.40600 39.57700
C  25.16800 60.16400 40.51100
C  25.34300 56.79100 38.86200
O  24.13800 56.84200 38.60400
C  26.26200 55.74300 38.55500
C  25.89400 54.59500 39.38500
O  25.78100 54.57900 40.57700
O  25.51500 53.61700 38.53600
C  24.67700 52.53700 39.00700
H  33.06800 54.23600 39.49100
H  34.00500 60.47000 40.87500
H  27.63900 61.29300 41.48700
H  28.20300 53.39100 38.62200
H  30.84800 53.06900 38.13000
H  30.93700 53.05600 40.88900
H  30.78100 51.64900 39.79500
H  29.29100 52.45800 40.46100
H  29.99900 53.96900 36.31900
H  28.56600 54.98500 36.40700
H  27.26500 52.74200 36.61000
H  28.78000 52.07700 35.84100
H  35.44300 55.09200 38.73800
H  35.21400 54.61100 40.49000
H  36.52600 55.51300 40.17300
H  36.19900 60.24600 41.48800
H  35.85700 60.50800 39.72900
H  37.44100 60.31200 40.11900
H  31.85600 62.36700 40.36600
H  29.95700 62.00700 42.70500
H  33.15000 61.67700 42.82800
H  32.07800 63.01100 43.16900
H  33.09900 63.24600 41.79900
H  28.99900 62.99600 40.17600
H  30.15500 64.07500 40.56000
H  28.04700 63.35100 42.73200
H  27.53700 64.17600 41.25900
H  28.71000 64.91800 42.35500
H  25.37700 60.49900 41.52700
H  24.23000 59.61100 40.47600
H  25.17300 61.00900 39.82200
H  26.27900 55.52000 37.48800
H  24.48700 51.92500 38.12600
H  23.81000 52.83800 39.59400
H  25.20400 51.87800 39.69800

