158

Mg 23.85700 -6.48600 44.96000
C  26.05900 -4.03900 43.66400
C  21.39000 -5.25800 42.83100
C  21.82500 -9.04000 45.85500
C  26.59100 -8.11900 46.36800
N  23.73900 -4.74400 43.56400
C  24.76300 -3.91300 43.10700
C  24.27900 -3.03900 41.93000
C  22.69300 -3.28600 41.93600
C  22.62100 -4.54300 42.77900
C  21.74600 -2.21300 42.61500
C  25.09000 -3.41000 40.60700
C  25.86800 -2.34400 39.90600
H  25.31400 -2.06500 38.47300
N  21.83900 -6.97100 44.53300
C  20.99100 -6.33900 43.60100
C  19.66300 -6.91500 43.67100
C  19.76700 -7.98400 44.61600
C  21.17800 -8.03600 45.02000
C  18.47900 -6.41300 42.95100
C  18.67800 -9.02000 44.88400
O  17.63900 -8.88400 44.27200
C  18.84900 -10.17500 45.80600
N  24.21300 -8.40000 45.92500
C  23.17500 -9.24500 46.17100
C  23.69400 -10.63300 46.71100
C  25.20400 -10.29100 47.04600
C  25.40100 -8.84900 46.35900
C  23.14400 -11.32900 48.03100
C  26.22300 -11.32400 46.54800
C  27.18400 -11.94200 47.53400
N  25.93300 -6.15700 45.03900
C  26.93400 -6.86700 45.72200
C  28.21900 -6.10900 45.65700
C  27.89400 -5.00700 44.81800
C  26.50400 -5.07600 44.52700
C  29.51400 -6.62300 46.26100
C  28.49500 -3.93100 44.13200
O  29.68600 -3.60800 44.05900
C  27.30100 -3.25600 43.35300
C  27.26200 -1.82800 43.69900
O  27.38200 -1.26700 44.82000
O  27.08700 -1.20500 42.58600
C  27.13200 0.26700 42.63100
H  20.53100 -4.87200 42.27800
H  21.29000 -9.97100 46.05200
H  27.47900 -8.54000 46.84300
H  24.43000 -1.96900 42.07400
H  22.42900 -3.59800 40.92500
H  21.71100 -2.44400 43.67900
H  20.74900 -2.11100 42.18600
H  22.19000 -1.22300 42.50800
H  24.36000 -3.79100 39.89300
H  25.77700 -4.25500 40.64800
H  26.90500 -2.67900 39.93900
H  25.75900 -1.41600 40.46700
H  18.43400 -7.02700 42.05100
H  18.69600 -5.35100 42.84000
H  17.60300 -6.58100 43.57800
H  17.89500 -10.67400 45.97300
H  19.15600 -9.71800 46.74700
H  19.54200 -10.91900 45.41300
H  23.71500 -11.34600 45.88800
H  25.46900 -10.02000 48.06800
H  22.69300 -12.29700 47.81300
H  22.44000 -10.66200 48.52800
H  23.97500 -11.40200 48.73300
H  26.88000 -10.97300 45.75200
H  25.64800 -12.16700 46.16400
H  27.10200 -11.50100 48.52700
H  28.19400 -11.80100 47.15000
H  26.96100 -12.99700 47.69700
H  30.12900 -7.09500 45.49500
H  29.30500 -7.39600 47.00200
H  30.03400 -5.75200 46.65800
H  27.54700 -3.31500 42.29200
H  27.60300 0.79600 43.46000
H  26.12100 0.63000 42.44700
H  27.65600 0.42400 41.68900
Mg 55.45700 23.93000 45.02100
C  53.05200 26.42600 44.41400
C  53.39300 21.57800 43.68600
C  58.07800 21.86400 44.81700
C  57.59100 26.46000 46.18100
N  53.56200 24.09900 43.96200
C  52.69200 25.12300 43.92900
C  51.33400 24.69000 43.39000
C  51.36400 23.18700 43.69800
C  52.87400 22.87900 43.74900
C  50.70900 22.80800 45.09200
C  51.00900 25.01600 41.96100
C  49.61100 24.63400 41.48900
H  49.38600 24.52600 39.95400
N  55.71900 21.92200 44.26900
C  54.69900 21.20300 43.78700
C  55.22100 19.87300 43.52100
C  56.66300 19.91300 43.72500
C  56.91000 21.26400 44.30800
C  54.35100 18.82700 43.01600
C  57.65900 18.81600 43.45000
O  57.37200 17.68600 43.08700
C  59.14900 19.04000 43.60700
N  57.55600 24.22400 45.31700
C  58.34900 23.10500 45.36100
C  59.81600 23.44100 45.90700
C  59.66100 24.90800 46.26600
C  58.18400 25.22900 45.88700
C  60.33600 22.46200 47.08100
C  60.66000 25.96300 45.72100
C  61.75100 26.48900 46.66100
N  55.34800 26.02400 45.34200
C  56.30100 26.92400 45.84700
C  55.76500 28.28300 45.89400
C  54.44900 28.06100 45.35500
C  54.25900 26.72000 44.98100
C  56.31200 29.53900 46.32400
C  53.14800 28.78700 45.11300
O  52.87100 29.97100 45.24000
C  52.22000 27.72400 44.47800
C  51.68000 28.22500 43.15900
O  52.30500 28.48600 42.18000
O  50.34400 28.38000 43.28900
C  49.52700 28.57300 42.05600
H  52.72500 20.79300 43.32600
H  58.96100 21.22500 44.75200
H  58.26300 27.21300 46.59800
H  50.49200 25.12000 43.93300
H  50.82800 22.60400 42.94900
H  50.04900 23.58700 45.47400
H  51.44900 22.46300 45.81400
H  49.90900 22.09300 44.89900
H  51.68800 24.40300 41.36700
H  51.29000 26.03800 41.71000
H  48.99800 25.38600 41.98600
H  49.18200 23.74200 41.94600
H  55.00100 17.95300 42.96800
H  53.98800 19.02700 42.00800
H  53.49300 18.54500 43.62600
H  59.40700 19.97200 43.10300
H  59.73200 18.15100 43.36600
H  59.24300 19.20700 44.68000
H  60.35800 23.33300 44.96700
H  59.58600 25.14300 47.32800
H  60.76400 22.97100 47.94600
H  61.19000 21.95200 46.63500
H  59.55300 21.74100 47.31300
H  60.12800 26.78400 45.24000
H  61.26500 25.46600 44.96400
H  62.66600 26.42200 46.07200
H  61.70800 25.86200 47.55100
H  61.58500 27.56200 46.76000
H  56.67300 30.19600 45.53300
H  57.19800 29.28500 46.90400
H  55.57700 30.05400 46.94400
H  51.36700 27.60900 45.14700
H  48.90400 29.43800 42.28500
H  48.97200 27.63500 42.02800
H  50.13900 28.82500 41.19000

