158

Mg 47.02100 25.52200 28.11700
C  48.18300 27.79800 30.49700
C  46.26300 23.37300 30.66900
C  46.35200 23.30500 25.75900
C  48.69900 27.51900 25.61400
N  47.27500 25.54600 30.32100
C  47.48700 26.71500 30.99400
C  47.10400 26.57200 32.47600
C  46.46600 25.11400 32.53300
C  46.69000 24.61400 31.07100
C  47.09300 24.29300 33.63900
C  46.16900 27.71600 33.02500
C  45.35200 27.46500 34.22000
H  45.21100 28.58000 35.31500
N  46.22500 23.69700 28.22400
C  45.94400 22.98400 29.36500
C  45.34900 21.76600 28.89200
C  45.29400 21.73700 27.44900
C  45.98300 22.94600 27.08100
C  44.62400 20.86800 29.89800
C  44.65800 20.67300 26.56400
O  44.80200 20.64900 25.29800
C  44.04100 19.37700 27.03200
N  47.26300 25.54800 25.96400
C  46.84700 24.48300 25.22500
C  47.12000 24.77200 23.72200
C  47.79000 26.18600 23.69100
C  48.02000 26.43500 25.18200
C  48.03800 23.74300 23.04700
C  47.12200 27.37500 22.96700
C  47.98700 28.22900 22.08400
N  48.24200 27.41400 28.02200
C  48.91400 27.97900 26.98100
C  49.68600 29.00600 27.50900
C  49.37700 29.11300 28.84000
C  48.52800 27.99900 29.16200
C  50.63200 29.84600 26.68300
C  49.67900 29.75800 30.10500
O  50.44400 30.69300 30.35600
C  48.87900 28.99000 31.19000
C  49.90500 28.57900 32.18600
O  50.33400 27.43800 32.36800
O  49.96000 29.65300 33.10500
C  50.50600 29.39400 34.44900
H  46.03800 22.68600 31.48700
H  46.27500 22.51600 25.00800
H  49.23400 28.01500 24.80200
H  47.92300 26.60700 33.19500
H  45.39500 25.26200 32.67400
H  46.33300 24.17400 34.41100
H  47.93600 24.75000 34.15700
H  47.44900 23.31500 33.31600
H  45.51600 27.89400 32.17100
H  46.74400 28.63300 33.15000
H  45.74300 26.57400 34.71000
H  44.31900 27.19700 34.00000
H  43.58700 20.66000 29.63300
H  44.53900 21.36700 30.86300
H  45.21200 19.95700 30.00900
H  44.05900 18.74800 26.14300
H  42.98900 19.53200 27.27000
H  44.60800 18.87700 27.81700
H  46.17700 24.75600 23.17600
H  48.81100 26.01300 23.35300
H  48.41000 23.96800 22.04800
H  47.39500 22.86400 23.01000
H  48.87300 23.39700 23.65600
H  46.57700 28.09300 23.57900
H  46.42000 26.87300 22.30000
H  47.58500 28.15300 21.07300
H  49.04500 27.96800 22.05700
H  47.86700 29.24900 22.44900
H  51.65000 29.57200 26.96000
H  50.37300 30.87700 26.92700
H  50.32000 29.79000 25.64000
H  48.13400 29.70400 31.54100
H  50.69100 28.32000 34.47200
H  49.88100 29.69700 35.28900
H  51.46400 29.90500 34.54000
Mg -10.33800 38.39800 40.95400
C  -8.45200 35.41900 40.70900
C  -8.05600 40.13800 39.18200
C  -12.58600 40.87000 40.62800
C  -12.93000 36.34000 42.42400
N  -8.66600 37.70600 39.78700
C  -7.95300 36.51800 39.96700
C  -6.61000 36.53300 39.34000
C  -6.54900 38.05100 38.82700
C  -7.86100 38.71400 39.27000
C  -5.18400 38.75500 39.27100
C  -6.38700 35.58000 38.16200
C  -4.95800 35.10200 38.21000
H  -3.95200 35.53900 37.10000
N  -10.26000 40.34800 40.13200
C  -9.19100 40.93300 39.47800
C  -9.49200 42.29600 39.15000
C  -10.86300 42.49400 39.52100
C  -11.25700 41.20500 40.15900
C  -8.59900 43.15800 38.36700
C  -11.65000 43.77800 39.26100
O  -11.20000 44.65600 38.51000
C  -13.07800 43.98300 39.78900
N  -12.46300 38.48600 41.38200
C  -13.17400 39.67100 41.13700
C  -14.71600 39.49400 41.38100
C  -14.77200 37.97600 41.83700
C  -13.27200 37.56000 41.94100
C  -15.24400 40.47500 42.46500
C  -15.57500 36.93600 40.92200
C  -16.91600 36.35800 41.58000
N  -10.64500 36.32300 41.49400
C  -11.72600 35.67700 42.09500
C  -11.31600 34.28200 42.36700
C  -9.98900 34.21200 41.92800
C  -9.64000 35.41600 41.34100
C  -12.12700 33.25200 43.05600
C  -8.87300 33.30100 41.86500
O  -8.85800 32.16700 42.31700
C  -7.78500 34.02600 41.05500
C  -6.53100 34.14600 41.88000
O  -5.74800 33.24500 42.12400
O  -6.30800 35.43100 42.31000
C  -5.16500 35.80700 43.14400
H  -7.25000 40.77800 38.81800
H  -13.31200 41.67800 40.51500
H  -13.73300 35.79400 42.92300
H  -5.82200 36.42800 40.08600
H  -6.64300 38.12200 37.74300
H  -4.38300 38.01800 39.21700
H  -5.23700 39.11700 40.29800
H  -5.03800 39.62600 38.63200
H  -6.71200 36.13400 37.28100
H  -7.02000 34.69400 38.21700
H  -5.07100 34.02300 38.10600
H  -4.42500 35.30200 39.14000
H  -7.75100 42.67100 37.88600
H  -8.21000 44.01600 38.91400
H  -9.18200 43.61100 37.56500
H  -13.02600 43.72400 40.84600
H  -13.62100 43.24500 39.19900
H  -13.36200 45.00600 39.54000
H  -15.17600 39.47300 40.39300
H  -15.16800 37.94400 42.85200
H  -14.39000 40.95600 42.94100
H  -15.84600 39.93900 43.19900
H  -15.88700 41.18900 41.95000
H  -14.92500 36.10500 40.64900
H  -15.81100 37.33700 39.93700
H  -17.66800 37.07400 41.24700
H  -16.83800 36.24200 42.66100
H  -17.27700 35.44200 41.11200
H  -12.28700 32.33600 42.48800
H  -13.04400 33.79700 43.27800
H  -11.79500 32.91800 44.03900
H  -7.41300 33.42800 40.22200
H  -4.26500 35.76100 42.53100
H  -5.01400 35.21600 44.04700
H  -5.41600 36.81500 43.47300

