158

Mg 30.77700 58.75800 40.91700
C  27.92400 56.91500 39.92900
C  32.73300 56.26400 39.53000
C  33.51900 60.74500 41.34700
C  28.68600 61.43100 41.70300
N  30.34300 56.91000 39.72700
C  29.13600 56.32400 39.57600
C  29.22700 54.80100 39.05200
C  30.79800 54.65500 39.10400
C  31.30800 56.03500 39.45200
C  31.39300 53.37800 39.96600
C  28.60100 54.68900 37.67500
C  28.40700 55.90800 36.80800
H  28.09600 55.68400 35.36400
N  32.80700 58.51700 40.61000
C  33.38400 57.37300 40.03400
C  34.78700 57.60700 40.05400
C  35.07200 58.79700 40.71700
C  33.80000 59.40700 41.02700
C  35.76000 56.60100 39.34900
C  36.49700 59.39000 40.93600
O  37.51100 58.84200 40.49400
C  36.70300 60.55100 41.88300
N  31.05700 60.84500 41.37300
C  32.27200 61.39300 41.44300
C  32.12900 62.92100 41.60300
C  30.60500 63.10200 41.92300
C  30.05200 61.69300 41.68500
C  33.12900 63.62000 42.57600
C  30.05200 64.21400 41.02000
C  28.87600 65.06400 41.52500
N  28.70000 59.20300 40.85100
C  27.99400 60.27300 41.24400
C  26.58000 59.98900 41.12100
C  26.53200 58.66900 40.59000
C  27.82600 58.23200 40.49500
C  25.54900 61.01900 41.42200
C  25.60900 57.54400 40.24800
O  24.37900 57.46000 40.24100
C  26.52100 56.35500 39.80000
C  26.34300 55.20800 40.71800
O  26.86900 55.10700 41.79900
O  25.41400 54.44800 40.07300
C  24.88500 53.31900 40.88500
H  33.30400 55.41300 39.15300
H  34.36900 61.40400 41.15900
H  28.17700 62.38300 41.86600
H  28.72300 54.08800 39.70500
H  31.22300 54.45900 38.12000
H  30.61700 52.66400 40.24100
H  31.96300 53.53300 40.88100
H  32.19700 52.95100 39.36700
H  27.55400 54.39400 37.75300
H  29.12000 53.94200 37.07500
H  29.34100 56.46800 36.76100
H  27.54500 56.51300 37.09000
H  36.18000 57.22500 38.56000
H  35.27500 55.69400 38.98800
H  36.52200 56.20700 40.02100
H  36.87100 61.53200 41.43800
H  37.57000 60.38900 42.52200
H  35.91000 60.73900 42.60600
H  32.53900 63.31900 40.67500
H  30.46600 63.30100 42.98500
H  33.61800 64.44600 42.06000
H  33.89300 62.92300 42.92300
H  32.65300 63.95000 43.49900
H  29.71400 63.90700 40.03000
H  30.89900 64.89000 40.91000
H  28.11700 65.15000 40.74700
H  29.34100 66.04400 41.63500
H  28.49300 64.76800 42.50100
H  25.88100 62.05600 41.37400
H  25.10000 60.69800 42.36200
H  24.79200 60.89200 40.64800
H  26.45900 55.95700 38.78700
H  24.27300 53.55200 41.75700
H  25.68800 52.60400 41.06600
H  24.21700 52.76400 40.22800
Mg -6.27700 25.88900 26.25000
C  -5.00200 27.36100 29.08700
C  -8.08900 23.61900 28.35800
C  -7.29700 23.97300 23.58200
C  -4.41100 27.88100 24.29900
N  -6.45100 25.47000 28.46000
C  -5.98700 26.32900 29.43100
C  -6.51300 26.01600 30.77900
C  -7.28600 24.63400 30.47700
C  -7.23700 24.55200 28.98000
C  -6.89800 23.39100 31.22200
C  -7.44600 27.22100 31.41500
C  -7.15000 27.48400 32.87200
H  -6.87200 26.36100 33.91400
N  -7.52800 24.08400 25.99600
C  -8.09800 23.33100 26.96500
C  -8.72600 22.18500 26.44500
C  -8.52800 22.22800 25.01000
C  -7.77500 23.43100 24.80500
C  -9.38100 21.15600 27.34500
C  -9.02200 21.35800 23.83400
O  -8.74100 21.41700 22.66000
C  -10.12700 20.39000 24.18800
N  -5.91300 25.92900 24.19800
C  -6.49200 25.08700 23.20400
C  -5.95700 25.46800 21.82000
C  -5.18900 26.82300 22.09300
C  -5.14600 26.88800 23.61900
C  -5.15200 24.30500 21.10100
C  -5.75600 28.12500 21.52100
C  -4.87000 28.71800 20.49300
N  -4.85500 27.24900 26.56100
C  -4.21000 28.05100 25.70500
C  -3.44500 29.07300 26.42700
C  -3.73300 28.77900 27.74500
C  -4.57300 27.68200 27.75800
C  -2.65800 30.19800 25.83800
C  -3.46800 29.26600 29.08200
O  -2.79200 30.22100 29.45100
C  -4.31200 28.38000 29.98600
C  -3.30900 27.77300 30.85500
O  -2.57400 26.85500 30.44900
O  -3.37700 28.37900 32.03700
C  -2.42200 27.83300 33.00400
H  -8.72900 23.01800 29.00700
H  -7.59600 23.43700 22.67800
H  -3.94800 28.72800 23.78800
H  -5.72600 25.70000 31.46400
H  -8.35500 24.75300 30.65200
H  -6.70200 23.72800 32.24000
H  -6.08200 22.77400 30.84500
H  -7.75600 22.72000 31.21300
H  -8.50000 26.95500 31.32700
H  -7.28200 28.09500 30.78500
H  -8.08000 27.86100 33.29700
H  -6.29600 28.14700 33.00600
H  -10.14400 20.60700 26.79200
H  -9.93500 21.59300 28.17600
H  -8.69000 20.37900 27.67100
H  -10.51300 19.85800 23.31900
H  -10.91000 20.85300 24.79000
H  -9.63400 19.69000 24.86200
H  -6.85400 25.74300 21.26600
H  -4.12700 26.79600 21.85100
H  -4.18000 24.73700 20.86500
H  -5.84200 23.93000 20.34600
H  -5.02700 23.44600 21.76000
H  -5.82400 28.84000 22.34100
H  -6.74500 27.81800 21.18100
H  -4.31100 27.99300 19.90200
H  -4.15900 29.36100 21.01100
H  -5.52800 29.30000 19.84700
H  -1.67100 29.94500 26.22400
H  -3.14600 31.16100 25.99100
H  -2.49700 30.13600 24.76200
H  -4.95000 28.91500 30.68900
H  -1.91800 28.68400 33.46200
H  -1.67100 27.15100 32.60500
H  -2.93300 27.21300 33.74100

