158

Mg -0.90500 16.96500 26.86700
C  -1.31200 14.56200 29.46300
C  -1.71800 19.41500 28.94700
C  -0.64700 18.98600 24.23100
C  -0.62900 14.13100 24.63600
N  -1.43700 16.92700 29.06300
C  -1.52800 15.93700 29.95200
C  -1.84500 16.47300 31.39300
C  -1.98000 18.03800 31.14000
C  -1.70100 18.17000 29.64600
C  -3.27300 18.74700 31.52800
C  -0.71100 16.09900 32.41500
C  -0.39800 16.89700 33.73100
H  -0.28200 16.08500 35.10500
N  -1.10200 18.93600 26.64000
C  -1.52300 19.77200 27.61700
C  -1.72900 21.06300 27.05900
C  -1.25100 21.02500 25.72800
C  -0.99100 19.57600 25.48000
C  -2.09700 22.26300 27.87600
C  -1.01900 22.16900 24.75700
O  -0.56500 22.01000 23.64700
C  -1.44800 23.61700 25.17900
N  -0.90100 16.61100 24.70200
C  -0.55900 17.66900 23.90000
C  -0.23200 17.19700 22.43400
C  -0.07900 15.63200 22.59400
C  -0.57000 15.40500 24.03600
C  -1.31800 17.67300 21.38500
C  1.34300 15.11000 22.36700
C  2.37500 15.56400 23.43300
N  -0.99800 14.83200 26.97900
C  -0.91000 13.82800 25.99400
C  -1.00900 12.51500 26.58600
C  -1.20000 12.77100 27.94500
C  -1.13500 14.15000 28.15700
C  -0.89400 11.19400 25.99200
C  -1.45500 12.10800 29.14300
O  -1.57500 10.91000 29.41000
C  -1.53600 13.22800 30.23300
C  -0.55800 12.84300 31.35900
O  0.59700 13.09600 31.33900
O  -1.24200 12.26400 32.38200
C  -0.48400 11.73200 33.50600
H  -2.02000 20.23400 29.60200
H  -0.49000 19.66200 23.38700
H  -0.55900 13.22700 24.02700
H  -2.78500 15.98400 31.65300
H  -1.18300 18.64000 31.57800
H  -3.72900 19.27100 30.68800
H  -3.03400 19.51100 32.26800
H  -3.97100 18.08400 32.03800
H  0.21900 16.02000 31.85300
H  -0.96900 15.12800 32.83700
H  -1.25800 17.56300 33.81000
H  0.46400 17.51300 33.47600
H  -2.89700 22.83200 27.40100
H  -1.19000 22.85600 27.76000
H  -2.27500 22.07400 28.93500
H  -2.52300 23.62900 25.35600
H  -1.33500 24.27000 24.31400
H  -0.82000 23.97200 25.99600
H  0.74300 17.56700 22.11800
H  -0.67500 15.10200 21.85100
H  -0.88000 18.43200 20.73600
H  -2.19400 18.15000 21.82400
H  -1.72900 16.93800 20.69300
H  1.68900 15.45500 21.39200
H  1.32600 14.02200 22.31100
H  3.05900 14.79200 23.78300
H  1.94800 15.84600 24.39600
H  2.97300 16.41100 23.09800
H  -0.67500 10.52400 26.82300
H  -0.07800 11.29700 25.27700
H  -1.77900 10.89300 25.43200
H  -2.59000 13.23800 30.51200
H  -0.54600 10.64400 33.50300
H  -1.08900 11.94000 34.39000
H  0.52100 12.10500 33.70200
Mg 1.35900 7.12400 25.84000
C  2.23100 9.05100 28.61200
C  1.77400 4.29400 27.85900
C  0.69000 5.30000 23.20200
C  2.18300 9.88000 23.80600
N  1.97300 6.74200 28.02400
C  2.04100 7.73600 29.00900
C  2.09500 7.07100 30.38200
C  2.19700 5.54500 30.10200
C  2.01600 5.53700 28.54300
C  3.46200 4.79000 30.56800
C  0.84300 7.42200 31.33600
C  1.24400 7.77400 32.77700
H  2.48100 7.13000 33.43600
N  1.13500 5.09900 25.59200
C  1.41800 4.13300 26.50600
C  1.23400 2.81400 25.90200
C  0.82200 3.01200 24.51300
C  0.88200 4.51500 24.36800
C  1.34400 1.55700 26.74200
C  0.60300 2.01000 23.46500
O  0.46100 2.31600 22.30100
C  0.39300 0.60800 23.81600
N  1.48500 7.51800 23.78300
C  1.01700 6.63000 22.89200
C  0.98300 7.18800 21.43100
C  1.79200 8.50800 21.60200
C  1.84200 8.70200 23.14700
C  1.41500 6.30600 20.26700
C  1.32000 9.78000 20.82500
C  -0.05000 10.41000 21.18800
N  1.94200 9.06000 26.13400
C  2.23600 10.07000 25.20400
C  2.59800 11.28700 25.88800
C  2.58500 10.93400 27.21400
C  2.22300 9.57100 27.28300
C  2.79800 12.67300 25.25500
C  2.76600 11.41000 28.62500
O  3.00600 12.52100 29.09600
C  2.42900 10.25500 29.54400
C  3.55700 10.12000 30.53100
O  4.61800 9.56400 30.26200
O  3.31400 10.68500 31.73500
C  4.38500 10.75700 32.68600
H  1.79400 3.35900 28.42100
H  0.39200 4.65500 22.37300
H  2.47100 10.74500 23.20700
H  2.96500 7.49300 30.88700
H  1.37500 4.94400 30.49100
H  4.25200 4.66300 29.82700
H  3.17000 3.80800 30.94100
H  3.94000 5.34900 31.37300
H  0.29100 6.49600 31.50200
H  0.18800 8.16100 30.87600
H  0.38300 7.74300 33.44500
H  1.55300 8.81400 32.67100
H  0.40500 1.02700 26.90000
H  1.97900 1.69700 27.61700
H  1.88700 0.91300 26.05000
H  -0.29400 0.49800 24.65500
H  1.35800 0.19600 24.11300
H  -0.03400 0.13800 22.93000
H  -0.07700 7.34700 21.23400
H  2.83600 8.30500 21.36000
H  1.83400 5.46400 20.81800
H  2.09800 6.81400 19.58500
H  0.48300 6.06500 19.75500
H  1.47600 9.64600 19.75500
H  1.92900 10.68300 20.86400
H  -0.42400 10.68400 20.20100
H  0.04400 11.23200 21.89700
H  -0.70700 9.66800 21.64100
H  2.34200 12.72000 24.26600
H  3.87000 12.85500 25.16800
H  2.38700 13.37900 25.97600
H  1.48500 10.50300 30.02900
H  3.95100 10.96300 33.66500
H  5.10900 11.49900 32.35200
H  4.98200 9.84800 32.74300

