158

Mg 25.87200 2.06100 29.51500
C  27.83900 1.69100 32.45000
C  23.18900 2.72100 31.58300
C  23.87600 1.81200 26.80400
C  28.51500 0.64800 27.77800
N  25.63500 2.27100 31.77700
C  26.55400 2.18000 32.72800
C  26.03000 2.62100 34.06600
C  24.47700 2.81400 33.76700
C  24.41100 2.60100 32.25000
C  23.47800 1.86600 34.46500
C  26.76100 3.87700 34.71500
C  27.53100 3.59400 35.99100
H  27.22600 4.52100 37.20700
N  23.87100 2.24900 29.25900
C  22.92400 2.58900 30.22100
C  21.63800 2.79600 29.58600
C  21.82800 2.59100 28.23100
C  23.23700 2.16600 28.05200
C  20.37600 3.15700 30.31800
C  20.81500 2.87600 27.15000
O  21.01900 2.68300 25.94600
C  19.50200 3.34300 27.50900
N  26.20000 1.51800 27.61500
C  25.18100 1.42500 26.64000
C  25.80900 1.16200 25.18700
C  27.29700 0.88900 25.59600
C  27.41500 1.12800 27.07700
C  25.09700 0.06500 24.38800
C  28.30300 1.73300 24.70500
C  29.61300 1.05000 24.12600
N  27.79100 1.36100 29.98400
C  28.69600 0.73200 29.16400
C  29.81500 0.31300 29.87500
C  29.57500 0.75900 31.19100
C  28.27600 1.28700 31.16500
C  30.92700 -0.40100 29.24900
C  30.04400 0.82400 32.56200
O  31.11300 0.51100 33.04600
C  28.93700 1.38900 33.43000
C  28.65600 0.37600 34.48700
O  27.99100 -0.65500 34.34200
O  29.30800 0.72000 35.63600
C  29.21600 -0.25500 36.75300
H  22.33000 3.02300 32.18600
H  23.21700 1.77000 25.93400
H  29.32200 0.15600 27.23100
H  26.06600 1.72600 34.68700
H  24.22300 3.82400 34.08900
H  23.18200 0.93200 33.98900
H  22.55700 2.43300 34.60200
H  23.97100 1.52200 35.37500
H  26.06600 4.65400 35.03200
H  27.50200 4.28000 34.02500
H  28.60900 3.74500 35.93400
H  27.34000 2.60300 36.40300
H  20.07000 4.20300 30.29100
H  20.57900 3.02400 31.38100
H  19.49200 2.56300 30.08600
H  18.96800 2.63300 28.13900
H  18.91300 3.45600 26.59900
H  19.73900 4.22000 28.11200
H  25.77000 2.14100 24.71000
H  27.49100 -0.18200 25.54300
H  24.37600 -0.48900 24.98800
H  25.74000 -0.55400 23.76300
H  24.45500 0.67400 23.75200
H  28.64300 2.63500 25.21500
H  27.71700 2.15400 23.88800
H  29.88000 0.28800 24.85700
H  30.41800 1.78400 24.15300
H  29.42300 0.74800 23.09600
H  31.34800 0.25300 28.48500
H  30.49200 -1.36900 29.00000
H  31.75200 -0.64200 29.91900
H  29.41700 2.22600 33.93600
H  29.94500 -0.14100 37.55500
H  29.36700 -1.24300 36.31800
H  28.19400 -0.19600 37.12700
Mg 16.63700 51.45600 26.32100
C  18.50500 49.97700 28.89900
C  14.45900 52.63600 28.78100
C  14.78300 52.71800 23.92600
C  18.97900 50.18000 24.03800
N  16.35700 51.07200 28.50000
C  17.32800 50.60200 29.33100
C  17.06600 50.98300 30.85200
C  15.56400 51.41400 30.77400
C  15.44100 51.71400 29.24200
C  14.50100 50.38500 31.23500
C  18.05900 52.11400 31.33100
C  18.59600 51.96700 32.78300
H  17.75600 51.12700 33.74600
N  14.83200 52.44700 26.33300
C  14.09500 52.92400 27.42500
C  12.91700 53.66900 26.95100
C  13.05000 53.75600 25.59700
C  14.28700 52.94000 25.23800
C  12.01800 54.33700 27.97500
C  12.10800 54.39600 24.60600
O  12.37200 54.39500 23.41200
C  10.84900 54.91300 25.01300
N  16.78200 51.36700 24.26300
C  15.98300 52.15100 23.50300
C  16.39700 52.08000 22.05600
C  17.83400 51.41900 22.11200
C  17.90000 50.95100 23.55900
C  15.39800 51.42400 21.02100
C  19.06200 52.37800 21.78400
C  20.35700 51.68400 21.34400
N  18.34200 50.17800 26.32000
C  19.18100 49.77400 25.35200
C  20.30400 49.04200 25.93500
C  20.01700 49.03600 27.31400
C  18.82800 49.74600 27.51200
C  21.53200 48.51900 25.21600
C  20.47700 48.51600 28.58400
O  21.46800 47.78300 28.82700
C  19.49600 49.24000 29.71400
C  19.03900 48.33100 30.84000
O  18.22300 47.41700 30.75900
O  19.87200 48.52400 31.89700
C  19.99100 47.49600 32.87900
H  13.90200 52.94800 29.66700
H  14.29400 53.35200 23.18400
H  19.76600 49.94800 23.31800
H  17.12700 50.09700 31.48400
H  15.45200 52.31600 31.37500
H  13.85400 50.83100 31.99100
H  14.93500 49.54900 31.78400
H  13.97200 49.93200 30.39700
H  17.52000 53.06100 31.33000
H  18.81200 52.10900 30.54300
H  18.67300 53.01700 33.06200
H  19.63400 51.63200 32.80800
H  12.28800 53.97500 28.96700
H  10.98800 54.03600 27.78500
H  12.09600 55.42200 27.92200
H  11.04300 55.81600 25.59100
H  10.35900 54.34200 25.80200
H  10.18500 54.93400 24.14900
H  16.69400 53.08600 21.75900
H  17.83300 50.47600 21.56500
H  15.04400 50.45700 21.37900
H  16.10800 51.20000 20.22500
H  14.65300 52.05900 20.54100
H  19.28500 52.87400 22.72900
H  18.75800 53.05400 20.98400
H  21.07000 51.84100 22.15300
H  20.71100 52.15200 20.42600
H  20.30600 50.61000 21.16500
H  21.82200 49.15900 24.38300
H  21.28700 47.48900 24.95700
H  22.33800 48.52200 25.95000
H  20.15100 50.01500 30.11300
H  20.46500 46.54600 32.63200
H  19.02900 47.19800 33.29500
H  20.51400 47.96200 33.71400

