158

Mg 2.36900 -1.81400 44.02000
C  5.63500 -0.80100 43.32500
C  1.27400 1.10500 42.60100
C  -0.64300 -3.23600 43.62000
C  3.61700 -4.84600 45.34600
N  3.37500 -0.12100 42.92500
C  4.67100 0.18600 42.88300
C  4.88200 1.58000 42.36100
C  3.56300 2.26600 42.47000
C  2.65800 1.04600 42.72400
C  3.45600 3.39500 43.63800
C  5.52200 1.51200 40.92700
C  6.49900 2.68100 40.60900
H  6.31200 3.45500 39.25100
N  0.44700 -1.12300 43.35100
C  0.21400 0.13500 42.79600
C  -1.08300 0.25300 42.47200
C  -1.75200 -0.97400 42.88900
C  -0.68600 -1.86800 43.33900
C  -1.61400 1.45400 41.77700
C  -3.29500 -1.21800 42.72300
O  -4.06900 -0.31500 42.32500
C  -3.91300 -2.46800 43.08100
N  1.63400 -3.77500 44.44400
C  0.28800 -4.08300 44.23500
C  -0.00200 -5.50500 44.74100
C  1.29700 -5.92200 45.47100
C  2.26700 -4.80700 45.11700
C  -1.31700 -5.67200 45.52000
C  1.90400 -7.35600 44.95300
C  1.06700 -8.60300 45.25400
N  4.22000 -2.72100 44.24000
C  4.55000 -3.96800 44.84400
C  6.02200 -3.98000 44.86000
C  6.46300 -2.78200 44.31800
C  5.34700 -2.09400 43.94000
C  6.82500 -5.02400 45.53100
C  7.67600 -2.05400 43.95500
O  8.82300 -2.45800 44.08400
C  7.16600 -0.70600 43.31800
C  7.49600 0.38600 44.22400
O  7.24200 0.34100 45.41400
O  8.13300 1.38100 43.56900
C  8.34600 2.57500 44.47700
H  1.05100 2.06000 42.12100
H  -1.60600 -3.74800 43.56400
H  3.91400 -5.76900 45.84800
H  5.52600 2.17500 43.00800
H  3.42000 2.81400 41.53800
H  2.40200 3.29200 43.89900
H  3.66000 4.29500 43.05800
H  4.14900 3.35200 44.47800
H  4.71800 1.55800 40.19200
H  6.02600 0.58600 40.65100
H  7.48800 2.24000 40.73000
H  6.35100 3.31300 41.48500
H  -2.45700 1.19800 41.13400
H  -0.88300 1.82200 41.05800
H  -2.00300 2.21500 42.45300
H  -4.97500 -2.35300 43.29700
H  -3.53700 -2.98400 43.96400
H  -3.80700 -3.10700 42.20400
H  -0.11600 -6.05200 43.80500
H  1.07400 -5.91900 46.53800
H  -1.91000 -4.76100 45.60000
H  -1.09800 -5.95100 46.55100
H  -2.01500 -6.41700 45.13900
H  2.91100 -7.54700 45.32300
H  2.08700 -7.32000 43.87900
H  0.74500 -8.92700 44.26400
H  0.20500 -8.20800 45.79300
H  1.51500 -9.40300 45.84300
H  7.81700 -4.95500 45.08500
H  6.36000 -6.00700 45.46600
H  6.98800 -4.74100 46.57100
H  7.55900 -0.52700 42.31600
H  8.55600 2.44000 45.53800
H  7.45500 3.14200 44.21000
H  9.20100 3.09700 44.04600
Mg 24.30300 -5.63800 46.35300
C  26.58700 -3.58700 44.71200
C  21.90500 -4.62900 44.18100
C  22.71800 -8.52400 47.06300
C  27.32100 -7.21700 47.79100
N  24.25700 -4.32300 44.71300
C  25.27700 -3.58900 44.21700
C  24.73800 -2.45200 43.25200
C  23.20900 -2.64900 43.40700
C  23.08400 -3.93200 44.13500
C  22.41000 -1.49300 44.09800
C  25.35700 -2.81400 41.82400
C  25.86100 -1.58100 41.00300
H  25.48200 -1.57400 39.51000
N  22.53600 -6.43600 45.87200
C  21.66400 -5.82300 44.99500
C  20.49800 -6.67100 44.80000
C  20.68400 -7.80500 45.69200
C  21.99700 -7.65000 46.26600
C  19.35100 -6.38800 43.80500
C  19.60400 -8.88800 45.94700
O  18.68000 -8.93200 45.20100
C  19.77000 -9.85600 46.96100
N  24.93600 -7.54700 47.45000
C  24.01500 -8.53200 47.58700
C  24.44600 -9.60300 48.55000
C  25.97100 -9.16000 48.78600
C  26.14200 -7.93300 47.93900
C  23.56200 -9.77300 49.83400
C  27.02800 -10.32400 48.44300
C  28.02300 -10.69400 49.53800
N  26.45200 -5.23500 46.57700
C  27.53900 -5.94500 47.15300
C  28.73000 -5.17900 46.93400
C  28.42000 -4.28100 45.95400
C  27.04000 -4.35200 45.75300
C  30.05500 -5.47800 47.55600
C  28.96900 -3.27500 45.06300
O  30.04300 -2.73300 44.96700
C  27.78300 -2.72100 44.32700
C  27.52300 -1.35400 44.64600
O  27.18800 -0.91500 45.77700
O  27.81600 -0.54200 43.53000
C  27.75500 0.87000 43.79500
H  21.14600 -4.38400 43.43500
H  22.28500 -9.51700 47.19800
H  28.26200 -7.57800 48.21100
H  25.13700 -1.52100 43.65500
H  22.63500 -2.77300 42.48800
H  23.01400 -0.60000 44.26200
H  22.16300 -1.85600 45.09600
H  21.55400 -1.25200 43.46800
H  24.49500 -3.25700 41.32400
H  26.13400 -3.57200 41.92400
H  26.94100 -1.46000 41.08700
H  25.41700 -0.69600 41.45800
H  19.13600 -7.24600 43.16900
H  19.57200 -5.46700 43.26600
H  18.46500 -6.24400 44.42400
H  20.17200 -9.19900 47.73200
H  20.51400 -10.55000 46.57100
H  18.79800 -10.29800 47.18200
H  24.47000 -10.49900 47.93000
H  26.01300 -8.80000 49.81400
H  22.64800 -9.18600 49.74400
H  24.18900 -9.56100 50.70000
H  23.44000 -10.85600 49.81300
H  27.63600 -10.00200 47.59800
H  26.51800 -11.22200 48.09200
H  28.13100 -11.77700 49.60000
H  27.62100 -10.41800 50.51300
H  28.87100 -10.09900 49.19900
H  30.80700 -4.70200 47.41200
H  30.26900 -6.35300 46.94100
H  30.00600 -5.79300 48.59800
H  27.97700 -2.80500 43.25700
H  28.32700 1.34200 42.99700
H  28.05400 1.21200 44.78600
H  26.71500 1.16100 43.64700

