158

Mg 48.25100 45.22800 42.93000
C  44.67800 44.50700 42.77200
C  48.82600 41.92300 42.46400
C  51.33700 46.09600 42.49400
C  47.38300 48.76400 42.86600
N  46.85100 43.45900 42.68200
C  45.51500 43.37400 42.66500
C  45.00300 41.96600 42.39500
C  46.32100 41.12900 42.62600
C  47.43800 42.21000 42.57900
C  46.23000 40.22400 43.93400
C  44.55100 41.96800 40.85400
C  44.88300 42.95900 39.78900
H  44.80400 42.58400 38.25100
N  49.92000 44.12100 42.52600
C  49.97100 42.75600 42.43900
C  51.37600 42.38200 42.24300
C  52.10900 43.61500 42.08400
C  51.11500 44.67200 42.39000
C  51.84300 40.88600 42.27200
C  53.62500 43.73600 41.82000
O  54.28000 42.71200 41.82400
C  54.43100 44.93000 41.78600
N  49.15800 47.13600 42.70800
C  50.48100 47.24000 42.70300
C  50.98200 48.68500 43.01600
C  49.72900 49.49400 42.87200
C  48.71100 48.39300 42.82200
C  51.66800 48.89500 44.38800
C  49.74300 50.51300 41.68800
C  49.48000 52.00500 42.08400
N  46.43100 46.46500 42.91600
C  46.27600 47.84800 42.91400
C  44.86500 48.15500 42.99100
C  44.24900 46.89100 42.96300
C  45.20700 45.87600 42.84100
C  44.33200 49.54000 42.91100
C  42.88900 46.26700 42.98900
O  41.78800 46.81400 43.07800
C  43.13800 44.65200 42.89300
C  42.74200 44.20200 44.25800
O  41.81900 43.43900 44.46000
O  43.57800 44.64600 45.27000
C  43.49900 43.99900 46.60100
H  49.07600 40.86000 42.45700
H  52.37100 46.44700 42.48100
H  47.14200 49.82900 42.83800
H  44.18300 41.67700 43.05200
H  46.41600 40.40800 41.81400
H  45.26700 40.41100 44.41000
H  47.04100 40.38300 44.64500
H  46.26600 39.23600 43.47500
H  43.46500 41.87000 40.87400
H  44.89800 41.01600 40.45200
H  45.91400 43.26700 39.96200
H  44.20900 43.79600 39.97200
H  52.20000 40.52400 41.30800
H  51.06500 40.21100 42.62800
H  52.70500 40.87700 42.93900
H  54.54200 45.45200 42.73700
H  54.01000 45.56600 41.00700
H  55.41900 44.68200 41.39900
H  51.66300 48.97600 42.21600
H  49.41400 49.96800 43.80100
H  52.75600 48.96200 44.38300
H  51.48300 48.03700 45.03400
H  51.37100 49.78200 44.94700
H  49.07900 50.22300 40.87400
H  50.76200 50.43500 41.30800
H  48.92000 51.91400 43.01400
H  48.87000 52.33800 41.24400
H  50.47200 52.44600 42.18500
H  43.26200 49.69000 43.05300
H  44.53400 49.90400 41.90400
H  44.93300 50.13500 43.59900
H  42.56700 44.11200 42.13900
H  42.88800 44.59400 47.27900
H  44.50200 44.08100 47.02000
H  43.20000 42.95300 46.53100
Mg 4.03900 53.96300 41.45200
C  4.37600 50.66800 40.57500
C  7.18900 54.63600 40.11100
C  3.47800 57.27700 42.02700
C  0.70200 53.23400 42.65800
N  5.50500 52.78100 40.40900
C  5.51900 51.41600 40.23600
C  6.88900 50.88500 39.75100
C  7.70900 52.18400 39.75800
C  6.74200 53.27700 40.16300
C  9.12000 52.13500 40.38400
C  6.87300 50.21900 38.45900
C  5.89200 50.62000 37.31400
H  6.44500 51.32000 36.05000
N  5.13300 55.75500 40.94900
C  6.44300 55.79900 40.51900
C  6.84700 57.16800 40.43200
C  5.79000 57.97600 40.95200
C  4.75500 57.01700 41.35500
C  8.11400 57.63800 39.81800
C  5.81800 59.46800 41.05800
O  6.82900 60.13100 40.71800
C  4.56800 60.18600 41.34300
N  2.33900 55.07800 42.17600
C  2.42000 56.40400 42.41600
C  1.04800 56.91700 42.98800
C  0.10500 55.67500 42.94200
C  1.09100 54.59000 42.59000
C  1.25800 57.45300 44.49900
C  -1.10700 55.71700 41.99800
C  -2.33500 54.98400 42.61800
N  2.83200 52.30100 41.77700
C  1.51000 52.11400 42.27800
C  1.27600 50.68900 42.40800
C  2.39500 50.05500 41.72500
C  3.24500 51.10400 41.29900
C  -0.02000 50.06100 42.97100
C  2.95800 48.81400 41.46100
O  2.47100 47.74600 41.64100
C  4.24100 49.12600 40.62400
C  3.97800 48.50700 39.30200
O  3.06900 48.84100 38.50100
O  4.90300 47.53400 39.11400
C  4.75700 46.52800 38.05600
H  8.27800 54.71500 40.08500
H  3.25100 58.30900 42.30300
H  -0.29600 53.02400 43.05000
H  7.30900 50.14300 40.43000
H  7.85400 52.41600 38.70300
H  9.76700 51.43900 39.85100
H  9.01700 51.86600 41.43500
H  9.64300 53.08200 40.24800
H  6.78200 49.14300 38.60900
H  7.92700 50.29000 38.19000
H  5.05100 51.17900 37.72500
H  5.44600 49.66800 37.02500
H  8.48900 56.78300 39.25400
H  8.81800 57.83600 40.62500
H  8.00200 58.59700 39.31300
H  4.27700 60.12100 42.39200
H  3.78900 59.72100 40.73900
H  4.61700 61.26300 41.18800
H  0.57400 57.64300 42.32700
H  -0.18800 55.41500 43.95900
H  2.24700 57.89200 44.63000
H  1.03100 56.66800 45.22100
H  0.46000 58.16200 44.71500
H  -0.85500 55.45800 40.97000
H  -1.43400 56.75500 41.93600
H  -3.18900 55.65800 42.68300
H  -2.18300 54.60400 43.62800
H  -2.55500 54.12200 41.98700
H  0.11500 48.98100 43.04400
H  -0.85700 50.16600 42.28000
H  -0.14700 50.57200 43.92500
H  5.19000 48.72800 40.98300
H  5.03800 46.85800 37.05600
H  3.79200 46.03700 38.18200
H  5.46200 45.73700 38.31400

