158

Mg 42.25400 41.42100 26.68700
C  41.44300 43.54400 29.31700
C  43.20800 39.04700 28.97200
C  43.36900 39.46400 24.08700
C  41.51900 43.92500 24.46100
N  42.28300 41.34100 28.93900
C  41.94000 42.35200 29.78800
C  42.17700 41.87900 31.24800
C  42.59600 40.41900 31.15200
C  42.64000 40.14900 29.59500
C  43.96700 40.02300 31.75200
C  41.08600 42.35100 32.24000
C  40.64800 41.38500 33.32400
H  39.96600 41.78100 34.62500
N  43.27300 39.54800 26.53100
C  43.51600 38.76700 27.59200
C  43.99800 37.48900 27.05500
C  44.01000 37.53800 25.62600
C  43.55500 38.90400 25.36400
C  44.46200 36.41700 28.05300
C  44.49700 36.48700 24.67900
O  44.46200 36.63600 23.48100
C  44.83200 35.12300 25.15700
N  42.43100 41.61800 24.57800
C  42.80500 40.65000 23.70000
C  42.68500 41.01600 22.22500
C  41.83000 42.32100 22.38300
C  41.98800 42.73300 23.86800
C  44.07400 41.14900 21.54300
C  40.43800 42.16000 21.79900
C  39.41600 41.61600 22.69700
N  41.70200 43.36900 26.78700
C  41.44900 44.30000 25.86700
C  40.88000 45.48000 26.43700
C  40.86900 45.18900 27.77600
C  41.49100 43.95200 27.97500
C  40.58500 46.68800 25.57900
C  40.48800 45.71000 29.05800
O  39.99700 46.83200 29.25100
C  40.88900 44.74200 30.09700
C  41.76400 45.39800 31.06600
O  43.01200 45.35700 31.07600
O  41.01400 46.14800 31.91300
C  41.68400 46.46400 33.28100
H  43.63800 38.36400 29.70800
H  43.58300 38.87100 23.19600
H  41.10700 44.57700 23.68800
H  43.02100 42.53500 31.46000
H  41.93600 39.71700 31.66200
H  44.76800 40.23100 31.04300
H  43.88500 38.98800 32.08200
H  44.18300 40.76800 32.51700
H  40.19900 42.47800 31.61900
H  41.40300 43.35700 32.51500
H  41.53100 40.80700 33.59700
H  40.01200 40.66200 32.81400
H  45.42800 36.16400 27.61700
H  43.69300 35.64500 28.09700
H  44.64700 36.72800 29.08100
H  45.73400 35.05600 25.76600
H  44.90700 34.49600 24.26900
H  43.96800 34.92400 25.79100
H  42.14800 40.18500 21.76900
H  42.17800 43.13100 21.74100
H  44.82400 40.85400 22.27700
H  44.37400 42.16200 21.27500
H  44.15700 40.44600 20.71400
H  40.54800 41.60400 20.86800
H  40.22600 43.19500 21.52900
H  39.91200 41.18700 23.56800
H  38.87200 40.86000 22.13100
H  38.73200 42.36900 23.08900
H  41.42700 46.89000 24.91700
H  40.27800 47.55300 26.16800
H  39.64500 46.41500 25.10000
H  39.92300 44.62700 30.58900
H  42.07900 45.53500 33.69300
H  41.01500 46.79600 34.07500
H  42.47900 47.19400 33.12700
Mg 26.61800 49.94500 27.06300
C  24.43800 50.84500 29.59200
C  29.00100 49.16200 29.42600
C  28.62300 49.05900 24.69100
C  24.15400 51.00400 24.75600
N  26.77500 50.14000 29.23300
C  25.66800 50.32700 30.04400
C  26.06300 50.17100 31.57600
C  27.52200 49.78700 31.46800
C  27.81300 49.70200 29.99700
C  28.55600 50.67500 32.18700
C  25.09000 49.12300 32.29700
C  24.28100 49.60800 33.52700
H  24.39100 48.72800 34.80100
N  28.60500 49.25600 26.99800
C  29.41500 48.98100 28.10200
C  30.64600 48.48000 27.61600
C  30.59700 48.43700 26.17200
C  29.23600 48.91500 25.87400
C  31.70100 47.96300 28.48900
C  31.59900 48.00100 25.10200
O  31.38700 48.10000 23.91200
C  33.02400 47.52800 25.50800
N  26.44500 50.28700 24.99600
C  27.40500 49.70300 24.23300
C  26.88300 49.50200 22.77500
C  25.49200 50.07800 22.83500
C  25.30700 50.45700 24.28000
C  27.82800 50.16000 21.81000
C  24.30200 49.24600 22.27300
C  23.98700 47.90300 22.93100
N  24.77100 50.88500 27.10300
C  23.88400 51.25100 26.13600
C  22.74700 51.84700 26.69100
C  22.90900 51.66200 28.03600
C  24.15900 51.12800 28.27200
C  21.51500 52.27500 25.90400
C  22.26300 51.71400 29.27200
O  21.12300 52.14600 29.48100
C  23.23800 51.21600 30.42300
C  23.56900 52.45300 31.26900
O  24.20900 53.48500 30.95200
O  22.86400 52.28400 32.34400
C  22.82400 53.28800 33.31000
H  29.75300 48.80600 30.13300
H  29.06400 48.61300 23.79700
H  23.34500 51.25500 24.06700
H  26.01800 51.18300 31.97800
H  27.66300 48.77300 31.84200
H  28.71800 51.57900 31.60000
H  29.46500 50.13100 32.44200
H  28.09200 50.89500 33.14800
H  25.74500 48.31900 32.63300
H  24.50200 48.56200 31.57100
H  23.30600 49.61600 33.03800
H  24.52000 50.62900 33.82500
H  31.74400 46.87600 28.41200
H  31.88900 48.30100 29.50800
H  32.65700 48.34400 28.12800
H  33.57100 47.19700 24.62500
H  32.96400 46.63700 26.13300
H  33.50800 48.33700 26.05500
H  26.75100 48.43200 22.61200
H  25.50200 51.07800 22.40200
H  28.66000 50.68500 22.27800
H  27.31700 50.91600 21.21500
H  28.15000 49.36300 21.14000
H  24.46300 49.01200 21.22100
H  23.40000 49.85300 22.35800
H  22.91700 47.70000 22.96400
H  24.48300 47.85100 23.90000
H  24.50600 47.17200 22.31000
H  21.10700 51.50100 25.25400
H  21.87500 53.15100 25.36400
H  20.78100 52.42400 26.69600
H  22.76200 50.41600 30.99100
H  23.00700 54.30900 32.97300
H  23.62000 53.08200 34.02600
H  21.83000 53.25700 33.75600

