158

Mg 1.70300 -2.04400 44.11700
C  5.13600 -1.20300 44.03600
C  0.94100 0.83500 42.55300
C  -1.44000 -3.22300 43.80400
C  2.71200 -5.42300 45.00200
N  2.93200 -0.44200 43.23100
C  4.32100 -0.24200 43.41200
C  4.83500 1.13600 43.06600
C  3.46300 1.86800 42.74400
C  2.37500 0.69800 42.72000
C  3.06500 3.00100 43.77300
C  5.89800 1.21700 41.96900
C  5.82200 0.11200 40.94700
H  6.80300 0.16100 39.71600
N  -0.07200 -1.25700 43.30200
C  -0.16000 -0.03900 42.68500
C  -1.57500 0.20600 42.39400
C  -2.32100 -0.89900 42.84900
C  -1.30200 -1.83100 43.34500
C  -2.09400 1.49000 41.71700
C  -3.85300 -1.03200 42.85600
O  -4.54300 -0.09800 42.36000
C  -4.63700 -2.19500 43.35900
N  0.82000 -4.00400 44.28200
C  -0.50600 -4.16600 44.14500
C  -0.97100 -5.52900 44.52900
C  0.37000 -6.31500 44.95600
C  1.34700 -5.20200 44.73000
C  -2.06500 -5.62800 45.63000
C  0.53600 -7.57900 44.10500
C  0.34400 -8.84900 44.88900
N  3.52200 -3.10500 44.46300
C  3.75900 -4.48800 44.75500
C  5.19300 -4.64400 44.98000
C  5.77000 -3.35500 44.84800
C  4.70600 -2.49000 44.44400
C  5.88000 -5.89700 45.35600
C  7.00900 -2.64200 44.75200
O  8.14100 -2.95800 45.04200
C  6.58200 -1.19300 44.36200
C  6.91000 -0.20300 45.35800
O  6.42000 -0.17100 46.43600
O  7.74500 0.78700 44.85700
C  8.15400 1.71700 45.85100
H  0.66700 1.87600 42.36700
H  -2.48500 -3.49300 43.97200
H  3.06900 -6.41000 45.30600
H  5.25700 1.52200 43.99400
H  3.57600 2.31800 41.75800
H  2.16600 2.54700 44.18900
H  2.82500 3.88700 43.18500
H  3.79200 3.02200 44.58500
H  6.84600 1.14500 42.50300
H  5.91000 2.19100 41.47900
H  4.82200 0.12400 40.51100
H  5.91700 -0.89300 41.35900
H  -2.93200 1.43500 41.02300
H  -1.34000 1.94900 41.07700
H  -2.35400 2.19300 42.50900
H  -4.31600 -3.20400 43.10300
H  -5.68000 -2.18200 43.04200
H  -4.48200 -2.10400 44.43400
H  -1.42000 -5.85500 43.59000
H  0.37700 -6.46100 46.03700
H  -1.88900 -4.72000 46.20700
H  -1.91100 -6.49300 46.27500
H  -3.02500 -5.63500 45.11400
H  1.51600 -7.70200 43.64300
H  -0.15500 -7.63600 43.26400
H  -0.56200 -9.32700 44.51500
H  0.17500 -8.65700 45.94800
H  1.12800 -9.60500 44.92600
H  6.83200 -5.60200 45.79500
H  6.11100 -6.45300 44.44700
H  5.33300 -6.46000 46.11100
H  7.13400 -1.02100 43.43800
H  8.05600 2.70900 45.41100
H  9.19800 1.55500 46.11900
H  7.75500 1.62800 46.86100
Mg 42.09100 41.77100 26.53400
C  41.01100 44.03100 28.95400
C  43.26800 39.73000 28.96400
C  43.19400 39.74200 24.07800
C  41.37700 44.23900 24.11400
N  42.12500 41.95200 28.65700
C  41.54100 42.86800 29.45000
C  41.58600 42.50800 30.92200
C  42.31200 41.12500 30.86500
C  42.66300 40.92800 29.42100
C  43.57900 40.93800 31.78300
C  40.18400 42.42400 31.71200
C  40.24600 42.98800 33.21000
H  39.39700 42.29400 34.33600
N  43.13800 39.96400 26.55100
C  43.50300 39.21400 27.66200
C  44.00800 37.97500 27.20600
C  44.03800 37.97500 25.77300
C  43.50400 39.24400 25.35800
C  44.45600 36.97800 28.14800
C  44.54100 37.00500 24.67700
O  44.90100 37.23300 23.49200
C  44.92500 35.62400 25.21600
N  42.28300 42.01900 24.41000
C  42.63100 40.95400 23.66700
C  42.25100 41.20300 22.20300
C  41.92700 42.76300 22.12500
C  41.84300 43.05200 23.67200
C  43.22700 40.67700 21.13300
C  40.67300 43.09300 21.26800
C  40.45400 44.44000 20.66100
N  41.34000 43.67400 26.48100
C  41.20500 44.59400 25.44900
C  40.73600 45.88200 25.96400
C  40.53400 45.62500 27.32600
C  40.95100 44.32000 27.59400
C  40.53800 47.06500 25.14400
C  40.05500 46.16500 28.51500
O  39.52800 47.25800 28.75200
C  40.27300 45.14600 29.63500
C  41.24900 45.82100 30.57400
O  42.42400 46.03500 30.39000
O  40.66500 45.83100 31.83400
C  41.49200 46.33100 32.90000
H  43.29100 38.96400 29.74100
H  43.52800 38.94500 23.41000
H  41.08000 45.00600 23.39600
H  42.23800 43.25700 31.37200
H  41.68500 40.29100 31.18000
H  43.44700 41.46400 32.72800
H  44.41200 41.49800 31.35900
H  43.90900 39.91300 31.95300
H  39.93100 41.36300 31.71300
H  39.42700 43.05900 31.25300
H  39.91300 44.02500 33.22400
H  41.28000 42.94400 33.55400
H  44.49600 37.33900 29.17500
H  45.41500 36.55100 27.85300
H  43.70700 36.18700 28.19000
H  44.84400 34.93100 24.37900
H  44.13900 35.36200 25.92400
H  45.84700 35.60700 25.79700
H  41.27700 40.71300 22.18600
H  42.84000 43.22700 21.75200
H  44.19800 40.34600 21.50100
H  43.49400 41.49300 20.46100
H  42.88300 39.81900 20.55600
H  39.77200 42.96100 21.86800
H  40.51200 42.28700 20.55300
H  40.72200 44.23900 19.62400
H  41.05700 45.19900 21.15800
H  39.41100 44.74500 20.75500
H  39.49000 47.36200 25.16300
H  40.79400 46.91900 24.09400
H  40.91100 47.96600 25.63100
H  39.32200 44.96300 30.13400
H  41.82400 45.39600 33.35000
H  40.90800 46.90700 33.61800
H  42.27100 47.04800 32.64100

