158

Mg -2.87000 17.82000 27.32100
C  -2.90000 15.61600 29.93900
C  -3.17200 20.42900 29.34900
C  -3.06100 19.72400 24.46600
C  -2.69300 14.84100 25.13000
N  -3.06700 17.95700 29.39400
C  -2.89000 16.99500 30.31800
C  -3.15500 17.53900 31.74900
C  -3.26600 19.06800 31.53700
C  -3.18800 19.16800 29.98500
C  -4.55900 19.71800 32.07700
C  -2.06100 17.09500 32.77800
C  -1.80500 17.91000 34.03400
H  -1.87400 17.20400 35.40000
N  -2.92200 19.81100 26.96100
C  -3.02600 20.73900 27.92800
C  -3.19800 22.09100 27.33100
C  -2.93000 21.85700 25.91200
C  -3.01900 20.38400 25.70600
C  -3.41200 23.41400 28.13200
C  -2.53400 22.86400 24.81900
O  -2.43800 22.53500 23.65700
C  -2.22300 24.31900 25.19100
N  -3.04000 17.31600 25.10500
C  -3.14700 18.31800 24.16000
C  -3.25500 17.67500 22.69700
C  -3.03800 16.17300 22.95200
C  -2.93300 16.07600 24.47000
C  -4.43000 18.08000 21.87700
C  -1.73300 15.52900 22.32000
C  -0.45300 15.92100 22.85600
N  -2.89700 15.63900 27.44800
C  -2.63600 14.61700 26.49800
C  -2.67800 13.33800 27.17600
C  -2.87900 13.68800 28.52400
C  -2.85500 15.07000 28.64200
C  -2.62200 11.99800 26.52100
C  -3.12800 13.14100 29.79900
O  -3.17300 11.91900 30.16800
C  -2.99200 14.39200 30.77600
C  -1.80100 14.25200 31.58900
O  -0.67800 14.66600 31.27200
O  -2.13900 13.29300 32.55400
C  -1.06600 12.93500 33.48700
H  -2.96200 21.30400 29.96800
H  -3.00800 20.25900 23.51600
H  -2.45100 13.91300 24.60800
H  -4.08100 17.08100 32.09600
H  -2.45300 19.62600 32.00000
H  -5.25800 20.02200 31.29800
H  -4.26200 20.47900 32.79800
H  -5.10700 19.03100 32.72100
H  -1.13600 17.05600 32.20200
H  -2.39100 16.11200 33.11300
H  -2.59500 18.66000 34.00200
H  -0.84700 18.35800 33.77100
H  -3.94800 24.10700 27.48300
H  -2.52600 24.01200 28.34500
H  -3.94600 23.23400 29.06500
H  -3.11300 24.86200 25.51000
H  -2.06700 24.70900 24.18500
H  -1.34800 24.58000 25.78700
H  -2.36900 18.18000 22.31100
H  -3.88100 15.67800 22.47000
H  -4.93500 17.19700 21.48600
H  -4.30000 18.58700 20.92100
H  -5.13300 18.68400 22.45000
H  -1.65000 15.70100 21.24700
H  -1.82200 14.45800 22.50100
H  -0.13000 14.94500 23.21700
H  -0.52400 16.68200 23.63300
H  0.24800 16.23100 22.08100
H  -3.46600 11.94100 25.83400
H  -2.71300 11.10500 27.13900
H  -1.66200 11.87700 26.01800
H  -3.96300 14.35600 31.26900
H  -0.09300 13.13400 33.03700
H  -1.15800 11.91900 33.87000
H  -1.14200 13.61300 34.33800
Mg 55.46200 25.37100 45.57100
C  52.59600 27.10200 44.47100
C  54.08600 22.45600 44.79900
C  58.56000 24.09300 45.74400
C  56.79300 28.58500 46.59900
N  53.66100 24.92700 44.80000
C  52.59800 25.65600 44.37200
C  51.30700 24.80800 44.03700
C  51.71600 23.36100 44.65600
C  53.30800 23.55700 44.86600
C  51.07300 22.90000 45.95600
C  51.05900 24.76000 42.51500
C  49.51500 24.70600 42.23300
H  49.04100 23.59300 41.23700
N  56.19300 23.47000 45.41900
C  55.50400 22.43800 44.91500
C  56.38300 21.33100 44.74400
C  57.62500 21.70300 45.18300
C  57.52700 23.12700 45.57700
C  55.86800 20.00000 44.28600
C  58.87200 20.79600 45.23800
O  58.79600 19.64400 44.82700
C  60.23000 21.22000 45.78400
N  57.37800 26.21500 46.01500
C  58.50500 25.46900 46.04100
C  59.77400 26.25000 46.49600
C  59.18200 27.69900 46.61400
C  57.63900 27.53600 46.41100
C  60.47900 25.69000 47.75200
C  60.01400 28.69200 45.67800
C  59.57500 28.84700 44.19400
N  54.79100 27.44500 45.54800
C  55.46000 28.60900 46.04100
C  54.52200 29.71100 45.87600
C  53.40000 29.19000 45.27500
C  53.63100 27.82500 45.08000
C  54.87200 31.04000 46.42200
C  52.08600 29.49600 44.70400
O  51.43800 30.49400 44.58600
C  51.62300 28.10300 44.05400
C  51.51100 28.32000 42.54400
O  52.37900 28.58200 41.76300
O  50.24200 28.22000 42.20700
C  49.90900 28.43500 40.80000
H  53.65300 21.48500 44.54600
H  59.59200 23.74400 45.67500
H  57.33200 29.48000 46.91600
H  50.40000 25.12000 44.55500
H  51.58100 22.56400 43.92500
H  50.53200 21.95700 45.87300
H  50.31100 23.55000 46.38700
H  51.81000 22.92400 46.75900
H  51.46700 23.82400 42.13400
H  51.55300 25.61200 42.04700
H  49.24800 25.70400 41.88500
H  48.96200 24.54800 43.15900
H  54.93400 19.92000 44.84300
H  56.31500 19.07400 44.64900
H  55.73800 19.98200 43.20400
H  60.86200 21.60500 44.98400
H  60.68900 20.40400 46.34400
H  60.01800 21.94600 46.56900
H  60.49300 26.15200 45.68200
H  59.32000 28.02900 47.64400
H  61.54100 25.93800 47.74200
H  60.47800 24.60500 47.85800
H  59.98900 25.99600 48.67700
H  61.05400 28.37200 45.62300
H  60.05400 29.68400 46.12800
H  59.51800 29.86000 43.79700
H  58.63300 28.30900 44.08700
H  60.29600 28.44500 43.48300
H  55.92300 31.14000 46.69400
H  54.39700 31.26100 47.37800
H  54.53900 31.72400 45.64200
H  50.62000 27.90000 44.42900
H  49.51700 29.44800 40.70600
H  49.11900 27.73900 40.51700
H  50.68800 28.50500 40.04000

