158

Mg -12.63900 37.42400 41.61700
C  -10.19300 34.89600 41.02900
C  -10.48800 39.67700 40.02700
C  -15.03300 39.82700 41.44800
C  -14.94200 34.98800 42.51800
N  -10.72200 37.20400 40.49200
C  -9.87300 36.07500 40.36200
C  -8.49100 36.50100 39.85700
C  -8.48800 38.03900 39.92600
C  -10.01900 38.31000 40.15200
C  -7.60400 38.76900 40.93400
C  -8.29400 35.89300 38.46400
C  -7.06800 35.04800 38.56500
H  -5.92600 35.56900 37.76800
N  -12.66800 39.50200 40.93700
C  -11.68000 40.23400 40.39000
C  -11.96600 41.60400 40.25100
C  -13.39300 41.68900 40.60300
C  -13.79400 40.32400 40.99800
C  -11.01700 42.64700 39.87100
C  -14.25000 42.88600 40.52700
O  -13.82200 43.95800 40.06800
C  -15.68700 42.98400 41.05900
N  -14.71200 37.37600 41.85100
C  -15.48600 38.51100 41.77000
C  -16.94600 38.23600 42.13900
C  -16.98100 36.65000 42.44500
C  -15.47900 36.25400 42.15600
C  -17.51100 39.06400 43.26900
C  -17.98300 35.83700 41.60800
C  -18.55800 34.71000 42.45100
N  -12.61700 35.38500 41.83000
C  -13.57900 34.56600 42.34000
C  -12.95400 33.25800 42.57800
C  -11.62600 33.35400 42.08600
C  -11.45400 34.64200 41.59400
C  -13.69700 32.08200 43.24300
C  -10.35300 32.67200 41.80300
O  -10.06600 31.47900 42.03400
C  -9.33600 33.66400 41.11500
C  -8.00900 33.80400 41.83300
O  -7.10500 33.00700 41.57900
O  -7.90800 34.94000 42.64100
C  -6.68100 35.14200 43.44100
H  -9.81000 40.34800 39.49500
H  -15.81700 40.57200 41.59400
H  -15.68600 34.32000 42.95600
H  -7.75800 36.11600 40.56600
H  -8.30800 38.41700 38.92000
H  -8.13200 38.92800 41.87400
H  -7.27100 39.64300 40.37500
H  -6.74600 38.14100 41.17400
H  -8.16500 36.65600 37.69700
H  -9.19200 35.41800 38.06900
H  -7.50900 34.16100 38.11000
H  -6.63700 34.84200 39.54400
H  -11.07800 42.70200 38.78400
H  -10.02200 42.39800 40.24100
H  -11.28600 43.63600 40.24200
H  -16.48600 42.48300 40.51200
H  -15.91400 44.04800 40.99700
H  -15.65600 42.64800 42.09500
H  -17.50000 38.46900 41.23000
H  -17.02600 36.54600 43.52900
H  -18.46000 38.72000 43.67900
H  -17.65800 40.05600 42.84300
H  -16.87400 39.17300 44.14700
H  -17.39700 35.41200 40.79300
H  -18.77600 36.50500 41.27100
H  -19.64700 34.70100 42.49100
H  -18.30500 34.71900 43.51100
H  -18.19100 33.76000 42.06300
H  -14.27600 31.54000 42.49500
H  -14.33700 32.50000 44.01900
H  -12.94200 31.41900 43.66600
H  -8.99800 33.47800 40.09600
H  -6.30900 36.10900 43.10200
H  -5.86500 34.50800 43.09300
H  -6.79300 34.95700 44.50900
Mg 1.56500 42.26300 26.05300
C  2.61300 42.35500 29.39100
C  -1.41800 41.05300 26.96800
C  0.72500 41.85500 22.70400
C  4.69300 43.55200 25.08000
N  0.77200 41.75300 27.98400
C  1.25600 42.01600 29.27500
C  0.25800 41.60500 30.33500
C  -0.88000 40.90000 29.49000
C  -0.51500 41.25900 28.08600
C  -1.17000 39.37200 29.62900
C  -0.15100 42.84500 31.16800
C  -0.34300 42.62400 32.73200
H  -1.00200 41.25500 33.07300
N  -0.18400 41.70100 25.05000
C  -1.38400 41.24000 25.57200
C  -2.36700 41.07900 24.50300
C  -1.74300 41.22700 23.26500
C  -0.30300 41.54200 23.61100
C  -3.82600 40.69900 24.89000
C  -2.28100 40.99300 21.85000
O  -1.60000 41.12200 20.85000
C  -3.79900 40.71700 21.72500
N  2.67400 42.40500 24.22000
C  2.02100 42.34900 22.99800
C  2.87200 42.99400 21.88300
C  3.87800 43.83700 22.66200
C  3.68000 43.33200 24.14400
C  3.46000 41.95400 20.86400
C  3.61600 45.40200 22.57100
C  3.96300 45.82900 21.09100
N  3.40000 42.76100 26.97600
C  4.62600 43.23700 26.46000
C  5.60400 43.31100 27.50400
C  4.91300 42.96500 28.68900
C  3.52800 42.64400 28.34500
C  7.06000 43.73300 27.40200
C  4.96500 42.77800 30.12600
O  5.98700 42.75900 30.86000
C  3.51500 42.54200 30.60600
C  3.56200 41.39700 31.56300
O  4.01000 40.22300 31.33800
O  2.81300 41.67200 32.68900
C  2.74700 40.56900 33.69100
H  -2.36000 40.64800 27.34300
H  0.48000 41.61600 21.66700
H  5.49400 44.23900 24.79800
H  0.76200 40.89700 30.99300
H  -1.80000 41.42600 29.74500
H  -1.02300 38.88000 28.66800
H  -2.18800 39.24700 29.99900
H  -0.51700 38.89200 30.35800
H  -0.98000 43.38800 30.71400
H  0.74300 43.46600 31.11400
H  -1.01400 43.44900 32.97300
H  0.59500 42.73200 33.27600
H  -4.01400 40.79500 25.96000
H  -4.05800 39.67400 24.60000
H  -4.56600 41.35100 24.42600
H  -3.93000 39.80200 22.30200
H  -3.92900 40.38700 20.69500
H  -4.40400 41.57000 22.03400
H  2.12000 43.59100 21.36700
H  4.87900 43.60800 22.29800
H  4.49000 41.85100 21.20500
H  3.23000 42.34300 19.87200
H  2.90300 41.02200 20.96200
H  4.29500 45.98500 23.19300
H  2.60500 45.63300 22.90600
H  4.32300 45.01500 20.46200
H  4.75300 46.56700 20.94800
H  3.04300 46.34200 20.81100
H  7.50300 43.37200 26.47400
H  7.51300 43.24500 28.26500
H  7.08200 44.81900 27.49300
H  3.27000 43.49400 31.07600
H  2.26200 40.99700 34.56800
H  3.74500 40.19500 33.92100
H  2.23300 39.72100 33.24000

