158

Mg 46.78100 24.74800 28.83900
C  47.64600 27.29500 31.02900
C  46.17500 22.67900 31.59600
C  46.45800 22.13400 26.76100
C  47.72200 26.64000 26.05900
N  46.76500 25.02500 31.02100
C  47.10800 26.15500 31.68800
C  46.75200 25.96600 33.13400
C  46.53200 24.46800 33.37300
C  46.49100 23.98300 31.89100
C  47.65000 23.76500 34.21500
C  45.52400 26.88100 33.59000
C  45.39900 27.22400 35.12600
H  46.32900 26.75300 36.13600
N  46.25300 22.75400 29.10800
C  46.12300 22.06600 30.32500
C  45.91900 20.67200 30.07200
C  45.91100 20.51600 28.63000
C  46.22000 21.84400 28.09200
C  45.82700 19.61000 31.16500
C  45.66500 19.24600 27.83700
O  45.53100 19.20300 26.62400
C  45.45300 17.99500 28.53000
N  47.06200 24.35300 26.73300
C  46.83200 23.26800 26.12100
C  47.12100 23.38200 24.60800
C  47.11100 24.95900 24.38300
C  47.26900 25.42400 25.82500
C  48.41000 22.64000 24.12100
C  45.85000 25.49900 23.72200
C  44.49600 25.15300 24.39100
N  47.53600 26.57300 28.57300
C  47.91500 27.16200 27.42200
C  48.59400 28.42200 27.81100
C  48.46900 28.52500 29.17100
C  47.82500 27.34200 29.60500
C  49.26500 29.35200 26.83200
C  48.82600 29.30100 30.35300
O  49.48700 30.33500 30.33000
C  48.21200 28.59900 31.56600
C  49.38900 28.35200 32.43800
O  50.40800 27.67800 32.23000
O  49.02800 28.94000 33.67900
C  50.09800 28.68900 34.72500
H  45.92700 22.08500 32.47900
H  46.16500 21.37500 26.03300
H  47.99300 27.37800 25.30100
H  47.63100 26.21300 33.73000
H  45.54000 24.19300 33.73100
H  47.39000 22.90900 34.83700
H  48.37000 24.42900 34.69300
H  48.20300 23.09700 33.55600
H  44.64200 26.30900 33.30000
H  45.43800 27.83800 33.07500
H  44.37200 26.99900 35.41500
H  45.26800 28.29100 35.30800
H  45.94800 19.89400 32.21000
H  46.60400 18.86700 30.98300
H  44.91300 19.05800 30.94400
H  46.29600 17.80000 29.19300
H  45.43700 17.28200 27.70600
H  44.55100 17.78500 29.10500
H  46.37000 22.94500 23.95000
H  47.98900 25.22700 23.79500
H  49.27300 23.05200 24.64400
H  48.49700 22.88000 23.06200
H  48.45100 21.56300 24.28900
H  45.88700 25.04800 22.73000
H  46.02700 26.55800 23.53700
H  44.61000 24.37100 25.14200
H  43.93400 24.65300 23.60100
H  44.02000 26.05800 24.76600
H  50.22500 28.98800 26.46400
H  49.42300 30.24000 27.44400
H  48.63700 29.57100 25.96800
H  47.55200 29.30800 32.06400
H  51.12100 28.54900 34.37800
H  49.75000 27.73400 35.11900
H  50.10800 29.49700 35.45700
Mg 6.41500 53.62600 41.19500
C  5.74700 50.12200 40.99000
C  9.57800 53.02000 40.17800
C  6.76100 56.95000 40.62900
C  2.98300 54.02800 41.86400
N  7.41300 51.65200 40.25600
C  7.08000 50.37100 40.49500
C  8.25200 49.41000 40.09800
C  9.49800 50.38400 40.25900
C  8.81200 51.78600 40.25800
C  10.42700 50.11400 41.45000
C  8.10300 48.78300 38.71900
C  7.98700 49.74900 37.45000
H  6.78900 49.63900 36.54300
N  7.90400 54.79500 40.23800
C  9.17200 54.35500 39.95900
C  10.03900 55.47400 39.68700
C  9.27500 56.64900 39.88200
C  7.91400 56.18800 40.19400
C  11.51200 55.23900 39.45000
C  9.77300 58.05500 39.80600
O  10.95200 58.35800 39.58300
C  8.87900 59.34900 40.07300
N  5.02300 55.24500 41.03400
C  5.53000 56.52300 41.07400
C  4.38300 57.51500 41.30100
C  3.16600 56.58900 41.52900
C  3.75000 55.18000 41.53400
C  4.72600 58.66000 42.30100
C  2.01500 56.79100 40.53100
C  1.21700 58.11300 40.81600
N  4.71100 52.42600 41.50300
C  3.40700 52.71800 41.84300
C  2.72000 51.54300 42.14800
C  3.61600 50.48900 42.00400
C  4.78600 51.10500 41.38300
C  1.32200 51.49000 42.57500
C  3.75700 49.09300 42.07000
O  3.01700 48.17800 42.40400
C  5.07800 48.80700 41.30500
C  4.72100 48.15000 40.04300
O  4.01600 48.67300 39.13500
O  5.42700 46.96300 39.91000
C  5.20300 46.10300 38.68200
H  10.63200 52.81300 39.98100
H  6.84700 58.03800 40.66500
H  1.93900 54.21600 42.12200
H  8.39900 48.64900 40.86400
H  10.06600 50.35400 39.32900
H  11.46000 49.85800 41.21300
H  10.10100 49.23100 42.00100
H  10.48600 50.96400 42.12900
H  7.17900 48.20600 38.73200
H  8.92900 48.09700 38.52900
H  8.78000 49.63400 36.71100
H  8.00500 50.74400 37.89500
H  11.75400 54.93300 38.43200
H  11.88600 54.40000 40.03600
H  12.10200 56.10800 39.73800
H  8.08400 59.35600 39.32700
H  9.47600 60.24900 39.92300
H  8.43300 59.26500 41.06400
H  4.13000 58.01300 40.36500
H  2.78400 56.63100 42.54900
H  4.06700 58.55000 43.16200
H  4.55400 59.67100 41.93300
H  5.78000 58.68100 42.58000
H  1.35800 55.92200 40.54800
H  2.38200 56.84200 39.50500
H  1.45500 58.86400 40.06300
H  1.54500 58.42700 41.80700
H  0.13700 57.98300 40.74300
H  1.36700 51.31900 43.65100
H  0.97600 50.60300 42.04500
H  0.84900 52.45700 42.40100
H  5.77600 48.12900 41.79700
H  6.20900 46.02000 38.27100
H  4.43800 46.45100 37.98700
H  4.99700 45.12500 39.11600

