158

Mg 24.68100 -7.05800 45.36700
C  26.96800 -4.51500 44.24600
C  22.28100 -5.66400 43.39500
C  23.06600 -10.00100 45.60400
C  27.46800 -8.56200 47.00300
N  24.71800 -5.26800 44.00800
C  25.70700 -4.41000 43.64100
C  25.17700 -3.35900 42.63300
C  23.62400 -3.58200 42.72600
C  23.51700 -4.91700 43.38900
C  22.89600 -2.47600 43.45400
C  25.66500 -3.55300 41.24000
C  26.26100 -2.25100 40.53300
H  26.03800 -2.25400 39.02500
N  22.83700 -7.67600 44.67800
C  22.01300 -7.00400 43.86800
C  20.83400 -7.80600 43.49900
C  20.96400 -9.01800 44.16300
C  22.34500 -8.96700 44.86200
C  19.73900 -7.33900 42.58800
C  19.85100 -10.10500 44.24700
O  18.83500 -10.02000 43.59800
C  19.98700 -11.26400 45.26400
N  25.16200 -8.95400 46.31900
C  24.34900 -10.00300 46.24800
C  24.90600 -11.22700 47.00200
C  26.24200 -10.77100 47.42400
C  26.26200 -9.32900 46.97500
C  24.01600 -11.73500 48.13600
C  27.40200 -11.74800 46.90000
C  28.71300 -11.70300 47.65100
N  26.73900 -6.57900 45.74200
C  27.70100 -7.30100 46.38600
C  28.94200 -6.47900 46.48200
C  28.74800 -5.43500 45.63500
C  27.35600 -5.54100 45.16600
C  30.21500 -6.92900 47.23100
C  29.26000 -4.22100 45.02700
O  30.39300 -3.84300 45.08900
C  28.14100 -3.57400 44.15600
C  27.86000 -2.21700 44.71800
O  27.42400 -1.98600 45.82900
O  27.85900 -1.33500 43.66900
C  27.38700 0.01000 43.74200
H  21.55400 -5.10200 42.80400
H  22.69700 -11.02800 45.56700
H  28.22400 -9.13600 47.54300
H  25.34900 -2.37000 43.06000
H  23.21000 -3.74600 41.73100
H  22.07200 -2.88000 44.04200
H  22.42000 -1.83200 42.71400
H  23.59000 -1.92400 44.08800
H  24.81100 -3.85800 40.63600
H  26.45600 -4.30200 41.28500
H  27.31500 -2.26700 40.81100
H  25.88200 -1.30400 40.91500
H  19.81000 -7.90000 41.65600
H  19.83300 -6.25900 42.47600
H  18.73200 -7.42500 42.99600
H  19.02500 -11.77500 45.21600
H  20.21600 -10.92700 46.27500
H  20.71200 -12.03500 45.00500
H  25.04000 -11.98600 46.23100
H  26.29900 -10.82900 48.51100
H  24.60000 -11.88400 49.04400
H  23.49000 -12.65900 47.89700
H  23.23900 -11.01700 48.39700
H  27.64800 -11.56000 45.85500
H  26.98800 -12.75600 46.92900
H  29.51900 -11.19400 47.12300
H  29.13200 -12.70600 47.72100
H  28.58900 -11.34400 48.67300
H  30.10700 -6.90200 48.31500
H  31.06100 -6.36000 46.84700
H  30.37500 -7.97800 46.98100
H  28.67200 -3.44400 43.21300
H  27.49600 0.38200 44.76100
H  26.32600 0.12800 43.52200
H  28.06300 0.66400 43.19100
Mg 48.77100 35.20500 27.92100
C  46.77800 33.57000 30.33500
C  48.58400 38.01200 30.00400
C  50.14600 36.98300 25.46900
C  48.43600 32.38400 25.88100
N  47.90900 35.72100 30.01400
C  47.20800 34.82300 30.81900
C  47.15200 35.37800 32.20000
C  47.17000 36.88400 31.86000
C  47.93500 36.92700 30.59100
C  45.72800 37.60400 31.83100
C  48.43200 34.97900 33.08700
C  48.05400 34.80100 34.58600
H  47.21900 35.85600 35.26900
N  49.38000 37.19800 27.75400
C  49.29100 38.12500 28.80600
C  49.91700 39.35200 28.24900
C  50.33900 39.15500 26.89500
C  49.99600 37.71900 26.64000
C  50.07800 40.58800 29.12400
C  51.08100 40.08400 25.78600
O  51.56600 39.75600 24.72400
C  51.37100 41.52400 26.15600
N  49.15900 34.74200 25.96300
C  49.81000 35.65400 25.11100
C  49.94300 35.08300 23.75700
C  49.63000 33.58300 23.94000
C  49.08200 33.52800 25.35500
C  49.00800 35.89400 22.73000
C  50.92500 32.65600 23.86100
C  50.87300 31.75100 22.63600
N  47.76900 33.35300 28.01600
C  47.77200 32.34400 27.10700
C  47.00200 31.20000 27.71900
C  46.48600 31.68200 28.93000
C  47.08800 32.95900 29.12600
C  46.84700 29.81900 27.20700
C  45.79500 31.31700 30.12900
O  45.20700 30.28400 30.41700
C  45.78900 32.60600 30.97200
C  45.93700 32.20100 32.39000
O  46.99400 31.95500 32.92700
O  44.68800 32.19100 33.01800
C  44.74500 32.04200 34.49000
H  48.63100 38.90500 30.63100
H  50.51200 37.52800 24.59700
H  48.50800 31.49000 25.25800
H  46.31300 35.04300 32.80800
H  47.84700 37.40000 32.54000
H  44.87500 36.95500 32.03300
H  45.51600 37.95700 30.82100
H  45.67000 38.55400 32.36200
H  49.27300 35.67000 33.13400
H  48.78000 34.02000 32.70300
H  49.01700 34.65800 35.07800
H  47.44800 33.91200 34.75800
H  49.22200 41.26200 29.08400
H  50.95100 41.20700 28.91900
H  50.10500 40.34500 30.18700
H  52.07900 41.73700 26.95800
H  50.34300 41.83000 26.34800
H  51.78100 42.03500 25.28500
H  50.96200 35.22900 23.40100
H  48.82800 33.31600 23.25100
H  48.45200 36.50900 23.43700
H  48.21700 35.27300 22.31100
H  49.51400 36.49400 21.97400
H  50.96900 31.95200 24.69200
H  51.88400 33.17100 23.82400
H  51.13900 30.72300 22.88300
H  51.70400 32.01500 21.98100
H  49.97400 31.77700 22.02000
H  47.68400 29.48900 26.59100
H  45.95300 29.80000 26.58400
H  46.69700 29.18200 28.07800
H  44.79600 33.03300 30.83100
H  43.75200 32.01000 34.93700
H  45.22800 32.94400 34.86700
H  45.39400 31.21900 34.79300

