158

Mg 34.92100 49.12700 25.92400
C  35.90300 47.14300 28.59600
C  34.05000 51.60200 28.19500
C  33.92700 50.88900 23.35900
C  35.92200 46.59100 23.84000
N  35.13100 49.37400 28.12600
C  35.50200 48.42600 29.02000
C  35.41900 48.95000 30.44100
C  34.38500 50.14800 30.29400
C  34.63700 50.49100 28.77400
C  32.84000 49.82300 30.60100
C  36.85400 49.50500 30.83300
C  37.24400 49.27900 32.30800
H  36.12200 49.11500 33.45900
N  33.97900 50.92800 25.78000
C  33.71300 51.84700 26.83000
C  33.26100 53.09800 26.23500
C  33.31700 53.01000 24.79100
C  33.74600 51.57200 24.59400
C  33.02500 54.32200 27.09700
C  32.96500 54.01900 23.72300
O  33.16500 53.75200 22.54900
C  32.49200 55.33000 24.12400
N  34.83800 48.76500 23.81300
C  34.34000 49.59000 22.94300
C  34.42600 49.10600 21.44900
C  35.32300 47.79400 21.69100
C  35.39700 47.74800 23.20300
C  33.08400 48.66800 20.75300
C  36.66200 47.74600 20.91300
C  37.85100 48.25700 21.69300
N  35.77100 47.24700 26.13100
C  36.08900 46.34600 25.17000
C  36.69400 45.16800 25.73700
C  36.56100 45.36000 27.12700
C  36.03300 46.65300 27.29200
C  37.11800 43.92600 24.93200
C  36.81900 44.80100 28.46500
O  37.30600 43.74100 28.75600
C  36.37700 45.95600 29.48100
C  35.39700 45.46200 30.47600
O  34.16100 45.37900 30.32800
O  36.05800 45.17100 31.67800
C  35.30100 44.71100 32.80800
H  33.79200 52.34700 28.95100
H  33.70400 51.48500 22.47100
H  36.28300 45.82600 23.15000
H  34.96000 48.21000 31.09700
H  34.71300 50.97100 30.92900
H  32.65800 48.75600 30.73400
H  32.22800 50.20200 29.78300
H  32.56800 50.33800 31.52200
H  37.04200 50.54400 30.56500
H  37.49600 48.82200 30.27600
H  37.91000 50.08300 32.62100
H  37.83700 48.36400 32.33900
H  32.25900 54.95000 26.64300
H  33.92000 54.93600 27.20000
H  32.62100 53.97000 28.04600
H  32.32400 55.94200 23.23800
H  33.17900 55.81300 24.81900
H  31.45900 55.29400 24.46900
H  34.98000 49.88300 20.92200
H  34.77500 46.86900 21.51300
H  32.84700 47.60500 20.72600
H  33.08800 49.06400 19.73800
H  32.23800 49.09500 21.29100
H  36.46700 48.35200 20.02800
H  36.94500 46.74300 20.59400
H  37.69200 48.61400 22.71000
H  38.29200 49.12000 21.19400
H  38.51100 47.39000 21.73900
H  37.37300 44.19900 23.90800
H  36.34400 43.16000 24.87400
H  37.91000 43.49200 25.54300
H  37.22700 46.42900 29.97100
H  35.37700 43.63500 32.96300
H  34.27900 45.09000 32.81300
H  35.73200 45.17600 33.69500
Mg 0.49600 43.66500 26.08200
C  2.69800 43.98000 28.80200
C  -2.09300 43.26300 28.36300
C  -1.45500 42.84800 23.49700
C  3.23000 44.20300 23.89300
N  0.36600 43.51400 28.39600
C  1.37400 43.73900 29.28200
C  0.83000 43.53400 30.68100
C  -0.58900 42.94200 30.52300
C  -0.82900 43.34900 29.02200
C  -0.77100 41.40900 30.80500
C  0.88900 44.88600 31.48400
C  1.32700 44.81100 32.92500
H  0.86200 43.65000 33.75400
N  -1.49900 43.16000 25.97200
C  -2.40400 43.11900 27.00600
C  -3.69100 42.75200 26.48000
C  -3.53600 42.54700 25.05200
C  -2.11500 42.80500 24.76800
C  -4.88700 42.51700 27.47300
C  -4.57300 42.24800 24.04800
O  -4.34400 41.96300 22.83300
C  -6.06200 42.21000 24.52500
N  0.91200 43.37400 23.97600
C  -0.13500 43.15500 23.11600
C  0.36200 43.14200 21.66600
C  1.75100 43.82100 21.75600
C  1.99900 43.80800 23.29300
C  0.13400 41.73200 20.92300
C  1.82000 45.29100 21.18000
C  0.82000 46.20800 21.73600
N  2.54600 43.97600 26.24700
C  3.49100 44.21500 25.25300
C  4.75300 44.47300 25.96100
C  4.47500 44.38500 27.29000
C  3.12800 44.02200 27.46300
C  6.13700 44.86800 25.40700
C  5.03900 44.32000 28.59100
O  6.23600 44.49300 28.86700
C  3.88600 44.15600 29.67100
C  4.31200 43.06800 30.44200
O  4.51300 41.98800 29.99400
O  4.68200 43.43300 31.72000
C  5.16800 42.41500 32.59600
H  -2.93800 43.06400 29.02500
H  -1.95300 42.48900 22.59300
H  4.06700 44.49000 23.25300
H  1.48900 42.79000 31.12700
H  -1.24600 43.50700 31.18400
H  -0.90100 40.87900 29.86200
H  -1.62300 41.21200 31.45700
H  0.15200 40.99700 31.21200
H  -0.14900 45.21400 31.53300
H  1.44900 45.70300 31.02800
H  0.88500 45.73800 33.29000
H  2.40100 44.99500 32.95800
H  -4.58400 42.19300 28.46900
H  -5.59600 41.76400 27.12900
H  -5.45000 43.44300 27.59000
H  -6.38000 41.38400 25.16200
H  -6.70900 42.19000 23.64800
H  -6.23100 43.21900 24.90300
H  -0.25500 43.70900 20.96900
H  2.37700 43.10900 21.21900
H  0.31700 41.80000 19.85100
H  -0.92300 41.48300 21.01100
H  0.82600 40.99300 21.32700
H  1.75600 45.24400 20.09300
H  2.82400 45.60300 21.46700
H  1.33500 46.94500 22.35200
H  -0.01800 45.70600 22.21700
H  0.36900 46.71000 20.88000
H  6.70600 45.33100 26.21400
H  6.23800 45.59500 24.60100
H  6.64100 43.93900 25.14100
H  3.72700 45.00600 30.33500
H  5.79500 41.67000 32.10600
H  4.33600 41.93900 33.11500
H  5.82100 42.81300 33.37200

