158

Mg -3.42800 16.71600 26.03600
C  -3.65600 14.44600 28.89100
C  -3.71900 19.31700 28.10400
C  -3.37600 18.71900 23.20300
C  -3.68800 13.94900 24.01300
N  -3.52200 16.86100 28.28900
C  -3.64500 15.84000 29.27800
C  -3.65200 16.43500 30.67200
C  -3.76100 17.89300 30.33100
C  -3.70400 18.11200 28.85900
C  -5.00600 18.55100 31.03700
C  -2.39900 16.09600 31.58000
C  -2.06400 17.00200 32.77200
H  -1.87500 16.27400 34.11300
N  -3.60200 18.67200 25.65500
C  -3.72700 19.58400 26.68100
C  -3.74300 20.94100 26.14900
C  -3.44000 20.79500 24.76300
C  -3.43200 19.37200 24.42400
C  -4.02800 22.21000 26.99700
C  -3.14400 21.84100 23.76900
O  -3.12700 21.57200 22.59100
C  -2.94800 23.34400 24.25500
N  -3.64000 16.36500 23.90500
C  -3.54700 17.32400 23.00100
C  -3.48500 16.86200 21.55400
C  -3.66700 15.28300 21.74500
C  -3.58000 15.13200 23.31700
C  -4.60400 17.46800 20.64200
C  -2.53500 14.47300 21.04500
C  -2.92500 13.06600 20.50700
N  -3.55300 14.63300 26.33800
C  -3.67100 13.66500 25.39100
C  -3.85400 12.37300 25.99500
C  -3.79600 12.63500 27.41000
C  -3.64900 14.04000 27.53200
C  -4.03700 11.11400 25.26900
C  -3.76000 11.97900 28.75000
O  -3.73200 10.78800 29.03500
C  -3.71900 13.13500 29.71500
C  -2.48000 13.00500 30.48700
O  -1.37900 13.39100 30.17700
O  -2.72600 12.44900 31.70900
C  -1.60100 12.37300 32.74100
H  -3.81500 20.19100 28.75000
H  -3.30900 19.25800 22.25600
H  -3.78200 13.02500 23.43800
H  -4.52500 15.97400 31.13300
H  -2.94600 18.50500 30.71700
H  -4.61700 19.04100 31.93000
H  -5.76700 17.81100 31.28300
H  -5.37700 19.34100 30.38400
H  -1.51900 15.84800 30.98700
H  -2.73600 15.17500 32.05600
H  -2.91200 17.67900 32.86700
H  -1.17500 17.60500 32.58300
H  -3.06100 22.57100 27.34900
H  -4.55700 21.96800 27.91900
H  -4.67400 22.88400 26.43500
H  -3.87400 23.64400 24.74700
H  -2.69900 23.81800 23.30600
H  -2.08200 23.32300 24.91600
H  -2.51400 17.17600 21.17000
H  -4.64900 14.88100 21.49700
H  -5.38200 16.70600 20.58000
H  -4.28300 17.68500 19.62300
H  -5.16300 18.32700 21.01300
H  -1.74500 14.16900 21.73300
H  -2.13500 15.07800 20.23200
H  -2.21800 12.38800 20.98500
H  -2.96200 12.91700 19.42800
H  -3.92100 12.92900 20.92700
H  -4.93600 11.22700 24.66300
H  -3.96900 10.18600 25.83700
H  -3.15100 11.07100 24.63600
H  -4.56900 13.09100 30.39500
H  -1.25200 13.37600 32.98500
H  -0.82600 11.72900 32.32500
H  -1.93400 11.89400 33.66100
Mg -6.05100 24.84400 25.50900
C  -4.57200 26.40500 28.15800
C  -7.89100 22.86000 27.67500
C  -7.59100 23.39600 22.80900
C  -3.80200 26.41600 23.33500
N  -6.19400 24.65500 27.63600
C  -5.57000 25.44700 28.57400
C  -6.09500 25.24200 30.01900
C  -6.93000 23.89100 29.80900
C  -7.13700 23.85400 28.26400
C  -6.26100 22.62800 30.43600
C  -7.02900 26.40500 30.43800
C  -7.15500 26.50200 32.01200
H  -6.66700 25.47100 33.00200
N  -7.64100 23.37400 25.27100
C  -8.17600 22.64600 26.33300
C  -9.21500 21.77400 25.74300
C  -9.10500 21.95300 24.34600
C  -8.12600 22.93600 24.08400
C  -10.10800 20.98400 26.58700
C  -10.00700 21.41500 23.28500
O  -10.10800 21.95800 22.18200
C  -10.90200 20.31400 23.49400
N  -5.92100 24.97300 23.32900
C  -6.60400 24.23800 22.45500
C  -6.12000 24.37200 20.99100
C  -5.08300 25.57200 21.20100
C  -4.88400 25.67700 22.69400
C  -5.43100 23.09500 20.50100
C  -5.50100 26.96900 20.66400
C  -4.86000 27.51000 19.29400
N  -4.51600 26.04900 25.68300
C  -3.77800 26.69700 24.69200
C  -2.82400 27.59100 25.29300
C  -3.13300 27.55800 26.66600
C  -4.13600 26.58000 26.85200
C  -1.88800 28.47600 24.54800
C  -2.82400 28.19000 27.94100
O  -2.02900 29.08200 28.22200
C  -3.80600 27.43900 28.98400
C  -2.88200 26.71400 29.93700
O  -1.85700 26.21500 29.60700
O  -3.29100 26.83200 31.23700
C  -2.46200 26.23200 32.34600
H  -8.18300 22.16500 28.46500
H  -7.91200 22.90800 21.88600
H  -3.17600 26.98300 22.64300
H  -5.23600 25.01000 30.64800
H  -7.91400 24.03400 30.25700
H  -5.74700 22.92200 31.35000
H  -5.63900 22.07000 29.73500
H  -7.20600 22.09600 30.55100
H  -8.06000 26.27100 30.10900
H  -6.60400 27.30800 30.00100
H  -8.23400 26.48700 32.16600
H  -6.75100 27.46200 32.33200
H  -9.68400 19.98100 26.54000
H  -11.15800 21.01700 26.29700
H  -10.15800 21.47100 27.56100
H  -10.32500 19.50000 23.93200
H  -11.25000 20.04800 22.49600
H  -11.70500 20.67700 24.13600
H  -6.92800 24.69400 20.33500
H  -4.07200 25.40400 20.83100
H  -5.58200 22.21300 21.12400
H  -4.36000 23.23600 20.35900
H  -5.88500 22.78000 19.56200
H  -5.25500 27.78500 21.34300
H  -6.57200 26.99300 20.46400
H  -5.69000 27.80400 18.65100
H  -4.34200 26.66400 18.84200
H  -4.10100 28.28600 19.38700
H  -1.29500 29.06800 25.24400
H  -2.44100 29.11800 23.86200
H  -1.23000 27.76600 24.04600
H  -4.43100 28.19900 29.45300
H  -2.07900 25.22400 32.19000
H  -3.07200 26.36000 33.24000
H  -1.61700 26.91000 32.46500

