158

Mg 47.22500 16.14400 28.97700
C  44.90900 15.83500 31.53900
C  49.43800 17.83300 31.23700
C  49.25900 16.92500 26.45300
C  44.83000 15.09800 26.72300
N  47.07300 16.90300 31.08100
C  46.07600 16.46600 31.98000
C  46.53000 16.93400 33.37900
C  47.73500 17.84500 33.17900
C  48.11600 17.58600 31.69800
C  47.38600 19.38300 33.48200
C  46.59400 15.68200 34.27500
C  46.61300 15.77000 35.78800
H  46.51200 17.15600 36.37200
N  49.12300 17.14000 28.86600
C  49.87100 17.67600 29.93800
C  51.16400 18.17300 29.40000
C  51.14000 17.87300 28.03900
C  49.78200 17.22700 27.72600
C  52.05100 18.99400 30.20400
C  52.16100 18.27900 26.90700
O  52.01800 17.97500 25.69500
C  53.37000 19.00000 27.39700
N  47.03400 16.17600 26.85400
C  48.04600 16.39700 25.99200
C  47.70100 16.09700 24.51700
C  46.29200 15.46200 24.68200
C  46.01000 15.57300 26.16100
C  47.88600 17.23700 23.46100
C  45.98400 14.03600 24.09100
C  46.50200 12.84800 24.90300
N  45.26200 15.49900 29.07000
C  44.43700 15.03200 28.03500
C  43.14300 14.66600 28.58000
C  43.28100 14.95300 29.99100
C  44.59900 15.52300 30.22400
C  41.91500 14.07000 27.83400
C  42.61600 14.79300 31.30800
O  41.53000 14.39100 31.57500
C  43.68100 15.34500 32.33800
C  43.07200 16.49400 33.03900
O  43.10000 17.65700 32.67000
O  42.48900 16.15900 34.25100
C  41.99400 17.16000 35.12000
H  50.01000 18.28600 32.04800
H  50.08800 16.92200 25.74300
H  44.03800 14.68000 26.09800
H  45.70900 17.50500 33.81100
H  48.53700 17.55700 33.85900
H  47.13100 19.76400 32.49300
H  48.33300 19.86600 33.72800
H  46.70100 19.54600 34.31500
H  47.53600 15.27600 33.90700
H  45.76800 15.01900 34.01500
H  47.31200 15.11900 36.31400
H  45.67100 15.26700 36.00900
H  51.58300 19.18500 31.16900
H  52.07300 19.99300 29.76800
H  53.00800 18.49100 30.34700
H  53.93300 19.24900 26.49700
H  53.88100 18.40000 28.15000
H  53.06300 19.93500 27.86600
H  48.34500 15.32100 24.10400
H  45.49700 16.10000 24.29700
H  47.66900 18.13300 24.04300
H  47.00400 17.32000 22.82500
H  48.85700 17.43000 23.00500
H  46.52300 13.88200 23.15600
H  44.93300 13.85300 23.87100
H  47.20900 13.19600 25.65600
H  46.89300 12.09300 24.22100
H  45.73200 12.25600 25.39800
H  41.30200 13.42600 28.46500
H  42.15500 13.51100 26.92900
H  41.30600 14.93700 27.58000
H  43.81100 14.58700 33.11100
H  40.99400 17.49900 34.85200
H  42.69500 17.99500 35.12600
H  42.00500 16.67200 36.09500
Mg 41.39500 41.92900 26.14300
C  40.73800 44.22900 28.63700
C  42.44800 39.65700 28.56100
C  42.63700 39.98500 23.69400
C  40.60200 44.46500 23.80200
N  41.41600 41.86300 28.32800
C  41.13900 42.97400 29.10600
C  41.28100 42.69100 30.61600
C  41.84700 41.21100 30.53500
C  41.88100 40.83800 29.07500
C  43.14400 40.93300 31.34800
C  39.97400 42.73800 31.53100
C  40.24400 43.27000 32.99300
H  40.20500 42.29800 34.10500
N  42.33100 40.00300 26.14800
C  42.70200 39.23400 27.25300
C  43.29100 38.02700 26.76500
C  43.39700 38.11400 25.33100
C  42.81200 39.41800 24.98000
C  43.88700 36.95800 27.63200
C  44.16800 37.17400 24.35000
O  44.36200 37.42900 23.15500
C  44.80300 35.87400 24.83600
N  41.67900 42.20600 24.09800
C  42.17200 41.24700 23.24400
C  42.01200 41.59100 21.76300
C  41.24100 42.99700 21.84000
C  41.12700 43.27200 23.34300
C  43.27100 41.58200 20.89000
C  39.82000 43.12100 21.23500
C  39.42900 44.41600 20.50400
N  40.71900 43.90700 26.14300
C  40.42800 44.76600 25.16700
C  40.09200 46.06700 25.72600
C  40.07200 45.89000 27.10100
C  40.53000 44.57800 27.32600
C  39.87000 47.39800 25.02500
C  39.89400 46.56100 28.44400
O  39.56700 47.69200 28.72300
C  40.29500 45.48100 29.50500
C  41.27300 45.99800 30.34200
O  42.43000 46.03100 30.07000
O  40.70000 46.25500 31.59200
C  41.64200 46.85000 32.54700
H  42.69100 38.95600 29.36200
H  42.94600 39.33700 22.87100
H  40.23000 45.20500 23.09100
H  42.05200 43.39500 30.92900
H  41.05900 40.50400 30.79600
H  43.32500 41.69900 32.10200
H  44.09700 40.84300 30.82600
H  43.14200 40.05800 31.99800
H  39.56500 41.73300 31.63800
H  39.12600 43.21100 31.03600
H  39.51300 44.06500 33.14100
H  41.20600 43.76200 32.84700
H  44.93900 37.21400 27.76000
H  43.78900 36.01700 27.09100
H  43.34600 36.99500 28.57800
H  45.45200 35.98800 25.70500
H  45.49200 35.49800 24.08000
H  44.07400 35.13600 25.17100
H  41.42100 40.80900 21.28500
H  41.86600 43.80700 21.46500
H  44.12600 41.39600 21.54100
H  43.40300 42.48700 20.29600
H  43.23100 40.70800 20.24000
H  39.08700 43.12600 22.04200
H  39.69600 42.37800 20.44700
H  38.44900 44.71100 20.87800
H  39.29900 44.25900 19.43300
H  40.19800 45.17800 20.62800
H  38.89200 47.35800 24.54500
H  40.71900 47.52200 24.35300
H  39.81500 48.21600 25.74300
H  39.44600 45.19100 30.12500
H  42.15700 46.03100 33.04900
H  41.08300 47.39400 33.30800
H  42.39000 47.58400 32.24500

