158

Mg 35.09100 3.14400 30.00400
C  32.75700 4.16600 32.43600
C  37.51900 3.23200 32.33500
C  37.31200 2.44400 27.57400
C  32.59300 3.38400 27.73300
N  35.07400 3.75500 32.12000
C  34.06500 3.97500 32.89500
C  34.51400 3.97700 34.37300
C  36.12900 3.89600 34.28800
C  36.26000 3.63200 32.82200
C  36.90300 5.19700 34.67100
C  33.84400 2.79700 35.23800
C  33.46300 3.07800 36.64300
H  34.37200 4.16600 37.27400
N  37.16400 2.92900 29.89900
C  37.94000 2.84100 31.02900
C  39.33700 2.41300 30.73800
C  39.27500 2.16200 29.32000
C  37.91100 2.50200 28.84600
C  40.46700 2.39400 31.88100
C  40.34000 1.63000 28.39000
O  40.12300 1.29200 27.21600
C  41.59200 1.25900 28.97000
N  34.96000 2.90400 27.89000
C  36.01800 2.63800 27.09300
C  35.57700 2.47800 25.63100
C  34.00200 2.69500 25.67600
C  33.86800 3.00500 27.16800
C  36.26900 3.59700 24.80100
C  33.14600 1.47000 25.26100
C  31.80300 1.80200 24.54800
N  33.09900 3.77900 29.99400
C  32.20800 3.77400 28.96900
C  30.92000 4.23100 29.45500
C  31.06300 4.32600 30.86600
C  32.42300 4.10800 31.12500
C  29.62400 4.46300 28.58900
C  30.36700 4.69800 32.04900
O  29.17300 4.99400 32.21100
C  31.44400 4.44600 33.19700
C  31.46100 5.57800 34.13000
O  31.82700 6.68500 33.81100
O  30.82500 5.30200 35.31600
C  30.49400 6.37300 36.21800
H  38.30300 3.11300 33.08500
H  38.03800 2.12400 26.82300
H  31.79200 3.53700 27.00700
H  34.17600 4.95500 34.71400
H  36.45600 3.01800 34.84600
H  36.34300 5.87700 35.31200
H  37.13700 5.80600 33.79700
H  37.78700 4.98900 35.27400
H  34.66300 2.07800 35.23200
H  32.97400 2.35500 34.75400
H  33.41300 2.18300 37.26300
H  32.43300 3.43100 36.58000
H  40.29500 1.47500 32.44100
H  40.31400 3.24000 32.55100
H  41.48000 2.59700 31.53200
H  41.26100 0.61900 29.78800
H  42.21500 2.05400 29.38100
H  42.13100 0.64500 28.24900
H  35.84600 1.46300 25.33800
H  33.74400 3.45000 24.93400
H  36.91400 3.06800 24.09900
H  36.92400 4.22000 25.40900
H  35.68500 4.29200 24.19900
H  33.10100 0.75400 26.08100
H  33.73400 0.83800 24.59600
H  32.18600 1.74300 23.53000
H  31.42900 2.80000 24.77800
H  31.06600 1.03800 24.79400
H  29.67200 5.29500 27.88700
H  28.68700 4.69800 29.09500
H  29.38900 3.60200 27.96300
H  31.00800 3.58800 33.70900
H  31.01900 6.17500 37.15300
H  29.45900 6.31900 36.55400
H  30.76800 7.31600 35.74600
Mg 54.46500 23.41800 45.01500
C  51.96200 25.72000 44.12700
C  52.15500 20.85700 44.44100
C  56.98100 21.06400 45.33700
C  56.62900 26.04100 45.47000
N  52.35000 23.33400 44.27700
C  51.51500 24.43000 43.97000
C  50.13100 23.86800 43.44200
C  50.20600 22.31700 43.71700
C  51.64500 22.15200 44.18300
C  49.21700 21.72100 44.63800
C  50.01400 24.22700 41.87200
C  48.61600 24.79200 41.62900
H  48.17300 24.73700 40.15500
N  54.50300 21.23900 44.92400
C  53.39300 20.41700 44.82700
C  53.89900 19.06400 44.88100
C  55.24900 19.11900 45.27500
C  55.65800 20.51200 45.19100
C  52.98300 17.86800 44.63000
C  56.11900 17.85700 45.80800
O  55.48500 16.80300 45.85500
C  57.60600 17.87700 46.35700
N  56.59400 23.55100 45.08200
C  57.36000 22.44800 45.33700
C  58.80500 22.93600 45.46700
C  58.75000 24.47800 45.65600
C  57.22300 24.74100 45.44100
C  59.53200 22.29100 46.71700
C  59.68600 25.31200 44.75000
C  60.76600 26.15500 45.58600
N  54.42000 25.59500 44.78900
C  55.32700 26.49600 45.24000
C  54.71500 27.83500 45.17200
C  53.37500 27.57900 44.74100
C  53.25100 26.20900 44.48100
C  55.38300 29.16300 45.45000
C  52.07200 28.14300 44.47300
O  51.72900 29.30200 44.45500
C  51.18800 26.98400 43.83700
C  50.92500 27.39300 42.40400
O  51.68300 27.12100 41.46100
O  49.88200 28.31900 42.38600
C  49.69000 28.98100 41.07200
H  51.42200 20.05100 44.36800
H  57.79300 20.36100 45.53300
H  57.35500 26.80800 45.74700
H  49.30500 24.29600 44.01000
H  50.12200 21.77000 42.77900
H  49.61000 21.13300 45.46600
H  48.59100 21.14200 43.95900
H  48.44000 22.39900 44.99100
H  50.07400 23.35800 41.21700
H  50.82200 24.92600 41.65400
H  48.56000 25.87200 41.76100
H  47.83800 24.36900 42.26400
H  53.50400 17.09400 44.06800
H  52.11300 18.07200 44.00500
H  52.67400 17.52800 45.61900
H  57.87400 16.83700 46.54700
H  57.64600 18.52900 47.22900
H  58.26000 18.31000 45.60100
H  59.41700 22.70700 44.59400
H  58.91200 24.77800 46.69100
H  58.89000 22.18000 47.59100
H  60.32300 23.01400 46.91500
H  59.98700 21.41500 46.25500
H  59.23900 26.00400 44.03600
H  60.35400 24.64000 44.21200
H  61.18000 25.55900 46.40000
H  60.24100 27.00300 46.02600
H  61.52400 26.47700 44.87300
H  56.31000 29.11500 44.87800
H  55.35900 29.33100 46.52600
H  54.86100 29.97500 44.94500
H  50.20300 26.94800 44.30200
H  49.49100 28.18200 40.35800
H  50.57200 29.59800 40.89500
H  48.77100 29.56300 41.01200

