158

Mg 30.71100 58.88700 39.94200
C  27.97400 56.80400 39.11100
C  32.74900 56.44500 38.86500
C  33.36400 61.01600 40.45900
C  28.56600 61.49300 40.45800
N  30.36000 56.86900 39.13300
C  29.16100 56.19300 38.80700
C  29.50800 54.74500 38.34100
C  31.02700 54.59400 38.59900
C  31.41600 56.09900 38.74500
C  31.37400 53.79000 39.87500
C  29.11300 54.47400 36.85400
C  27.87500 53.63500 36.51900
H  27.03200 54.12300 35.32100
N  32.76400 58.76400 39.66300
C  33.37500 57.66400 39.21700
C  34.81300 57.93600 39.08200
C  35.10800 59.17700 39.67200
C  33.66900 59.73100 40.02100
C  35.82700 56.94600 38.39100
C  36.50800 59.88400 39.78600
O  37.44800 59.36000 39.18700
C  36.63300 61.27000 40.51000
N  31.01000 61.04600 40.21900
C  32.18700 61.69700 40.52900
C  31.93000 63.12700 41.05300
C  30.32100 63.29400 40.92400
C  29.94400 61.83100 40.55300
C  32.55400 63.57500 42.41300
C  29.84500 64.28600 39.87900
C  29.60500 65.67500 40.45800
N  28.65500 59.10900 39.96900
C  27.95200 60.22000 40.26000
C  26.52900 59.96200 40.13100
C  26.49700 58.63900 39.66400
C  27.84200 58.11200 39.65700
C  25.46500 61.00300 40.23600
C  25.64300 57.54700 39.13200
O  24.37700 57.46900 38.92700
C  26.61900 56.40000 38.79100
C  25.97600 55.34000 39.65100
O  26.15700 55.22700 40.84000
O  25.22800 54.54400 38.84500
C  24.60300 53.30600 39.30800
H  33.33900 55.56700 38.59400
H  34.18200 61.64200 40.82300
H  27.83600 62.27200 40.69100
H  28.83400 54.09800 38.90300
H  31.60700 54.13100 37.80000
H  30.47100 53.18400 39.94600
H  31.40400 54.46200 40.73300
H  32.28800 53.25100 39.62300
H  29.92600 54.01400 36.29300
H  29.06000 55.42100 36.31800
H  27.28100 53.60000 37.43200
H  28.12600 52.66000 36.10200
H  36.35600 57.37000 37.53700
H  35.24700 56.05400 38.15500
H  36.58900 56.69600 39.13000
H  36.29900 61.06100 41.52600
H  35.97800 61.96300 39.98100
H  37.65000 61.65800 40.56200
H  32.48700 63.81700 40.41800
H  29.94900 63.36300 41.94600
H  32.49600 64.66300 42.43600
H  33.51100 63.15800 42.72800
H  31.85900 63.24200 43.18300
H  29.01200 63.95600 39.25800
H  30.63700 64.55500 39.18000
H  30.47200 66.33400 40.49600
H  29.29800 65.52600 41.49400
H  28.78800 66.16300 39.92700
H  24.70400 60.77600 39.48900
H  25.92900 61.97200 40.05000
H  25.10700 61.02100 41.26600
H  26.43300 56.21800 37.73300
H  23.52300 53.44100 39.26000
H  24.88800 53.03500 40.32400
H  24.77700 52.46800 38.63300
Mg 27.22600 51.04800 26.43300
C  24.88400 51.93600 28.81500
C  29.45300 50.37000 28.86100
C  29.43500 50.47600 23.94900
C  24.93600 52.34700 23.96900
N  27.20900 51.07900 28.59300
C  26.11400 51.35600 29.38400
C  26.46600 51.18200 30.86900
C  27.96300 50.68900 30.87000
C  28.24600 50.73600 29.36300
C  29.00300 51.55500 31.65200
C  25.50300 50.25800 31.61700
C  25.00100 50.72200 33.01100
H  25.11300 49.66700 34.05800
N  29.18300 50.52500 26.44900
C  29.94500 50.29100 27.53700
C  31.21700 50.03900 27.14500
C  31.26800 50.08000 25.69400
C  29.93100 50.30100 25.27900
C  32.34300 49.64600 28.15700
C  32.51500 49.82100 24.76500
O  32.47700 49.90100 23.55600
C  33.85500 49.42600 25.40700
N  27.15300 51.40800 24.34000
C  28.18700 50.97100 23.53200
C  27.81600 50.95100 22.06000
C  26.40100 51.57400 22.07800
C  26.12400 51.83200 23.53200
C  28.83700 51.70700 21.16100
C  25.23500 50.67700 21.46800
C  24.10300 51.52000 20.71600
N  25.28700 51.79600 26.27900
C  24.51300 52.35300 25.26500
C  23.25400 52.92400 25.78700
C  23.43900 52.84400 27.17800
C  24.61800 52.10400 27.44100
C  22.13300 53.41900 25.02100
C  22.72900 53.00900 28.45700
O  21.60200 53.45000 28.63100
C  23.70300 52.60900 29.59900
C  24.12500 53.71300 30.46500
O  25.08500 54.42800 30.25500
O  23.32500 53.75900 31.60300
C  23.76100 54.64800 32.59200
H  30.12400 50.11700 29.68400
H  30.13500 50.31900 23.12600
H  24.18600 52.69200 23.25400
H  26.38100 52.18100 31.29600
H  28.05700 49.70200 31.32500
H  28.45000 52.28600 32.24200
H  29.65300 52.09300 30.96200
H  29.57000 50.92500 32.33700
H  26.01800 49.30900 31.77000
H  24.61700 50.08600 31.00500
H  23.95000 50.80400 32.73400
H  25.42700 51.71400 33.16300
H  32.14100 50.14000 29.10700
H  33.29300 50.12000 27.90900
H  32.45600 48.56200 28.18700
H  33.77000 48.61500 26.13000
H  34.34400 50.30600 25.82400
H  34.48700 48.99100 24.63300
H  27.85300 49.96100 21.60600
H  26.42700 52.55000 21.59300
H  29.66800 52.05500 21.77400
H  28.43300 52.55000 20.60000
H  29.34000 51.04600 20.45500
H  24.77000 50.06600 22.24100
H  25.71000 49.94000 20.81900
H  23.24900 51.30400 21.35900
H  24.04200 51.14200 19.69600
H  24.27600 52.58700 20.86200
H  22.10300 52.95300 24.03600
H  22.26800 54.47500 24.78800
H  21.15600 53.25800 25.47700
H  23.17500 51.91500 30.25400
H  24.32400 55.51000 32.23300
H  24.28800 54.05500 33.33900
H  22.95100 55.10200 33.16200

