158

Mg 35.00600 3.07800 30.18000
C  32.69500 3.98300 32.80900
C  37.35300 3.18000 32.45600
C  37.07500 2.62800 27.63100
C  32.29200 3.45300 27.97500
N  34.99400 3.41400 32.37300
C  33.96100 3.60900 33.26100
C  34.41100 3.63900 34.71500
C  35.97000 3.68200 34.54100
C  36.15000 3.45600 33.02900
C  36.76100 4.97100 34.87800
C  33.91200 2.40800 35.46100
C  33.61400 2.56000 36.96200
H  34.34500 3.63900 37.78700
N  36.90400 2.84800 30.03600
C  37.79100 2.81600 31.09400
C  39.11200 2.63300 30.61300
C  39.04600 2.43300 29.19900
C  37.61000 2.58300 28.89000
C  40.25800 2.50900 31.54100
C  40.20200 2.06400 28.16000
O  40.03400 1.91200 26.94000
C  41.61900 1.85000 28.67300
N  34.76900 3.03000 28.07300
C  35.75800 2.79900 27.22100
C  35.25700 2.50900 25.79800
C  33.70100 2.72000 25.88900
C  33.54200 3.09600 27.40400
C  36.02100 3.33100 24.71000
C  32.80700 1.52800 25.50000
C  33.16400 0.15600 26.14700
N  32.99100 3.67100 30.28100
C  31.99800 3.76700 29.34600
C  30.82200 4.29500 29.93500
C  31.06400 4.31000 31.27800
C  32.39300 3.95700 31.47800
C  29.59400 4.57100 29.12900
C  30.35700 4.67500 32.47300
O  29.20700 5.11800 32.68500
C  31.41000 4.40600 33.61100
C  31.53900 5.61900 34.50700
O  31.92500 6.67400 34.13400
O  30.94800 5.36000 35.72000
C  30.65900 6.45100 36.69000
H  38.04300 2.99600 33.28200
H  37.76600 2.42300 26.81100
H  31.49200 3.50000 27.23200
H  34.27400 4.60100 35.21000
H  36.49400 2.97400 35.18400
H  37.76000 4.83500 35.29200
H  36.11800 5.54400 35.54500
H  36.92500 5.56700 33.98000
H  34.60600 1.60600 35.20900
H  32.96500 2.22700 34.95400
H  33.60000 1.62400 37.51900
H  32.56700 2.86200 36.98500
H  40.87100 3.41100 31.53000
H  40.86100 1.66000 31.22000
H  39.86600 2.37300 32.54900
H  42.27800 1.88500 27.80600
H  41.61300 0.85500 29.11800
H  41.93400 2.61200 29.38600
H  35.49800 1.47100 25.56800
H  33.40800 3.52200 25.21200
H  36.65600 4.08900 25.17000
H  35.35900 3.76200 23.95900
H  36.70800 2.59300 24.29700
H  32.89400 1.36600 24.42600
H  31.75000 1.66500 25.72900
H  32.40900 -0.31500 26.77600
H  34.02000 0.36700 26.78700
H  33.44700 -0.58900 25.40400
H  29.55500 3.96300 28.22500
H  29.53700 5.62700 28.86600
H  28.74100 4.37400 29.78000
H  31.05000 3.50800 34.11300
H  31.20700 6.32400 37.62300
H  29.64200 6.45500 37.08100
H  30.79600 7.42700 36.22300
Mg 30.59800 57.79300 39.96300
C  27.93100 55.40500 39.12900
C  32.84600 55.26600 39.19800
C  32.95400 60.07700 39.84100
C  28.10600 60.27600 39.85200
N  30.42700 55.67800 39.22700
C  29.23100 54.91800 39.05300
C  29.63700 53.45800 38.66800
C  31.04400 53.43500 39.31300
C  31.48700 54.82400 39.24800
C  31.00500 52.86700 40.71900
C  29.69800 53.33200 37.09900
C  28.47900 52.67100 36.46300
H  27.55400 53.38200 35.41000
N  32.60100 57.67400 39.76800
C  33.33800 56.58700 39.33800
C  34.77200 56.95100 39.21700
C  34.84700 58.33600 39.40700
C  33.45100 58.75300 39.69400
C  35.88000 56.04400 38.96000
C  36.17100 59.19300 39.29000
O  37.24300 58.71100 38.99800
C  36.20400 60.68700 39.51000
N  30.60000 59.86200 39.92400
C  31.72300 60.62800 39.98700
C  31.42500 62.08800 40.20900
C  29.84400 62.21800 40.00800
C  29.46900 60.68500 39.90000
C  31.92500 62.65300 41.56600
C  29.35300 63.01200 38.78700
C  28.48800 64.26800 39.01300
N  28.43400 57.86200 39.72400
C  27.61300 58.96800 39.62900
C  26.23500 58.54500 39.42800
C  26.30700 57.17500 39.24500
C  27.64300 56.81500 39.39200
C  25.08800 59.47800 39.27600
C  25.49300 55.96400 38.96700
O  24.29500 55.77300 38.75700
C  26.56000 54.75300 38.87300
C  26.06800 53.59200 39.68800
O  26.60200 53.24400 40.75200
O  25.02900 52.91800 39.06400
C  24.57400 51.66300 39.64700
H  33.57500 54.45500 39.14000
H  33.69500 60.87600 39.92000
H  27.26800 60.97200 39.93400
H  28.97100 52.69300 39.06500
H  31.59400 52.67900 38.75200
H  30.02000 53.09600 41.12500
H  31.82300 53.29100 41.30200
H  31.05200 51.78100 40.79800
H  30.55200 52.72500 36.79900
H  29.65800 54.27800 36.55900
H  27.85200 52.18900 37.21400
H  28.89600 51.88700 35.83200
H  36.43100 56.41400 38.09500
H  35.71600 54.96700 38.93300
H  36.50200 56.28900 39.82100
H  35.52800 60.77000 40.36100
H  35.92400 61.22400 38.60400
H  37.22400 60.93100 39.80600
H  31.99700 62.66000 39.47700
H  29.49500 62.60200 40.96600
H  31.18200 62.93600 42.31100
H  32.56100 63.53000 41.44600
H  32.56400 61.95600 42.10700
H  28.81300 62.35300 38.10700
H  30.21400 63.24200 38.16000
H  28.38800 64.58400 40.05200
H  27.42900 64.17400 38.77400
H  28.84500 65.12300 38.43900
H  24.78700 59.87900 40.24400
H  24.27800 59.00300 38.72200
H  25.36200 60.37800 38.72500
H  26.44900 54.42200 37.84000
H  25.38200 50.94000 39.75600
H  23.87100 51.07600 39.05600
H  24.16500 51.80800 40.64700

