158

Mg 26.24700 -0.68900 29.32000
C  28.30800 -1.19300 32.25700
C  23.61300 -0.17900 31.53600
C  24.16400 -0.60700 26.69600
C  28.83100 -1.89500 27.41000
N  26.03500 -0.58200 31.66300
C  26.99600 -0.68100 32.60400
C  26.48200 -0.31500 34.01200
C  24.91200 -0.01900 33.70600
C  24.81600 -0.34300 32.19800
C  23.92000 -0.72600 34.71700
C  27.17900 0.90800 34.74600
C  27.97600 0.57500 36.01800
H  27.37600 1.25000 37.30000
N  24.14600 -0.34100 29.13100
C  23.23900 -0.10900 30.14000
C  21.91400 -0.00900 29.54800
C  22.08200 -0.07700 28.12700
C  23.48600 -0.38300 27.94300
C  20.69900 0.28400 30.47200
C  21.04800 -0.04700 27.03600
O  21.27300 -0.11000 25.83200
C  19.61800 0.16900 27.46900
N  26.41800 -1.20900 27.36700
C  25.52800 -0.88200 26.40500
C  26.11000 -0.85300 25.08000
C  27.58200 -1.41000 25.26500
C  27.62000 -1.48100 26.76900
C  25.27200 -1.61000 23.98700
C  28.72200 -0.59200 24.58500
C  29.02900 0.77500 25.19800
N  28.16500 -1.40400 29.66300
C  29.13600 -1.90600 28.82800
C  30.34000 -2.28800 29.57300
C  30.05700 -1.87500 30.86300
C  28.74600 -1.38000 30.91400
C  31.63000 -2.60600 28.90400
C  30.72700 -1.77800 32.15000
O  31.85900 -2.16900 32.51500
C  29.54100 -1.40700 33.14100
C  29.43900 -2.46100 34.12800
O  28.71600 -3.48000 34.09000
O  30.27100 -2.20400 35.16400
C  30.04500 -3.08500 36.35000
H  22.80700 0.05100 32.23600
H  23.53200 -0.51500 25.81000
H  29.66900 -2.20000 26.78100
H  26.57500 -1.20700 34.63000
H  24.79800 1.05800 33.83200
H  23.65300 -1.75600 34.48300
H  22.94600 -0.23700 34.70500
H  24.45200 -0.74900 35.66900
H  26.49600 1.73000 34.96100
H  27.91300 1.44100 34.14100
H  29.04100 0.73700 35.85300
H  27.96700 -0.49600 36.22100
H  20.01600 -0.56200 30.54500
H  20.13900 1.18300 30.21300
H  20.96200 0.53700 31.50000
H  19.36300 -0.57900 28.21900
H  18.92900 0.16400 26.62400
H  19.46600 1.16500 27.88200
H  26.12600 0.15300 24.66000
H  27.71300 -2.41200 24.85800
H  24.76700 -0.93700 23.29400
H  24.56000 -2.15100 24.61000
H  25.89900 -2.31000 23.43600
H  28.54400 -0.43800 23.52100
H  29.68300 -1.10000 24.66200
H  30.04700 0.71100 25.58100
H  28.33900 0.97300 26.01800
H  28.86100 1.51100 24.41200
H  31.94600 -1.64000 28.51000
H  31.45300 -3.19900 28.00700
H  32.45200 -2.95600 29.53000
H  29.75300 -0.46000 33.63700
H  30.88100 -2.82100 36.99700
H  30.14600 -4.09700 35.95800
H  29.14400 -2.95900 36.95000
Mg 7.47500 54.46100 40.20200
C  6.87700 51.03900 40.31800
C  10.85400 53.84600 39.46100
C  7.96900 57.72600 39.46600
C  4.17500 55.13300 40.68500
N  8.65000 52.67100 39.73000
C  8.15100 51.35800 39.89000
C  9.33000 50.40000 39.66100
C  10.60700 51.31900 39.82000
C  10.08000 52.70500 39.67400
C  11.48100 51.09200 41.06800
C  9.30500 49.56000 38.29000
C  9.28400 50.55900 37.01100
H  7.82700 50.71100 36.39400
N  9.20600 55.56500 39.40900
C  10.50900 55.17400 39.37800
C  11.34600 56.29500 39.09600
C  10.54400 57.47900 39.09300
C  9.14900 56.93500 39.28100
C  12.88100 56.27200 38.87000
C  11.04200 58.97700 38.89200
O  12.21900 59.19400 38.66600
C  10.15500 60.15700 39.11400
N  6.22600 56.15700 39.99300
C  6.64200 57.42800 39.82600
C  5.53400 58.48900 39.90500
C  4.36300 57.63300 40.40300
C  4.97300 56.24100 40.43000
C  5.81000 59.79800 40.71800
C  3.15500 57.63600 39.41000
C  1.75100 57.46500 40.09600
N  5.76700 53.34400 40.40800
C  4.49200 53.70900 40.65100
C  3.73300 52.55800 41.06700
C  4.65000 51.51700 40.93300
C  5.84900 52.02500 40.46700
C  2.25100 52.52200 41.42500
C  4.82600 50.02700 41.13000
O  4.07900 49.18800 41.66000
C  6.27300 49.70200 40.67500
C  6.03100 48.71000 39.50500
O  5.55400 48.98000 38.40700
O  6.12300 47.42000 39.99500
C  6.04300 46.32700 39.02800
H  11.93600 53.69500 39.44700
H  8.10600 58.80000 39.32000
H  3.18100 55.25200 41.12000
H  9.27400 49.69200 40.48800
H  11.21800 51.14200 38.93500
H  11.08700 50.52400 41.91100
H  11.57900 52.11900 41.41900
H  12.49600 50.71600 40.94100
H  8.61300 48.72100 38.37200
H  10.29000 49.10800 38.17100
H  10.05600 50.21300 36.32300
H  9.56200 51.57700 37.28300
H  13.05400 56.80500 37.93500
H  13.20000 55.24900 38.67300
H  13.50000 56.69700 39.66000
H  9.33800 60.31100 38.40800
H  10.75000 61.05900 38.96700
H  9.78500 60.23900 40.13600
H  5.32200 58.78600 38.87800
H  4.05700 57.88000 41.41900
H  5.53500 60.56000 39.98900
H  6.81600 59.90900 41.12300
H  5.12500 59.80700 41.56600
H  3.28400 56.92600 38.59400
H  3.10700 58.60000 38.90300
H  1.89800 57.23400 41.15100
H  1.18100 56.78600 39.46100
H  1.13800 58.36500 40.09400
H  2.00800 51.69900 42.09700
H  1.70500 52.43700 40.48600
H  1.96800 53.40700 41.99400
H  6.87300 49.23400 41.45600
H  6.44200 45.38100 39.39500
H  6.69800 46.53700 38.18300
H  5.00600 46.14400 38.74600

