158

Mg -2.79100 17.44400 26.80800
C  -2.88400 15.61300 29.80200
C  -3.60000 20.23300 28.68300
C  -2.95300 19.09300 23.95200
C  -3.01800 14.40600 24.93300
N  -3.22700 17.77300 28.98600
C  -3.07300 16.92400 30.03900
C  -3.34000 17.57600 31.41500
C  -3.88100 19.02900 30.96200
C  -3.55700 19.06300 29.41000
C  -5.32300 19.29800 31.40300
C  -2.06800 17.71300 32.37500
C  -2.32500 17.87600 33.86100
H  -1.09200 17.61800 34.73000
N  -3.18700 19.40500 26.39600
C  -3.27900 20.46000 27.29100
C  -3.33600 21.70000 26.53100
C  -3.07300 21.40700 25.16400
C  -3.01900 19.91700 25.12300
C  -3.56700 23.06400 27.16600
C  -2.79700 22.33400 23.96600
O  -2.51200 21.92400 22.85900
C  -3.02700 23.75300 24.08500
N  -2.94000 16.85300 24.73300
C  -2.97500 17.78000 23.77600
C  -3.03500 17.00800 22.30900
C  -2.70600 15.51200 22.72800
C  -2.99200 15.57100 24.22800
C  -4.46700 17.26000 21.65600
C  -1.17600 15.22100 22.43100
C  -0.97900 13.79800 21.73500
N  -2.76500 15.45900 27.18400
C  -2.87500 14.37200 26.37400
C  -2.92900 13.16200 27.20600
C  -2.86900 13.64200 28.49800
C  -2.83100 15.01000 28.46900
C  -3.14200 11.77600 26.77000
C  -2.94700 13.14200 29.84300
O  -3.13100 11.99600 30.18200
C  -2.76000 14.34200 30.81800
C  -1.45400 14.31900 31.44800
O  -0.38100 14.52000 30.84600
O  -1.58700 13.93000 32.76600
C  -0.36000 13.66900 33.59400
H  -3.72900 21.17900 29.21300
H  -2.84200 19.56600 22.97400
H  -2.87400 13.44300 24.43800
H  -4.12800 16.95600 31.84300
H  -3.21200 19.80100 31.34000
H  -5.97700 19.33000 30.53100
H  -5.23800 20.27400 31.88100
H  -5.68500 18.55600 32.11400
H  -1.55100 18.61100 32.03700
H  -1.37500 16.91700 32.10200
H  -3.05500 17.16400 34.24700
H  -2.75300 18.87800 33.83400
H  -4.56800 23.46400 27.00900
H  -2.86400 23.79100 26.76000
H  -3.42500 23.13100 28.24500
H  -3.98300 23.92400 24.58000
H  -3.40100 24.15700 23.14400
H  -2.23700 24.30000 24.59900
H  -2.19900 17.43200 21.75300
H  -3.35700 14.76400 22.27500
H  -5.17000 17.41200 22.47500
H  -4.73500 16.39000 21.05500
H  -4.37100 18.18700 21.09000
H  -0.61200 15.13600 23.36000
H  -0.71000 15.87100 21.69000
H  -0.15000 13.83700 21.02900
H  -1.88500 13.57500 21.17000
H  -0.71500 13.00300 22.43200
H  -2.51300 11.20100 27.44900
H  -2.80300 11.62600 25.74500
H  -4.17200 11.43200 26.86500
H  -3.55000 14.45300 31.56000
H  -0.41500 14.08000 34.60200
H  0.56100 14.04900 33.15200
H  -0.30400 12.58300 33.66700
Mg 45.32400 3.78400 47.74800
C  43.36300 6.65400 47.58400
C  42.54500 1.84600 47.49200
C  47.36100 1.18400 46.95300
C  48.15600 5.88400 47.30700
N  43.27400 4.18200 47.30300
C  42.62100 5.45100 47.53600
C  41.07600 5.25900 47.51300
C  40.88200 3.80400 47.52700
C  42.34200 3.21300 47.45500
C  39.89300 3.32100 48.69400
C  40.24000 6.09800 46.48600
C  40.95800 6.44200 45.17700
H  40.24700 5.92300 43.88300
N  45.03700 1.77600 47.42300
C  43.80100 1.14400 47.36800
C  43.95400 -0.28900 47.16000
C  45.32200 -0.55200 47.03800
C  45.99900 0.82100 47.13900
C  42.84000 -1.34200 47.03000
C  45.95500 -1.93700 46.99700
O  45.31000 -2.96100 46.86400
C  47.45900 -1.98900 46.78500
N  47.49400 3.59800 47.38700
C  48.03300 2.40700 47.07700
C  49.53900 2.44200 46.85800
C  49.83800 3.95700 47.11500
C  48.46700 4.49900 47.36400
C  50.39400 1.49600 47.69200
C  50.59000 4.68400 45.90800
C  52.12300 4.43300 45.96600
N  45.73400 5.81600 47.65600
C  46.90300 6.49500 47.37200
C  46.65200 7.94800 47.43300
C  45.24000 8.02700 47.66400
C  44.73800 6.71700 47.64500
C  47.59300 9.13900 47.26900
C  44.11500 8.99500 47.74500
O  44.07400 10.23500 47.65600
C  42.85900 8.06200 47.75400
C  42.02400 8.40500 48.91900
O  42.22700 7.92800 50.03700
O  40.91200 9.13200 48.53700
C  39.79500 9.17900 49.57900
H  41.69100 1.20000 47.70200
H  48.12400 0.43100 46.74300
H  48.93700 6.64500 47.37000
H  40.73600 5.68600 48.45700
H  40.36700 3.46100 46.62900
H  39.26600 2.53200 48.27700
H  39.24100 4.08400 49.11800
H  40.53900 2.91900 49.47400
H  39.89000 7.03200 46.92700
H  39.27700 5.62900 46.28300
H  41.88000 5.87200 45.05900
H  41.03500 7.52700 45.11600
H  43.00100 -2.12100 47.77600
H  43.13600 -1.75700 46.06600
H  41.83800 -0.92400 47.12700
H  47.92600 -1.52600 47.65400
H  47.73000 -1.50100 45.84900
H  47.76600 -3.01100 46.56200
H  49.61900 2.18800 45.80100
H  50.36500 4.07300 48.06200
H  50.82100 0.72900 47.04600
H  49.97200 0.97700 48.55200
H  51.24200 2.08000 48.05000
H  50.35300 5.74700 45.95000
H  50.31900 4.30600 44.92200
H  52.42200 4.01000 45.00700
H  52.47800 3.78300 46.76600
H  52.72300 5.33500 46.09000
H  47.21800 9.81300 46.49900
H  48.57900 8.73400 47.03800
H  47.66600 9.72800 48.18300
H  42.36000 8.40100 46.84600
H  40.02000 9.03500 50.63500
H  39.09400 8.40300 49.27100
H  39.19600 10.08300 49.46500

