158

Mg 15.78300 -1.87200 27.38400
C  14.80000 0.21800 30.37400
C  17.87300 -3.57700 29.48200
C  16.96300 -3.30700 24.75000
C  13.88900 0.37900 25.52000
N  16.32100 -1.60500 29.69100
C  15.75700 -0.80400 30.68000
C  16.32800 -1.23900 32.00700
C  17.19100 -2.50900 31.72200
C  17.11600 -2.58600 30.21700
C  18.64800 -2.40600 32.32900
C  15.30100 -1.59200 33.12000
C  15.53800 -0.83300 34.49200
H  16.86800 -0.28000 34.94700
N  17.23600 -3.36800 27.12600
C  17.98700 -3.93500 28.06300
C  18.83400 -4.92200 27.48100
C  18.50900 -4.89200 26.09300
C  17.54100 -3.81000 25.89100
C  19.80000 -5.84800 28.24900
C  19.12900 -5.66400 25.00700
O  18.82800 -5.53600 23.81800
C  20.09600 -6.78100 25.28100
N  15.32400 -1.59600 25.39200
C  15.99900 -2.31100 24.44500
C  15.61100 -1.75300 23.05600
C  14.39700 -0.79600 23.30300
C  14.44200 -0.70600 24.82700
C  16.81700 -1.08200 22.33800
C  13.08900 -1.41600 22.87900
C  12.81500 -1.23200 21.37600
N  14.69200 -0.07300 27.76700
C  14.01600 0.64300 26.87500
C  13.34500 1.75200 27.53600
C  13.59500 1.63200 28.89200
C  14.36300 0.47500 29.03800
C  12.64100 2.88800 26.85400
C  13.34000 2.28400 30.22500
O  12.97600 3.39100 30.57200
C  14.10900 1.34100 31.24200
C  15.00400 2.22700 32.04300
O  15.99000 2.77000 31.59900
O  14.49800 2.50500 33.23100
C  15.20000 3.39800 34.13300
H  18.44300 -4.18100 30.19100
H  17.37900 -3.65900 23.80400
H  13.25300 1.05800 24.94900
H  16.96300 -0.45900 32.42600
H  16.59700 -3.37900 32.00500
H  18.71100 -1.47200 32.88700
H  19.39700 -2.40800 31.53700
H  18.67900 -3.35700 32.86100
H  15.33000 -2.66600 33.30600
H  14.31200 -1.33000 32.74600
H  15.15900 -1.43200 35.32000
H  14.96400 0.06800 34.27400
H  20.77100 -5.37600 28.40100
H  19.91000 -6.88900 27.94300
H  19.40700 -5.90000 29.26400
H  21.02200 -6.32800 25.63500
H  20.27600 -7.42700 24.42100
H  19.64400 -7.38600 26.06700
H  15.21500 -2.50700 22.37600
H  14.58300 0.23100 22.98800
H  16.77100 -0.02800 22.61200
H  16.76000 -1.23800 21.26100
H  17.79000 -1.47000 22.64000
H  12.25500 -0.95600 23.40900
H  12.93300 -2.43000 23.24700
H  13.76800 -0.91200 20.95400
H  12.17300 -0.37400 21.17700
H  12.39800 -2.08300 20.83900
H  13.30100 3.45400 26.19600
H  12.25400 3.55300 27.62600
H  11.81500 2.54400 26.23100
H  13.41800 0.91200 31.96700
H  15.04200 4.45400 33.91500
H  16.24500 3.11100 34.25600
H  14.72200 3.28700 35.10600
Mg 34.85500 2.95100 29.35600
C  32.79000 4.14900 31.94900
C  37.26800 2.43600 31.67900
C  36.83500 2.27600 26.72100
C  32.22300 3.52300 27.12600
N  34.97900 3.30400 31.53400
C  34.05800 3.74200 32.39800
C  34.51700 3.59400 33.84300
C  36.03400 3.34000 33.70100
C  36.12300 3.07000 32.18800
C  36.92000 4.46900 34.28400
C  33.77900 2.49300 34.62600
C  33.61300 2.79500 36.16300
H  34.31700 4.08700 36.70600
N  36.83400 2.33500 29.21300
C  37.71500 2.23600 30.26900
C  38.99700 1.83100 29.70500
C  38.88100 1.77000 28.28300
C  37.47700 2.16600 28.00200
C  40.23700 1.56800 30.51500
C  39.87800 1.31400 27.23800
O  39.61100 1.16900 26.10400
C  41.39300 1.06300 27.62300
N  34.64800 2.84300 27.27800
C  35.52700 2.36700 26.42300
C  34.98700 2.29900 24.99600
C  33.49500 2.64000 25.13300
C  33.45100 3.04700 26.62100
C  35.79400 3.11500 23.89200
C  32.40700 1.41400 24.83300
C  31.06700 1.92500 24.31800
N  32.87700 3.74100 29.46100
C  31.96900 3.81000 28.44400
C  30.73500 4.32800 28.99100
C  31.03700 4.54500 30.37000
C  32.31000 4.09400 30.59400
C  29.46600 4.51000 28.22100
C  30.43900 4.78500 31.63700
O  29.24800 4.99900 31.90100
C  31.58600 4.67300 32.78100
C  31.87400 5.96000 33.47800
O  32.51400 6.82200 32.96500
O  31.22400 6.01700 34.70500
C  31.46900 7.14800 35.62900
H  38.15600 2.34600 32.30800
H  37.38500 1.94300 25.83900
H  31.38700 3.63500 26.43300
H  34.41100 4.58100 34.29400
H  36.29500 2.47600 34.31300
H  37.25400 4.10700 35.25600
H  36.41200 5.42000 34.44400
H  37.72900 4.62200 33.57000
H  34.23900 1.50800 34.53500
H  32.81800 2.28900 34.15500
H  33.97200 1.97300 36.78200
H  32.54200 2.88300 36.34400
H  40.78100 0.62400 30.52700
H  40.00100 1.75800 31.56200
H  40.88900 2.40800 30.27600
H  41.76200 1.90200 28.21200
H  41.91800 1.06600 26.66800
H  41.54000 0.07900 28.06700
H  34.89700 1.27700 24.62900
H  33.15300 3.52400 24.59600
H  35.07600 3.73300 23.35400
H  36.42800 2.51500 23.23900
H  36.46700 3.80000 24.40900
H  32.30300 0.88100 25.77800
H  32.76900 0.67200 24.12100
H  30.20000 1.36800 24.67500
H  31.04100 1.93900 23.22800
H  30.93200 2.98800 24.51700
H  29.48300 3.79900 27.39400
H  29.42800 5.50300 27.77300
H  28.66500 4.44000 28.95700
H  31.30600 3.95400 33.55000
H  32.31400 7.77200 35.33800
H  31.57500 6.63100 36.58300
H  30.54300 7.71500 35.72500

