158

Mg 43.08900 4.32200 47.14700
C  40.84600 7.04800 46.91300
C  40.33900 2.25100 47.26700
C  45.12000 1.77400 47.02400
C  45.73000 6.50000 46.82800
N  40.86500 4.65200 47.23500
C  40.25600 5.81500 47.05100
C  38.71000 5.62400 47.20900
C  38.54100 4.17100 47.63200
C  39.97100 3.59800 47.32800
C  37.92200 3.84300 49.01200
C  37.78400 6.09500 45.97800
C  38.31900 5.68900 44.53500
H  38.47500 6.63800 43.40300
N  42.74900 2.34000 47.02700
C  41.56900 1.64700 47.11500
C  41.78300 0.22100 47.11900
C  43.18600 0.06500 46.95200
C  43.77100 1.42400 47.02400
C  40.70500 -0.72400 47.06100
C  43.89900 -1.24700 46.70200
O  43.29500 -2.33200 46.80400
C  45.27100 -1.29000 46.18200
N  45.08900 4.15700 46.67500
C  45.73100 2.98100 46.96300
C  47.25700 3.08800 47.07000
C  47.42900 4.64600 46.90700
C  45.99600 5.15500 46.84400
C  47.85800 2.44000 48.31000
C  48.29800 5.09300 45.71000
C  49.76500 4.61100 45.70400
N  43.29000 6.37100 46.76100
C  44.45800 7.08600 46.77900
C  44.11900 8.52800 46.86300
C  42.64500 8.56000 46.85200
C  42.25600 7.20700 46.80400
C  45.06600 9.74200 46.60400
C  41.43600 9.43400 46.84400
O  41.30800 10.65300 47.02000
C  40.23800 8.49000 46.88700
C  39.35900 8.80100 47.99000
O  39.63600 8.52200 49.16400
O  38.20600 9.39600 47.53500
C  37.29700 9.84400 48.63900
H  39.44700 1.63900 47.41300
H  45.80100 0.92300 47.07200
H  46.53800 7.16800 47.13400
H  38.28900 6.24300 48.00200
H  37.88500 3.71000 46.89300
H  36.99900 3.28000 48.87100
H  37.60900 4.64500 49.68000
H  38.44800 3.11400 49.62900
H  37.50000 7.14500 46.03500
H  36.78600 5.66900 46.07700
H  37.58000 4.98400 44.15500
H  39.24100 5.14900 44.75200
H  39.79300 -0.34700 47.52500
H  40.84400 -1.64600 47.62600
H  40.52000 -0.93400 46.00700
H  45.97800 -1.06300 46.98000
H  45.48100 -0.61100 45.35500
H  45.64400 -2.18600 45.68600
H  47.59100 2.65400 46.12700
H  47.93700 4.95300 47.82100
H  47.12800 2.30000 49.10700
H  48.63700 3.12100 48.65500
H  48.20600 1.42500 48.12000
H  48.28700 6.18000 45.62600
H  47.82500 4.63300 44.84200
H  49.75200 3.72400 45.07000
H  50.21200 4.29700 46.64700
H  50.30500 5.46800 45.30100
H  45.76500 9.53300 45.79400
H  45.72100 9.89400 47.46200
H  44.47400 10.63800 46.41700
H  39.60400 8.49800 46.00000
H  37.80400 10.60300 49.23500
H  36.91800 9.01000 49.22900
H  36.48400 10.42900 48.21000
Mg 26.87700 50.45300 26.94900
C  24.83500 51.47300 29.66800
C  29.16100 49.17600 29.24200
C  28.88300 49.72000 24.44600
C  24.50100 51.61300 24.77800
N  26.95400 50.26300 29.18900
C  25.98600 50.77900 30.11800
C  26.40400 50.31700 31.53600
C  27.86500 49.84800 31.36400
C  28.04100 49.73500 29.86900
C  28.97900 50.75700 32.04500
C  25.47300 49.16200 32.02100
C  24.24800 49.55100 32.87500
H  24.36800 49.01500 34.27700
N  28.81400 49.58400 26.83900
C  29.50800 49.06100 27.87500
C  30.75100 48.38900 27.35100
C  30.82500 48.62900 25.94300
C  29.46900 49.32400 25.67500
C  31.76700 47.64800 28.28100
C  31.79200 48.35500 24.89800
O  31.66800 48.67100 23.71900
C  33.03800 47.59700 25.28800
N  26.82900 50.86300 24.87300
C  27.76500 50.41200 24.03100
C  27.42900 50.75300 22.56700
C  25.84900 50.94500 22.70100
C  25.68300 51.19600 24.20200
C  28.19500 52.01100 21.97300
C  24.98800 49.70400 22.14200
C  23.80000 50.10000 21.28000
N  25.08100 51.51700 27.10200
C  24.22300 51.91200 26.15900
C  22.99200 52.49900 26.83200
C  23.25000 52.34600 28.17700
C  24.50500 51.65200 28.30600
C  21.83800 53.17200 26.19000
C  22.69500 52.61300 29.48900
O  21.73900 53.29600 29.73300
C  23.66000 51.97300 30.52400
C  24.08700 53.01100 31.51000
O  25.15100 53.63100 31.50200
O  23.12100 53.18800 32.49400
C  23.53400 54.19800 33.46600
H  29.81700 48.63700 29.92900
H  29.39100 49.44400 23.52000
H  23.69700 51.87800 24.08900
H  26.32100 51.15200 32.23300
H  27.95500 48.82900 31.74100
H  29.17700 51.53600 31.30900
H  29.90600 50.18700 32.09800
H  28.69000 50.95000 33.07900
H  25.95500 48.43100 32.67000
H  25.15700 48.62500 31.12700
H  23.29400 49.25800 32.43700
H  24.13000 50.63100 32.95800
H  31.61400 48.00200 29.30000
H  32.80100 47.72900 27.94400
H  31.36900 46.63700 28.36900
H  33.52400 48.04400 26.15500
H  33.80400 47.62000 24.51300
H  32.74500 46.59400 25.60000
H  27.52800 49.89300 21.90400
H  25.67100 51.84400 22.11100
H  29.19100 51.97900 22.41300
H  27.58600 52.89500 22.16100
H  28.32300 51.93100 20.89300
H  24.55000 49.33200 23.06800
H  25.52700 48.89300 21.65200
H  23.83900 49.76700 20.24300
H  23.57000 51.16300 21.34900
H  22.93800 49.59900 21.72100
H  21.60400 54.14200 26.62900
H  20.95000 52.54900 26.08400
H  22.09300 53.34400 25.14400
H  23.18800 51.15900 31.07400
H  23.68200 55.15600 32.96700
H  24.40100 53.85000 34.02800
H  22.69900 54.33300 34.15300

