158

Mg 43.49000 42.13800 27.00900
C  42.33400 44.26000 29.50600
C  45.22100 40.36900 29.42500
C  44.88600 40.17000 24.47500
C  42.42600 44.31400 24.54600
N  43.64700 42.28200 29.07000
C  42.96200 43.09600 29.93100
C  43.22200 42.75700 31.42700
C  44.35700 41.75600 31.32400
C  44.43600 41.44900 29.81400
C  45.75500 42.23300 31.87200
C  41.91400 42.19700 32.05100
C  42.03400 41.94000 33.53000
H  41.32800 42.86100 34.51600
N  44.80000 40.50700 26.91600
C  45.37800 39.92200 28.05500
C  46.13000 38.72700 27.66600
C  46.10100 38.70100 26.25800
C  45.19800 39.76200 25.83800
C  46.79500 37.94300 28.78200
C  46.76600 37.83400 25.28300
O  46.69100 37.99000 24.06200
C  47.63500 36.73200 25.73700
N  43.60800 42.18000 24.84700
C  44.19200 41.31700 24.02400
C  44.04800 41.61100 22.51200
C  43.18700 42.90900 22.58300
C  43.03100 43.12100 24.13500
C  45.32600 41.61000 21.65200
C  41.88800 42.88600 21.75700
C  40.71400 41.96700 22.35800
N  42.50100 43.94000 26.97600
C  42.10800 44.66800 25.93800
C  41.57600 45.89600 26.40700
C  41.52400 45.70900 27.82200
C  42.14500 44.53200 28.09900
C  41.11900 47.09000 25.57100
C  41.17500 46.33400 29.10900
O  40.77100 47.48300 29.40400
C  41.50700 45.33000 30.28300
C  42.38500 45.91700 31.33900
O  43.42500 46.48600 31.10800
O  41.82300 45.86100 32.59200
C  42.58800 46.59000 33.57900
H  45.57400 39.76600 30.26400
H  45.24100 39.60200 23.61200
H  41.92300 44.94800 23.81300
H  43.49500 43.58800 32.07700
H  44.21300 40.83800 31.89400
H  45.65300 43.12000 32.49700
H  46.50300 42.42400 31.10200
H  46.09600 41.43300 32.52900
H  41.65400 41.31100 31.47300
H  41.19000 42.96400 31.77700
H  43.08800 41.89000 33.80400
H  41.73800 40.89400 33.61900
H  46.09500 37.54800 29.51900
H  47.45700 38.62400 29.31600
H  47.39700 37.12200 28.39300
H  48.48100 37.03300 26.35400
H  48.02600 36.32000 24.80600
H  47.09300 35.97800 26.30700
H  43.44500 40.87900 21.97400
H  43.76000 43.80300 22.33400
H  46.13300 41.49700 22.37600
H  45.58900 42.39100 20.93800
H  45.30900 40.67700 21.09000
H  42.23600 42.56300 20.77600
H  41.60100 43.91400 21.53700
H  40.33600 41.29300 21.58900
H  39.88900 42.49400 22.83600
H  41.06900 41.25900 23.10700
H  40.39400 46.61100 24.91300
H  41.98100 47.48300 25.03300
H  40.75500 47.83400 26.28000
H  40.61900 44.83900 30.67900
H  43.64500 46.33200 33.51300
H  42.21000 46.39300 34.58200
H  42.49700 47.65200 33.35100
Mg -2.36000 33.41000 25.81600
C  -4.04500 31.99800 28.60900
C  -0.59700 35.35700 28.03400
C  -0.74700 34.59700 23.19700
C  -4.35500 31.40300 23.71800
N  -2.51000 33.86700 28.07300
C  -3.11400 32.96800 29.00100
C  -2.71100 33.22800 30.40400
C  -1.73000 34.47600 30.27000
C  -1.64600 34.61400 28.69200
C  -2.07200 35.89400 30.96300
C  -1.99000 31.99100 31.09100
C  -1.79100 32.08400 32.59000
H  -2.93900 31.54400 33.50100
N  -0.95500 34.87900 25.63600
C  -0.33100 35.53500 26.65300
C  0.69300 36.38800 25.99400
C  0.60100 36.31000 24.62000
C  -0.43500 35.24900 24.41100
C  1.53000 37.35600 26.82200
C  1.28600 37.08700 23.52600
O  1.15200 36.78900 22.33400
C  2.26300 38.19800 23.87800
N  -2.69700 33.21200 23.75200
C  -1.74900 33.72600 22.85400
C  -1.96100 33.22100 21.44200
C  -2.92000 31.98000 21.68400
C  -3.38300 32.25500 23.10900
C  -2.60200 34.25000 20.51500
C  -2.37900 30.61600 21.61900
C  -3.22200 29.65300 20.82200
N  -3.81600 31.97200 26.04300
C  -4.55400 31.23500 25.08900
C  -5.32300 30.23300 25.76400
C  -5.18800 30.56000 27.07400
C  -4.24300 31.62300 27.24600
C  -6.31900 29.28600 25.14100
C  -5.68000 30.18000 28.43600
O  -6.52000 29.35400 28.82500
C  -5.06900 31.17100 29.39700
C  -6.13000 31.98700 30.06500
O  -6.97600 32.58900 29.48100
O  -6.10300 31.74900 31.45100
C  -7.14700 32.40300 32.24600
H  0.03800 35.94300 28.70100
H  -0.17600 34.94700 22.33500
H  -4.96700 30.71900 23.12700
H  -3.53100 33.65100 30.98400
H  -0.70200 34.28700 30.57900
H  -2.41900 36.52500 30.14400
H  -1.16700 36.37400 31.33500
H  -2.85600 36.02300 31.70900
H  -1.05400 31.80500 30.56500
H  -2.64400 31.13600 30.91900
H  -1.83500 33.16500 32.72400
H  -0.83900 31.70200 32.95700
H  2.57800 37.20200 26.56300
H  1.44700 37.21000 27.89900
H  1.39000 38.41600 26.61200
H  1.79900 39.03500 24.40100
H  2.71300 38.59100 22.96600
H  3.03900 37.79800 24.53000
H  -0.99300 32.89700 21.06000
H  -3.71300 32.04600 20.94000
H  -2.83700 35.10000 21.15600
H  -3.40000 33.86500 19.88000
H  -1.78300 34.54100 19.85800
H  -2.18000 30.17100 22.59400
H  -1.39000 30.59000 21.16000
H  -4.16600 30.09100 20.49900
H  -3.53100 28.80600 21.43400
H  -2.71400 29.23600 19.95200
H  -7.15300 29.86300 24.74200
H  -6.52800 28.61900 25.97700
H  -5.85100 28.85600 24.25500
H  -4.53200 30.54800 30.11100
H  -6.83900 32.60600 33.27200
H  -8.04000 31.77900 32.27200
H  -7.40300 33.37600 31.82700

