158

Mg 15.72200 -2.42400 28.43700
C  15.01200 -0.50000 31.40000
C  18.28400 -3.97900 30.38900
C  16.94500 -3.67000 25.64100
C  13.75100 -0.14200 26.62700
N  16.59300 -2.26400 30.71000
C  16.02800 -1.49400 31.61200
C  16.63600 -1.81700 33.05000
C  17.84200 -2.67600 32.64500
C  17.57400 -3.01400 31.16600
C  19.29900 -2.14200 32.87100
C  15.59700 -2.49200 34.06600
C  15.77800 -2.11400 35.54300
H  17.09300 -1.40100 35.97700
N  17.20000 -3.83500 28.12300
C  18.16200 -4.34200 29.04400
C  18.89800 -5.39100 28.36900
C  18.55400 -5.25200 26.89900
C  17.53500 -4.16700 26.81700
C  19.90300 -6.25400 28.98000
C  19.25600 -5.87900 25.62600
O  18.88600 -5.73400 24.46900
C  20.44200 -6.77600 25.80500
N  15.45100 -1.91700 26.50100
C  16.04400 -2.59700 25.49400
C  15.63300 -1.98500 24.11000
C  14.48400 -1.02600 24.42800
C  14.53800 -1.00300 25.95100
C  16.88200 -1.28600 23.36600
C  13.13200 -1.24400 23.69300
C  11.98300 -1.88900 24.46400
N  14.52900 -0.73300 28.91900
C  13.72900 0.05500 28.06200
C  12.99100 0.98900 28.86500
C  13.50900 0.82300 30.13200
C  14.44600 -0.21000 30.15100
C  12.15900 2.12000 28.48200
C  13.43900 1.37700 31.44600
O  12.83100 2.34000 31.87900
C  14.43900 0.48600 32.36100
C  15.38900 1.47100 33.08200
O  16.18300 2.28800 32.57500
O  15.03800 1.45600 34.41100
C  15.69100 2.44300 35.23900
H  19.13000 -4.43500 30.90800
H  17.16200 -4.14600 24.68200
H  13.03200 0.45700 26.06400
H  17.02500 -0.85200 33.37400
H  17.85300 -3.63400 33.16400
H  19.80000 -2.69000 33.67000
H  19.31900 -1.09500 33.17300
H  19.94300 -2.27000 32.00100
H  15.76300 -3.56900 34.03900
H  14.55200 -2.32700 33.80200
H  15.74300 -3.05300 36.09500
H  14.85500 -1.61200 35.83400
H  19.78600 -7.20300 28.45800
H  19.75700 -6.39600 30.05100
H  20.84000 -5.72800 28.79400
H  20.14800 -7.64400 26.39500
H  21.21100 -6.23600 26.35800
H  20.77200 -6.92300 24.77700
H  15.35600 -2.83200 23.48200
H  14.53200 0.05500 24.29300
H  16.59600 -0.61000 22.56000
H  17.48200 -2.03500 22.85000
H  17.58300 -0.72900 23.98800
H  13.25500 -1.74400 22.73200
H  12.63700 -0.32100 23.39100
H  12.38100 -2.45900 25.30400
H  11.36300 -2.62500 23.95200
H  11.40000 -1.06800 24.87900
H  11.36700 2.11800 29.23100
H  11.72000 1.98500 27.49300
H  12.66800 3.08300 28.52600
H  13.77300 -0.01000 33.06700
H  15.39500 2.26000 36.27200
H  15.23900 3.39700 34.97000
H  16.76100 2.50900 35.04200
Mg -10.74700 38.34600 41.74300
C  -8.93900 35.60500 40.78500
C  -8.33200 40.43700 40.16900
C  -12.91800 40.90800 41.98600
C  -13.39500 36.12700 42.72900
N  -8.93300 38.01800 40.58700
C  -8.43000 36.80400 40.23800
C  -7.15400 36.94100 39.46100
C  -6.79700 38.45200 39.46200
C  -8.10300 39.04600 40.13000
C  -5.53900 38.92100 40.24700
C  -7.30600 36.34400 38.02400
C  -6.23800 35.26000 37.65400
H  -5.18700 35.61700 36.59500
N  -10.55600 40.40300 41.35400
C  -9.57200 41.06900 40.63900
C  -9.88300 42.49800 40.51700
C  -11.09700 42.72300 41.16100
C  -11.55600 41.31500 41.61900
C  -8.89900 43.49200 39.96300
C  -11.81500 44.14700 41.32800
O  -11.39100 45.15300 40.79600
C  -13.02200 44.23900 42.22000
N  -12.91500 38.40900 42.12500
C  -13.51300 39.64500 42.26900
C  -15.02500 39.46000 42.63800
C  -15.09600 37.91900 42.92200
C  -13.72400 37.45100 42.55900
C  -15.70900 40.42500 43.73600
C  -16.28700 37.20700 42.19300
C  -16.18500 36.94700 40.66200
N  -11.04500 36.22600 41.85600
C  -12.19800 35.52200 42.34600
C  -11.71700 34.14400 42.57800
C  -10.37400 34.10500 41.97400
C  -10.07900 35.39900 41.54400
C  -12.48000 33.00600 43.20900
C  -9.19300 33.26600 41.60700
O  -8.96200 32.06800 41.81000
C  -8.28300 34.20300 40.75500
C  -6.89400 34.20900 41.34500
O  -5.91100 33.52700 40.95800
O  -6.77300 35.19700 42.32900
C  -5.40000 35.44900 42.75200
H  -7.65400 41.03900 39.56000
H  -13.69300 41.67700 41.97000
H  -14.08100 35.42000 43.20000
H  -6.25600 36.55200 39.94200
H  -6.65700 38.92200 38.48800
H  -5.68900 39.93800 40.60800
H  -4.63400 38.90100 39.64000
H  -5.47700 38.30000 41.14000
H  -7.21400 37.16000 37.30700
H  -8.34000 36.06500 37.82500
H  -6.87000 34.41600 37.37700
H  -5.71200 34.99100 38.57000
H  -9.03400 44.40300 40.54500
H  -9.02200 43.57600 38.88300
H  -7.96800 42.96300 40.16400
H  -12.96900 43.52200 43.04000
H  -13.91400 44.03300 41.62900
H  -13.07500 45.25500 42.61100
H  -15.63700 39.77700 41.79300
H  -15.14000 37.92300 44.01100
H  -16.35800 39.90500 44.44100
H  -16.37400 41.14100 43.25200
H  -15.02500 40.91400 44.42900
H  -17.18400 37.80500 42.35300
H  -16.50900 36.28900 42.73900
H  -16.44800 37.89000 40.18300
H  -16.86000 36.13400 40.39700
H  -15.19500 36.59300 40.37500
H  -12.12800 32.01500 42.92400
H  -13.55300 32.98600 43.01800
H  -12.32200 33.06300 44.28600
H  -8.38100 33.90400 39.71200
H  -4.84900 34.52000 42.90000
H  -5.36100 35.94200 43.72300
H  -4.92000 36.07600 42.00100

