158

Mg 49.51800 35.56600 27.50300
C  47.58800 34.46200 30.17300
C  50.30300 38.35200 29.22900
C  51.21100 36.45000 24.86100
C  48.43600 32.77600 25.64800
N  48.78000 36.44700 29.38000
C  48.10600 35.73600 30.36500
C  48.29800 36.43100 31.74100
C  48.89000 37.85500 31.33500
C  49.35500 37.55700 29.87800
C  47.83100 39.01200 31.27300
C  49.15500 35.74500 32.78600
C  48.83700 35.81000 34.22900
H  48.47000 37.25300 34.56800
N  50.55300 37.17700 27.10100
C  50.84500 38.20800 27.95900
C  51.85800 39.08600 27.34100
C  52.14600 38.52700 26.03600
C  51.25100 37.37900 25.90100
C  52.42400 40.36000 27.99100
C  53.30600 38.96600 25.05400
O  53.46900 38.42800 23.94100
C  54.10700 40.19500 25.37300
N  49.82100 34.64200 25.51100
C  50.53000 35.29700 24.64500
C  50.56200 34.65200 23.30600
C  49.89400 33.28800 23.52700
C  49.33100 33.55300 24.95400
C  49.90800 35.46100 22.09100
C  50.73800 32.03700 23.46100
C  50.04200 30.88900 22.76000
N  48.32300 33.93500 27.78500
C  47.96100 32.86100 27.02200
C  47.05200 31.95700 27.68700
C  46.85000 32.60100 28.92300
C  47.65800 33.77700 28.97000
C  46.49600 30.73200 27.09300
C  46.04400 32.53000 30.12500
O  45.13900 31.81500 30.53100
C  46.47000 33.77800 30.99600
C  46.79200 33.35400 32.38000
O  47.77000 32.65400 32.68100
O  45.73300 33.62300 33.17200
C  45.49200 32.94100 34.50100
H  50.63800 39.20800 29.81900
H  51.73000 36.93500 24.03200
H  48.03900 31.91500 25.10700
H  47.29700 36.61100 32.13300
H  49.81200 38.18400 31.81500
H  48.07700 39.48100 30.32100
H  48.04100 39.70700 32.08600
H  46.87000 38.49700 31.25800
H  50.16600 36.12000 32.62300
H  49.30100 34.71600 32.45800
H  49.56800 35.33900 34.88600
H  47.89600 35.26100 34.27800
H  53.49800 40.22800 28.12500
H  51.95200 40.64800 28.93000
H  52.30000 41.26000 27.38900
H  54.99200 40.23600 24.73800
H  54.49000 39.97700 26.37000
H  53.56000 41.13100 25.26200
H  51.62000 34.44700 23.14600
H  49.10200 33.17600 22.78700
H  49.34900 34.81200 21.41800
H  50.64400 35.91200 21.42600
H  49.31800 36.31000 22.43700
H  51.01000 31.56000 24.40300
H  51.62300 32.26400 22.86600
H  50.07600 30.00300 23.39300
H  50.51200 30.67000 21.80100
H  48.98400 30.97800 22.51300
H  47.18600 30.19500 26.44300
H  45.68600 31.07200 26.44800
H  46.02800 30.04400 27.79800
H  45.68900 34.49100 31.25800
H  46.33700 32.30200 34.76000
H  44.72800 32.16300 34.53700
H  45.15400 33.57500 35.32100
Mg 29.07700 57.86500 40.54700
C  26.39400 55.98300 39.59500
C  31.16200 55.75800 38.81200
C  31.45500 60.25300 40.60700
C  26.76300 60.33100 41.79700
N  28.75400 56.30900 39.06600
C  27.56700 55.56000 38.97200
C  27.72500 54.48100 37.91000
C  29.26300 54.20700 38.01800
C  29.83600 55.44100 38.71000
C  29.77300 52.88400 38.74600
C  27.14100 54.84300 36.59400
C  27.76800 56.06000 35.87200
H  27.88900 56.00600 34.33900
N  31.04900 57.90400 39.95200
C  31.72700 56.94800 39.31600
C  33.13300 57.18100 39.31600
C  33.25900 58.46600 39.94400
C  31.89200 58.97900 40.17500
C  34.21200 56.25900 38.78100
C  34.53900 59.11500 40.21100
O  35.56500 58.72500 39.78200
C  34.58200 60.24500 41.13900
N  29.08500 60.02000 41.07400
C  30.18200 60.76300 40.95400
C  30.02500 62.15200 41.53800
C  28.55000 62.10500 42.13700
C  28.07900 60.71800 41.68000
C  31.09600 62.53900 42.66200
C  27.67400 63.38900 41.81000
C  26.73200 63.78300 42.92100
N  27.00800 58.04100 40.83200
C  26.20300 59.08700 41.34200
C  24.88400 58.57900 41.39800
C  24.87500 57.41700 40.68100
C  26.19900 57.15100 40.33400
C  23.71900 59.21900 42.13400
C  24.08300 56.23500 40.21900
O  22.90900 55.97000 40.44000
C  25.09100 55.32300 39.34500
C  25.16100 54.00800 39.99700
O  25.45400 53.84600 41.19500
O  24.80800 53.06300 39.11400
C  24.70400 51.66700 39.61200
H  31.78900 54.93900 38.45300
H  32.32000 60.90700 40.73400
H  26.10000 61.13200 42.12900
H  27.19400 53.63400 38.34500
H  29.59300 54.16800 36.97900
H  30.42400 53.10400 39.59200
H  30.28400 52.22900 38.04000
H  28.99300 52.24100 39.15200
H  26.06900 54.99200 36.71600
H  27.28600 53.89500 36.07700
H  28.78700 56.15900 36.24600
H  27.26100 56.93400 36.27900
H  33.90500 55.21400 38.71900
H  35.12700 56.25900 39.37300
H  34.40900 56.63800 37.77800
H  34.48600 61.17100 40.57100
H  35.61600 60.17100 41.47600
H  33.91500 60.14800 41.99500
H  30.09000 62.79500 40.66000
H  28.65400 61.98800 43.21500
H  30.52700 62.63300 43.58700
H  31.63800 63.46200 42.45600
H  31.81000 61.71800 42.73000
H  27.10700 63.10600 40.92300
H  28.39100 64.16200 41.53400
H  26.88000 64.80400 43.27500
H  26.86300 63.19400 43.82900
H  25.68200 63.77500 42.62900
H  23.03400 58.40800 42.38400
H  23.25700 59.88000 41.40200
H  24.17400 59.75600 42.96600
H  24.73100 55.30400 38.31700
H  25.68200 51.26500 39.87300
H  24.32200 50.91900 38.91800
H  24.21500 51.65800 40.58700

