158

Mg 10.05100 47.88100 26.10400
C  7.92600 48.05100 28.94900
C  12.53200 49.33300 27.81400
C  11.84000 47.82200 23.43400
C  7.09000 47.19800 24.24200
N  10.12500 48.81800 28.04900
C  9.29400 48.53300 29.09800
C  10.01800 48.93500 30.41300
C  11.15000 49.73100 29.93900
C  11.28100 49.29000 28.48800
C  10.98600 51.24100 29.98400
C  10.44400 47.67100 31.23800
C  9.76900 47.49000 32.60600
H  10.17800 46.32100 33.47600
N  11.98600 48.43800 25.70100
C  12.92600 48.89800 26.56100
C  14.26700 48.92400 25.91500
C  14.03600 48.44400 24.59900
C  12.55400 48.23400 24.50300
C  15.60200 49.26100 26.73100
C  15.02500 48.27200 23.45500
O  14.75000 47.90800 22.27200
C  16.52000 48.43100 23.72300
N  9.48500 47.82300 24.03700
C  10.54700 47.66000 23.21100
C  9.99700 47.30700 21.78900
C  8.46000 46.94700 22.06000
C  8.32300 47.30000 23.51600
C  10.16300 48.38900 20.68300
C  8.08300 45.44500 21.69100
C  8.33300 44.26200 22.65300
N  7.96300 47.62800 26.49800
C  6.90400 47.34400 25.64800
C  5.65000 47.28800 26.33100
C  6.06500 47.48400 27.67200
C  7.42000 47.70100 27.65900
C  4.32300 47.00000 25.79600
C  5.49900 47.51500 29.02000
O  4.31600 47.48700 29.29900
C  6.69300 47.71500 29.87500
C  6.94700 46.45800 30.60700
O  7.65700 45.55600 30.26900
O  6.08200 46.56400 31.70100
C  6.23400 45.45400 32.66800
H  13.37200 49.76300 28.36400
H  12.41500 47.74200 22.50900
H  6.18400 46.95100 23.68500
H  9.27700 49.49600 30.98200
H  12.11200 49.59000 30.43400
H  11.76900 51.62300 30.63900
H  10.02600 51.49600 30.43400
H  11.24500 51.76000 29.06100
H  11.52000 47.68500 31.41000
H  10.11100 46.73800 30.78200
H  8.70400 47.56900 32.38800
H  9.99000 48.41200 33.14400
H  16.19300 48.35200 26.61800
H  15.35900 49.50200 27.76600
H  15.99400 50.16400 26.26200
H  16.81100 47.81700 24.57500
H  16.82200 49.47800 23.67700
H  16.99400 48.01600 22.83400
H  10.57300 46.43500 21.48100
H  7.83500 47.63100 21.48500
H  9.28300 49.00200 20.48800
H  10.28600 47.78700 19.78300
H  11.02700 49.00400 20.93400
H  8.76200 45.20700 20.87300
H  7.08300 45.46800 21.25700
H  7.43400 43.99600 23.20800
H  9.02900 44.52400 23.44900
H  8.70600 43.40800 22.08700
H  3.66700 46.63300 26.58500
H  4.34100 46.37500 24.90300
H  3.91100 47.94600 25.44300
H  6.58100 48.58300 30.52500
H  6.07000 46.01900 33.58500
H  7.26800 45.11100 32.63900
H  5.52900 44.62300 32.63300
Mg -12.23000 15.92600 41.77700
C  -9.22200 14.05200 41.27600
C  -10.81200 18.44800 39.89900
C  -15.22100 17.34200 41.59500
C  -13.69900 12.94800 43.10400
N  -10.27200 16.09300 40.44000
C  -9.19500 15.27900 40.54700
C  -7.93900 15.94900 39.95400
C  -8.47900 17.35700 39.59900
C  -9.93200 17.34200 40.08000
C  -7.67200 18.58900 40.23400
C  -7.44100 15.12600 38.71000
C  -5.97200 15.09100 38.49800
H  -5.61000 15.66800 37.18400
N  -12.94700 17.69300 40.98100
C  -12.19500 18.61200 40.22600
C  -13.05600 19.74400 39.80200
C  -14.31000 19.47200 40.31100
C  -14.21500 18.17600 41.05100
C  -12.52000 20.85500 38.93200
C  -15.55500 20.33400 40.04200
O  -15.53500 21.28200 39.24400
C  -16.78000 20.12300 40.84900
N  -14.14600 15.23400 42.29400
C  -15.19700 16.09000 42.16200
C  -16.48700 15.23500 42.39600
C  -16.01200 13.96800 43.06900
C  -14.53000 14.04200 42.85200
C  -17.49900 15.97300 43.37400
C  -16.74900 12.60300 42.74500
C  -16.96900 11.67600 43.89000
N  -11.60600 14.00600 42.28100
C  -12.29300 12.90500 42.80000
C  -11.43700 11.80900 42.97900
C  -10.22400 12.21600 42.43500
C  -10.36300 13.54200 41.97400
C  -11.77100 10.50800 43.60100
C  -8.85900 11.78600 42.20500
O  -8.31000 10.71300 42.49100
C  -8.11800 12.95500 41.50100
C  -7.14300 13.45600 42.47800
O  -7.34000 13.68900 43.66000
O  -5.94200 13.76100 41.86500
C  -5.00000 14.53600 42.75100
H  -10.25600 19.18900 39.32100
H  -16.17700 17.63000 41.15300
H  -14.28000 12.11400 43.50500
H  -7.15200 16.00600 40.70500
H  -8.59400 17.51400 38.52700
H  -6.64100 18.24700 40.13600
H  -7.88300 18.75800 41.29000
H  -7.81700 19.59200 39.83400
H  -7.87000 15.62400 37.84000
H  -7.85500 14.11800 38.70800
H  -5.66700 14.05300 38.62900
H  -5.39900 15.71800 39.18100
H  -13.28200 21.49200 38.48300
H  -11.88000 20.35800 38.20300
H  -11.84700 21.52000 39.47400
H  -16.54000 19.80400 41.86300
H  -17.30800 19.35900 40.27900
H  -17.42500 20.99800 40.93100
H  -16.91500 14.93700 41.43900
H  -16.17400 14.13300 44.13400
H  -17.91300 15.21000 44.03200
H  -18.31200 16.47200 42.84600
H  -16.95700 16.72900 43.94300
H  -16.17000 12.08000 41.98300
H  -17.78600 12.66900 42.41500
H  -16.58000 10.70300 43.58900
H  -18.04500 11.52900 43.98900
H  -16.44300 11.94800 44.80500
H  -11.93300 10.73600 44.65400
H  -10.92400 9.83500 43.47400
H  -12.71900 10.13800 43.20800
H  -7.62100 12.63100 40.58700
H  -5.16800 14.43500 43.82300
H  -5.09700 15.60600 42.56900
H  -4.01900 14.10000 42.56000

