158

Mg 41.50800 8.10300 29.79200
C  43.34700 9.34800 32.53400
C  39.28200 6.70200 31.94200
C  39.86600 7.08200 27.11800
C  44.10100 9.34500 27.80800
N  41.42300 7.88000 32.01400
C  42.23300 8.53200 32.96100
C  41.72100 8.19500 34.39400
C  40.54600 7.21400 34.11300
C  40.37600 7.25700 32.60500
C  40.74400 5.72500 34.56400
C  41.34400 9.38600 35.23500
C  41.96500 9.35500 36.66900
H  42.09300 10.55400 37.48600
N  39.82100 6.95900 29.56200
C  38.96900 6.61200 30.59500
C  37.76600 5.98000 30.07600
C  37.92300 6.14000 28.58200
C  39.24600 6.73700 28.31000
C  36.69300 5.46600 30.91600
C  36.90400 5.82400 27.52200
O  37.04000 6.01200 26.34600
C  35.60100 5.23600 27.87200
N  41.93900 8.22100 27.69800
C  41.11800 7.61600 26.80200
C  41.81800 7.62900 25.41800
C  43.15400 8.50500 25.64000
C  43.02100 8.78900 27.09700
C  42.11000 6.26900 24.77500
C  43.17000 9.85300 24.85000
C  42.06900 10.89500 24.92400
N  43.33600 9.24000 30.05600
C  44.27600 9.58800 29.15800
C  45.35600 10.24900 29.89500
C  45.02100 10.29200 31.24500
C  43.79800 9.63400 31.24200
C  46.54900 10.84300 29.29100
C  45.48100 10.72600 32.55600
O  46.42800 11.33500 33.03100
C  44.37200 10.12200 33.43800
C  45.04700 9.36600 34.61600
O  45.43300 8.21200 34.58400
O  45.43900 10.34500 35.49800
C  46.28800 9.93200 36.61500
H  38.54200 6.35700 32.66700
H  39.26200 6.69400 26.29600
H  44.95500 9.47400 27.14000
H  42.51300 7.68600 34.94400
H  39.62700 7.44300 34.65100
H  40.06600 5.52800 35.39500
H  41.79900 5.56300 34.78300
H  40.61100 5.08800 33.68900
H  40.27400 9.55100 35.35900
H  41.58700 10.32500 34.73700
H  42.96300 8.91600 36.66800
H  41.21600 8.79600 37.23000
H  35.93300 6.24300 30.99200
H  37.02500 5.18600 31.91600
H  36.20700 4.60700 30.45400
H  35.17200 5.87000 28.64900
H  35.71200 4.23800 28.29600
H  34.95500 5.11600 27.00300
H  41.12900 8.09700 24.71500
H  44.06700 7.95600 25.40900
H  41.45700 5.53600 25.25000
H  43.13200 5.97600 24.53500
H  41.66500 6.31600 23.78100
H  43.42900 9.48400 23.85800
H  44.05200 10.41800 25.15200
H  41.33900 10.50400 25.63200
H  41.47500 10.97600 24.01400
H  42.40300 11.86200 25.30100
H  47.46400 10.36600 29.64300
H  46.50900 11.84000 29.73200
H  46.49000 10.89500 28.20400
H  43.86200 11.00100 33.83100
H  47.34100 10.08800 36.38000
H  46.10900 8.91800 36.97300
H  46.00000 10.59600 37.43000
Mg -2.66300 35.04200 26.85200
C  -4.52300 33.47400 29.21300
C  -1.83100 37.50700 29.09600
C  -0.64400 36.44900 24.52400
C  -3.93400 32.98000 24.41800
N  -3.20300 35.45200 28.88200
C  -3.91200 34.60200 29.69500
C  -3.85700 35.10400 31.16300
C  -3.42300 36.58200 30.98200
C  -2.73900 36.53400 29.53900
C  -4.57600 37.58500 30.95900
C  -2.88100 34.28900 32.11000
C  -3.41000 33.70100 33.38600
H  -2.52500 33.59000 34.67100
N  -1.39100 36.74300 26.82300
C  -1.13000 37.59200 27.85400
C  -0.04900 38.44000 27.50100
C  0.33000 38.15200 26.17600
C  -0.53700 37.07200 25.76500
C  0.38700 39.51100 28.47600
C  1.31900 38.78700 25.20700
O  1.57000 38.21700 24.16800
C  1.96200 40.07500 25.55400
N  -2.38200 34.83400 24.70100
C  -1.39500 35.47100 24.06000
C  -1.18600 34.87600 22.62100
C  -2.30100 33.72200 22.58800
C  -2.92400 33.86800 24.01000
C  -1.36700 35.94800 21.48800
C  -1.73000 32.33600 22.19800
C  -2.70900 31.38100 21.46000
N  -4.09200 33.63000 26.75900
C  -4.54500 32.88100 25.68600
C  -5.49900 31.89600 26.18900
C  -5.45300 32.04900 27.58400
C  -4.58900 33.12100 27.83500
C  -6.14000 30.76700 25.43400
C  -5.91300 31.51400 28.83500
O  -6.51700 30.46500 29.07400
C  -5.31500 32.44800 29.97400
C  -6.45800 33.11600 30.69900
O  -7.20700 33.93300 30.23500
O  -6.64700 32.52200 31.91500
C  -7.49100 33.31400 32.78400
H  -1.42600 38.12200 29.90300
H  -0.00700 36.76300 23.69400
H  -4.31200 32.32100 23.63400
H  -4.91900 34.99500 31.38100
H  -2.67200 36.90600 31.70200
H  -5.43600 37.00500 31.29400
H  -4.68600 37.91300 29.92600
H  -4.57800 38.32300 31.76100
H  -2.00500 34.91700 32.27300
H  -2.54500 33.43100 31.52900
H  -3.76500 32.71400 33.09000
H  -4.34400 34.17400 33.69000
H  0.85600 39.23500 29.42000
H  -0.41000 40.18000 28.80000
H  1.01300 40.25600 27.98400
H  2.41800 40.40900 24.62200
H  2.67100 39.79500 26.33400
H  1.20000 40.76600 25.91500
H  -0.18300 34.44900 22.58900
H  -3.04600 33.98100 21.83400
H  -2.13500 36.56900 21.94800
H  -1.75800 35.46600 20.59200
H  -0.44800 36.47600 21.23200
H  -1.59600 31.78000 23.12600
H  -0.70000 32.35300 21.84300
H  -2.15900 30.90700 20.64800
H  -3.49200 32.05500 21.11100
H  -3.06300 30.58400 22.11300
H  -5.76500 30.81700 24.41200
H  -7.21700 30.69900 25.59100
H  -5.60400 29.95400 25.92300
H  -4.64800 31.88200 30.62400
H  -7.24100 34.37100 32.86900
H  -7.60100 32.87400 33.77500
H  -8.47700 33.31300 32.32000

