158

Mg 26.24900 -0.09300 29.40300
C  28.12900 -0.61500 32.30800
C  23.51500 0.18700 31.31800
C  24.55400 0.06400 26.58300
C  29.20100 -0.88400 27.53300
N  25.85300 -0.47400 31.59700
C  26.84000 -0.35100 32.60400
C  26.23400 -0.23400 33.91400
C  24.70100 -0.04800 33.59000
C  24.63700 -0.08300 32.08300
C  23.68800 -1.04800 34.33400
C  26.96200 0.66400 34.97300
C  26.26500 1.04700 36.26500
H  26.57600 0.23500 37.51400
N  24.24300 0.10700 29.01400
C  23.28300 0.18300 29.93600
C  22.05600 0.45800 29.25800
C  22.24900 0.29300 27.84500
C  23.71000 0.12300 27.68300
C  20.76200 0.75200 30.06300
C  21.27800 0.24900 26.67100
O  21.52900 0.03300 25.49200
C  19.96700 0.56300 27.04600
N  26.82600 -0.35200 27.34400
C  25.89300 -0.18400 26.34100
C  26.52900 -0.16100 24.91200
C  28.05500 -0.18900 25.31300
C  28.07000 -0.49100 26.83000
C  26.11900 -1.30700 23.96600
C  28.93100 0.96500 24.97200
C  30.41700 0.73000 24.80700
N  28.33000 -0.66800 29.79400
C  29.35700 -0.98500 28.92700
C  30.51200 -1.28000 29.66200
C  30.10700 -1.04900 30.97200
C  28.75100 -0.71700 31.04800
C  31.77700 -1.74900 29.14500
C  30.57700 -1.11500 32.35500
O  31.73400 -1.30800 32.77800
C  29.32000 -0.77300 33.25100
C  29.21300 -1.83000 34.26900
O  28.60900 -2.91300 34.04000
O  29.83400 -1.51800 35.48200
C  29.75000 -2.49200 36.53500
H  22.62900 0.35300 31.93400
H  24.02000 0.09400 25.63000
H  30.05600 -0.93500 26.85500
H  26.35200 -1.21500 34.37300
H  24.31000 0.93600 33.84800
H  22.92100 -1.37500 33.63200
H  23.25800 -0.52100 35.18600
H  24.17400 -1.86600 34.86600
H  27.41300 1.58300 34.59900
H  27.87100 0.14400 35.27700
H  25.18100 1.11300 36.16600
H  26.48700 2.10300 36.41900
H  20.25500 1.55800 29.53200
H  21.04300 1.14700 31.03900
H  20.03500 -0.05800 30.12200
H  19.36500 0.53700 26.13800
H  19.87000 1.62000 27.29400
H  19.50400 -0.08100 27.79300
H  26.27800 0.81300 24.49000
H  28.52600 -1.08100 24.90000
H  25.41400 -1.95700 24.48500
H  26.95900 -1.83400 23.51400
H  25.49900 -0.93900 23.14900
H  28.95400 1.77400 25.70200
H  28.65700 1.51200 24.06900
H  30.62800 1.13000 23.81600
H  30.67100 -0.33000 24.76500
H  31.04200 1.15300 25.59300
H  32.26200 -2.17200 30.02400
H  32.42800 -1.09800 28.56100
H  31.43500 -2.53400 28.47000
H  29.60200 0.17300 33.71500
H  29.79200 -3.52400 36.18400
H  28.74900 -2.38400 36.95400
H  30.44500 -2.45700 37.37400
Mg 34.16900 49.09200 25.54400
C  34.66600 47.32900 28.60800
C  32.29200 51.31900 27.48500
C  33.87200 50.99900 22.80700
C  35.65800 46.59700 23.81800
N  33.49600 49.18000 27.80600
C  33.93900 48.48100 28.86800
C  33.62500 49.14900 30.21600
C  32.59800 50.22000 29.79400
C  32.79400 50.25200 28.26300
C  31.13400 49.97700 30.28200
C  34.87500 49.71000 30.83100
C  34.88900 49.73800 32.39300
H  33.59400 49.59500 33.18700
N  33.26000 50.88000 25.23400
C  32.53700 51.64600 26.12500
C  32.10900 52.87100 25.47500
C  32.54400 52.86300 24.08400
C  33.26100 51.56100 23.98600
C  31.36200 53.93400 26.13300
C  32.26200 53.87500 22.94000
O  32.80300 53.71300 21.86200
C  31.44200 55.07900 23.19100
N  34.68800 48.84800 23.66200
C  34.36100 49.72300 22.65800
C  34.64700 49.08100 21.22100
C  35.51800 47.86100 21.61800
C  35.27500 47.74100 23.14200
C  33.43800 48.84600 20.44000
C  37.01300 47.98300 21.15600
C  37.97300 48.83300 22.09200
N  34.98000 47.28200 26.03000
C  35.54400 46.39400 25.23600
C  35.92700 45.15000 26.01700
C  35.61500 45.52500 27.34800
C  35.12200 46.86900 27.31000
C  36.48200 43.94100 25.55400
C  35.70500 45.00900 28.69500
O  35.97900 43.88700 29.13900
C  35.14300 46.28700 29.56700
C  33.99800 45.76600 30.34700
O  32.88800 45.44300 29.94900
O  34.42400 45.43800 31.58400
C  33.50800 44.54600 32.37100
H  31.64900 51.96000 28.09300
H  33.79700 51.58300 21.88700
H  36.16600 45.83300 23.22700
H  33.32200 48.35100 30.89400
H  32.88700 51.23500 30.06700
H  30.82100 48.93300 30.31500
H  30.46500 50.52400 29.61700
H  31.09900 50.30000 31.32200
H  34.94800 50.75700 30.53500
H  35.77600 49.19800 30.49400
H  35.20700 50.74200 32.67400
H  35.48500 48.92500 32.80600
H  31.14100 53.71300 27.17700
H  30.39500 53.89700 25.63200
H  31.98600 54.82700 26.08300
H  31.87000 55.78000 23.90800
H  30.45400 54.75100 23.51400
H  31.23700 55.59500 22.25400
H  35.23400 49.80900 20.66100
H  35.15100 46.93400 21.17600
H  32.62800 48.80100 21.16800
H  33.29800 47.84900 20.02000
H  33.27300 49.49900 19.58300
H  37.07400 48.35700 20.13400
H  37.46800 46.99300 21.20300
H  38.53300 49.48900 21.42600
H  38.61200 48.17800 22.68500
H  37.42900 49.46300 22.79600
H  37.08200 44.15800 24.67000
H  35.88800 43.05600 25.32500
H  37.21900 43.70300 26.32100
H  35.92900 46.67700 30.21200
H  33.19500 43.69200 31.77100
H  32.67300 45.19300 32.63900
H  34.02700 44.20700 33.26800

