158

Mg 40.37800 9.53300 29.63600
C  42.44800 10.66800 32.10800
C  38.16500 8.46700 31.99000
C  38.53200 8.38200 27.14200
C  42.93400 10.38900 27.26300
N  40.43800 9.37700 31.81400
C  41.25100 10.13900 32.61300
C  40.74000 10.26700 34.03700
C  39.50600 9.30500 33.99600
C  39.33800 9.06100 32.50300
C  39.69300 7.91100 34.75600
C  40.46000 11.64900 34.65100
C  41.03600 12.05800 36.03200
H  40.02600 12.55900 37.04100
N  38.59400 8.47900 29.60600
C  37.75000 8.24400 30.63400
C  36.54000 7.66900 30.18600
C  36.57800 7.71100 28.72700
C  37.98100 8.16100 28.41300
C  35.50500 7.11000 30.99200
C  35.51200 7.32600 27.71700
O  35.54200 7.50600 26.48100
C  34.27800 6.63100 28.22300
N  40.79800 9.24900 27.44800
C  39.74100 8.86700 26.63300
C  40.07300 8.97600 25.15800
C  41.58100 9.50000 25.19000
C  41.81000 9.70900 26.72100
C  40.01600 7.56600 24.38500
C  41.88000 10.71800 24.27800
C  41.41900 12.08800 24.70600
N  42.34900 10.39200 29.66600
C  43.20800 10.73300 28.63300
C  44.41500 11.37100 29.20400
C  44.12800 11.44400 30.58200
C  42.91800 10.81400 30.76800
C  45.62100 11.79300 28.46300
C  44.70700 11.84300 31.89000
O  45.76200 12.35400 32.20400
C  43.53600 11.36100 32.93000
C  44.19300 10.47300 33.88300
O  44.81800 9.43600 33.58800
O  44.13300 11.03200 35.11700
C  44.84700 10.15700 36.12600
H  37.40600 8.22100 32.73500
H  37.78900 8.22600 26.35700
H  43.72000 10.64600 26.55000
H  41.49800 9.87100 34.71300
H  38.63600 9.81700 34.40500
H  38.93100 7.82000 35.53000
H  40.71300 7.78900 35.11900
H  39.48500 7.07500 34.08800
H  39.40600 11.76200 34.90800
H  40.71700 12.33300 33.84200
H  41.59000 12.91300 35.64500
H  41.75700 11.36000 36.45800
H  34.53200 7.56500 30.81000
H  35.55300 7.21900 32.07500
H  35.30500 6.04000 30.92700
H  34.50300 5.74000 28.81000
H  33.71300 6.39900 27.32000
H  33.62700 7.27900 28.80900
H  39.47400 9.71900 24.63200
H  42.18300 8.64500 24.87900
H  40.95200 7.20200 23.96200
H  39.25400 7.56000 23.60600
H  39.91200 6.74200 25.09100
H  41.33800 10.51300 23.35600
H  42.95600 10.70900 24.10200
H  42.23500 12.73800 25.02100
H  40.78300 11.97100 25.58400
H  40.95100 12.54200 23.83200
H  46.35400 12.11000 29.20600
H  45.45000 12.59300 27.74300
H  46.09000 10.98900 27.89700
H  43.15600 12.27000 33.39700
H  45.91300 10.19100 35.90000
H  44.49000 9.12800 36.09000
H  44.71700 10.52900 37.14200
Mg 48.23100 35.77500 28.48200
C  46.25900 33.96400 30.76000
C  48.27900 38.38100 30.71700
C  49.46100 37.63600 26.00800
C  47.66300 33.15100 26.19900
N  47.55600 36.03300 30.52600
C  46.80000 35.15700 31.28300
C  46.78900 35.62000 32.68700
C  46.88400 37.20900 32.53600
C  47.56400 37.24600 31.16900
C  45.52500 37.99500 32.42500
C  47.95600 35.02500 33.49500
C  47.80200 34.90700 35.00400
H  46.85600 35.95300 35.57900
N  48.92600 37.70000 28.38300
C  48.90200 38.62900 29.41400
C  49.63200 39.81100 28.97300
C  50.04900 39.58100 27.60500
C  49.45700 38.24300 27.25500
C  49.87400 40.91100 29.98700
C  50.91200 40.47400 26.65800
O  51.29500 40.13900 25.56000
C  51.26600 41.83900 27.09700
N  48.43100 35.43400 26.37500
C  48.98300 36.42000 25.59800
C  49.07000 35.96500 24.15400
C  48.82000 34.42000 24.22800
C  48.34300 34.26300 25.71800
C  48.25600 36.69200 23.14500
C  49.86000 33.39500 23.77000
C  50.76500 33.76600 22.54700
N  47.19000 33.95500 28.42500
C  47.12200 32.94700 27.45200
C  46.42600 31.77800 27.91900
C  46.03800 32.10400 29.25200
C  46.54500 33.47400 29.49900
C  46.17200 30.50100 27.07700
C  45.39900 31.60000 30.44200
O  44.91500 30.50800 30.79200
C  45.35200 32.89500 31.44800
C  45.83600 32.47100 32.85000
O  46.82400 31.79500 32.98400
O  44.92900 32.86700 33.75900
C  45.07500 32.17300 35.01500
H  48.04300 39.12400 31.48200
H  49.82300 38.26600 25.19300
H  47.63200 32.42600 25.38300
H  45.82300 35.31600 33.09100
H  47.51800 37.49300 33.37600
H  44.71400 37.38900 32.02300
H  45.75400 38.78000 31.70500
H  45.20100 38.27600 33.42800
H  48.86400 35.59800 33.30800
H  48.14500 34.03200 33.08900
H  48.78800 35.10500 35.42400
H  47.47800 33.92000 35.33300
H  49.74100 40.66200 31.03900
H  49.53300 41.91000 29.71500
H  50.96300 40.93500 30.02800
H  51.08100 42.48800 26.24100
H  52.31300 41.95700 27.37400
H  50.57200 42.08100 27.90200
H  50.09100 36.21900 23.86900
H  47.89000 34.08300 23.77000
H  47.45200 35.99800 22.89700
H  48.89000 36.89500 22.28200
H  47.83400 37.64400 23.46700
H  49.40800 32.42300 23.57300
H  50.58000 33.22900 24.57100
H  51.75100 33.88800 22.99500
H  50.42100 34.73900 22.19800
H  50.81300 32.95800 21.81700
H  47.07200 30.11200 26.60000
H  45.40300 30.51700 26.30400
H  45.80900 29.73700 27.76600
H  44.35400 33.32000 31.55900
H  44.77000 32.90900 35.76000
H  46.08300 31.82800 35.24600
H  44.35600 31.35400 35.00700

