158

Mg 26.08200 0.93600 28.92200
C  27.95500 0.02400 31.76800
C  23.27100 0.97500 31.04400
C  24.27900 1.35900 26.28500
C  28.85600 0.23700 26.96800
N  25.73100 0.47100 31.16200
C  26.62000 0.21300 32.12400
C  26.10300 0.53700 33.59900
C  24.56100 0.65500 33.26000
C  24.50600 0.76900 31.74500
C  23.74400 -0.55600 33.65800
C  26.90500 1.67700 34.36900
C  27.72200 1.17500 35.53800
H  27.41400 1.91700 36.84200
N  24.08600 1.18100 28.70300
C  23.09300 1.10400 29.66900
C  21.82200 1.33700 29.05500
C  22.04500 1.48900 27.66600
C  23.52300 1.33800 27.46400
C  20.46200 1.27600 29.83500
C  21.09400 1.51600 26.53200
O  21.40200 1.68400 25.34600
C  19.58000 1.46900 26.80100
N  26.49000 0.52500 26.85900
C  25.53800 0.93600 25.98300
C  26.08400 0.93300 24.54400
C  27.61000 0.55000 24.73900
C  27.69600 0.51500 26.30100
C  25.42600 -0.11600 23.51900
C  28.63000 1.64100 24.17700
C  29.90300 1.07300 23.48400
N  28.07700 0.34900 29.26600
C  29.07900 0.11000 28.38300
C  30.32500 -0.13900 29.06300
C  29.95800 -0.21200 30.40500
C  28.58500 0.09600 30.52200
C  31.66600 -0.47100 28.51000
C  30.39100 -0.45800 31.77200
O  31.51800 -0.76300 32.13800
C  29.13900 -0.35500 32.68900
C  29.05900 -1.63000 33.40900
O  28.54500 -2.64200 32.98600
O  29.60000 -1.41900 34.63800
C  29.34900 -2.37100 35.71400
H  22.41500 0.96900 31.72300
H  23.78900 1.59600 25.33800
H  29.77300 0.17500 26.37900
H  26.28300 -0.39600 34.13400
H  24.09600 1.57200 33.62100
H  23.06800 -0.85000 32.85600
H  23.15500 -0.29400 34.53800
H  24.46300 -1.33600 33.90900
H  26.10400 2.26100 34.82200
H  27.54900 2.23900 33.69200
H  28.76500 1.43600 35.35700
H  27.61900 0.10100 35.69200
H  20.14500 0.23600 29.76100
H  19.82000 2.01200 29.34900
H  20.54300 1.60800 30.87000
H  18.95200 1.55200 25.91400
H  19.17000 2.26400 27.42400
H  19.36300 0.52000 27.29100
H  25.84000 1.89700 24.09800
H  27.96500 -0.42500 24.40600
H  24.91500 -0.81200 24.18500
H  26.11900 -0.74400 22.96000
H  24.74400 0.33100 22.79600
H  28.88400 2.37500 24.94200
H  28.03600 2.15300 23.42000
H  30.71700 1.79100 23.38400
H  29.54600 0.70500 22.52200
H  30.18100 0.20900 24.08700
H  31.38500 -1.37300 27.96600
H  32.44700 -0.55000 29.26600
H  31.91600 0.33300 27.81800
H  29.41400 0.52500 33.27100
H  28.57200 -1.89300 36.31000
H  30.20900 -2.62700 36.33300
H  28.84700 -3.27500 35.37000
Mg 48.45400 45.13900 43.83400
C  45.29300 45.73000 42.31700
C  48.51200 41.99200 42.40300
C  51.80800 45.05800 44.45400
C  48.48600 48.55500 44.79700
N  47.05000 44.08200 42.42100
C  45.83200 44.46800 42.09400
C  45.08400 43.26400 41.47900
C  46.04300 42.00200 41.65800
C  47.28900 42.72500 42.20700
C  45.52900 40.85800 42.65800
C  44.67800 43.50000 39.96800
C  43.67000 42.45500 39.45400
H  44.06700 41.73400 38.12800
N  49.97500 43.69800 43.54200
C  49.73000 42.46400 42.92800
C  50.97700 41.83700 42.91200
C  51.96500 42.56400 43.65400
C  51.29600 43.81900 43.92200
C  51.14100 40.48000 42.25500
C  53.40600 42.13900 43.94000
O  53.94900 41.22600 43.32300
C  54.26600 42.84000 44.88100
N  50.00700 46.71600 44.37400
C  51.26000 46.27400 44.72400
C  52.14400 47.47700 45.10600
C  51.07200 48.54200 45.45400
C  49.75100 47.93800 44.83700
C  53.11700 47.17700 46.31000
C  51.41500 49.95600 44.89300
C  51.22500 51.00900 46.03000
N  47.17200 46.80500 43.75200
C  47.30300 48.04000 44.24900
C  46.01500 48.77100 44.06900
C  45.22800 47.84100 43.36600
C  45.99100 46.68700 43.09300
C  45.68300 50.15300 44.63500
C  43.89000 47.65000 42.64000
O  43.00800 48.45400 42.52100
C  43.90700 46.18500 41.94400
C  42.75800 45.40000 42.43000
O  42.64200 45.13300 43.63300
O  41.90000 45.05000 41.43300
C  40.75500 44.23400 41.87200
H  48.47000 40.91300 42.24200
H  52.89600 45.07400 44.54800
H  48.47000 49.60000 45.11600
H  44.16200 43.05800 42.02300
H  46.26100 41.53000 40.70000
H  46.34800 40.52500 43.29700
H  45.21100 40.12400 41.91800
H  44.64000 41.24000 43.16000
H  45.53600 43.27900 39.33400
H  44.46900 44.51200 39.62000
H  42.71000 42.95500 39.32100
H  43.54700 41.72500 40.25400
H  52.08300 40.53200 41.70900
H  50.36700 40.17300 41.55200
H  51.20700 39.76300 43.07300
H  53.81400 42.89600 45.87200
H  54.49100 43.78100 44.37900
H  55.20400 42.31900 45.07400
H  52.64200 47.68800 44.16000
H  50.92100 48.63800 46.53000
H  53.19300 48.05200 46.95600
H  54.13700 46.98800 45.97500
H  52.77200 46.29500 46.85000
H  50.82900 50.10100 43.98600
H  52.45200 50.04900 44.56900
H  50.17300 51.23700 46.20200
H  51.78400 51.93900 45.92800
H  51.48300 50.64400 47.02400
H  46.63400 50.68400 44.67700
H  45.13900 50.02100 45.57000
H  45.09800 50.73800 43.92500
H  43.70400 46.50400 40.92200
H  40.96700 43.50600 42.65600
H  40.41100 43.57000 41.07900
H  40.02400 44.93000 42.28400

