158

Mg 41.32400 8.15000 29.59900
C  43.08000 9.70000 32.29600
C  39.25600 6.70500 31.78300
C  39.81800 6.49100 26.96500
C  43.99400 9.01000 27.48100
N  41.21600 8.14500 31.80500
C  41.92700 8.98800 32.74600
C  41.23200 9.00200 34.05700
C  40.06800 8.00500 33.88700
C  40.22300 7.52700 32.39900
C  40.19100 6.87200 34.92800
C  40.72300 10.40400 34.56400
C  40.12600 10.45900 36.06300
H  40.78200 11.43800 36.98600
N  39.69700 6.91600 29.38600
C  39.02000 6.37800 30.42300
C  37.95500 5.61200 29.94400
C  37.94600 5.69900 28.50200
C  39.16700 6.43800 28.19400
C  37.04200 4.78600 30.93700
C  36.86200 5.35700 27.53800
O  37.07900 5.55900 26.36600
C  35.59000 4.68300 28.04700
N  41.86400 7.72900 27.56500
C  41.07300 7.13600 26.63400
C  41.61800 7.25000 25.15100
C  42.90600 8.15400 25.41000
C  42.91900 8.30300 26.90300
C  41.89100 5.93900 24.52400
C  42.94800 9.45100 24.59700
C  42.03000 10.52200 25.08600
N  43.22600 9.02800 29.80400
C  44.12300 9.44700 28.85000
C  45.19000 10.24400 29.43700
C  44.78500 10.35400 30.81900
C  43.61500 9.63600 30.95400
C  46.33900 10.68200 28.72100
C  45.15100 10.95000 32.06300
O  46.04000 11.71400 32.42000
C  43.98700 10.57500 33.08000
C  44.66700 9.66900 34.11100
O  45.59300 8.91900 33.86400
O  44.10900 9.90700 35.35100
C  44.81600 9.21800 36.44000
H  38.61300 6.26900 32.55100
H  39.44800 6.03900 26.04200
H  44.76900 9.35700 26.79400
H  41.97000 8.53900 34.71300
H  39.13400 8.56500 33.82000
H  40.80400 7.05000 35.81200
H  40.65100 6.08300 34.33300
H  39.22100 6.46800 35.21600
H  40.05500 10.96100 33.90600
H  41.60000 11.05200 34.53900
H  39.94200 9.52300 36.59100
H  39.14400 10.88200 35.85100
H  36.73900 3.86300 30.44300
H  36.27500 5.47400 31.29300
H  37.60300 4.46300 31.81400
H  35.72500 3.68600 28.46400
H  34.72300 4.65900 27.38600
H  35.28000 5.28000 28.90500
H  40.86300 7.72600 24.52500
H  43.80900 7.57300 25.22200
H  41.80000 5.20400 25.32400
H  42.93800 5.88400 24.22500
H  41.33800 5.64200 23.63300
H  42.63400 9.17800 23.58900
H  43.95500 9.86400 24.55000
H  41.72000 10.24700 26.09400
H  41.17900 10.83200 24.47900
H  42.57600 11.45800 25.20400
H  46.02300 11.64600 28.32400
H  46.67200 9.92100 28.01500
H  47.11600 10.78600 29.47800
H  43.67600 11.52800 33.50800
H  45.90000 9.29900 36.36500
H  44.45300 8.19200 36.38300
H  44.61000 9.71600 37.38700
Mg 47.60200 15.20500 28.10000
C  45.53200 15.07800 30.94900
C  49.52300 17.45100 29.94900
C  49.54200 15.51400 25.45300
C  45.12100 13.60700 26.40700
N  47.48900 16.19000 30.20500
C  46.57900 15.94500 31.18000
C  46.89700 16.61900 32.51400
C  48.13500 17.51700 32.07900
C  48.44100 17.05300 30.66400
C  47.89600 19.02600 32.10000
C  47.06900 15.72700 33.86100
C  47.34300 16.56700 35.10000
H  48.61300 16.19900 36.01700
N  49.42400 16.16700 27.80700
C  50.03600 17.07700 28.63300
C  51.30000 17.52800 28.03500
C  51.35800 16.90900 26.79200
C  50.08900 16.14000 26.62700
C  52.25300 18.61800 28.60500
C  52.45400 17.06700 25.76000
O  52.41700 16.51700 24.64800
C  53.59800 18.00800 26.13000
N  47.26000 14.79800 26.15300
C  48.29800 14.82800 25.23000
C  47.81800 14.23100 23.91100
C  46.35000 13.68400 24.22100
C  46.24900 14.07500 25.72600
C  47.84200 15.21800 22.69400
C  46.18400 12.15000 23.85600
C  46.81300 11.13700 24.81200
N  45.59700 14.43500 28.55700
C  44.71400 13.79100 27.71400
C  43.55700 13.39200 28.49700
C  43.83100 14.02500 29.71600
C  45.14800 14.45500 29.75000
C  42.25300 12.70500 28.07800
C  43.28400 14.18300 31.04700
O  42.14200 13.85600 31.41900
C  44.40100 14.81700 31.93600
C  43.83700 16.05500 32.42300
O  43.66200 17.07400 31.78500
O  43.47200 15.90300 33.74800
C  42.98000 17.07000 34.45100
H  50.20800 18.10600 30.49200
H  50.03400 15.54500 24.47800
H  44.43100 13.03300 25.78500
H  46.14500 17.37000 32.75200
H  49.07100 17.34100 32.60900
H  48.38500 19.44400 32.98100
H  46.82600 19.23000 32.14000
H  48.27700 19.54400 31.22000
H  47.92300 15.11000 33.58300
H  46.18500 15.10300 33.99500
H  46.52700 16.60500 35.82200
H  47.53400 17.59200 34.78400
H  52.30900 19.58300 28.10100
H  53.23000 18.17300 28.79100
H  51.89900 18.88800 29.60000
H  53.20200 19.02200 26.20000
H  54.20900 17.95900 25.22900
H  54.32700 17.67300 26.86600
H  48.50500 13.41000 23.70800
H  45.64000 14.22800 23.59900
H  48.15600 16.18300 23.09100
H  46.86600 15.32200 22.22100
H  48.67400 14.99500 22.02600
H  46.51500 12.04100 22.82300
H  45.12900 11.87700 23.89000
H  47.11200 10.27200 24.22000
H  46.03200 10.77800 25.48200
H  47.69800 11.51800 25.32100
H  42.00100 12.92000 27.03900
H  41.37800 13.06100 28.62000
H  42.31600 11.63000 28.24100
H  44.63100 14.01100 32.63300
H  41.93800 16.84300 34.67500
H  43.02900 17.95400 33.81500
H  43.50500 17.19900 35.39700

