158

Mg 1.16800 42.72600 25.68900
C  2.35700 42.75700 28.97500
C  -1.82400 41.43000 26.90300
C  0.10100 42.65200 22.49900
C  4.38900 43.42200 24.54700
N  0.36800 42.14400 27.70700
C  1.04800 42.33500 28.90300
C  0.17000 42.07200 30.14200
C  -1.15300 41.55700 29.43500
C  -0.89400 41.72100 27.95100
C  -1.55400 40.12900 29.80000
C  -0.03300 43.38900 31.03400
C  0.58000 43.45800 32.44600
H  -0.36200 43.06600 33.60800
N  -0.53500 42.06000 24.85600
C  -1.68400 41.59500 25.47500
C  -2.72600 41.32400 24.53200
C  -2.17000 41.66800 23.22000
C  -0.78000 42.13600 23.48200
C  -4.08400 40.83700 25.02600
C  -3.00400 41.63900 21.89500
O  -2.52100 42.24600 20.89600
C  -4.28400 40.95600 21.71700
N  2.09900 43.08100 23.84500
C  1.36200 43.09100 22.65600
C  2.26900 43.40000 21.50600
C  3.60600 43.92500 22.13700
C  3.36200 43.47700 23.56500
C  2.40100 42.20100 20.53200
C  4.05400 45.35200 21.99700
C  3.96400 45.88300 20.52800
N  2.89400 43.10500 26.50100
C  4.18200 43.25100 25.89600
C  5.19100 43.39400 26.85700
C  4.52500 43.12800 28.03400
C  3.13700 43.08900 27.82300
C  6.61800 43.79500 26.57200
C  4.79000 43.00100 29.39300
O  5.82700 42.88200 29.96300
C  3.37900 42.90200 30.11100
C  3.43000 41.75700 31.05400
O  2.86900 40.65500 30.93800
O  4.18200 42.10000 32.16300
C  4.26800 41.09500 33.26000
H  -2.72800 40.93900 27.26800
H  -0.39400 42.55700 21.53000
H  5.37300 43.68200 24.15300
H  0.59600 41.34600 30.83400
H  -2.00100 42.20000 29.67400
H  -1.70800 39.47700 28.94000
H  -2.56800 40.21800 30.18800
H  -0.92900 39.63600 30.54500
H  -1.10300 43.57000 31.13400
H  0.24700 44.27300 30.46200
H  0.95900 44.46500 32.62500
H  1.43300 42.78700 32.34200
H  -4.25300 41.18100 26.04600
H  -4.20800 39.75600 25.09300
H  -4.89600 41.16100 24.37500
H  -4.17100 40.31800 20.84100
H  -5.09800 41.65800 21.53500
H  -4.47200 40.24500 22.52200
H  1.72900 44.22300 21.03700
H  4.42400 43.28100 21.81300
H  1.41900 41.82000 20.25200
H  2.91300 41.37700 21.02900
H  2.83600 42.51500 19.58300
H  5.12800 45.37900 22.18300
H  3.32500 45.98400 22.50400
H  3.27400 46.69800 20.30900
H  3.74600 45.08400 19.81900
H  4.97400 46.10800 20.18400
H  6.98300 43.27200 25.68800
H  7.31600 43.59200 27.38500
H  6.62500 44.87500 26.42700
H  3.28800 43.80100 30.72000
H  5.33500 41.06100 33.47700
H  3.85700 40.11500 33.01600
H  3.82500 41.44800 34.19200
Mg -4.43200 24.43200 25.64000
C  -3.48600 26.15500 28.63900
C  -6.59600 22.58700 27.36000
C  -5.09600 22.79300 22.74900
C  -2.05100 26.45100 23.87500
N  -4.88300 24.42800 27.79900
C  -4.50900 25.18300 28.90000
C  -5.29100 24.77800 30.15200
C  -6.06400 23.45700 29.65400
C  -5.85400 23.50700 28.15600
C  -5.65000 22.14400 30.38900
C  -6.21700 25.87800 30.70500
C  -6.13500 26.03400 32.27400
H  -5.81500 24.79000 33.08800
N  -5.69200 22.98600 25.11900
C  -6.55800 22.38400 25.95600
C  -7.35900 21.34800 25.20200
C  -6.81400 21.43800 23.88400
C  -5.76800 22.39400 23.86400
C  -8.51500 20.50900 25.81900
C  -7.23500 20.57500 22.71100
O  -6.78200 20.68200 21.56300
C  -8.00800 19.31700 22.89900
N  -3.85200 24.69800 23.60900
C  -4.14800 23.76800 22.69900
C  -3.29100 23.98700 21.33500
C  -2.50700 25.30500 21.70000
C  -2.88400 25.59800 23.11100
C  -2.54600 22.69000 20.91600
C  -2.71500 26.47200 20.68200
C  -1.45800 26.83900 19.94300
N  -2.93800 25.94000 26.07300
C  -2.08700 26.63800 25.28400
C  -1.31500 27.57400 26.13100
C  -1.79600 27.36600 27.42800
C  -2.85400 26.40200 27.35600
C  -0.30600 28.51100 25.53700
C  -1.79400 27.92500 28.81800
O  -1.21600 28.93800 29.28200
C  -2.88800 27.04400 29.68600
C  -2.23200 26.40200 30.82300
O  -1.45700 25.46400 30.70100
O  -2.52600 27.05800 31.95500
C  -1.90400 26.50000 33.20300
H  -7.26500 21.97900 27.97200
H  -5.08200 22.32200 21.76400
H  -1.25200 27.02300 23.39700
H  -4.58500 24.37900 30.88000
H  -7.14300 23.40300 29.79800
H  -5.09100 21.53800 29.67600
H  -6.54900 21.56900 30.61100
H  -5.16500 22.41900 31.32600
H  -7.18900 25.86600 30.21300
H  -5.73600 26.81200 30.41500
H  -7.11700 26.38100 32.59300
H  -5.43600 26.81100 32.58500
H  -8.28700 19.45600 25.98000
H  -9.41100 20.63900 25.21200
H  -8.68500 20.88100 26.82900
H  -7.99200 18.72100 21.98600
H  -9.04400 19.58600 23.10400
H  -7.64500 18.80100 23.78800
H  -3.93900 24.20900 20.48700
H  -1.46100 25.01000 21.61100
H  -2.69100 22.55600 19.84400
H  -2.90900 21.85500 21.51500
H  -1.50400 22.65700 21.23500
H  -3.06000 27.34200 21.24100
H  -3.47100 26.24900 19.92800
H  -0.64100 26.11700 19.94300
H  -1.17700 27.83400 20.28700
H  -1.90700 26.95000 18.95600
H  -0.79200 29.47600 25.39500
H  -0.10200 28.39100 24.47300
H  0.64200 28.55700 26.07400
H  -3.65300 27.70600 30.09200
H  -0.82500 26.40700 33.08500
H  -2.32900 25.57200 33.58600
H  -2.16000 27.15100 34.03900

