158

Mg 8.95500 47.79700 27.38000
C  7.36000 47.48600 30.62000
C  11.87000 48.41200 29.08800
C  10.30900 48.68700 24.57200
C  5.66100 47.83100 25.98000
N  9.59500 47.73700 29.65200
C  8.77700 47.54200 30.76800
C  9.57200 47.74600 32.04400
C  10.98000 48.15500 31.57900
C  10.87000 48.12600 30.05400
C  11.50000 49.51800 32.15200
C  9.47900 46.45000 32.95000
C  9.58500 46.76500 34.41900
H  10.23300 45.77200 35.36900
N  10.81300 48.15600 26.85000
C  11.87500 48.39100 27.64100
C  13.04300 48.70700 26.81900
C  12.66700 48.74000 25.46500
C  11.21800 48.52100 25.55800
C  14.28400 49.10800 27.47900
C  13.48200 49.02400 24.21600
O  12.91600 49.21500 23.15200
C  15.02800 49.20000 24.32400
N  8.07200 48.27900 25.54100
C  8.92000 48.52800 24.53200
C  8.21000 48.51600 23.14900
C  6.78600 48.25400 23.58500
C  6.80300 48.06700 25.12800
C  8.40600 49.69500 22.22300
C  6.14100 47.05000 22.88000
C  5.96600 46.99200 21.35000
N  6.95300 47.78400 28.05200
C  5.72500 47.86900 27.34600
C  4.60300 47.71800 28.27900
C  5.24000 47.57200 29.53400
C  6.65700 47.60900 29.38900
C  3.10500 47.67100 27.95100
C  4.98100 47.45100 30.86200
O  3.92800 47.53500 31.46400
C  6.28300 47.25700 31.61200
C  6.24600 45.86500 31.99400
O  6.49200 44.86100 31.31600
O  5.80000 45.84200 33.32500
C  5.66700 44.50900 33.98200
H  12.75300 48.71100 29.65600
H  10.60300 49.14500 23.62500
H  4.67200 47.67900 25.54300
H  9.02100 48.45400 32.66300
H  11.74600 47.44400 31.89000
H  10.85700 50.00400 32.88700
H  11.59300 50.22600 31.32900
H  12.42700 49.20200 32.62900
H  10.31200 45.77500 32.75500
H  8.57000 45.87600 32.77000
H  8.59600 46.91200 34.85200
H  10.11900 47.71600 34.40500
H  15.04400 48.36800 27.22800
H  14.33200 48.89900 28.54800
H  14.58600 50.13600 27.27700
H  15.35200 49.56400 23.34900
H  15.56200 48.25000 24.36000
H  15.35700 49.91900 25.07400
H  8.56800 47.69300 22.53000
H  6.23700 49.15300 23.30700
H  8.50800 50.59200 22.83400
H  7.61000 49.78100 21.48400
H  9.33300 49.48900 21.68900
H  5.12600 46.97700 23.27000
H  6.63200 46.13800 23.21900
H  6.03800 48.00600 20.95700
H  5.00000 46.60400 21.02400
H  6.60800 46.25900 20.86200
H  2.94200 47.57900 26.87700
H  2.55200 48.55300 28.27400
H  2.57600 46.84100 28.42000
H  6.30700 47.97400 32.43300
H  6.57900 43.98200 33.70200
H  4.83300 43.97300 33.52900
H  5.64300 44.51000 35.07100
Mg -9.94600 17.25300 42.49200
C  -6.51400 17.39600 42.59800
C  -9.89300 20.66700 41.60200
C  -13.18100 17.12000 41.71100
C  -9.69500 13.87800 42.56100
N  -8.43000 18.84800 42.05600
C  -7.09000 18.63700 42.32400
C  -6.29400 19.92900 42.29600
C  -7.43100 20.95000 41.95600
C  -8.68600 20.13900 41.92100
C  -7.55000 22.21800 42.80200
C  -5.03400 19.92300 41.26600
C  -4.55700 21.32100 40.87700
H  -4.40000 21.65500 39.41300
N  -11.32800 18.66200 41.77200
C  -11.12200 19.99800 41.58700
C  -12.31900 20.61500 41.14200
C  -13.36900 19.71900 41.29800
C  -12.68600 18.45800 41.60600
C  -12.38100 22.14100 40.81100
C  -14.90000 20.05400 41.16900
O  -15.27300 21.21100 40.93500
C  -15.87200 18.98100 41.47400
N  -11.22100 15.67400 41.92300
C  -12.56900 15.88900 41.91700
C  -13.38200 14.53900 42.07200
C  -12.24800 13.55200 42.32600
C  -10.96900 14.41300 42.24400
C  -14.50300 14.61400 43.16000
C  -12.26300 12.17700 41.54100
C  -12.14500 10.95500 42.46800
N  -8.55500 15.89500 42.62000
C  -8.51500 14.51800 42.71400
C  -7.19600 13.98400 42.89300
C  -6.45100 15.15300 42.96700
C  -7.27700 16.23000 42.70200
C  -6.79200 12.55900 43.04900
C  -5.10500 15.51300 43.11600
O  -4.12300 14.86700 43.43000
C  -5.05900 17.04200 42.90400
C  -4.67200 17.54000 44.22500
O  -5.46100 17.81400 45.14400
O  -3.30100 17.52800 44.40400
C  -2.99400 17.83800 45.79600
H  -9.82100 21.72700 41.35000
H  -14.26800 17.02700 41.74200
H  -9.71300 12.83400 42.88200
H  -5.89500 19.99900 43.30800
H  -7.33200 21.22800 40.90700
H  -6.90400 22.33300 43.67200
H  -8.54100 22.32800 43.24100
H  -7.26200 23.02400 42.12700
H  -5.24000 19.19700 40.47900
H  -4.17200 19.61800 41.85900
H  -3.52700 21.42300 41.21700
H  -5.00200 22.07800 41.52200
H  -11.97400 22.58300 41.72100
H  -13.39800 22.46100 40.58400
H  -11.83600 22.38200 39.89900
H  -15.79100 18.08600 40.85700
H  -16.82800 19.44600 41.23500
H  -15.75500 18.56700 42.47500
H  -13.80600 14.40200 41.07800
H  -12.29400 13.26900 43.37800
H  -14.49500 13.61400 43.59400
H  -15.40200 14.70700 42.55000
H  -14.48400 15.37400 43.94100
H  -11.33200 12.17200 40.97500
H  -13.16300 12.10300 40.93100
H  -13.10600 10.46700 42.62500
H  -11.68800 11.29000 43.40000
H  -11.43500 10.25700 42.02500
H  -6.03400 12.16900 42.37000
H  -7.57300 11.82300 42.85900
H  -6.42300 12.39500 44.06200
H  -4.36100 17.23200 42.08800
H  -3.42300 17.03100 46.39000
H  -3.54700 18.73900 46.06200
H  -1.91600 17.84200 45.95600

