158

Mg 24.45900 -7.57800 46.11500
C  26.63500 -5.12700 44.66500
C  21.95100 -6.27400 44.24500
C  22.76300 -10.36600 46.68000
C  27.42300 -9.02400 47.45400
N  24.38600 -5.88600 44.61200
C  25.36200 -5.01700 44.22400
C  24.82600 -4.06200 43.12400
C  23.24800 -4.34100 43.27600
C  23.13000 -5.51500 44.18900
C  22.49400 -3.08800 43.84500
C  25.46300 -4.24800 41.72900
C  26.04500 -3.01800 40.95900
H  25.57800 -2.98800 39.43900
N  22.54500 -8.19300 45.67800
C  21.66200 -7.48200 44.83100
C  20.46700 -8.26000 44.77000
C  20.61900 -9.44500 45.50500
C  22.00400 -9.35800 45.96500
C  19.27600 -7.85800 43.91500
C  19.49600 -10.47400 45.77900
O  18.33800 -10.35300 45.33400
C  19.77600 -11.64900 46.67800
N  24.96900 -9.40200 47.08500
C  24.07100 -10.43700 47.08300
C  24.73500 -11.70600 47.59100
C  26.24000 -11.30800 47.90800
C  26.28700 -9.76500 47.56300
C  24.04900 -12.34900 48.84200
C  27.33700 -12.12100 47.07000
C  28.61700 -12.44600 47.81700
N  26.57300 -7.03000 46.36400
C  27.62400 -7.77700 46.82900
C  28.84900 -7.01400 46.72200
C  28.52200 -5.91500 45.93300
C  27.15400 -6.04300 45.62100
C  30.15300 -7.45000 47.27700
C  28.98200 -4.74200 45.24500
O  30.07300 -4.14200 45.19200
C  27.75500 -4.19700 44.34900
C  27.41400 -2.71300 44.54700
O  27.41500 -1.86300 43.69100
O  27.15200 -2.46100 45.88200
C  26.63300 -1.14200 46.16100
H  21.15300 -5.78500 43.68300
H  22.30500 -11.35600 46.73900
H  28.27700 -9.54600 47.89000
H  25.06000 -3.05000 43.45300
H  22.78300 -4.58500 42.32100
H  21.77000 -3.50400 44.54600
H  21.91300 -2.67600 43.02000
H  23.15500 -2.35700 44.30900
H  24.79800 -4.87800 41.13800
H  26.30500 -4.91400 41.91900
H  27.12600 -3.03100 41.09600
H  25.71500 -2.09500 41.43500
H  18.39400 -8.06900 44.52000
H  19.23800 -8.55700 43.08000
H  19.38500 -6.84700 43.52400
H  20.37300 -11.37700 47.54800
H  20.35500 -12.42500 46.17800
H  18.79500 -11.99600 47.00100
H  24.70200 -12.39600 46.74800
H  26.53700 -11.46300 48.94500
H  22.98600 -12.11200 48.88800
H  24.43600 -11.88100 49.74800
H  24.34800 -13.39400 48.76800
H  27.68400 -11.54300 46.21300
H  26.88200 -13.00500 46.62200
H  29.38700 -11.79600 47.40100
H  28.97000 -13.46500 47.66200
H  28.36700 -12.23500 48.85700
H  30.67300 -8.18600 46.66300
H  29.95700 -7.86000 48.26800
H  30.81200 -6.59000 47.40200
H  27.89500 -4.20000 43.26800
H  25.81800 -0.87400 45.48800
H  27.38800 -0.36300 46.05500
H  26.25000 -1.22000 47.17800
Mg 47.24500 16.31000 28.45400
C  45.06400 15.59300 31.03400
C  48.65800 18.69100 30.31500
C  49.10100 17.26300 25.71300
C  45.16500 14.46300 26.34500
N  46.94100 16.94900 30.43000
C  46.08500 16.40200 31.41900
C  46.38900 16.88000 32.86300
C  47.23600 18.14900 32.43500
C  47.72700 17.91100 30.98100
C  46.34000 19.43500 32.52700
C  47.19300 15.80600 33.60800
C  47.00900 15.73500 35.17400
H  48.25200 15.74400 36.07500
N  48.84300 17.54200 28.12600
C  49.23700 18.51000 29.07600
C  50.21200 19.38600 28.49800
C  50.42100 18.96300 27.20300
C  49.43900 17.82500 26.93300
C  50.83900 20.57400 29.17400
C  51.48500 19.43500 26.14300
O  51.65900 18.93300 25.05400
C  52.44100 20.56500 26.38700
N  47.20400 15.96300 26.35600
C  48.09900 16.39000 25.42800
C  47.75400 15.82700 24.03500
C  46.49600 15.02400 24.22800
C  46.27800 15.13600 25.73500
C  47.74800 16.86800 22.92700
C  46.66300 13.52700 23.73500
C  47.46100 12.56900 24.62400
N  45.47600 15.19500 28.51700
C  44.67300 14.45300 27.66100
C  43.51800 13.90400 28.31900
C  43.67600 14.28500 29.66500
C  44.89200 15.05600 29.71900
C  42.45300 12.99400 27.72600
C  43.12300 14.12700 31.04100
O  42.08500 13.58000 31.47200
C  43.97100 14.97700 31.90600
C  43.19200 16.06200 32.49500
O  42.58200 16.94300 31.91600
O  43.26600 15.92900 33.81700
C  42.91600 17.12500 34.61800
H  49.13200 19.49100 30.88800
H  49.72100 17.55700 24.86300
H  44.35000 14.12600 25.70100
H  45.51100 17.15400 33.44900
H  48.12900 18.19100 33.05900
H  45.28100 19.18100 32.58700
H  46.54100 19.88600 31.55500
H  46.68100 20.06600 33.34700
H  48.25000 15.90200 33.35900
H  46.87300 14.83800 33.22200
H  46.57100 14.74400 35.29100
H  46.24400 16.41900 35.54300
H  51.81200 20.24000 29.53500
H  50.24200 21.02200 29.96800
H  51.06700 21.46800 28.59300
H  51.93700 21.49400 26.12300
H  53.31300 20.41800 25.74900
H  52.84600 20.61200 27.39700
H  48.54700 15.18200 23.65800
H  45.63500 15.47300 23.73400
H  47.71800 17.80100 23.49000
H  46.95700 16.83300 22.17800
H  48.67300 16.76900 22.36000
H  47.08200 13.65500 22.73700
H  45.66200 13.10900 23.62200
H  48.31800 12.22500 24.04500
H  46.87100 11.72700 24.98800
H  47.90100 13.12200 25.45400
H  42.15100 13.53100 26.82600
H  41.58900 12.78200 28.35700
H  42.84900 12.05800 27.33400
H  44.39900 14.33600 32.67600
H  41.84200 17.31200 34.58400
H  43.39500 18.03400 34.25400
H  43.23200 16.87100 35.63000

