158

Mg 36.08000 1.13800 30.68000
C  33.53600 2.46500 32.78600
C  38.29100 1.44500 33.10800
C  38.42100 0.37200 28.45100
C  33.63600 1.21900 28.09100
N  35.87700 1.84700 32.73100
C  34.73300 2.14900 33.43600
C  34.98600 2.31200 34.98800
C  36.58400 2.28900 35.03100
C  36.98300 1.89100 33.52500
C  37.18800 3.66800 35.38300
C  34.36900 1.11300 35.81500
C  33.79900 1.45000 37.16900
H  34.29500 2.69800 37.99200
N  38.08400 0.94900 30.76700
C  38.88200 1.03000 31.88600
C  40.18600 0.43300 31.66900
C  40.23200 0.25800 30.23400
C  38.89700 0.56000 29.75000
C  41.28200 0.20300 32.79200
C  41.36400 -0.20600 29.38200
O  41.25200 -0.46700 28.19100
C  42.74800 -0.35100 29.99600
N  36.10000 1.06400 28.49600
C  37.15100 0.56600 27.85900
C  36.81200 0.50700 26.38800
C  35.33000 0.40100 26.34000
C  34.96600 0.87700 27.73700
C  37.46600 1.55200 25.56200
C  34.67000 -1.04700 26.06600
C  33.43800 -0.93000 25.16000
N  33.98500 1.73800 30.38100
C  33.20700 1.73000 29.32200
C  31.91800 2.23800 29.64400
C  31.93300 2.45100 30.98500
C  33.27700 2.25000 31.40600
C  30.75500 2.44800 28.68600
C  31.20700 2.89300 32.14500
O  30.12700 3.39600 32.26300
C  32.17700 2.81900 33.38600
C  32.20800 4.07700 34.10400
O  32.95400 5.01000 33.82900
O  31.28900 4.06300 35.15500
C  31.17300 5.27900 35.97700
H  39.00900 1.47900 33.93000
H  39.06900 -0.04000 27.67500
H  32.91700 1.11300 27.27600
H  34.47800 3.18800 35.39100
H  37.08100 1.53800 35.64500
H  37.99600 3.64700 36.11500
H  36.38200 4.24700 35.83400
H  37.58300 4.19800 34.51700
H  35.15200 0.35500 35.80700
H  33.57100 0.65800 35.22700
H  33.91200 0.63700 37.88600
H  32.75300 1.60700 36.90600
H  42.12200 0.89600 32.76100
H  41.68100 -0.80600 32.68900
H  40.82400 0.12300 33.77800
H  43.45300 -0.58100 29.19700
H  42.83100 -1.06200 30.81800
H  43.04200 0.57000 30.50000
H  37.16200 -0.48200 26.09200
H  34.86000 1.19900 25.76600
H  38.20800 2.09200 26.15100
H  36.78500 2.32700 25.21100
H  37.97600 1.17700 24.67400
H  34.24900 -1.35300 27.02400
H  35.42200 -1.75600 25.72100
H  33.17300 0.09800 24.91600
H  32.61400 -1.35300 25.73600
H  33.57700 -1.43300 24.20300
H  31.03100 2.60500 27.64400
H  30.33400 3.42600 28.91700
H  29.92100 1.75000 28.76700
H  31.88400 1.95000 33.97600
H  32.11700 5.60000 36.41800
H  30.44300 5.10400 36.76700
H  30.82000 6.11800 35.37700
Mg 41.36800 41.18200 26.65400
C  40.82700 43.71100 28.89300
C  42.11200 39.09000 29.14700
C  42.41300 38.86200 24.26900
C  41.05700 43.45100 24.00800
N  41.46400 41.42500 28.85700
C  41.04700 42.47700 29.57800
C  40.92700 42.12300 31.10600
C  41.61500 40.63900 31.06300
C  41.70100 40.37600 29.58800
C  42.91000 40.48700 31.87700
C  39.45300 42.22300 31.57900
C  39.13000 43.21100 32.73900
H  38.49500 42.58100 33.99900
N  42.01700 39.15600 26.68400
C  42.26000 38.52600 27.84800
C  42.74700 37.20100 27.61400
C  42.82100 37.09300 26.21100
C  42.42500 38.39700 25.60600
C  43.19800 36.24600 28.67300
C  43.24100 35.97400 25.31000
O  43.30500 36.04200 24.10400
C  43.62600 34.66100 25.95500
N  41.77700 41.11500 24.51300
C  42.14400 40.08900 23.75800
C  41.91600 40.35400 22.21100
C  41.24900 41.72800 22.21800
C  41.29300 42.14800 23.69000
C  43.31500 40.37800 21.44300
C  39.86400 41.62200 21.47800
C  38.78700 40.79600 22.16400
N  41.03000 43.21100 26.44200
C  40.93000 44.02300 25.32300
C  40.64500 45.36800 25.61900
C  40.51300 45.35600 27.06900
C  40.84000 43.94700 27.45000
C  40.50800 46.58800 24.70300
C  40.15700 46.05800 28.24600
O  39.83500 47.26800 28.41400
C  40.19300 45.06000 29.47800
C  41.03600 45.72500 30.52700
O  42.25700 45.70000 30.68400
O  40.13500 46.36700 31.34200
C  40.77800 46.98100 32.52400
H  42.39600 38.37600 29.92300
H  42.46000 38.16600 23.42900
H  40.87000 44.03200 23.10200
H  41.53200 42.87100 31.61700
H  40.95100 39.86500 31.45000
H  43.26800 41.39800 32.35700
H  43.63500 40.19100 31.11900
H  42.74600 39.64700 32.55200
H  39.13100 41.18700 31.68700
H  38.90100 42.54200 30.69500
H  38.39900 43.94400 32.39600
H  40.05800 43.67700 33.07200
H  42.53300 35.39300 28.54000
H  43.10800 36.58100 29.70600
H  44.25600 36.05300 28.50000
H  44.56700 34.61900 26.50500
H  43.72400 33.99000 25.10200
H  42.84100 34.19700 26.55200
H  41.16700 39.64800 21.85400
H  41.76400 42.44700 21.58100
H  43.47500 41.27000 20.83700
H  43.22100 39.61200 20.67300
H  44.16400 40.04000 22.03800
H  40.04400 41.34200 20.44000
H  39.44700 42.59900 21.23400
H  38.49600 40.14400 21.34000
H  37.86200 41.31200 22.41800
H  39.09800 40.14800 22.98300
H  39.70300 47.24700 25.02800
H  40.28400 46.41800 23.65000
H  41.40500 47.17800 24.89200
H  39.22500 44.66100 29.78000
H  40.03000 47.52300 33.10100
H  41.56900 47.68800 32.27200
H  41.12700 46.29100 33.29300

