158

Mg 49.42300 47.34400 43.05700
C  46.01400 47.53600 42.08800
C  49.44200 44.13000 41.64100
C  52.70700 47.33500 43.19000
C  49.29100 50.75400 43.60200
N  47.89000 46.06400 41.94400
C  46.57500 46.34600 41.63600
C  45.86000 45.16400 41.00300
C  46.81500 43.97700 41.28200
C  48.15500 44.77800 41.60400
C  46.42200 43.00400 42.46700
C  45.48300 45.27100 39.46400
C  43.99600 45.45200 39.14000
H  43.52200 45.19300 37.69200
N  50.82700 45.90700 42.55500
C  50.66300 44.68000 42.05700
C  51.90100 44.00000 41.96400
C  52.93500 44.91000 42.30500
C  52.19500 46.10700 42.68900
C  51.99300 42.54700 41.45000
C  54.44000 44.60500 42.29000
O  54.86200 43.49900 41.93200
C  55.38900 45.65500 42.77500
N  50.81700 48.82600 43.29900
C  52.09500 48.55700 43.50000
C  52.90000 49.73900 43.98600
C  51.83500 50.87700 44.05900
C  50.56700 50.15000 43.63000
C  53.84100 49.60900 45.19000
C  52.08600 52.21000 43.35300
C  51.79300 53.48300 44.18900
N  47.83900 48.82000 43.17800
C  48.05600 50.18400 43.32000
C  46.75600 50.86000 43.24300
C  45.89800 49.80400 42.74900
C  46.68100 48.56900 42.64600
C  46.48300 52.26000 43.62700
C  44.52100 49.46100 42.37900
O  43.55100 50.22400 42.36100
C  44.52300 47.89200 42.01800
C  43.64000 47.28100 42.98900
O  43.87000 47.34900 44.20500
O  42.65300 46.53600 42.43700
C  41.57300 46.03100 43.32100
H  49.28400 43.14300 41.20200
H  53.77800 47.41100 43.39300
H  49.26800 51.83900 43.72000
H  44.94700 44.98700 41.57100
H  46.84600 43.21500 40.50400
H  46.42000 41.95800 42.16000
H  45.39800 43.13100 42.81800
H  47.10000 43.05100 43.31900
H  45.85000 44.43000 38.87700
H  46.03500 46.15500 39.14400
H  43.68700 46.49300 39.22900
H  43.38300 44.79600 39.75900
H  52.98100 42.30500 41.05700
H  51.17200 42.31000 40.77400
H  51.90100 41.90400 42.32500
H  55.13400 46.50500 42.14100
H  56.34100 45.25900 42.42300
H  55.04600 45.59600 43.80800
H  53.51100 49.97900 43.11600
H  51.59000 51.08000 45.10200
H  54.88900 49.76200 44.93400
H  53.80100 48.63500 45.67800
H  53.56100 50.45800 45.81400
H  51.56200 52.34400 42.40700
H  53.15100 52.12000 43.13900
H  52.74800 53.98000 44.35700
H  51.28800 53.19800 45.11200
H  51.11900 54.11200 43.60700
H  47.22000 52.90900 43.15200
H  46.57700 52.33300 44.71100
H  45.55200 52.71000 43.28300
H  44.03500 47.79400 41.04800
H  41.82500 44.99100 43.53200
H  40.65300 46.05600 42.73700
H  41.59200 46.67600 44.19900
Mg 6.18200 53.92400 40.92400
C  5.54800 50.42600 40.51700
C  9.56400 53.30900 40.36500
C  6.69800 57.22900 40.68700
C  2.81400 54.34900 41.29600
N  7.36500 52.09100 40.60200
C  6.94500 50.78600 40.43900
C  8.08100 49.76200 40.31700
C  9.31300 50.70000 40.63300
C  8.73600 52.18500 40.52700
C  10.11700 50.49300 41.97400
C  8.34300 49.13600 38.89100
C  8.14200 50.09600 37.62600
H  7.19400 49.62900 36.50200
N  7.88000 55.12900 40.55200
C  9.13300 54.66900 40.31500
C  9.93200 55.83000 40.00100
C  9.21000 57.01000 40.19800
C  7.85700 56.50600 40.47200
C  11.31500 55.55200 39.40900
C  9.64800 58.37400 40.01600
O  10.79100 58.58600 39.63800
C  8.81700 59.50700 40.41000
N  4.91200 55.56300 41.10300
C  5.37400 56.80100 41.03600
C  4.25200 57.85500 41.18100
C  3.02300 56.89100 41.15600
C  3.59700 55.51300 41.15300
C  4.35800 58.70600 42.41400
C  2.18300 57.00000 39.89900
C  0.66300 56.81700 40.08000
N  4.42200 52.69600 40.89600
C  3.16400 53.01000 41.19000
C  2.30600 51.85700 41.12400
C  3.19800 50.80600 40.95600
C  4.50000 51.40700 40.77100
C  0.80200 51.83900 41.29500
C  3.30600 49.37500 40.79800
O  2.44400 48.55000 40.83400
C  4.82400 49.03300 40.57500
C  4.98800 48.33200 39.27900
O  4.61900 48.71800 38.19500
O  5.61900 47.10500 39.57400
C  5.76300 46.38200 38.32600
H  10.63900 53.15100 40.25800
H  6.58200 58.31400 40.64700
H  1.75600 54.57900 41.44300
H  7.93300 48.94800 41.02700
H  10.12100 50.58600 39.91000
H  11.16900 50.51700 41.69000
H  9.76100 49.60200 42.49100
H  9.95800 51.34900 42.63000
H  7.73500 48.24400 38.74300
H  9.40000 48.89200 38.79000
H  9.09600 50.18500 37.10600
H  8.01500 51.16000 37.82800
H  11.35000 54.69200 38.74000
H  12.10200 55.62200 40.16000
H  11.66000 56.35200 38.75400
H  9.52100 60.32800 40.54600
H  8.35300 59.20000 41.34700
H  8.05100 59.70700 39.66100
H  4.22600 58.47800 40.28600
H  2.40300 57.00300 42.04600
H  5.11800 58.31900 43.09400
H  3.40500 58.74500 42.94200
H  4.67800 59.73400 42.24300
H  2.28600 56.15000 39.22500
H  2.37900 57.87500 39.28100
H  0.35100 56.39700 41.03600
H  0.28600 56.10800 39.34300
H  0.17000 57.78500 39.98500
H  0.41000 52.77900 40.90700
H  0.59400 51.68700 42.35500
H  0.47800 50.98400 40.70100
H  5.26700 48.38800 41.33400
H  6.33200 46.96900 37.60500
H  4.79200 46.07900 37.93200
H  6.30500 45.45000 38.48600

