158

Mg 47.11900 34.98600 26.70500
C  45.43200 33.29100 29.38300
C  47.59800 37.52600 28.89100
C  48.90700 36.50400 24.28100
C  46.60100 32.19700 24.72900
N  46.62400 35.23400 28.90600
C  46.04900 34.41100 29.79600
C  46.05300 34.89000 31.22500
C  46.46600 36.35200 30.91100
C  46.90600 36.40600 29.44800
C  45.36300 37.40200 31.11700
C  47.13300 34.14500 32.14800
C  46.67500 33.93600 33.60000
H  47.52700 34.68700 34.68300
N  48.03500 36.79100 26.54200
C  48.03400 37.76300 27.56500
C  48.80000 38.91800 27.09400
C  49.25600 38.60000 25.79700
C  48.72900 37.24500 25.44600
C  49.14000 40.15100 27.97700
C  50.23800 39.33500 24.80500
O  50.52100 38.88800 23.68300
C  50.84700 40.70100 25.14400
N  47.55900 34.46500 24.84800
C  48.37400 35.22400 24.06200
C  48.49700 34.62500 22.60600
C  47.55800 33.32500 22.69500
C  47.29200 33.27700 24.16800
C  48.08000 35.52400 21.42600
C  48.12000 32.10500 21.98600
C  49.28900 31.33100 22.72300
N  46.18300 33.12500 26.94900
C  46.06700 32.12600 26.00700
C  45.29500 30.97400 26.59100
C  44.97100 31.45600 27.88100
C  45.56100 32.76800 28.08100
C  44.95600 29.67000 25.98600
C  44.26300 31.09900 29.11400
O  43.73900 30.03600 29.42800
C  44.43600 32.33700 30.06000
C  44.66400 31.86400 31.46800
O  45.64800 31.29100 31.89300
O  43.59700 32.25600 32.26700
C  43.67500 31.86500 33.65200
H  47.71200 38.43400 29.48600
H  49.41700 36.93200 23.41500
H  46.25300 31.40000 24.06900
H  45.03800 34.74600 31.59600
H  47.20200 36.62300 31.66900
H  44.52800 36.84500 31.54200
H  44.85000 37.74100 30.21700
H  45.66100 38.28300 31.68600
H  48.10600 34.63600 32.13500
H  47.24600 33.09500 31.87700
H  46.67900 32.87300 33.84300
H  45.65000 34.30500 33.58000
H  50.16000 39.95300 28.30700
H  48.48800 40.23700 28.84600
H  49.19300 41.04600 27.35700
H  50.16600 41.54400 25.03300
H  51.64500 40.92200 24.43500
H  51.40300 40.63000 26.08000
H  49.51900 34.29200 22.42200
H  46.53700 33.36900 22.31500
H  47.57100 36.30100 21.99600
H  47.32000 35.06200 20.79600
H  48.96400 35.81300 20.85900
H  48.57600 32.48000 21.07000
H  47.26600 31.46500 21.76600
H  50.00200 31.11900 21.92700
H  48.81400 30.41500 23.07600
H  49.70000 32.02300 23.45800
H  45.13300 28.85700 26.69000
H  45.51600 29.43500 25.08200
H  43.88100 29.64300 25.80600
H  43.48300 32.86000 30.13600
H  44.39600 31.07000 33.84300
H  42.70400 31.52700 34.01500
H  43.98300 32.72300 34.24900
Mg 8.35200 48.39900 28.21800
C  6.64300 47.46600 31.18600
C  11.33800 48.32400 29.80900
C  9.78200 49.61300 25.40700
C  5.15800 48.64100 26.54800
N  8.94900 47.87400 30.25000
C  8.06800 47.56100 31.31300
C  8.89600 47.52400 32.67200
C  10.33100 48.12900 32.15800
C  10.30500 48.09200 30.68100
C  10.86100 49.47900 32.76000
C  8.96700 46.06600 33.32400
C  8.77300 46.20400 34.81900
H  9.55000 45.25000 35.75900
N  10.28700 48.66400 27.61100
C  11.38200 48.58500 28.39000
C  12.59500 48.71000 27.56500
C  12.12200 49.12300 26.29000
C  10.65300 49.21300 26.41000
C  13.95800 48.43000 28.06100
C  12.88800 49.44700 25.02300
O  12.42700 49.92200 23.99900
C  14.31200 49.23400 24.98600
N  7.54600 49.16300 26.41200
C  8.39500 49.66500 25.46800
C  7.62800 50.26500 24.24300
C  6.15700 49.75600 24.51700
C  6.30000 49.10900 25.86800
C  7.76200 51.81000 24.21300
C  5.51300 48.75500 23.56400
C  5.89100 48.72600 22.06200
N  6.27800 48.05100 28.68300
C  5.14700 48.09500 27.87300
C  4.02000 47.76700 28.69300
C  4.54800 47.52600 29.99000
C  5.94900 47.71900 29.91100
C  2.60500 47.73000 28.22900
C  4.14300 47.15100 31.34500
O  2.99000 46.92800 31.80000
C  5.58400 47.15700 32.25300
C  5.70300 45.77300 32.86100
O  6.00700 44.77500 32.23100
O  5.42800 45.85500 34.17100
C  5.31100 44.57500 34.89000
H  12.26700 48.37800 30.38100
H  10.20000 50.06300 24.50400
H  4.29700 48.98500 25.97000
H  8.34600 48.26900 33.24600
H  11.07400 47.41600 32.51500
H  11.42200 50.04300 32.01500
H  11.51300 49.30000 33.61500
H  10.01700 50.09000 33.08100
H  9.92800 45.56000 33.22300
H  8.26500 45.39000 32.83600
H  7.73400 46.11000 35.13600
H  9.12200 47.20500 35.07400
H  13.93900 48.07300 29.09000
H  14.36700 49.43800 28.13900
H  14.63100 47.85000 27.43000
H  14.44100 48.15700 24.87300
H  14.78300 49.70200 25.85000
H  14.71700 49.80800 24.15300
H  7.95600 49.72600 23.35400
H  5.46700 50.59300 24.62400
H  8.67600 52.15300 24.69800
H  6.88000 52.25600 24.67300
H  7.68800 52.16900 23.18700
H  4.44300 48.86500 23.74200
H  5.80900 47.83800 24.07300
H  5.98000 49.72600 21.63600
H  4.95700 48.41800 21.59300
H  6.64600 47.97000 21.84900
H  2.33200 48.56500 27.58400
H  1.83800 47.70500 29.00400
H  2.46100 46.81400 27.65800
H  5.65700 47.84100 33.09800
H  4.27600 44.43800 35.20400
H  5.89600 44.60200 35.80900
H  5.63500 43.74200 34.26600

