158

Mg 0.80900 8.01900 27.04600
C  1.70100 10.05200 29.73400
C  0.71900 5.37100 29.25000
C  0.58600 6.02900 24.32300
C  1.09100 10.72500 24.92000
N  1.17300 7.78100 29.18900
C  1.31000 8.76000 30.11600
C  1.08200 8.28200 31.57800
C  1.17400 6.72900 31.29000
C  0.95900 6.65000 29.78400
C  2.49100 6.03400 31.79600
C  -0.20100 8.79700 32.31200
C  -0.22000 8.91700 33.81800
H  1.00700 8.55400 34.66100
N  0.72600 5.94400 26.81400
C  0.68100 5.06100 27.87200
C  0.73000 3.70700 27.23500
C  0.62100 3.86300 25.83000
C  0.64000 5.33500 25.61900
C  0.72000 2.40600 27.98700
C  0.46400 2.90700 24.75400
O  0.45100 3.31200 23.60700
C  0.30400 1.43100 24.96600
N  1.01200 8.33200 24.88900
C  0.63900 7.39800 24.00300
C  0.61100 7.93800 22.53300
C  0.38300 9.49200 22.88400
C  0.78600 9.50700 24.33200
C  1.91000 7.69400 21.72100
C  -1.05800 9.87300 22.45000
C  -1.21500 10.86100 21.23200
N  1.45200 10.01400 27.20100
C  1.50600 10.98500 26.31000
C  1.99100 12.15300 26.90900
C  2.14000 11.83600 28.30600
C  1.78800 10.53500 28.42800
C  1.99800 13.57000 26.33700
C  2.44000 12.44300 29.58000
O  2.83300 13.51900 30.05700
C  2.10800 11.30500 30.59000
C  3.33900 11.16400 31.45700
O  4.34300 10.58200 31.16400
O  3.05600 11.79000 32.61300
C  4.04400 11.80300 33.67900
H  0.66600 4.57500 29.99500
H  0.38600 5.42700 23.43400
H  0.95300 11.58800 24.26600
H  1.99600 8.50600 32.12900
H  0.35500 6.18000 31.75400
H  3.06600 6.77200 32.35600
H  3.14800 5.85800 30.94500
H  2.19900 5.14200 32.35000
H  -1.00200 8.13000 31.99500
H  -0.39100 9.79200 31.91000
H  -0.99300 8.20000 34.09300
H  -0.63100 9.89600 34.06500
H  0.95300 2.63800 29.02600
H  1.47900 1.78400 27.51200
H  -0.25700 1.92300 27.99400
H  -0.04200 0.88600 24.08700
H  -0.37500 1.22100 25.79200
H  1.25900 1.02700 25.30200
H  -0.25200 7.51700 22.01600
H  1.15000 10.01200 22.31000
H  2.41200 8.62400 21.45200
H  1.69100 7.23700 20.75600
H  2.61600 7.12500 22.32600
H  -1.53900 10.25700 23.34900
H  -1.68000 9.02200 22.17100
H  -0.28500 10.92300 20.66700
H  -1.64400 11.83400 21.46900
H  -1.98900 10.36900 20.64300
H  2.65700 14.30700 26.79500
H  0.97700 13.93900 26.43800
H  2.20100 13.55300 25.26600
H  1.21400 11.64600 31.11300
H  4.53600 12.77500 33.72200
H  4.83600 11.05500 33.67000
H  3.52400 11.73400 34.63400
Mg 49.23400 46.06400 43.94100
C  45.59900 46.34100 43.29000
C  49.18600 43.04700 42.46300
C  52.58500 46.16300 44.10300
C  49.10100 49.54600 44.59400
N  47.57500 44.89200 42.68900
C  46.20800 45.11900 42.75600
C  45.41500 43.96100 42.14000
C  46.54300 42.86400 42.14100
C  47.87500 43.61300 42.43900
C  46.27000 41.52600 42.96200
C  44.83600 44.44100 40.75600
C  43.59300 43.61500 40.33500
H  43.44800 42.69600 39.08800
N  50.67600 44.75900 43.38400
C  50.41100 43.58800 42.83300
C  51.65400 42.84300 42.72500
C  52.70000 43.62600 43.32900
C  52.00100 44.90500 43.68900
C  51.77100 41.43600 42.25600
C  54.15700 43.21400 43.48800
O  54.48800 42.23300 42.83500
C  55.17900 44.02100 44.24200
N  50.67400 47.64800 44.19000
C  51.97900 47.36600 44.33900
C  52.68100 48.55900 45.07200
C  51.64700 49.65700 44.94500
C  50.37900 48.88400 44.57200
C  53.17100 48.30300 46.50400
C  52.01900 50.79700 43.85700
C  52.01700 52.17100 44.38900
N  47.69400 47.62400 44.00400
C  47.80500 48.97600 44.37300
C  46.45400 49.58700 44.33000
C  45.57400 48.57100 44.00700
C  46.40900 47.40300 43.76100
C  46.11300 51.01600 44.53600
C  44.14200 48.21500 43.75400
O  43.08300 48.85900 43.75000
C  44.20300 46.77200 43.21200
C  43.27700 45.85600 43.97700
O  43.43300 45.38300 45.08500
O  42.21500 45.68000 43.18800
C  41.19900 44.78300 43.77500
H  49.26600 41.97400 42.27300
H  53.65600 46.30300 44.26400
H  48.98400 50.56500 44.97000
H  44.61700 43.67200 42.82400
H  46.80800 42.51000 41.14500
H  47.15600 41.53100 43.59700
H  46.32200 40.72000 42.23000
H  45.32300 41.49100 43.50000
H  45.70400 44.30600 40.11000
H  44.53400 45.47600 40.92100
H  42.75000 44.29000 40.19200
H  43.22900 43.04500 41.19000
H  52.65000 41.10900 41.70000
H  50.98800 41.34000 41.50500
H  51.61800 40.59700 42.93400
H  54.85500 44.39000 45.21500
H  55.42400 44.85900 43.59000
H  56.04100 43.37200 44.39800
H  53.54100 48.82500 44.45800
H  51.60100 50.10100 45.93900
H  53.13900 47.24600 46.76700
H  52.52000 48.77700 47.23900
H  54.23200 48.54900 46.53800
H  51.26300 50.77800 43.07200
H  53.00800 50.58000 43.45600
H  51.52300 52.80200 43.64900
H  53.02800 52.55400 44.52200
H  51.59100 52.30400 45.38300
H  46.36700 51.30300 45.55700
H  45.08800 51.34300 44.35600
H  46.75600 51.57500 43.85700
H  43.71700 46.90100 42.24500
H  40.40400 44.67100 43.03800
H  40.81400 45.27000 44.67100
H  41.62300 43.83400 44.10600

