158

Mg 1.57100 -1.44900 44.86400
C  4.88300 -0.39100 44.02600
C  0.52100 1.26500 43.03200
C  -1.48500 -2.88500 44.89700
C  3.00600 -4.49100 45.89200
N  2.71500 0.13200 43.33000
C  3.99300 0.42400 43.37400
C  4.27000 1.73900 42.72000
C  2.84300 2.38200 42.73000
C  1.92900 1.15100 42.94400
C  2.55900 3.45000 43.81600
C  4.87700 1.52300 41.32000
C  5.96200 2.48900 40.88700
H  5.78600 3.47600 39.75500
N  -0.12000 -0.89400 44.10300
C  -0.43400 0.30700 43.41600
C  -1.83500 0.51300 43.25000
C  -2.44100 -0.66000 43.74000
C  -1.38300 -1.55800 44.28200
C  -2.40600 1.76900 42.61500
C  -3.91700 -0.88000 43.83800
O  -4.60500 0.03900 43.42400
C  -4.62800 -2.07500 44.42200
N  0.83100 -3.41800 45.41600
C  -0.50700 -3.79200 45.35500
C  -0.73000 -5.18900 45.95600
C  0.74000 -5.64300 46.28500
C  1.60000 -4.45300 45.86000
C  -1.94400 -5.29800 46.99900
C  1.14100 -7.02600 45.63100
C  1.70400 -8.16800 46.58100
N  3.52400 -2.15900 45.18400
C  3.91200 -3.44300 45.63300
C  5.34700 -3.43600 45.87400
C  5.76700 -2.16900 45.34800
C  4.56700 -1.52400 44.84800
C  6.30400 -4.48300 46.46400
C  6.91300 -1.36700 45.05500
O  8.07900 -1.53700 45.37700
C  6.33200 -0.14300 44.25900
C  6.56700 1.10000 45.06300
O  6.03800 1.49300 46.12100
O  7.64400 1.69900 44.43400
C  7.94500 3.17500 44.80900
H  0.09300 2.16500 42.58400
H  -2.50100 -3.28100 44.95900
H  3.40400 -5.41900 46.30800
H  4.97100 2.26500 43.36900
H  2.56700 2.89400 41.80800
H  1.78300 3.21700 44.54600
H  2.27300 4.30400 43.20200
H  3.49900 3.67300 44.32200
H  4.13600 1.65000 40.53100
H  5.21300 0.49400 41.19600
H  6.86700 1.88200 40.87500
H  6.21500 3.14800 41.71800
H  -2.18700 2.55500 43.33700
H  -3.48200 1.83800 42.46000
H  -1.93800 1.98500 41.65400
H  -5.69800 -1.86600 44.42700
H  -4.24300 -2.20900 45.43300
H  -4.41400 -2.91400 43.76000
H  -1.00900 -5.73200 45.05300
H  0.66700 -5.79200 47.36200
H  -2.53900 -4.38600 47.03900
H  -1.50400 -5.56300 47.96100
H  -2.57900 -6.16300 46.81100
H  1.98500 -6.86200 44.96100
H  0.30600 -7.45900 45.08000
H  0.88900 -8.89200 46.62200
H  2.04900 -7.82000 47.55500
H  2.63000 -8.61600 46.22200
H  6.77800 -5.05200 45.66400
H  5.83500 -5.20100 47.13700
H  7.13500 -3.99900 46.97700
H  6.79200 -0.07600 43.27300
H  8.39500 3.70300 43.96800
H  8.75600 3.17500 45.53800
H  7.10300 3.73800 45.21200
Mg -0.30000 42.89000 26.54800
C  1.92600 43.12600 29.26100
C  -2.80900 42.66600 28.76200
C  -2.28500 42.19900 23.95100
C  2.47600 43.19300 24.30200
N  -0.40800 42.62900 28.81100
C  0.61700 42.90900 29.65200
C  0.04900 42.87500 31.12900
C  -1.48100 42.47900 30.90700
C  -1.59600 42.56900 29.41100
C  -1.86700 41.02700 31.47800
C  0.36000 44.23100 31.90100
C  1.00700 44.39700 33.33400
H  0.71400 43.24300 34.36200
N  -2.30500 42.59200 26.33700
C  -3.12700 42.61800 27.36700
C  -4.47800 42.51400 26.85400
C  -4.39500 42.16500 25.46000
C  -2.94000 42.33900 25.15100
C  -5.77100 42.83800 27.72900
C  -5.46800 41.73700 24.40700
O  -5.15600 41.46100 23.25200
C  -6.86700 41.73000 24.86800
N  0.06800 42.78900 24.35300
C  -0.93700 42.38900 23.56200
C  -0.37700 42.42400 22.06800
C  1.10400 42.88000 22.16600
C  1.22300 42.98000 23.68600
C  -0.49100 40.94600 21.58200
C  1.28900 44.19700 21.41500
C  1.97000 44.12900 20.00100
N  1.74100 43.04300 26.67500
C  2.75400 43.21200 25.74200
C  4.01500 43.41200 26.46000
C  3.73100 43.26700 27.81500
C  2.37400 43.12700 27.90500
C  5.26400 43.83700 25.72900
C  4.26800 43.43400 29.13300
O  5.44200 43.61100 29.45600
C  3.10000 43.36200 30.15300
C  3.44200 42.17900 30.97000
O  3.68600 41.02400 30.54100
O  3.71200 42.62700 32.25000
C  4.28500 41.50300 33.11100
H  -3.69500 42.57700 29.39400
H  -2.88900 42.04400 23.05400
H  3.29900 43.41100 23.61700
H  0.58900 42.04700 31.58800
H  -2.16500 43.27600 31.19700
H  -0.94900 40.53000 31.79100
H  -2.38900 40.41800 30.73900
H  -2.54300 41.05000 32.33300
H  -0.56600 44.80600 31.91500
H  1.04400 44.84900 31.32000
H  0.60300 45.31100 33.77000
H  2.08100 44.56600 33.25600
H  -6.40800 43.46900 27.10900
H  -5.68500 43.43600 28.63600
H  -6.30500 41.92400 27.98700
H  -6.85500 41.55800 25.94400
H  -7.52900 41.03800 24.34700
H  -7.36600 42.68800 24.73000
H  -1.04900 42.99900 21.43100
H  1.83200 42.12300 21.87300
H  0.23200 40.44100 22.22300
H  -0.23300 40.74100 20.54300
H  -1.41700 40.38900 21.72000
H  1.96200 44.82800 21.99500
H  0.36900 44.75300 21.23600
H  1.16900 44.39000 19.31000
H  2.35100 43.14000 19.74700
H  2.75800 44.86600 19.84500
H  5.63000 42.96200 25.19200
H  6.02300 44.27300 26.37900
H  4.84000 44.55400 25.02500
H  2.96700 44.36700 30.55300
H  4.58400 40.55100 32.67200
H  3.50200 41.23800 33.82100
H  5.08600 41.96300 33.69000

