158

Mg 48.02500 34.79300 27.67700
C  45.94000 33.34700 30.19300
C  48.32300 37.46300 29.85700
C  49.17000 36.70700 25.17300
C  47.19200 32.17300 25.55000
N  47.10600 35.38100 29.74200
C  46.44200 34.60800 30.66100
C  46.72200 34.96100 32.08500
C  47.05600 36.44600 31.85200
C  47.60800 36.39100 30.42900
C  45.99400 37.51100 32.25000
C  47.99400 34.15200 32.47900
C  48.31100 34.18100 33.89200
H  47.37300 35.02700 34.82300
N  48.80500 36.77800 27.61600
C  48.84200 37.69900 28.56800
C  49.37500 39.00200 28.06400
C  49.65300 38.76300 26.67100
C  49.14200 37.40300 26.43200
C  49.46200 40.24400 28.97000
C  50.25100 39.69600 25.66000
O  50.33100 39.44500 24.46000
C  50.82400 40.93200 26.16600
N  48.11800 34.50400 25.67800
C  48.72700 35.40300 24.84000
C  48.82400 34.88800 23.40200
C  48.48900 33.35000 23.62000
C  47.88800 33.31600 25.04100
C  47.81500 35.61000 22.51000
C  49.74500 32.47000 23.61900
C  49.90000 31.39500 22.55500
N  46.90700 33.04500 27.83300
C  46.67800 32.00800 26.88000
C  46.10400 30.91000 27.59400
C  45.72000 31.42200 28.85100
C  46.25800 32.68800 28.96600
C  45.82000 29.52900 27.13200
C  45.13800 31.06100 30.10600
O  44.78400 29.94400 30.40700
C  45.02400 32.32500 30.95300
C  45.35500 31.94100 32.42200
O  46.25900 31.23300 32.79400
O  44.37400 32.46900 33.28500
C  44.44000 32.33100 34.72500
H  48.33200 38.31400 30.54100
H  49.47600 37.38500 24.37300
H  47.17400 31.26800 24.94000
H  45.83800 34.82400 32.70800
H  47.83800 36.63000 32.58900
H  45.03800 37.02900 32.45900
H  45.66500 38.10300 31.39700
H  46.28100 38.02200 33.16900
H  48.86200 34.52200 31.93200
H  47.79000 33.14200 32.12300
H  49.27500 34.68200 33.97500
H  48.27400 33.15900 34.26900
H  50.45500 40.58500 29.26000
H  49.01400 40.18400 29.96200
H  48.80600 41.02600 28.58600
H  51.50000 41.39400 25.44600
H  51.47200 40.65800 26.99900
H  50.03200 41.65300 26.36600
H  49.84100 35.01500 23.03100
H  47.74200 33.06500 22.87900
H  47.12500 36.23900 23.07400
H  47.18200 34.86200 22.03300
H  48.43600 36.21600 21.85100
H  49.81100 31.84600 24.51000
H  50.56900 33.18200 23.57000
H  49.09900 31.47800 21.82000
H  49.97900 30.40200 22.99800
H  50.78300 31.52200 21.92900
H  46.21600 28.80700 27.84700
H  46.22100 29.34900 26.13400
H  44.75400 29.41800 26.93500
H  44.02900 32.76500 30.89300
H  45.46200 32.21900 35.08700
H  43.94800 31.43700 35.10900
H  44.02600 33.13300 35.33600
Mg -5.68600 24.26200 25.54900
C  -4.23000 26.03800 28.18700
C  -7.54600 22.47300 27.83700
C  -6.79700 22.39000 22.97200
C  -3.85400 26.24900 23.28600
N  -5.78100 24.26900 27.70300
C  -5.15700 25.08800 28.59900
C  -5.64400 24.79900 30.12900
C  -6.20500 23.31000 29.94600
C  -6.56100 23.35300 28.40000
C  -5.25900 22.14100 30.33000
C  -6.71300 25.83700 30.58500
C  -6.58400 26.41500 31.95300
H  -5.92800 25.50400 32.98600
N  -7.05400 22.66300 25.43000
C  -7.78600 22.08200 26.48500
C  -8.63800 21.02200 25.96500
C  -8.54800 21.11500 24.52900
C  -7.45300 22.05900 24.25100
C  -9.44800 20.24800 26.87600
C  -9.32200 20.42800 23.39100
O  -9.14700 20.64400 22.20400
C  -10.46400 19.43300 23.72900
N  -5.42300 24.33900 23.49200
C  -5.99700 23.39700 22.66000
C  -5.55200 23.68300 21.14100
C  -5.10800 25.09300 21.29700
C  -4.70800 25.22100 22.75700
C  -4.43500 22.71000 20.68000
C  -6.07600 26.23700 20.92300
C  -5.50000 27.16400 19.87100
N  -4.30000 25.87200 25.64100
C  -3.67900 26.56900 24.66800
C  -2.70100 27.47300 25.31300
C  -2.91300 27.33700 26.65800
C  -3.88500 26.31400 26.85400
C  -1.68900 28.25300 24.53000
C  -2.53700 27.90900 28.00900
O  -1.90400 28.86600 28.37200
C  -3.42400 27.01500 29.06500
C  -2.46900 26.32900 29.95900
O  -1.88700 25.27400 29.69200
O  -2.30500 27.08300 31.13300
C  -1.36900 26.56100 32.16300
H  -8.10500 21.91900 28.59400
H  -7.08500 21.85400 22.06500
H  -3.25600 26.82400 22.57600
H  -4.82800 24.75200 30.85000
H  -7.18200 23.13300 30.39600
H  -4.30000 22.48900 30.71500
H  -5.04200 21.61800 29.39900
H  -5.82300 21.52300 31.02900
H  -7.74200 25.49700 30.47300
H  -6.60900 26.69300 29.91800
H  -7.63700 26.50200 32.22200
H  -6.02000 27.34700 31.90400
H  -9.11700 19.23300 27.09700
H  -10.49600 20.16900 26.59000
H  -9.46300 20.70100 27.86700
H  -11.28300 20.01500 24.15000
H  -9.95700 18.72100 24.38000
H  -10.81300 18.92900 22.82800
H  -6.47800 23.56400 20.58000
H  -4.19700 25.30400 20.73600
H  -4.88900 22.33600 19.76200
H  -4.21400 21.94900 21.42800
H  -3.48200 23.18100 20.43700
H  -6.35500 26.81800 21.80200
H  -7.02600 25.78200 20.64300
H  -4.70900 27.75600 20.33300
H  -6.25000 27.88600 19.54900
H  -5.07400 26.76900 18.94900
H  -0.93400 27.62800 24.05300
H  -1.20000 28.88600 25.27100
H  -2.12000 28.92800 23.79000
H  -4.00800 27.61000 29.76700
H  -1.78000 26.81700 33.13900
H  -0.40900 27.05700 32.02100
H  -1.19300 25.49800 31.99700

