158

Mg 23.73800 -4.92900 45.55700
C  26.33900 -2.80500 44.02100
C  21.64600 -3.92300 42.97600
C  21.90300 -7.58400 46.09600
C  26.40200 -6.25700 47.33400
N  23.97300 -3.51900 43.78200
C  25.08700 -2.79600 43.37400
C  24.78200 -2.04800 42.04100
C  23.25300 -2.40600 41.79000
C  22.91900 -3.29500 42.97800
C  22.33400 -1.24900 41.66800
C  25.66600 -2.49100 40.83600
C  26.55400 -1.47100 40.05000
H  26.10500 -1.48400 38.54800
N  21.89800 -5.66200 44.74500
C  21.20200 -4.99100 43.77300
C  19.84700 -5.61300 43.74700
C  19.91100 -6.78300 44.53800
C  21.24500 -6.75000 45.17200
C  18.75400 -5.09400 42.82500
C  18.80800 -7.75800 44.73200
O  17.68300 -7.50000 44.26100
C  18.85700 -9.01600 45.58200
N  24.16000 -6.73300 46.38800
C  23.16000 -7.65700 46.61700
C  23.69900 -8.88600 47.33200
C  25.01900 -8.32600 47.96200
C  25.22800 -7.05200 47.21500
C  22.68200 -9.61500 48.33100
C  26.30200 -9.31500 48.03100
C  26.11500 -10.92700 47.76200
N  25.82300 -4.43200 45.94100
C  26.75300 -5.05800 46.68800
C  28.02300 -4.52500 46.58500
C  27.87000 -3.56800 45.61600
C  26.55100 -3.62600 45.20500
C  29.27200 -4.98800 47.18700
C  28.64500 -2.62800 44.81100
O  29.83800 -2.35800 44.81300
C  27.66200 -2.09700 43.73900
C  27.61700 -0.58500 43.77300
O  27.17100 0.05400 44.66200
O  28.08400 0.04000 42.64300
C  28.23200 1.46900 42.65600
H  20.91400 -3.57600 42.24400
H  21.27300 -8.43200 46.37000
H  27.16500 -6.68400 47.98800
H  24.93700 -0.99300 42.26900
H  23.08000 -3.01700 40.90500
H  21.51100 -1.35700 42.37500
H  21.82700 -1.36400 40.71000
H  22.81800 -0.27200 41.66200
H  25.16200 -3.06000 40.05400
H  26.30300 -3.25200 41.28700
H  27.63900 -1.56900 40.06300
H  26.43000 -0.52000 40.56900
H  18.57400 -5.87000 42.08200
H  19.02800 -4.25600 42.18300
H  17.80600 -4.98700 43.35100
H  17.97400 -9.65200 45.51700
H  19.09500 -8.72900 46.60600
H  19.63700 -9.67100 45.19200
H  23.97700 -9.54100 46.50600
H  24.94800 -8.04700 49.01300
H  21.84200 -8.99600 48.64400
H  23.23700 -9.91600 49.22000
H  22.29200 -10.54900 47.92700
H  26.72000 -9.23000 49.03400
H  27.03600 -9.02100 47.28100
H  26.51700 -11.31500 46.82600
H  25.10400 -11.33200 47.81300
H  26.71200 -11.36100 48.56500
H  29.03600 -5.49100 48.12500
H  29.92000 -4.13000 47.36400
H  29.86500 -5.64100 46.54700
H  27.96000 -2.43000 42.74500
H  29.06400 1.73500 43.30800
H  27.40800 1.94500 43.18700
H  28.35800 1.97400 41.69800
Mg 54.64900 24.58600 45.02100
C  51.83000 26.47900 44.03300
C  52.91800 21.80900 43.77400
C  57.47100 22.73200 45.16900
C  56.36600 27.41900 45.76700
N  52.68600 24.26200 43.91600
C  51.64100 25.13900 43.69400
C  50.36900 24.45200 43.18900
C  50.72500 22.92600 43.45600
C  52.26700 23.04000 43.67600
C  49.86100 22.28600 44.54600
C  50.00900 24.76400 41.73100
C  48.53000 24.67400 41.52700
H  48.17800 24.38400 40.09200
N  55.18400 22.52300 44.63800
C  54.23900 21.54800 44.17200
C  54.86600 20.29500 44.18000
C  56.27700 20.45200 44.43000
C  56.36300 21.93900 44.81800
C  54.06800 19.04000 44.03400
C  57.27500 19.43300 44.40300
O  57.04500 18.35000 43.92500
C  58.65600 19.71200 44.93400
N  56.62300 25.05400 45.19900
C  57.63500 24.13100 45.33400
C  59.00800 24.76100 45.72600
C  58.56800 26.20900 46.03800
C  57.07200 26.26600 45.61600
C  59.69400 23.95900 46.93300
C  59.38600 27.25700 45.20600
C  59.94500 28.40200 46.05600
N  54.17200 26.53700 45.16600
C  54.96400 27.59600 45.50100
C  54.15800 28.81200 45.58000
C  52.90500 28.36700 45.06100
C  52.96600 27.01100 44.74900
C  54.65000 30.11900 45.96900
C  51.60700 28.90200 44.61300
O  51.23400 30.06800 44.61300
C  50.94100 27.68000 43.90800
C  50.70800 28.13600 42.53700
O  51.57400 28.32200 41.66100
O  49.38000 28.44400 42.36200
C  48.98900 28.93200 41.06000
H  52.27900 20.93900 43.61300
H  58.44600 22.24800 45.25300
H  56.99500 28.30800 45.84400
H  49.47200 24.85200 43.66200
H  50.70500 22.36600 42.52000
H  49.37100 21.45000 44.04700
H  49.03000 22.84900 44.97200
H  50.54100 21.98000 45.34100
H  50.48800 23.96200 41.16900
H  50.25100 25.78700 41.44400
H  48.28100 25.71700 41.72600
H  48.01700 24.03300 42.24300
H  53.44100 19.02000 43.14300
H  53.29400 18.98800 44.79900
H  54.55800 18.07500 44.16600
H  59.05500 20.46000 44.24900
H  59.13300 18.73200 44.90600
H  58.63100 20.07200 45.96300
H  59.55100 24.70100 44.78300
H  58.63900 26.28000 47.12400
H  60.58200 23.46300 46.54200
H  58.96800 23.26700 47.36000
H  60.07500 24.60100 47.72700
H  58.73400 27.83100 44.54700
H  60.11600 26.76400 44.56400
H  59.66900 28.26200 47.10100
H  59.63900 29.38800 45.70800
H  61.02500 28.29300 45.96300
H  55.65200 30.30200 45.57900
H  54.67800 30.24800 47.05100
H  54.01700 30.90800 45.56200
H  49.96600 27.43700 44.33000
H  48.09900 29.55300 40.95700
H  48.71200 28.02600 40.52000
H  49.81500 29.32800 40.46900

