158

Mg 2.04500 0.12000 44.03500
C  5.54800 0.26600 43.03400
C  1.59000 2.62000 41.61700
C  -1.20100 -0.64800 43.96200
C  2.84500 -2.94100 45.69100
N  3.41800 1.27000 42.42100
C  4.80100 1.25300 42.32200
C  5.24200 2.35600 41.35800
C  4.05000 3.35500 41.31800
C  2.94500 2.28300 41.68800
C  4.05400 4.49400 42.37800
C  5.70700 1.84700 39.93300
C  7.07400 2.33800 39.38000
H  7.06600 2.89600 37.96600
N  0.43200 0.81000 42.90900
C  0.45400 1.87100 42.05300
C  -0.94500 2.24800 41.75800
C  -1.78100 1.37800 42.47700
C  -0.91200 0.44000 43.16900
C  -1.33800 3.45700 40.97300
C  -3.31800 1.40000 42.40600
O  -3.89000 2.34100 41.91000
C  -4.18500 0.34400 43.01300
N  1.02600 -1.73100 44.47900
C  -0.31800 -1.58700 44.59600
C  -0.87400 -2.70000 45.39600
C  0.40100 -3.48900 45.93700
C  1.51200 -2.69100 45.31800
C  -1.96700 -2.35800 46.46400
C  0.45600 -5.03000 45.48600
C  -0.36500 -6.00300 46.33700
N  3.76600 -0.99200 44.42800
C  3.90200 -2.17500 45.16800
C  5.24700 -2.61500 45.17400
C  5.97100 -1.65200 44.39100
C  4.98600 -0.70300 43.95000
C  5.87200 -3.77200 45.90000
C  7.26700 -1.29700 43.84400
O  8.37200 -1.85500 43.97500
C  7.03800 -0.05300 42.92000
C  7.78200 1.12200 43.38000
O  7.80400 1.67400 44.53200
O  8.54800 1.55100 42.30700
C  9.41900 2.66900 42.67500
H  1.36300 3.42300 40.91300
H  -2.26500 -0.74700 44.18700
H  3.11000 -3.68700 46.44300
H  6.08400 2.92200 41.75600
H  3.87400 3.81600 40.34500
H  3.11500 4.56000 42.92700
H  4.26500 5.42000 41.84400
H  4.88500 4.34000 43.06700
H  4.88400 2.02300 39.24000
H  5.65000 0.76100 40.00700
H  7.74300 1.49700 39.19500
H  7.52700 3.03800 40.08100
H  -2.15200 3.12800 40.32600
H  -0.55900 3.77400 40.28100
H  -1.69800 4.34000 41.50100
H  -5.24600 0.54000 42.86200
H  -4.05200 0.47200 44.08700
H  -3.84000 -0.60900 42.61000
H  -1.47000 -3.34000 44.74600
H  0.59900 -3.59500 47.00400
H  -2.83100 -3.00700 46.32200
H  -2.36600 -1.34600 46.39900
H  -1.64900 -2.50300 47.49600
H  1.45800 -5.40800 45.68900
H  0.18600 -5.08700 44.43100
H  -0.73100 -5.43900 47.19500
H  0.14100 -6.85700 46.78700
H  -1.19200 -6.37800 45.73500
H  6.88200 -3.95200 45.53200
H  5.34800 -4.69000 45.63300
H  6.04800 -3.73100 46.97500
H  7.37200 -0.29100 41.91000
H  8.84900 3.58800 42.81500
H  9.98700 2.86300 41.76500
H  9.97900 2.48000 43.59100
Mg 16.91500 -1.31800 27.47600
C  15.90500 0.79700 30.09900
C  18.93200 -2.93800 29.68200
C  18.12800 -3.13600 24.85600
C  15.13200 0.70400 25.28900
N  17.43200 -1.06300 29.65500
C  16.80200 -0.26500 30.50600
C  17.39300 -0.41700 31.96900
C  18.53900 -1.49400 31.76400
C  18.37900 -1.81300 30.26900
C  19.93900 -1.01200 32.11300
C  16.26100 -0.94100 32.97700
C  16.23200 -0.38500 34.33700
H  17.56400 0.08400 34.97700
N  18.25900 -2.86800 27.26900
C  18.97300 -3.39600 28.32400
C  19.61000 -4.60700 27.87600
C  19.27600 -4.77600 26.49500
C  18.53400 -3.57300 26.17700
C  20.49100 -5.47000 28.82200
C  19.74400 -5.83400 25.49200
O  19.44700 -5.79900 24.31500
C  20.60000 -7.08800 25.96000
N  16.70100 -1.18500 25.36300
C  17.28200 -2.09700 24.50700
C  17.19800 -1.54200 23.04200
C  16.06200 -0.40600 23.23600
C  15.87200 -0.28900 24.71900
C  18.53600 -1.08500 22.37900
C  14.68300 -0.67000 22.50700
C  13.96200 0.55100 21.79500
N  15.72300 0.38600 27.55800
C  15.00700 1.04700 26.63100
C  14.23800 2.16100 27.18100
C  14.52600 2.06300 28.59600
C  15.42500 0.97000 28.76700
C  13.47100 3.14400 26.36400
C  14.35300 2.70300 29.85600
O  13.71400 3.69100 30.23700
C  15.13100 1.84400 30.92900
C  15.92000 2.81000 31.66500
O  16.90300 3.35200 31.20700
O  15.50000 3.00500 32.93000
C  16.22300 3.80400 33.98100
H  19.60400 -3.42300 30.39400
H  18.56200 -3.66200 24.00200
H  14.63000 1.40600 24.62000
H  17.84600 0.53000 32.26300
H  18.34900 -2.34400 32.41900
H  19.98500 0.04200 32.38400
H  20.69200 -1.28000 31.37200
H  20.26900 -1.61400 32.96000
H  16.40900 -2.01300 33.10800
H  15.28700 -0.89900 32.49000
H  15.85800 -1.13600 35.03300
H  15.51100 0.43100 34.29500
H  20.06100 -6.46200 28.96600
H  20.81100 -4.91000 29.70100
H  21.36000 -5.66100 28.19200
H  21.57800 -6.64900 26.15900
H  20.77700 -7.78700 25.14200
H  20.25800 -7.63500 26.83800
H  16.83500 -2.36300 22.42400
H  16.29900 0.57400 22.82100
H  18.46800 -0.09200 21.93300
H  18.82500 -1.77000 21.58200
H  19.26600 -0.95400 23.17800
H  13.94300 -1.14700 23.15000
H  15.08200 -1.38000 21.78300
H  13.40600 0.23700 20.91100
H  14.63100 1.37300 21.54000
H  13.13700 0.91700 22.40500
H  13.69100 3.14100 25.29700
H  13.95500 4.07700 26.65400
H  12.39500 3.16800 26.53500
H  14.24000 1.54800 31.48300
H  17.06500 4.35100 33.55600
H  16.47500 3.16700 34.82900
H  15.55800 4.52000 34.46400

