158

Mg -2.35800 17.52500 26.40000
C  -2.87800 15.05500 29.03600
C  -2.84800 19.91400 28.74800
C  -2.44500 19.73400 23.90600
C  -2.72400 14.85800 24.02900
N  -2.78200 17.36000 28.68200
C  -2.82600 16.34700 29.59500
C  -2.76500 16.87600 30.99900
C  -2.85000 18.42800 30.84800
C  -2.86900 18.59700 29.31800
C  -3.94900 19.21400 31.63900
C  -1.57800 16.18700 31.84000
C  -0.79500 17.01100 32.91000
H  -0.53400 16.37100 34.25300
N  -2.50200 19.52900 26.35200
C  -2.66100 20.41500 27.41400
C  -2.56300 21.78000 26.96800
C  -2.31900 21.69800 25.52200
C  -2.43100 20.28700 25.20800
C  -2.69200 22.98900 27.83400
C  -2.03700 22.74800 24.58800
O  -1.99400 22.68900 23.35200
C  -1.62700 24.10700 25.13000
N  -2.60400 17.34800 24.32300
C  -2.49800 18.37200 23.47600
C  -2.41400 17.98900 22.00100
C  -2.75700 16.48400 22.09200
C  -2.62900 16.18000 23.55700
C  -3.33900 18.69000 20.90400
C  -1.86900 15.54800 21.19600
C  -2.73100 14.34400 20.67700
N  -2.68800 15.44900 26.47200
C  -2.79800 14.53900 25.42000
C  -3.02200 13.24800 25.95900
C  -2.98100 13.36200 27.37600
C  -2.80400 14.76100 27.62400
C  -3.28900 11.97100 25.08600
C  -3.08100 12.62300 28.58300
O  -3.25900 11.43500 28.75200
C  -2.98700 13.68100 29.77300
C  -1.65700 13.35300 30.47000
O  -0.51300 13.52300 29.93900
O  -1.83000 12.78800 31.68000
C  -0.70800 12.37600 32.42700
H  -3.04600 20.76400 29.40400
H  -2.53400 20.46700 23.10100
H  -2.69400 13.99700 23.35800
H  -3.68900 16.51600 31.45300
H  -1.90500 18.84200 31.19900
H  -4.47900 19.93600 31.01800
H  -3.53300 19.76000 32.48500
H  -4.54400 18.49300 32.20000
H  -0.80400 16.03600 31.08800
H  -1.96800 15.26100 32.26400
H  -1.25500 17.99700 32.97700
H  0.20300 17.18600 32.50800
H  -3.11700 22.77200 28.81400
H  -3.41500 23.65100 27.35700
H  -1.80600 23.62300 27.79800
H  -2.53700 24.61900 25.44300
H  -1.26800 24.69100 24.28200
H  -0.90800 24.06300 25.94800
H  -1.36400 18.05300 21.71500
H  -3.84500 16.47400 22.01900
H  -4.09200 18.01200 20.50300
H  -2.67800 19.02200 20.10400
H  -3.83600 19.48000 21.46800
H  -0.99800 15.14300 21.71000
H  -1.54700 16.18000 20.36800
H  -2.62100 14.22400 19.60000
H  -3.78900 14.42400 20.92800
H  -2.40300 13.37900 21.06200
H  -4.08900 12.19200 24.37900
H  -3.50000 11.02300 25.58100
H  -2.40500 11.82900 24.46400
H  -3.72900 13.68000 30.57200
H  -1.13700 11.80800 33.25300
H  -0.21500 13.29900 32.73300
H  -0.03200 11.82000 31.77800
Mg -0.36000 7.54100 25.30300
C  0.93400 9.61400 27.77200
C  0.15800 4.84300 27.31400
C  -1.19600 5.46900 22.71000
C  0.16700 10.05800 22.94800
N  0.60700 7.24900 27.26600
C  0.81900 8.26500 28.16100
C  0.95100 7.68600 29.63200
C  0.95400 6.19200 29.38000
C  0.50000 6.07000 27.95300
C  2.26000 5.50300 29.63400
C  -0.09900 8.16100 30.58600
C  0.28100 8.26200 32.10300
H  1.37100 7.39600 32.56200
N  -0.64400 5.40600 25.10300
C  -0.35000 4.51100 26.00900
C  -0.68900 3.15500 25.54400
C  -1.18200 3.33800 24.17800
C  -0.96400 4.77900 23.91800
C  -0.65000 1.88800 26.37400
C  -1.64700 2.26200 23.23800
O  -1.97400 2.50200 22.06200
C  -1.90300 0.80200 23.64000
N  -0.31700 7.64700 23.00400
C  -0.82900 6.73600 22.24200
C  -1.12600 7.17800 20.80900
C  -0.76600 8.75500 20.93100
C  -0.29000 8.86600 22.39900
C  -0.35600 6.52900 19.69000
C  -1.93100 9.72600 20.50900
C  -3.04000 9.98100 21.50500
N  0.38400 9.47900 25.30000
C  0.46300 10.41700 24.28200
C  0.84700 11.69600 24.87800
C  1.05800 11.46100 26.26800
C  0.83000 10.06800 26.41000
C  1.03000 12.95900 24.15200
C  1.38400 12.05500 27.56400
O  1.66200 13.19600 27.94300
C  1.20500 10.82200 28.61000
C  2.32200 10.72000 29.62500
O  3.39600 10.19900 29.43200
O  1.99200 11.38600 30.80500
C  2.86000 11.24100 31.98200
H  0.17800 3.93400 27.92000
H  -1.64200 4.86700 21.91500
H  0.29800 10.84600 22.20300
H  1.95600 8.00200 29.90800
H  0.22400 5.59900 29.93100
H  3.03300 6.17200 30.01400
H  2.68400 4.93100 28.80900
H  2.11200 4.77200 30.42800
H  -0.90300 7.43600 30.46100
H  -0.38200 9.12000 30.15200
H  -0.64900 7.85300 32.49600
H  0.43900 9.25400 32.52600
H  0.23800 1.94200 27.00500
H  -0.57100 0.94700 25.83000
H  -1.45900 1.82200 27.10100
H  -0.97500 0.27500 23.86400
H  -2.37600 0.41600 22.73700
H  -2.64900 0.81700 24.43400
H  -2.16200 6.94300 20.56600
H  0.14600 9.05300 20.41400
H  -1.04200 6.37100 18.85700
H  0.15700 5.60400 19.95300
H  0.32000 7.29200 19.30300
H  -2.34200 9.34800 19.57200
H  -1.48700 10.69100 20.26200
H  -3.98800 9.60200 21.12200
H  -3.27500 11.02700 21.69900
H  -2.87600 9.43700 22.43500
H  1.48200 12.75500 23.18100
H  1.71100 13.62300 24.68300
H  0.10100 13.45500 23.87200
H  0.34000 11.10800 29.20800
H  3.66400 11.97600 31.95400
H  3.34100 10.26500 32.04400
H  2.37900 11.36700 32.95200

