158

Mg 50.44300 46.04700 42.30700
C  47.36800 46.75400 40.59200
C  50.40400 42.89800 40.92800
C  53.74200 45.67000 43.12800
C  50.85800 49.54800 42.69800
N  48.94400 44.92200 40.99800
C  47.78500 45.41700 40.45000
C  47.03600 44.29600 39.61600
C  47.96600 43.05700 39.93000
C  49.21400 43.65300 40.68300
C  47.37500 41.95300 40.76800
C  46.81000 44.57900 38.14200
C  45.40900 44.70200 37.57400
H  44.83400 43.73800 36.55100
N  51.92300 44.50000 42.06100
C  51.64500 43.21600 41.57300
C  52.77800 42.38300 41.88700
C  53.80200 43.08400 42.62200
C  53.16900 44.49900 42.67000
C  52.82000 40.86400 41.49800
C  55.10300 42.59900 43.21800
O  55.50100 41.45900 43.05300
C  55.80200 43.43100 44.16600
N  52.17300 47.46000 42.68800
C  53.35200 47.05400 43.11600
C  54.28500 48.21300 43.53800
C  53.33100 49.41700 43.51000
C  52.03900 48.79000 42.94500
C  55.10200 48.04500 44.89600
C  53.84900 50.74600 42.80600
C  53.40200 52.03700 43.46400
N  49.28400 47.77700 42.05800
C  49.54100 49.11900 42.30000
C  48.41900 49.95200 41.98500
C  47.53600 49.06200 41.33000
C  48.13100 47.74400 41.29600
C  48.28100 51.46100 42.11700
C  46.27900 48.89200 40.63200
O  45.42300 49.79100 40.46700
C  46.10100 47.42100 40.11500
C  44.85500 46.85100 40.60900
O  44.78200 46.16800 41.62700
O  43.82000 47.18500 39.72300
C  42.62700 46.35200 40.05400
H  50.37500 41.85400 40.60900
H  54.77000 45.60500 43.49000
H  50.90100 50.60900 42.95100
H  46.08400 44.13900 40.12200
H  48.28800 42.69000 38.95600
H  48.00700 41.55600 41.56300
H  47.10400 41.11300 40.12800
H  46.48900 42.40400 41.21600
H  47.37400 43.80300 37.62400
H  47.46100 45.44700 38.04400
H  45.30800 45.71800 37.19400
H  44.61800 44.64400 38.32100
H  53.76500 40.54700 41.05600
H  52.02400 40.66600 40.78100
H  52.68400 40.23800 42.38000
H  55.28300 44.02000 44.92300
H  56.38800 44.09100 43.52700
H  56.48000 42.75500 44.68800
H  54.94300 48.31700 42.67500
H  53.02900 49.67100 44.52600
H  54.74600 47.18800 45.46700
H  55.10800 48.97400 45.46600
H  56.10300 47.75000 44.58300
H  53.44400 50.72000 41.79400
H  54.93700 50.68200 42.80600
H  52.47500 52.29400 42.95200
H  54.14600 52.82900 43.38600
H  53.09300 51.72900 44.46300
H  48.65600 51.80000 43.08300
H  47.23600 51.69100 41.91300
H  48.78100 51.99400 41.30900
H  46.13300 47.53500 39.03200
H  41.91500 46.49500 39.24100
H  42.05700 46.65000 40.93400
H  42.70200 45.26900 39.96300
Mg -2.58600 35.25300 26.61400
C  -4.31700 33.84700 29.33500
C  -1.25300 37.57900 28.85400
C  -1.20800 36.81800 24.02500
C  -3.98900 32.93900 24.55000
N  -2.71000 35.61900 28.93400
C  -3.50900 34.98700 29.77200
C  -3.26300 35.47600 31.27000
C  -2.32000 36.73800 31.07600
C  -2.12100 36.70300 29.51300
C  -2.60600 38.10200 31.68300
C  -2.79800 34.31000 32.19800
C  -2.30600 34.71800 33.63700
H  -3.31600 34.41400 34.74000
N  -1.33700 36.93600 26.43700
C  -0.92400 37.73700 27.49600
C  -0.05700 38.78300 26.89800
C  -0.09500 38.59100 25.43800
C  -0.95000 37.41000 25.20100
C  0.69500 39.77200 27.68200
C  0.55500 39.30800 24.32200
O  0.51700 39.01100 23.15800
C  1.48000 40.47000 24.60000
N  -2.78600 35.07100 24.64100
C  -2.05200 35.78300 23.67800
C  -2.12300 35.16900 22.34400
C  -2.59200 33.73400 22.61500
C  -3.20100 33.91600 24.02200
C  -3.11400 35.95700 21.34900
C  -1.39700 32.75700 22.69500
C  -1.71400 31.37400 22.11100
N  -3.93000 33.67000 26.82400
C  -4.38100 32.80900 25.89300
C  -5.22800 31.85000 26.52300
C  -5.25700 32.17700 27.89700
C  -4.38800 33.32800 28.01700
C  -6.02000 30.77200 25.76600
C  -5.71100 31.80600 29.20700
O  -6.53900 31.00800 29.56600
C  -5.15300 32.87100 30.18400
C  -6.15000 33.53700 31.10300
O  -6.59000 34.70600 31.02400
O  -6.40500 32.71200 32.07200
C  -7.36400 33.16700 33.05200
H  -0.77300 38.33500 29.47900
H  -0.69800 37.16500 23.12400
H  -4.35400 32.23900 23.79600
H  -4.21100 35.81600 31.68800
H  -1.33100 36.57300 31.50400
H  -3.52300 38.02300 32.26600
H  -2.68100 38.92800 30.97500
H  -1.70700 38.36600 32.24000
H  -2.04900 33.71300 31.67700
H  -3.67200 33.68200 32.37200
H  -2.09500 35.78400 33.72200
H  -1.38900 34.18600 33.89300
H  1.71100 39.41000 27.84000
H  0.35100 39.98000 28.69500
H  0.76300 40.77700 27.26500
H  0.94400 41.33800 24.98300
H  1.95300 40.74300 23.65600
H  2.24000 40.19700 25.33200
H  -1.15500 35.15800 21.84200
H  -3.30000 33.39600 21.85800
H  -3.15900 37.03200 21.52300
H  -4.11800 35.56400 21.50800
H  -2.91000 35.74400 20.30000
H  -1.09600 32.55000 23.72200
H  -0.52000 33.13100 22.16700
H  -0.89400 31.23100 21.40600
H  -2.63900 31.18000 21.56800
H  -1.59900 30.59600 22.86600
H  -6.66200 30.31400 26.51900
H  -5.39100 29.96000 25.40000
H  -6.61300 31.30000 25.02000
H  -4.48800 32.30300 30.83500
H  -8.29400 33.24700 32.48800
H  -7.18500 34.15900 33.46600
H  -7.50200 32.47900 33.88600

