158

Mg 41.88400 41.04700 27.39800
C  41.12100 43.53400 29.91700
C  42.75800 39.00600 29.95200
C  42.54700 38.83200 25.10000
C  41.45700 43.60200 24.97600
N  42.03500 41.38600 29.70900
C  41.53000 42.31200 30.52500
C  41.52700 41.86700 31.99100
C  42.32500 40.47800 31.93200
C  42.41700 40.28000 30.43700
C  43.68300 40.34500 32.55600
C  40.11400 41.84200 32.61300
C  39.97400 42.75000 33.89700
H  39.08500 42.07100 34.99900
N  42.52900 39.14700 27.50600
C  42.87400 38.35000 28.64100
C  43.28500 37.04000 28.20200
C  43.20600 37.05700 26.78700
C  42.70700 38.37600 26.40800
C  43.74000 35.97300 29.16200
C  43.48100 35.88200 25.87300
O  43.55700 36.05000 24.61900
C  43.89200 34.53500 26.31400
N  42.29300 41.34600 25.28900
C  42.32800 40.18200 24.60000
C  42.32600 40.47500 23.11100
C  41.83400 41.94800 23.05500
C  41.80100 42.34000 24.54400
C  43.62300 40.12900 22.33600
C  40.54300 42.24200 22.21800
C  39.30100 41.60000 22.78500
N  41.41200 43.06600 27.37900
C  41.24400 43.98000 26.32600
C  40.72500 45.23300 26.87300
C  40.71100 45.04100 28.23000
C  41.12900 43.72100 28.49900
C  40.42800 46.45300 26.17100
C  40.22300 45.73200 29.42400
O  39.77700 46.86800 29.62700
C  40.49700 44.69600 30.63500
C  41.42500 45.33900 31.62400
O  42.62100 45.41400 31.56800
O  40.78100 45.92400 32.64100
C  41.47900 46.79100 33.54700
H  42.85200 38.33200 30.80600
H  42.49800 38.04700 24.34300
H  41.31200 44.36900 24.21300
H  42.04400 42.57600 32.63800
H  41.67600 39.72700 32.38300
H  43.88300 41.21900 33.17600
H  44.41700 40.28700 31.75300
H  43.84600 39.45200 33.16000
H  39.92300 40.84600 33.01300
H  39.30200 42.08800 31.92900
H  39.40000 43.63900 33.63700
H  40.80100 43.30200 34.34300
H  43.04800 35.13400 29.08500
H  43.76100 36.36000 30.18100
H  44.70300 35.53400 28.90500
H  43.42300 34.14700 27.21900
H  44.95200 34.52300 26.56700
H  43.95800 33.81000 25.50300
H  41.60500 39.70700 22.83100
H  42.56900 42.60500 22.59000
H  44.40800 40.03500 23.08600
H  43.97500 40.90700 21.65800
H  43.63800 39.17200 21.81600
H  40.64100 41.98400 21.16300
H  40.36700 43.30900 22.08500
H  38.65300 42.41300 23.11200
H  39.48200 41.09600 23.73500
H  38.86300 40.98600 21.99900
H  41.21600 46.67800 25.45200
H  40.39100 47.24700 26.91700
H  39.47300 46.46000 25.64500
H  39.56700 44.37300 31.10300
H  41.86400 46.23800 34.40400
H  40.80900 47.60100 33.83400
H  42.30100 47.30100 33.04400
Mg 6.36400 55.05100 39.92300
C  6.00900 51.60600 40.07400
C  9.79000 54.54700 39.24900
C  6.68800 58.35600 39.21700
C  2.89700 55.30000 39.95500
N  7.72900 53.21900 39.56900
C  7.39500 51.94700 39.75300
C  8.64600 51.02400 39.73400
C  9.83500 52.08100 39.75500
C  9.08100 53.37700 39.43000
C  10.70000 52.18100 41.05500
C  8.90100 50.05500 38.52400
C  9.32400 50.54800 37.12300
H  8.64500 49.90700 35.87500
N  8.01800 56.37400 39.36500
C  9.33400 55.91800 39.11800
C  10.06700 57.10000 38.88700
C  9.23200 58.25900 39.00200
C  7.93800 57.72400 39.22200
C  11.58400 57.05400 38.70100
C  9.76100 59.67200 38.86600
O  11.01100 59.91600 38.75900
C  8.90900 60.89100 38.87700
N  5.03100 56.55800 39.41800
C  5.42900 57.86500 39.32400
C  4.22600 58.87600 39.31600
C  2.97700 57.83800 39.36600
C  3.68600 56.46800 39.62200
C  4.28700 59.86700 40.48800
C  2.05700 57.80900 38.12900
C  0.58200 57.37200 38.41500
N  4.76300 53.78000 39.98400
C  3.38000 54.01100 40.16000
C  2.74100 52.76000 40.46500
C  3.77300 51.82500 40.52600
C  4.92200 52.49600 40.12100
C  1.28100 52.60000 40.90200
C  4.02900 50.43700 40.79100
O  3.28300 49.47800 41.12500
C  5.48200 50.18100 40.31300
C  5.43800 49.34200 39.10300
O  4.94500 49.73900 38.07200
O  5.90600 47.98200 39.32600
C  5.43000 46.95700 38.35800
H  10.86900 54.38400 39.19900
H  6.80500 59.44200 39.21600
H  1.81800 55.39100 40.09600
H  8.56400 50.41700 40.63500
H  10.44000 52.05400 38.84900
H  10.70000 53.17300 41.50700
H  11.75400 51.97000 40.87100
H  10.28000 51.45500 41.75100
H  7.99700 49.46100 38.38600
H  9.61400 49.33900 38.93100
H  10.39500 50.36500 37.03500
H  9.29100 51.63400 37.04100
H  11.95100 57.66200 37.87400
H  11.91800 56.02200 38.58700
H  11.93800 57.39500 39.67300
H  9.55500 61.73600 38.63700
H  8.34000 60.85200 39.80600
H  8.30800 60.70600 37.98700
H  4.24100 59.41600 38.36900
H  2.43700 58.09700 40.27700
H  5.19800 59.95300 41.08100
H  3.51500 59.74700 41.24800
H  4.17100 60.85000 40.03100
H  2.50200 57.11500 37.41600
H  2.00400 58.74800 37.57900
H  0.48200 57.29500 39.49700
H  0.44000 56.41200 37.91900
H  -0.18400 58.09600 38.13800
H  0.60600 53.45600 40.87700
H  1.16200 52.20900 41.91200
H  0.81200 51.79600 40.33500
H  6.04500 49.59000 41.03500
H  5.91900 47.00500 37.38500
H  4.34900 47.04200 38.24700
H  5.63200 45.94600 38.71200

