158

Mg 43.27900 3.45200 47.35300
C  41.08000 6.16600 46.63700
C  40.50900 1.32800 46.94500
C  45.40800 0.87500 47.41300
C  46.09500 5.72400 47.14100
N  41.14700 3.73200 46.93700
C  40.41200 4.94100 46.73000
C  38.91100 4.68800 46.44200
C  38.87200 3.19700 46.88400
C  40.27700 2.71300 46.95400
C  38.10500 2.91900 48.23000
C  38.65500 4.91000 44.89900
C  37.33600 5.47900 44.47700
H  37.38500 6.57800 43.42000
N  42.97400 1.38800 47.13700
C  41.76100 0.68100 47.04700
C  41.99800 -0.76700 47.05400
C  43.43500 -0.89700 47.20300
C  44.02000 0.47300 47.22900
C  40.88100 -1.89200 47.14100
C  44.16100 -2.18500 47.33700
O  43.58200 -3.28500 47.13300
C  45.57600 -2.35900 47.57200
N  45.38100 3.32100 47.28600
C  45.94900 2.14100 47.51100
C  47.50000 2.22400 47.53300
C  47.74200 3.76200 47.44900
C  46.32400 4.35800 47.30800
C  48.18000 1.43200 48.69000
C  48.77500 4.19100 46.39600
C  48.57700 3.66100 44.89100
N  43.57900 5.48200 47.01600
C  44.75500 6.31400 46.97900
C  44.29600 7.73800 46.81800
C  42.87200 7.66200 46.77000
C  42.51600 6.29400 46.78600
C  45.17600 9.02600 46.83900
C  41.64800 8.46900 46.66300
O  41.50900 9.70100 46.59100
C  40.42900 7.52300 46.66100
C  39.48900 7.84900 47.79500
O  39.68400 7.52900 48.94900
O  38.26600 8.39500 47.33200
C  37.30100 8.61100 48.43000
H  39.53900 0.83200 46.87300
H  46.10600 0.05500 47.23500
H  46.96500 6.38300 47.10700
H  38.31300 5.34700 47.07100
H  38.27800 2.62200 46.17400
H  37.29600 2.22700 47.99400
H  37.63000 3.87600 48.44700
H  38.70100 2.69300 49.11400
H  38.92200 4.00900 44.34700
H  39.34500 5.65200 44.49600
H  36.89900 5.98800 45.33600
H  36.69200 4.65500 44.16800
H  39.90000 -1.44500 46.98100
H  40.74300 -2.24100 48.16400
H  41.14800 -2.65500 46.40900
H  46.23600 -2.25100 46.71100
H  45.67800 -3.36200 47.98500
H  46.00500 -1.70700 48.33200
H  47.80400 1.78800 46.58200
H  48.00700 4.10600 48.44900
H  47.57300 0.66500 49.17200
H  48.72200 1.99600 49.44900
H  48.87400 0.82300 48.11100
H  49.75700 3.87500 46.74700
H  48.88400 5.27300 46.47200
H  49.33800 2.98600 44.50000
H  48.42500 4.48800 44.19700
H  47.66800 3.06500 44.81400
H  45.42500 9.45100 47.81200
H  44.82100 9.70800 46.06600
H  46.17000 8.69700 46.53800
H  39.76800 7.72900 45.81900
H  36.30700 8.91100 48.09900
H  37.72000 9.25600 49.20200
H  37.16200 7.63500 48.89500
Mg 7.16400 54.49300 40.24300
C  6.07100 50.93500 39.85200
C  10.17400 53.49800 39.33900
C  7.64600 57.61100 39.61300
C  3.57600 55.08200 40.76800
N  7.96500 52.41800 39.35400
C  7.41700 51.17100 39.44100
C  8.55400 50.14400 39.20300
C  9.82500 50.94000 39.40300
C  9.30800 52.40900 39.27300
C  10.62900 50.65000 40.69900
C  8.49600 49.36800 37.87300
C  8.40200 50.10800 36.56000
H  7.14400 49.80000 35.75600
N  8.71200 55.44000 39.55000
C  9.90100 54.85000 39.29400
C  10.91600 55.91600 39.07800
C  10.25000 57.18800 39.22900
C  8.80900 56.80800 39.49100
C  12.32500 55.57900 38.74400
C  10.89100 58.61000 39.30100
O  12.12400 58.71100 39.26400
C  10.11800 59.90000 39.51700
N  5.83600 56.04700 40.25400
C  6.31400 57.26900 39.89600
C  5.24500 58.34700 39.92000
C  3.90100 57.51600 40.05800
C  4.45400 56.11100 40.46100
C  5.46600 59.43200 40.92600
C  3.02700 57.38100 38.80700
C  1.62800 57.95300 39.04400
N  5.26400 53.32500 40.48000
C  3.98200 53.72800 40.77500
C  3.10100 52.55900 40.97200
C  3.89100 51.52300 40.66600
C  5.16200 51.98600 40.23500
C  1.71300 52.65100 41.31200
C  3.87800 50.07500 40.65500
O  2.98000 49.28900 40.98400
C  5.29200 49.63100 40.08100
C  4.96300 48.75800 38.89100
O  4.39300 49.10700 37.87400
O  5.61900 47.53900 39.05700
C  5.35600 46.68300 37.90500
H  11.21600 53.18300 39.25100
H  7.80500 58.68100 39.46200
H  2.50400 55.28600 40.80600
H  8.49000 49.38900 39.98600
H  10.45600 50.83200 38.52100
H  11.66400 50.35400 40.52900
H  10.03400 49.94400 41.27900
H  10.72700 51.63400 41.15700
H  7.61700 48.73800 38.01100
H  9.31300 48.65200 37.78800
H  9.16800 49.81000 35.84300
H  8.48700 51.18700 36.68500
H  12.80100 54.90400 39.45500
H  12.99900 56.43600 38.75900
H  12.39100 55.09000 37.77200
H  9.69600 60.16600 38.54800
H  10.73800 60.62300 40.04600
H  9.30100 59.77900 40.22900
H  5.29600 58.88500 38.97400
H  3.38400 57.74800 40.99000
H  6.17900 59.11500 41.68800
H  4.56700 59.67200 41.49400
H  5.91000 60.32000 40.47600
H  2.91300 56.38800 38.37200
H  3.53400 58.00200 38.06800
H  1.65300 58.97200 38.65700
H  1.28400 57.90600 40.07700
H  0.89200 57.35600 38.50700
H  1.56300 53.67100 41.66600
H  1.39700 52.08300 42.18600
H  1.07000 52.61200 40.43300
H  5.82600 49.10200 40.86900
H  5.58500 47.30000 37.03600
H  4.32300 46.36000 37.77200
H  6.04000 45.83600 37.95700

