158

Mg 0.97600 8.47500 26.94500
C  1.54400 10.96700 29.43400
C  1.35500 6.10100 29.25400
C  0.68500 6.25500 24.49200
C  1.28400 11.06100 24.57900
N  1.32600 8.55600 29.13100
C  1.34800 9.67900 29.94900
C  1.19500 9.30000 31.42200
C  1.46800 7.73500 31.34000
C  1.36500 7.44600 29.83000
C  2.76200 7.15900 31.95600
C  -0.20600 9.66400 31.89600
C  -0.59000 9.25600 33.34100
H  0.53600 8.82900 34.36100
N  0.87900 6.52500 26.92500
C  0.94600 5.69100 27.96700
C  0.69000 4.30000 27.56600
C  0.69500 4.30600 26.18100
C  0.77700 5.77600 25.77200
C  0.57700 3.24900 28.61100
C  0.63500 3.07900 25.28100
O  0.59700 3.20900 24.03000
C  0.62500 1.66200 25.95000
N  1.09400 8.63800 24.85400
C  0.80800 7.58900 24.04000
C  0.79600 7.98500 22.56900
C  0.61700 9.50300 22.61100
C  1.13400 9.74700 24.08700
C  2.03800 7.39900 21.84400
C  -0.75700 10.05900 22.32200
C  -0.86200 11.32300 21.41900
N  1.36100 10.59200 26.94400
C  1.48100 11.47700 25.89200
C  1.78300 12.79400 26.37700
C  1.75600 12.68900 27.75000
C  1.51900 11.32000 28.03300
C  1.96300 14.01300 25.60800
C  1.84400 13.43000 29.07300
O  1.99000 14.61800 29.24700
C  1.61800 12.26600 30.25200
C  2.79400 12.22200 31.15400
O  3.89100 11.70100 30.98500
O  2.43200 12.79600 32.38000
C  3.35100 12.69100 33.50300
H  1.46600 5.40400 30.08700
H  0.58600 5.52300 23.68900
H  1.26300 11.84500 23.81900
H  2.04400 9.72600 31.95700
H  0.58700 7.24900 31.76100
H  3.15000 6.35400 31.33200
H  2.50600 6.72700 32.92400
H  3.50500 7.92100 32.18900
H  -0.88000 9.08700 31.26300
H  -0.41700 10.72500 31.76200
H  -1.23600 8.37800 33.34000
H  -1.07600 10.13900 33.75500
H  1.23000 2.39100 28.45600
H  -0.42700 2.87900 28.81800
H  1.05800 3.50500 29.55500
H  1.55000 1.49000 26.50000
H  0.46400 0.98400 25.11200
H  -0.29300 1.61400 26.53500
H  -0.02600 7.50300 22.04000
H  1.32200 10.12300 22.05700
H  2.55100 6.68600 22.49000
H  2.78600 8.14400 21.57200
H  1.73400 6.93900 20.90400
H  -1.17400 10.42600 23.26000
H  -1.43700 9.30500 21.92500
H  0.12800 11.50200 20.99800
H  -1.18700 12.20800 21.96500
H  -1.58700 11.22300 20.61200
H  2.81300 13.80000 24.96000
H  2.30500 14.82100 26.25600
H  1.05800 14.28700 25.06500
H  0.77300 12.56200 30.87300
H  4.09000 11.90300 33.36000
H  2.76400 12.35200 34.35700
H  3.85200 13.64000 33.69100
Mg 55.28900 23.21500 45.10000
C  53.11600 25.90400 44.16400
C  53.12800 21.08400 43.68500
C  57.77100 21.10500 44.92900
C  57.62800 25.92800 46.03100
N  53.42400 23.59400 43.91400
C  52.69300 24.68700 43.68500
C  51.32900 24.37300 42.99000
C  51.23000 22.82600 43.26300
C  52.69400 22.42800 43.65800
C  50.08700 22.41400 44.26600
C  51.25900 24.65900 41.49600
C  49.85800 25.17600 41.03200
H  49.32200 24.47300 39.86900
N  55.44700 21.22900 44.46000
C  54.40200 20.54300 43.95400
C  54.84000 19.21400 43.65200
C  56.23900 19.11000 44.17100
C  56.55000 20.51300 44.54200
C  54.07700 18.05800 43.16500
C  57.10200 17.86900 44.02700
O  56.69400 16.83000 43.44200
C  58.35400 17.86800 44.72100
N  57.37300 23.52400 45.25200
C  58.17300 22.37100 45.26100
C  59.64000 22.73300 45.37700
C  59.58200 24.16700 45.98200
C  58.09900 24.61900 45.66600
C  60.61000 21.75900 46.24600
C  60.72400 25.12100 45.62100
C  61.40600 25.71000 46.92600
N  55.34500 25.44800 45.31300
C  56.31300 26.35800 45.70700
C  55.69600 27.64600 45.75200
C  54.43900 27.56200 45.21600
C  54.31000 26.21800 44.85800
C  56.36400 28.86200 46.22300
C  53.28300 28.29900 44.75000
O  53.00900 29.46700 44.77700
C  52.34000 27.19500 44.10400
C  52.02600 27.74500 42.78300
O  52.76800 27.87500 41.81900
O  50.81300 28.33300 42.87600
C  50.46300 29.15100 41.73700
H  52.45400 20.35400 43.23200
H  58.63400 20.44200 45.01000
H  58.43700 26.63700 46.21700
H  50.52700 24.86700 43.53900
H  51.01800 22.21100 42.38800
H  49.68200 21.42200 44.06500
H  49.30000 23.16900 44.23700
H  50.49600 22.35300 45.27500
H  51.56100 23.83700 40.84700
H  52.01900 25.40200 41.25400
H  50.12500 26.18500 40.71800
H  49.12600 25.19200 41.84000
H  54.37800 17.64000 42.20500
H  53.07300 18.36300 42.86700
H  53.99100 17.23400 43.87300
H  59.17500 18.19600 44.08400
H  58.56900 16.83000 44.97800
H  58.34800 18.34100 45.70300
H  59.88100 22.75200 44.31500
H  59.51300 24.07300 47.06600
H  61.07000 22.36100 47.02900
H  61.35000 21.22300 45.65200
H  59.88400 21.16700 46.80300
H  60.36300 25.92700 44.98200
H  61.58700 24.72700 45.08400
H  61.85400 24.94600 47.56100
H  60.64700 26.27000 47.47200
H  62.19700 26.41900 46.68400
H  56.08100 29.00900 47.26500
H  56.08700 29.70500 45.59000
H  57.45300 28.84600 46.16100
H  51.49300 27.15600 44.78900
H  50.29800 28.53100 40.85700
H  51.16400 29.98000 41.63900
H  49.53200 29.67200 41.96400

