158

Mg 1.03700 8.28300 26.83400
C  1.80900 10.50900 29.35400
C  1.44500 5.70300 29.29700
C  0.72400 6.00900 24.44600
C  1.06800 10.88500 24.57000
N  1.52100 8.15600 29.05200
C  1.61900 9.23600 29.84000
C  1.38000 8.77100 31.32100
C  1.58400 7.26000 31.29000
C  1.47600 7.03200 29.81200
C  2.95700 6.77600 31.81700
C  -0.04400 9.31400 31.72600
C  -0.19100 9.31000 33.28500
H  0.98500 8.78300 34.18600
N  1.05600 6.16600 26.81500
C  1.17500 5.28900 27.87700
C  1.05300 3.91000 27.47100
C  1.01900 4.02700 26.01400
C  0.90900 5.46000 25.68500
C  1.09100 2.74600 28.41400
C  1.19000 2.93400 24.95900
O  1.26700 3.14100 23.76900
C  1.38400 1.50700 25.43700
N  1.10800 8.44500 24.74000
C  0.73900 7.34800 23.97500
C  0.39100 7.76500 22.52800
C  0.30800 9.36200 22.64300
C  0.86500 9.59600 24.05500
C  1.39000 7.31400 21.42400
C  -1.04400 10.03000 22.34000
C  -0.92500 11.16500 21.25800
N  1.48600 10.29500 26.92000
C  1.50600 11.19800 25.94900
C  1.93900 12.51600 26.47500
C  2.08200 12.32500 27.90400
C  1.79700 10.92100 28.03300
C  2.29200 13.78900 25.65900
C  2.49000 12.85700 29.16300
O  2.96300 13.93600 29.45400
C  2.16800 11.68400 30.18500
C  3.32300 11.51400 31.04900
O  4.35500 10.91700 30.80400
O  3.14700 12.24500 32.21300
C  4.18600 12.29600 33.28600
H  1.34600 4.91000 30.04100
H  0.39700 5.29500 23.68700
H  0.97000 11.67600 23.82300
H  2.10700 9.30600 31.93300
H  0.84800 6.70400 31.87100
H  2.80400 6.09500 32.65500
H  3.56800 7.65400 32.02900
H  3.47900 6.20300 31.05100
H  -0.72800 8.52300 31.41800
H  -0.41800 10.25900 31.33200
H  -1.03900 8.67900 33.55200
H  -0.42200 10.35900 33.47000
H  1.10100 3.08200 29.45100
H  2.03900 2.21900 28.31100
H  0.25900 2.06600 28.23200
H  0.43500 0.99400 25.59400
H  2.09200 1.58700 26.26100
H  1.92700 0.92700 24.69100
H  -0.58600 7.38600 22.22900
H  1.12700 9.74600 22.03500
H  2.34800 7.10400 21.89800
H  1.64500 8.00000 20.61700
H  0.90800 6.45900 20.95000
H  -1.25900 10.61400 23.23500
H  -1.85100 9.34900 22.06900
H  -0.88200 12.05900 21.88000
H  -1.71000 11.26200 20.50800
H  -0.02600 11.04200 20.65300
H  3.14000 14.33300 26.07700
H  1.51500 14.54900 25.57800
H  2.44000 13.51700 24.61400
H  1.31000 12.08200 30.72600
H  4.08400 13.20900 33.87200
H  5.17600 12.23600 32.83300
H  4.03600 11.49200 34.00600
Mg 8.59800 3.82700 26.80500
C  9.58400 2.41300 29.67600
C  6.18300 5.63600 28.67100
C  7.40000 5.47800 23.98200
C  10.19500 1.52000 24.88200
N  8.01500 4.05700 28.86400
C  8.60800 3.32600 29.81100
C  7.96200 3.72800 31.18700
C  6.55100 4.19600 30.73000
C  6.90500 4.58200 29.35500
C  5.36400 3.16200 30.87700
C  8.79800 4.87800 31.96600
C  8.87900 4.75200 33.51400
H  10.21700 4.66200 34.28200
N  7.17900 5.40700 26.39200
C  6.32800 6.05000 27.27300
C  5.51700 7.03800 26.64300
C  5.96600 7.10200 25.29400
C  6.95600 5.99300 25.17700
C  4.49700 7.91300 27.38500
C  5.57300 8.08800 24.19700
O  5.79700 7.94100 23.01500
C  4.84300 9.29000 24.57700
N  8.82900 3.53600 24.66500
C  8.27100 4.30000 23.73900
C  8.36600 3.49800 22.36700
C  9.34300 2.35700 22.74600
C  9.45100 2.43000 24.18300
C  6.98300 3.00400 21.87400
C  10.68400 2.35900 21.95500
C  10.92600 1.09700 21.18100
N  9.77700 2.34800 27.14500
C  10.43100 1.50000 26.32300
C  11.16900 0.58800 27.03900
C  10.93500 0.91000 28.42400
C  10.05600 1.99700 28.43400
C  12.00200 -0.45700 26.39300
C  11.18300 0.51700 29.84200
O  11.81600 -0.41500 30.34100
C  10.32000 1.52200 30.71800
C  9.50300 0.86300 31.73400
O  8.56800 0.11800 31.44200
O  9.79600 1.29900 32.97000
C  9.25200 0.53000 34.08500
H  5.50600 6.20600 29.31100
H  6.89300 5.64700 23.02900
H  10.59200 0.70200 24.27700
H  7.89400 2.87500 31.86200
H  6.30800 5.06500 31.34200
H  5.61600 2.20400 31.33200
H  4.88700 3.18300 29.89700
H  4.71300 3.65000 31.60200
H  8.34800 5.86000 31.82500
H  9.81200 4.98300 31.57800
H  8.45700 3.75400 33.63500
H  8.15700 5.40800 34.00100
H  4.40200 7.53600 28.40300
H  3.52500 7.80200 26.90300
H  4.82400 8.94800 27.48200
H  4.92800 10.12100 23.87700
H  5.48900 9.45100 25.44000
H  3.82300 9.06300 24.88400
H  8.80900 4.21000 21.67000
H  8.77700 1.46800 22.46900
H  6.16700 3.10600 22.58800
H  7.01700 1.98900 21.48000
H  6.59300 3.58100 21.03500
H  11.55500 2.47200 22.60000
H  10.65100 3.08400 21.14200
H  10.55900 1.12600 20.15500
H  10.47200 0.20600 21.61500
H  12.01200 1.03200 21.11100
H  12.28500 -1.24500 27.09100
H  12.95300 -0.10700 25.99200
H  11.46800 -0.94400 25.57700
H  11.08300 2.09400 31.24700
H  10.06400 -0.01500 34.56700
H  8.50400 -0.20400 33.78700
H  8.93800 1.23700 34.85300

