158

Mg 1.51800 9.10200 26.78300
C  1.74200 11.34000 29.57100
C  1.70700 6.51400 29.00300
C  2.13200 7.02800 24.09400
C  1.78600 11.76000 24.64400
N  1.74800 8.98300 29.00600
C  1.45300 9.98300 29.84100
C  1.23600 9.43700 31.25400
C  1.53500 7.93900 31.16600
C  1.63300 7.77200 29.62700
C  2.79500 7.37000 31.90200
C  -0.26100 9.75500 31.68700
C  -0.47400 9.57500 33.20000
H  0.70700 9.01400 34.10900
N  1.76200 6.96300 26.54900
C  1.83500 6.15100 27.64900
C  1.99500 4.77700 27.12300
C  2.00800 4.84900 25.66500
C  1.96100 6.30000 25.35200
C  1.98900 3.52600 28.11300
C  1.98500 3.85700 24.53600
O  1.86700 4.16400 23.33500
C  2.20500 2.44500 24.87500
N  1.68200 9.32900 24.73700
C  1.98100 8.37500 23.84400
C  2.01500 8.94800 22.44200
C  1.41900 10.35100 22.65800
C  1.66600 10.47700 24.11300
C  3.47900 9.01500 21.86000
C  -0.14600 10.45200 22.32100
C  -0.46200 11.46900 21.18400
N  1.76900 11.18800 26.95700
C  1.89100 12.16000 25.99500
C  2.12000 13.44400 26.69100
C  2.08000 13.13800 28.09800
C  1.91000 11.74800 28.21000
C  2.38900 14.80800 26.03400
C  2.16800 13.67700 29.42400
O  2.51700 14.80000 29.64500
C  1.83100 12.52900 30.46700
C  2.93000 12.48100 31.44700
O  4.08700 12.37800 31.16200
O  2.45000 12.57200 32.69500
C  3.40300 12.44100 33.74000
H  1.73900 5.73700 29.77000
H  2.28400 6.52300 23.13800
H  1.71300 12.61000 23.96200
H  1.97500 9.95300 31.86800
H  0.67000 7.37200 31.51000
H  3.21500 7.89900 32.75800
H  3.63800 7.17600 31.23900
H  2.51600 6.42800 32.37400
H  -0.86000 9.12100 31.03400
H  -0.60400 10.76800 31.47900
H  -1.29200 8.86900 33.33800
H  -0.57200 10.58300 33.60200
H  2.70400 3.73300 28.90900
H  2.24700 2.57600 27.64700
H  1.01200 3.46800 28.59300
H  1.27300 2.10900 25.33000
H  2.90100 2.35000 25.70800
H  2.54200 1.87600 24.00900
H  1.39200 8.35300 21.77400
H  1.92300 11.13800 22.09600
H  3.85400 10.03800 21.85500
H  3.27300 8.64000 20.85700
H  4.17600 8.47500 22.50100
H  -0.71900 10.76100 23.19500
H  -0.38600 9.48800 21.87200
H  0.45500 11.37900 20.60100
H  -0.45200 12.50900 21.51100
H  -1.39300 11.36200 20.62700
H  1.56400 15.50000 26.20600
H  2.58200 14.74800 24.96300
H  3.40500 15.00500 26.37600
H  0.91700 12.81900 30.98600
H  4.16900 11.68300 33.57700
H  2.78300 12.16500 34.59200
H  3.74000 13.46400 33.90100
Mg -10.63100 17.07500 40.28800
C  -7.16700 16.50900 40.66300
C  -9.97100 20.52800 40.06400
C  -13.94600 17.58500 39.34400
C  -11.03900 13.72500 39.33200
N  -8.78600 18.32000 40.33100
C  -7.46000 17.85600 40.37700
C  -6.51800 18.99200 40.12500
C  -7.35200 20.28600 40.32300
C  -8.80600 19.70300 40.27100
C  -7.11200 21.18500 41.63800
C  -5.83800 18.99200 38.72200
C  -4.30400 18.90800 38.76900
H  -3.69600 18.01700 37.74900
N  -11.82200 18.80400 39.82800
C  -11.32700 20.09200 39.81400
C  -12.40100 20.95800 39.54700
C  -13.63700 20.19500 39.43200
C  -13.21400 18.79800 39.54200
C  -12.28900 22.48400 39.42600
C  -15.13700 20.80100 39.33200
O  -15.24000 22.00100 39.30800
C  -16.28100 19.89400 39.31800
N  -12.22800 15.87800 39.39700
C  -13.52300 16.24400 39.32700
C  -14.48700 15.10500 39.04900
C  -13.50900 13.88900 38.85600
C  -12.15900 14.54300 39.15300
C  -15.50100 14.96200 40.28200
C  -13.66800 13.37000 37.44800
C  -13.35900 14.50500 36.45100
N  -9.44200 15.38600 40.36400
C  -9.70700 14.09000 39.82400
C  -8.59100 13.24400 40.04500
C  -7.57600 14.12000 40.43400
C  -8.10100 15.47800 40.48500
C  -8.40300 11.73400 39.62400
C  -6.15200 14.28100 40.79300
O  -5.31500 13.43100 40.98000
C  -5.85600 15.82000 40.88800
C  -5.17100 16.19500 42.09500
O  -4.11700 16.78600 42.03200
O  -5.77900 15.75500 43.27100
C  -5.02300 16.03500 44.48700
H  -9.63800 21.56500 40.14500
H  -15.00100 17.56900 39.06300
H  -11.15100 12.66500 39.09500
H  -5.69600 19.01300 40.84000
H  -7.21800 21.06500 39.57300
H  -6.10100 21.33200 42.01800
H  -7.72000 20.78600 42.45100
H  -7.59200 22.12200 41.35700
H  -6.06300 19.98100 38.32200
H  -6.26100 18.37600 37.92800
H  -3.81100 18.65400 39.70700
H  -3.83800 19.83500 38.43600
H  -12.69100 22.66300 38.42800
H  -11.29700 22.92800 39.51000
H  -12.87800 23.00400 40.18100
H  -17.19600 20.46900 39.45500
H  -16.27000 19.43000 40.30400
H  -16.37000 19.05400 38.62800
H  -15.10900 15.22800 38.16200
H  -13.71500 13.08500 39.56300
H  -14.95100 15.08200 41.21500
H  -15.96800 13.97800 40.25500
H  -16.31000 15.68400 40.39400
H  -14.61100 12.82800 37.38200
H  -12.84200 12.66400 37.35100
H  -14.13200 14.67800 35.70300
H  -12.43500 14.23200 35.94000
H  -13.03700 15.44800 36.89400
H  -8.13000 11.70800 38.56900
H  -9.32300 11.16300 39.75300
H  -7.71700 11.24200 40.31400
H  -5.20700 16.13300 40.07100
H  -5.12100 17.12100 44.50400
H  -3.98100 15.73400 44.38300
H  -5.45300 15.61300 45.39500

