158

Mg 42.88200 42.43800 26.33800
C  42.10900 44.65400 28.87000
C  44.17000 40.25500 28.78300
C  44.19300 40.36900 23.94300
C  42.20100 44.85800 23.93800
N  42.97600 42.40500 28.58400
C  42.52800 43.40800 29.39900
C  42.56700 43.02200 30.90600
C  43.51900 41.77500 30.82300
C  43.50900 41.38600 29.32500
C  44.96100 42.04900 31.31400
C  41.15200 42.86900 31.57100
C  41.07400 42.42900 33.07900
H  40.95300 43.47300 34.22300
N  43.83400 40.45900 26.39600
C  44.24000 39.74200 27.48300
C  44.83900 38.54900 27.02800
C  44.71100 38.50300 25.63400
C  44.20100 39.81100 25.26400
C  45.30300 37.44000 28.06100
C  44.98200 37.40700 24.60500
O  44.58500 37.46900 23.42800
C  45.70500 36.17500 25.17000
N  43.34500 42.59200 24.27900
C  43.68700 41.55400 23.46900
C  43.49900 41.92600 21.94000
C  42.73200 43.23800 22.02000
C  42.80400 43.60900 23.53200
C  44.81700 41.89100 21.13200
C  41.27000 43.17900 21.55100
C  40.24000 42.23300 22.19300
N  42.38700 44.39100 26.29500
C  42.09700 45.28300 25.29800
C  41.58600 46.49600 25.94200
C  41.64200 46.34000 27.33800
C  42.09700 45.02200 27.48600
C  41.03900 47.71400 25.24200
C  41.32100 46.91000 28.61300
O  40.96000 48.01400 28.92900
C  41.71300 45.87900 29.68100
C  42.73900 46.49100 30.51500
O  43.90500 46.68700 30.27100
O  42.10700 46.67800 31.72500
C  42.97200 47.21100 32.82500
H  44.61300 39.64800 29.57500
H  44.48000 39.87400 23.01300
H  41.90900 45.49500 23.10000
H  43.05500 43.74900 31.55500
H  43.09000 41.01500 31.47600
H  45.18300 41.33300 32.10500
H  45.03900 43.05600 31.72400
H  45.69400 41.92100 30.51700
H  40.57200 42.07200 31.10500
H  40.54600 43.76500 31.43700
H  41.99600 41.92200 33.36600
H  40.31300 41.65700 33.19100
H  44.65100 36.57200 27.96300
H  45.31100 37.73000 29.11200
H  46.31300 37.19700 27.73000
H  46.55200 36.42400 25.81000
H  46.14300 35.55100 24.39200
H  44.90400 35.61000 25.64800
H  42.95400 41.08700 21.51000
H  43.24200 44.04100 21.48800
H  44.50100 41.90300 20.08900
H  45.40600 41.03600 21.46300
H  45.41000 42.78100 21.34300
H  41.18300 43.11500 20.46600
H  40.87200 44.19300 21.57900
H  40.69200 41.45900 22.81300
H  39.68000 41.65900 21.45600
H  39.53000 42.82300 22.77300
H  40.38000 48.23200 25.93900
H  40.49200 47.33200 24.37900
H  41.79300 48.38100 24.82400
H  40.78400 45.90900 30.25000
H  43.72500 47.92800 32.49700
H  43.34800 46.31000 33.31000
H  42.31100 47.71900 33.52700
Mg 36.41800 50.08800 25.24100
C  36.60300 48.37600 28.18600
C  34.61400 52.61100 26.98200
C  36.20400 51.80400 22.30200
C  37.73600 47.31100 23.55400
N  35.69900 50.40300 27.29600
C  36.05800 49.63500 28.38500
C  35.61800 50.23900 29.79800
C  34.80000 51.49000 29.25000
C  35.09300 51.55600 27.79000
C  33.28600 51.44700 29.53700
C  36.78000 50.51800 30.76200
C  36.72100 49.76700 32.10700
H  35.33100 49.55000 32.73900
N  35.55600 52.02300 24.78900
C  34.86000 52.90100 25.59600
C  34.40800 54.01800 24.78700
C  34.78900 53.72700 23.40700
C  35.57500 52.47800 23.44300
C  33.70600 55.26500 25.49700
C  34.29700 54.38800 22.11900
O  34.65900 53.97300 21.03000
C  33.44000 55.59200 22.09600
N  36.94700 49.69800 23.25100
C  36.86700 50.55100 22.24700
C  37.14600 49.82600 20.93400
C  37.84500 48.51800 21.30100
C  37.45600 48.46800 22.80100
C  35.85300 49.56900 19.97300
C  39.37200 48.71300 21.10000
C  40.17100 47.54600 20.47900
N  37.02400 48.22600 25.70200
C  37.57800 47.18500 24.92400
C  37.78000 46.00300 25.75800
C  37.50900 46.45400 27.03500
C  36.92200 47.77500 26.92500
C  38.19800 44.67300 25.20100
C  37.56900 46.12300 28.44300
O  38.01700 45.16100 29.04700
C  36.93000 47.25200 29.25400
C  35.71000 46.78200 30.00700
O  34.63100 47.24300 29.81700
O  36.01400 45.85900 30.94100
C  34.89600 45.28300 31.77500
H  34.03100 53.40400 27.45400
H  36.12900 52.26900 21.31600
H  38.08100 46.43300 23.00500
H  34.94900 49.47800 30.20100
H  35.17400 52.45600 29.58700
H  33.13200 50.60200 30.20700
H  32.71700 51.19000 28.64300
H  32.89600 52.29200 30.10500
H  36.90700 51.57400 30.99900
H  37.74800 50.19500 30.37700
H  37.33700 50.30000 32.83100
H  37.27700 48.84600 31.93400
H  34.44500 55.96900 25.88000
H  33.02200 55.02400 26.31000
H  33.15200 55.79900 24.72500
H  33.02400 55.90200 21.13700
H  34.05900 56.46200 22.31600
H  32.59100 55.41400 22.75600
H  37.87500 50.53100 20.53200
H  37.37100 47.68200 20.78600
H  34.97100 49.78800 20.57400
H  35.86600 48.52400 19.66400
H  36.06800 50.28100 19.17600
H  39.82800 48.93000 22.06600
H  39.62400 49.59700 20.51400
H  40.92300 47.23100 21.20300
H  40.71800 47.93200 19.61900
H  39.56500 46.68800 20.19000
H  37.51600 44.25900 24.45800
H  38.26400 43.99000 26.04800
H  39.21800 44.78300 24.83100
H  37.59200 47.60700 30.04400
H  34.64600 46.05900 32.49900
H  35.35900 44.44400 32.29500
H  34.04800 44.95300 31.17700

