158

Mg 43.97800 4.27600 46.79800
C  41.61600 6.75000 46.09400
C  41.57400 1.98400 46.35900
C  46.45200 1.98100 46.54000
C  46.25400 6.79600 47.49100
N  41.96000 4.35500 46.10300
C  41.16200 5.44200 45.81400
C  39.72300 4.99900 45.47900
C  39.66200 3.67000 46.22700
C  41.14000 3.28200 46.23900
C  39.17600 3.81100 47.71800
C  39.36500 4.94500 43.93700
C  38.35100 5.87000 43.44100
H  38.80300 6.54000 42.14100
N  44.00200 2.18200 46.53200
C  42.89400 1.46700 46.45100
C  43.30800 0.04200 46.31300
C  44.74400 -0.00600 46.26700
C  45.14900 1.43200 46.43400
C  42.41700 -1.13900 46.44700
C  45.58300 -1.32500 46.28800
O  45.06300 -2.37400 46.47000
C  47.06900 -1.34200 45.97200
N  46.00800 4.37800 46.88800
C  46.86600 3.28400 46.87600
C  48.31800 3.73000 47.15500
C  48.14700 5.12200 47.70500
C  46.67800 5.47300 47.29400
C  49.17900 2.68800 48.04200
C  49.24700 6.08600 47.18700
C  49.90200 6.93800 48.26000
N  43.97700 6.41500 46.76000
C  44.89300 7.30400 47.19900
C  44.45000 8.65700 47.02300
C  43.10300 8.48000 46.66300
C  42.89500 7.08700 46.51400
C  45.24500 9.92300 47.30100
C  41.89500 9.13600 46.30500
O  41.65000 10.31900 46.33300
C  40.80200 8.09100 46.00900
C  39.84800 8.16700 47.08100
O  39.97800 7.77200 48.28800
O  38.65800 8.77200 46.60200
C  37.44900 8.85100 47.37800
H  40.71400 1.32200 46.23700
H  47.30500 1.30600 46.44300
H  46.94500 7.51600 47.93500
H  38.95300 5.58300 45.98200
H  39.14000 2.88600 45.67900
H  39.88300 3.25300 48.33200
H  38.16900 3.39300 47.72600
H  39.22200 4.77300 48.22900
H  38.93700 3.97000 43.70200
H  40.29200 5.19600 43.42100
H  38.25600 6.61000 44.23600
H  37.43900 5.32600 43.19700
H  42.81600 -1.82900 45.70300
H  41.38100 -0.86100 46.25500
H  42.34000 -1.53300 47.46000
H  47.27000 -0.37600 45.51000
H  47.31800 -2.09900 45.22800
H  47.69800 -1.36400 46.86300
H  48.90400 3.86200 46.24500
H  48.22200 5.17000 48.79100
H  49.54500 3.24000 48.90800
H  49.98600 2.38700 47.37500
H  48.56200 1.86000 48.39100
H  48.89800 6.86500 46.50900
H  50.03100 5.59800 46.60800
H  49.66000 7.98900 48.10400
H  50.96400 6.69600 48.21400
H  49.53500 6.64700 49.24400
H  45.69600 10.27700 46.37400
H  46.12200 9.80600 47.93600
H  44.51100 10.66300 47.62100
H  40.39900 8.19000 45.00100
H  37.49300 8.45800 48.39400
H  36.70000 8.22200 46.89800
H  37.01300 9.84900 47.43400
Mg -1.42600 34.92600 27.38500
C  -2.80600 32.99200 29.97600
C  -0.17200 37.01000 29.58000
C  -0.90900 37.08700 24.73000
C  -2.94100 32.74800 25.16700
N  -1.66800 35.04100 29.57300
C  -2.13500 34.13000 30.46200
C  -1.66300 34.41500 31.87900
C  -0.71100 35.72400 31.70900
C  -0.86400 35.93300 30.16500
C  -1.27700 36.94400 32.54100
C  -0.78800 33.22700 32.45900
C  -1.18900 32.35800 33.62200
H  -0.54200 32.61200 34.96800
N  -0.66600 36.85400 27.18600
C  -0.11000 37.49200 28.21200
C  0.54900 38.68300 27.79200
C  0.30200 38.76300 26.38600
C  -0.48100 37.55400 26.05100
C  1.23600 39.51100 28.76700
C  0.80100 39.78000 25.40300
O  0.49700 39.67500 24.19200
C  1.84200 40.76500 25.70700
N  -1.65300 34.82900 25.21600
C  -1.51700 35.86500 24.36600
C  -1.90200 35.48300 22.92000
C  -2.18800 33.96800 23.05000
C  -2.29200 33.82700 24.60800
C  -3.01700 36.21000 22.21300
C  -1.18700 32.90500 22.45300
C  0.29500 33.20400 22.50800
N  -2.59500 33.20600 27.48900
C  -3.13400 32.45200 26.50700
C  -3.82600 31.27800 27.02700
C  -3.75100 31.45500 28.41400
C  -3.01400 32.64800 28.60000
C  -4.57200 30.26300 26.24400
C  -4.11100 30.93800 29.67800
O  -4.75300 29.95400 30.04500
C  -3.47300 31.84500 30.75900
C  -4.60100 32.42100 31.62100
O  -5.52000 33.10800 31.21300
O  -4.44200 32.04200 32.99000
C  -5.51000 32.42200 33.89100
H  0.47000 37.58400 30.25200
H  -0.66100 37.70500 23.86500
H  -3.40300 32.10100 24.41800
H  -2.37400 34.70800 32.65100
H  0.30200 35.53100 32.06300
H  -1.34400 37.82600 31.90500
H  -0.52600 37.10300 33.31500
H  -2.18800 36.69000 33.08300
H  0.17800 33.68200 32.67600
H  -0.60200 32.62500 31.56900
H  -1.29700 31.29100 33.42400
H  -2.20500 32.67200 33.86000
H  1.77500 40.34500 28.31800
H  1.99800 39.09400 29.42500
H  0.43700 39.98300 29.33900
H  2.18700 41.33400 24.84300
H  2.69700 40.12000 25.90600
H  1.55200 41.47700 26.48000
H  -0.97500 35.70200 22.39000
H  -3.13600 33.64500 22.62100
H  -3.49100 36.96500 22.84100
H  -3.78600 35.52600 21.85500
H  -2.68700 36.72400 21.31100
H  -1.42600 32.64200 21.42300
H  -1.43800 31.95200 22.91800
H  0.79500 32.37700 23.01300
H  0.47500 34.10500 23.09500
H  0.69600 33.16300 21.49500
H  -4.81600 29.39200 26.85300
H  -4.02200 30.00200 25.34000
H  -5.49100 30.81200 26.04000
H  -2.82000 31.16000 31.30100
H  -5.14900 33.10700 34.65800
H  -6.02400 31.60000 34.39100
H  -6.29800 32.81100 33.24700

