158

Mg 44.61800 4.94200 47.70900
C  42.40200 7.69800 47.33900
C  41.88500 2.99300 46.83900
C  46.70500 2.48300 47.23100
C  47.19900 7.23100 47.90100
N  42.35900 5.34200 47.03400
C  41.68900 6.51000 47.18400
C  40.18700 6.33000 47.09400
C  39.99200 4.75200 46.99000
C  41.51800 4.32300 47.04700
C  39.12600 4.11300 48.09900
C  39.49400 7.10100 45.93000
C  40.31200 7.21600 44.62200
H  39.71500 6.82200 43.25700
N  44.31300 2.94400 47.23700
C  43.13600 2.30100 46.97600
C  43.41000 0.93200 46.69200
C  44.83100 0.77500 46.72400
C  45.39000 2.08900 47.09400
C  42.45100 -0.10000 46.20800
C  45.52000 -0.57400 46.43200
O  44.84200 -1.60300 46.26500
C  47.06900 -0.77600 46.32300
N  46.66200 4.92300 47.53200
C  47.33600 3.71000 47.48600
C  48.81400 3.99500 47.55600
C  48.97700 5.50400 47.96700
C  47.50700 5.91400 47.95400
C  49.52800 3.09200 48.56400
C  49.94400 6.20900 47.05100
C  50.84000 7.12900 47.85900
N  44.80700 7.04300 47.67400
C  45.96800 7.83000 47.72900
C  45.60000 9.24300 47.75600
C  44.19400 9.22500 47.57400
C  43.75700 7.91000 47.49100
C  46.57400 10.42100 47.95000
C  43.04500 10.03800 47.47400
O  42.93100 11.23200 47.63900
C  41.80000 9.07300 47.33200
C  40.83900 9.33700 48.44700
O  40.81700 8.69500 49.52000
O  40.10900 10.40600 48.10400
C  39.23600 10.98600 49.10500
H  41.00600 2.43600 46.50900
H  47.45700 1.72400 47.00600
H  47.94100 8.02600 48.00100
H  39.64500 6.78600 47.92300
H  39.56400 4.44100 46.03700
H  38.39700 4.83900 48.45900
H  39.71200 3.72000 48.93000
H  38.51200 3.36800 47.59300
H  39.30600 8.12800 46.24500
H  38.59100 6.52200 45.73900
H  41.14000 6.51900 44.75000
H  40.53600 8.27300 44.47800
H  41.46100 0.34700 46.12000
H  42.31700 -0.86200 46.97600
H  42.79500 -0.66400 45.34100
H  47.73300 -0.36500 47.08300
H  47.38500 -0.33500 45.37800
H  47.28100 -1.84300 46.39600
H  49.14600 3.62500 46.58600
H  49.28200 5.63900 49.00400
H  50.28900 3.67700 49.08000
H  50.16500 2.42400 47.98400
H  48.92800 2.61800 49.34100
H  49.36700 6.76500 46.31200
H  50.51000 5.42600 46.54600
H  50.96400 6.86300 48.90900
H  50.44200 8.14400 47.85100
H  51.75600 7.17300 47.27000
H  47.49600 10.10700 48.44000
H  46.07600 11.20600 48.51900
H  46.78400 10.79800 46.94900
H  41.41100 9.32400 46.34500
H  39.87500 11.72800 49.58300
H  38.84700 10.38600 49.92800
H  38.39300 11.49300 48.63600
Mg -9.85500 39.51000 39.60200
C  -9.23700 36.13300 39.09400
C  -6.73700 40.31900 38.88800
C  -10.74200 42.80400 39.75900
C  -13.33000 38.70200 39.22400
N  -8.31500 38.40600 38.72200
C  -8.17200 37.03500 38.70800
C  -6.74400 36.64000 38.43900
C  -6.01100 37.88100 38.92100
C  -7.05200 38.95700 38.78700
C  -5.34200 37.78500 40.36400
C  -6.45200 36.24300 36.87200
C  -6.90000 37.22300 35.63700
H  -7.99500 36.68800 34.75500
N  -8.84400 41.33700 39.42400
C  -7.54000 41.42400 39.15800
C  -7.19200 42.81600 39.10400
C  -8.31100 43.62600 39.34500
C  -9.38500 42.64300 39.53400
C  -5.78600 43.40300 38.67600
C  -8.48600 45.13100 39.44100
O  -7.47200 45.79200 39.25500
C  -9.75900 45.82100 39.79200
N  -11.75400 40.64200 39.41800
C  -11.85300 41.96600 39.70500
C  -13.22600 42.51400 39.51200
C  -14.08100 41.19700 39.14000
C  -12.97100 40.10500 39.17100
C  -13.89200 43.20400 40.78000
C  -14.84300 41.31700 37.79700
C  -16.25600 40.82200 37.97700
N  -11.10000 37.74900 39.49600
C  -12.47300 37.60600 39.43100
C  -12.78800 36.18400 39.25000
C  -11.50100 35.54400 39.08000
C  -10.57300 36.54400 39.28200
C  -14.15700 35.56700 39.22000
C  -10.73000 34.35100 38.65300
O  -11.20900 33.30200 38.26300
C  -9.24700 34.65300 38.75900
C  -8.64400 33.67900 39.70900
O  -8.89200 33.53600 40.92300
O  -7.45000 33.32600 39.16400
C  -6.37500 32.83500 40.12700
H  -5.68000 40.55300 38.74200
H  -11.10700 43.80600 39.99500
H  -14.37700 38.47100 39.01800
H  -6.59100 35.71200 38.99100
H  -5.13700 38.02300 38.28500
H  -5.61600 36.78200 40.69000
H  -5.80600 38.50800 41.03500
H  -4.25400 37.84800 40.34800
H  -6.77000 35.21200 36.71500
H  -5.37200 36.21200 37.01800
H  -6.00000 37.41500 35.05200
H  -7.28400 38.15000 36.06200
H  -5.16200 42.61200 38.26100
H  -5.19800 43.73400 39.53200
H  -5.83000 44.23100 37.96800
H  -10.02000 45.47700 40.79300
H  -10.40300 45.52200 38.96500
H  -9.66200 46.90300 39.70000
H  -13.08400 43.23500 38.70700
H  -14.77000 41.02200 39.96600
H  -14.76100 42.80200 41.30300
H  -14.09400 44.24400 40.52700
H  -13.11400 43.34200 41.53000
H  -14.36700 40.61400 37.11400
H  -14.78200 42.36400 37.50100
H  -17.03600 41.58000 38.03300
H  -16.47700 40.15100 38.80700
H  -16.34000 40.21100 37.07700
H  -14.98300 36.22700 39.48800
H  -14.08800 34.59500 39.70800
H  -14.35800 35.48400 38.15200
H  -8.74800 34.50100 37.80200
H  -6.56900 32.72700 41.19400
H  -5.52800 33.52100 40.11400
H  -5.96800 31.87900 39.79600

