158

Mg 1.78900 -2.87200 44.84300
C  5.09500 -2.21700 44.45500
C  1.00300 -0.33800 42.81000
C  -1.41500 -3.99200 44.75300
C  2.74500 -5.87100 46.46400
N  2.90000 -1.52800 43.52600
C  4.21900 -1.46200 43.56900
C  4.74100 -0.42500 42.47300
C  3.38600 0.29900 42.13500
C  2.35800 -0.54700 42.89000
C  3.25300 1.79800 42.42100
C  5.42200 -1.02500 41.18900
C  6.95000 -0.65700 41.10400
H  7.55100 -0.31900 39.74400
N  0.04700 -2.16500 44.01000
C  -0.08200 -1.01100 43.26500
C  -1.50000 -0.75500 43.04900
C  -2.23600 -1.75200 43.71700
C  -1.26500 -2.64400 44.19900
C  -2.00800 0.43200 42.26500
C  -3.74200 -1.83700 43.89100
O  -4.48800 -0.95600 43.47500
C  -4.34700 -2.88400 44.76200
N  0.79500 -4.83000 45.31900
C  -0.51900 -4.94800 45.37900
C  -0.94000 -6.38200 45.77200
C  0.38700 -6.94200 46.37700
C  1.40000 -5.78600 46.03500
C  -2.15200 -6.53800 46.74600
C  0.77600 -8.37300 45.86000
C  -0.22600 -9.47900 46.07700
N  3.56700 -3.80300 45.53500
C  3.79700 -4.92600 46.24000
C  5.27800 -5.00600 46.48800
C  5.81900 -3.91800 45.87000
C  4.76800 -3.28500 45.21900
C  6.03500 -6.25200 46.94200
C  7.04100 -3.19400 45.59800
O  8.18000 -3.48800 45.86700
C  6.56700 -2.12700 44.53600
C  7.13000 -0.82000 44.87400
O  8.11600 -0.39400 44.37600
O  6.26900 -0.08100 45.67400
C  6.59300 1.31100 45.81500
H  0.78600 0.53700 42.19300
H  -2.44200 -4.35700 44.81900
H  3.19800 -6.71600 46.98700
H  5.37400 0.16200 43.13800
H  3.15500 0.15700 41.07900
H  4.25000 2.23500 42.37000
H  2.80600 1.92100 43.40800
H  2.61300 2.26100 41.66900
H  4.91800 -0.75500 40.26100
H  5.29900 -2.10000 41.32700
H  7.53800 -1.46600 41.53800
H  7.14300 0.20300 41.74500
H  -2.90200 0.19500 41.68800
H  -1.23000 0.77000 41.58100
H  -2.35200 1.18300 42.97700
H  -4.58100 -3.75500 44.15000
H  -5.29900 -2.40600 44.99600
H  -3.80900 -3.08200 45.68900
H  -1.20000 -6.94600 44.87600
H  0.30500 -7.00800 47.46200
H  -1.83300 -6.64100 47.78300
H  -2.70500 -7.42800 46.44600
H  -2.80000 -5.66300 46.80800
H  1.75800 -8.58700 46.28200
H  1.02200 -8.21600 44.81000
H  -0.48600 -9.91500 45.11200
H  -1.14700 -9.15800 46.56400
H  0.16000 -10.31600 46.65900
H  6.75300 -5.83600 47.64800
H  6.50000 -6.71300 46.07000
H  5.35300 -6.90700 47.48400
H  6.95400 -2.44500 43.56800
H  7.50000 1.42500 46.40800
H  5.75300 1.83800 46.26800
H  6.75200 1.87100 44.89300
Mg 25.03800 1.62400 30.29400
C  27.25800 1.36400 33.03200
C  22.40300 2.03000 32.54800
C  22.91500 1.69300 27.70500
C  27.60800 1.11800 28.09900
N  24.89100 1.68600 32.55100
C  25.92900 1.73400 33.45900
C  25.46900 1.95000 34.89100
C  23.94900 2.13400 34.69300
C  23.67400 1.82900 33.16600
C  23.11000 1.29300 35.67600
C  26.11900 3.19700 35.57300
C  26.89700 2.93400 36.87700
H  26.77500 3.98100 38.07600
N  22.95100 1.72100 30.16500
C  22.04600 1.91400 31.18400
C  20.74500 1.97000 30.67100
C  20.85800 1.89600 29.23800
C  22.33300 1.70800 29.01400
C  19.46700 2.11300 31.58800
C  19.72900 2.00600 28.21300
O  19.91900 1.93000 27.01400
C  18.30300 2.33800 28.68400
N  25.16400 1.41600 28.20200
C  24.26100 1.62000 27.29600
C  24.71400 1.62800 25.81800
C  26.28000 1.41900 25.93000
C  26.36000 1.35900 27.52400
C  24.01500 0.53600 25.01800
C  27.08100 2.66300 25.42800
C  26.85200 4.04600 26.21100
N  26.96600 1.27000 30.46300
C  27.96500 1.02800 29.46500
C  29.27400 0.88100 30.14800
C  29.00400 1.03000 31.50600
C  27.58400 1.20500 31.69000
C  30.58100 0.66600 29.35500
C  29.65200 0.99700 32.81300
O  30.81600 0.87100 33.11200
C  28.57700 1.34300 33.87300
C  28.55200 0.38100 34.89900
O  27.92200 -0.66400 34.85600
O  29.20400 0.79600 36.02800
C  29.26900 -0.16700 37.10600
H  21.62500 2.31600 33.25900
H  22.13900 1.72700 26.93800
H  28.33400 0.91300 27.31000
H  25.63300 1.02700 35.44600
H  23.64900 3.17100 34.83800
H  22.43800 2.08300 36.01100
H  23.75600 0.78700 36.39400
H  22.44500 0.57700 35.19300
H  25.36200 3.96100 35.74800
H  26.68900 3.67800 34.77800
H  27.96000 3.04000 36.65900
H  26.71200 1.97800 37.36700
H  18.87500 2.98600 31.31600
H  19.68400 1.96900 32.64700
H  18.85800 1.23700 31.36500
H  18.39200 3.23000 29.30300
H  17.99500 1.51300 29.32700
H  17.76600 2.50100 27.74900
H  24.46700 2.57200 25.33200
H  26.55500 0.51400 25.38800
H  23.50900 -0.17600 25.67100
H  24.67800 -0.12100 24.45500
H  23.35500 0.96000 24.26100
H  26.76600 2.77800 24.39000
H  28.12900 2.37700 25.33700
H  27.67400 4.21100 26.90700
H  25.86200 3.97600 26.66300
H  26.76500 4.75800 25.39100
H  30.70900 1.40800 28.56700
H  30.50400 -0.31300 28.88200
H  31.39500 0.62800 30.08000
H  28.65100 2.29800 34.39400
H  29.94500 0.14000 37.90400
H  29.53000 -1.20800 36.91400
H  28.30200 -0.14600 37.60800

