158

Mg 16.41700 51.97800 26.14800
C  18.36000 51.06600 28.99000
C  13.90200 52.74000 28.34600
C  14.67700 52.90000 23.52600
C  19.01800 50.79700 24.15700
N  16.18300 51.75200 28.44500
C  17.14800 51.65400 29.37800
C  16.76100 51.99200 30.76100
C  15.22300 52.26600 30.47600
C  15.07500 52.28300 28.99400
C  14.28400 51.32200 31.23400
C  17.57700 53.10900 31.41800
C  18.14500 52.84400 32.83600
H  17.39500 52.09900 33.81900
N  14.61300 52.66900 25.94900
C  13.71700 52.98500 26.96800
C  12.52000 53.63200 26.37100
C  12.77400 53.81800 25.01800
C  14.06800 53.05700 24.76600
C  11.36100 54.15600 27.20900
C  11.99500 54.53300 23.95700
O  12.37100 54.61200 22.80400
C  10.72900 55.19000 24.31700
N  16.75900 51.91500 24.08600
C  15.90000 52.34200 23.18500
C  16.40900 52.20500 21.73800
C  17.89500 51.86800 22.06000
C  17.94800 51.47000 23.53500
C  15.68900 51.14600 20.80500
C  18.91700 53.02500 21.77600
C  19.93900 52.76700 20.62700
N  18.24700 51.01400 26.39600
C  19.17200 50.58300 25.45400
C  20.24500 49.88900 26.18100
C  19.96000 50.11600 27.54000
C  18.73900 50.77200 27.64300
C  21.48300 49.24100 25.55100
C  20.44100 49.91600 28.85100
O  21.43900 49.29300 29.23800
C  19.45200 50.50900 29.85300
C  19.01800 49.39300 30.70300
O  18.36000 48.46000 30.36100
O  19.53400 49.54900 31.95200
C  19.11000 48.46200 32.86100
H  13.16600 52.99700 29.11000
H  14.25000 53.37000 22.63800
H  19.85200 50.48600 23.52400
H  16.85000 51.15500 31.45300
H  14.92800 53.23900 30.86800
H  13.89200 50.53000 30.59700
H  13.45500 51.91600 31.61900
H  14.76000 50.77800 32.05000
H  16.98600 54.02200 31.49600
H  18.47300 53.33000 30.83900
H  18.44600 53.81700 33.22500
H  19.10400 52.33500 32.73500
H  11.52900 54.00300 28.27500
H  10.54700 53.47100 26.97300
H  11.02200 55.18600 27.09900
H  10.31700 55.45700 23.34400
H  10.89300 56.06800 24.94200
H  9.99400 54.49300 24.71900
H  16.26600 53.18300 21.27900
H  18.23100 50.99300 21.50300
H  16.41000 50.41300 20.44400
H  15.00700 51.54700 20.05600
H  15.13900 50.51300 21.50200
H  19.54800 53.27800 22.62700
H  18.43200 53.99500 21.67100
H  19.49800 52.47900 19.67300
H  20.54100 51.92000 20.95500
H  20.52800 53.66000 20.41600
H  21.73900 48.36900 26.15300
H  22.25400 50.01000 25.50800
H  21.29800 48.93700 24.52100
H  19.96500 51.26900 30.44300
H  19.45500 47.46400 32.58900
H  18.02500 48.38100 32.79600
H  19.44900 48.75900 33.85300
Mg 9.21000 48.08700 25.62800
C  6.91200 48.53700 28.32100
C  11.63800 49.13600 27.66800
C  11.22900 47.65400 23.02200
C  6.40500 47.56800 23.50200
N  9.20300 49.01100 27.78200
C  8.21700 48.85500 28.72900
C  8.78500 49.08400 30.12900
C  10.27200 49.34800 29.83600
C  10.40600 49.17600 28.32800
C  10.74900 50.81500 30.25200
C  8.41000 47.95700 31.11200
C  9.40000 47.46900 32.26400
H  8.72500 47.02800 33.63200
N  11.13500 48.48900 25.34600
C  12.01800 48.84100 26.31100
C  13.39400 48.91100 25.78200
C  13.29300 48.32700 24.49700
C  11.84200 48.18500 24.19300
C  14.51700 49.30700 26.71000
C  14.37700 48.07500 23.51500
O  14.17600 47.80700 22.36400
C  15.76100 48.29300 24.03300
N  8.87000 47.45100 23.49600
C  9.92200 47.34400 22.64400
C  9.44000 47.28200 21.23700
C  7.92000 47.54300 21.33900
C  7.68900 47.54000 22.87500
C  10.12300 48.20300 20.10800
C  6.99500 46.47900 20.54600
C  7.48000 45.94000 19.19100
N  7.08100 47.92800 25.80200
C  6.08900 47.80400 24.82600
C  4.77400 47.79200 25.46200
C  5.04500 47.95000 26.81300
C  6.47600 48.16300 26.94600
C  3.53800 47.51700 24.68500
C  4.43600 48.10200 28.17600
O  3.29800 48.08600 28.49100
C  5.64400 48.42200 29.20800
C  5.63900 47.27700 30.09500
O  6.07500 46.16300 29.90300
O  5.13500 47.65200 31.23900
C  4.73600 46.59300 32.21400
H  12.46500 49.35500 28.34600
H  11.93000 47.47500 22.20400
H  5.60200 47.41100 22.77900
H  8.21400 49.97100 30.40400
H  10.89200 48.63500 30.37900
H  9.89000 51.44200 30.48900
H  11.25700 51.33400 29.43900
H  11.43300 50.80900 31.10100
H  8.33400 47.08400 30.46300
H  7.48800 48.19100 31.64400
H  10.06200 48.27800 32.57100
H  9.90300 46.58700 31.86700
H  15.33700 49.83500 26.22100
H  14.82500 48.56300 27.44400
H  13.98000 50.07300 27.27000
H  16.01800 49.31200 24.32500
H  16.45200 47.86000 23.31100
H  15.85800 47.73900 24.96600
H  9.59100 46.26000 20.88900
H  7.62400 48.49000 20.88900
H  10.99900 48.74300 20.46700
H  9.43000 49.01300 19.88200
H  10.57800 47.65200 19.28500
H  6.07100 47.04100 20.40900
H  6.91400 45.54100 21.09400
H  8.36200 46.53900 18.96700
H  6.68400 45.90500 18.44700
H  7.73600 44.90100 19.40100
H  3.42900 46.49900 24.31100
H  3.49500 48.27300 23.90100
H  2.79300 47.78000 25.43700
H  5.38200 49.31400 29.77600
H  4.12600 47.10900 32.95500
H  5.59900 46.19900 32.75100
H  4.10700 45.82000 31.77100

