158

Mg 17.31300 -2.88600 28.45700
C  16.12300 -0.77500 31.06000
C  19.38200 -4.53600 30.83100
C  18.73200 -4.36900 25.95000
C  15.41400 -0.80700 26.25100
N  17.81700 -2.58300 30.71500
C  16.99300 -1.84500 31.55800
C  17.33300 -2.17100 33.03500
C  18.49600 -3.19600 32.98700
C  18.63300 -3.46600 31.43300
C  19.79200 -2.69600 33.74200
C  16.17200 -2.73300 33.89200
C  16.03700 -2.21500 35.32600
H  17.26500 -1.86900 36.12700
N  18.80600 -4.30100 28.35900
C  19.50700 -4.87700 29.42000
C  20.27900 -5.94700 28.83600
C  20.18200 -5.86200 27.39700
C  19.20700 -4.78800 27.16300
C  21.07500 -6.95400 29.60400
C  20.91100 -6.69600 26.25600
O  20.66200 -6.60600 25.02000
C  21.81200 -7.71500 26.58800
N  17.00900 -2.67900 26.40900
C  17.72500 -3.42900 25.55300
C  17.50100 -2.99400 24.06500
C  16.26700 -2.04100 24.17000
C  16.20200 -1.89200 25.75900
C  18.77800 -2.50000 23.40000
C  14.97300 -2.46900 23.41400
C  14.11600 -1.32700 22.78000
N  16.03900 -1.13700 28.56100
C  15.42500 -0.43000 27.59200
C  14.62500 0.54500 28.18600
C  14.92400 0.49100 29.53000
C  15.78100 -0.54500 29.74400
C  13.72700 1.42100 27.46100
C  14.63700 1.07400 30.79900
O  13.86300 1.98000 31.13900
C  15.47800 0.29800 31.89000
C  16.47400 1.20600 32.54600
O  17.14300 2.06100 32.06800
O  16.35200 1.09400 33.93700
C  16.78900 2.16600 34.78200
H  20.06900 -5.12700 31.44000
H  19.23300 -4.98400 25.19900
H  14.67300 -0.33100 25.60500
H  17.70500 -1.25800 33.50100
H  18.16900 -4.18900 33.29600
H  19.90500 -1.62100 33.87700
H  20.66600 -3.04800 33.19400
H  19.98100 -3.20600 34.68700
H  16.21000 -3.82200 33.90500
H  15.20800 -2.48100 33.44800
H  15.57000 -3.09900 35.76000
H  15.29800 -1.44100 35.11700
H  20.66100 -7.89800 29.24800
H  20.93400 -6.85900 30.68100
H  22.11800 -6.85200 29.30600
H  22.15000 -8.26600 25.71000
H  21.32500 -8.40200 27.27900
H  22.77600 -7.41100 26.99700
H  17.20400 -3.88400 23.50900
H  16.66600 -1.07200 23.86800
H  18.52900 -1.67400 22.73400
H  19.25500 -3.35600 22.92100
H  19.37100 -2.11200 24.22800
H  14.46700 -3.06600 24.17300
H  15.21700 -3.23800 22.68100
H  13.18900 -1.11200 23.31300
H  13.99600 -1.46300 21.70500
H  14.69100 -0.40800 22.88700
H  13.50800 2.31300 28.04900
H  12.76600 0.91800 27.35900
H  14.12100 1.70200 26.48500
H  14.73700 -0.09700 32.58500
H  17.02100 1.75900 35.76600
H  15.87300 2.72400 34.97800
H  17.51000 2.83300 34.31000
Mg 26.94200 52.10200 25.86400
C  25.21400 53.28200 28.60500
C  29.38000 50.81900 27.67900
C  28.54100 51.08900 22.96600
C  24.51600 53.83300 23.87600
N  27.16800 52.02300 27.90300
C  26.39500 52.54000 28.91100
C  27.13000 52.39600 30.25100
C  28.51100 51.82500 29.96600
C  28.36300 51.47900 28.43600
C  29.82300 52.63600 30.42800
C  26.28300 51.60500 31.31000
C  25.80800 52.43700 32.53600
H  26.64300 52.44200 33.81300
N  28.79500 51.10700 25.37400
C  29.61800 50.64000 26.33800
C  30.72600 49.90800 25.70300
C  30.52800 50.00800 24.32300
C  29.29000 50.74000 24.16700
C  31.85700 49.32800 26.56100
C  31.37700 49.44300 23.18300
O  31.16800 49.62600 21.99300
C  32.54100 48.59000 23.49100
N  26.70100 52.62700 23.79200
C  27.41300 51.91900 22.81000
C  26.99500 52.32800 21.39200
C  25.63300 52.99400 21.66600
C  25.61800 53.21900 23.19400
C  28.07400 53.28900 20.92900
C  24.51100 52.11100 21.10900
C  23.72600 51.12100 22.03900
N  25.22800 53.26800 26.10600
C  24.32000 53.88400 25.22800
C  23.15800 54.34800 25.86500
C  23.48300 54.14800 27.21800
C  24.74200 53.48000 27.33400
C  21.96500 55.03100 25.25800
C  23.01600 54.38500 28.53700
O  21.91800 54.81000 28.87900
C  24.10700 53.93700 29.48200
C  24.49700 54.99500 30.43000
O  25.33300 55.80900 30.21400
O  23.67200 54.99000 31.50300
C  23.90100 55.95500 32.57100
H  30.16200 50.47800 28.36000
H  28.92500 50.69300 22.02300
H  23.71200 54.26100 23.27300
H  27.30300 53.42600 30.56200
H  28.51800 50.83900 30.42900
H  29.57600 53.57200 30.93100
H  30.51700 52.74800 29.59500
H  30.32900 52.05200 31.19700
H  26.72400 50.67600 31.67100
H  25.29900 51.48100 30.85700
H  24.80100 52.11200 32.79800
H  25.69100 53.46200 32.18500
H  31.56900 48.35900 26.96700
H  31.99700 49.93800 27.45400
H  32.83000 49.27800 26.07300
H  33.23800 49.19800 24.06700
H  32.97900 48.19600 22.57400
H  32.20300 47.81900 24.18400
H  27.04600 51.50600 20.67800
H  25.54000 53.95300 21.15600
H  28.59100 53.74700 21.77300
H  27.67000 54.15300 20.40100
H  28.77700 52.73500 20.30800
H  24.89200 51.47500 20.31000
H  23.77000 52.76300 20.64700
H  24.21900 51.12700 23.01200
H  23.76900 50.15200 21.54300
H  22.71300 51.49900 22.17800
H  21.19600 54.33000 24.93300
H  22.32700 55.64600 24.43400
H  21.57300 55.71400 26.01100
H  23.78000 53.09500 30.09300
H  23.46800 56.93500 32.37400
H  24.96000 56.09700 32.78800
H  23.35100 55.47700 33.38200

