158

Mg 44.92600 4.70900 45.98100
C  43.31400 7.76900 46.04500
C  41.85900 3.17800 45.32800
C  46.63900 1.91200 45.31000
C  48.02000 6.56300 45.82400
N  42.86200 5.43400 45.44800
C  42.36500 6.74900 45.77200
C  40.91200 6.87200 45.51400
C  40.50900 5.32600 45.54000
C  41.82700 4.53100 45.52800
C  39.44700 4.94700 46.64800
C  40.65600 7.60400 44.21100
C  41.49900 7.15200 42.99700
H  40.76700 6.71900 41.72100
N  44.30200 2.79100 45.43400
C  43.01600 2.34000 45.17100
C  43.00600 0.95600 44.79000
C  44.41600 0.54800 44.88200
C  45.18900 1.75600 45.37500
C  41.81100 0.18000 44.46200
C  44.84500 -0.85900 44.52200
O  44.10400 -1.72200 44.07800
C  46.25900 -1.28300 44.64500
N  47.13700 4.33400 45.60500
C  47.50500 2.99300 45.44300
C  49.02600 2.93200 45.23400
C  49.38100 4.43200 45.62800
C  48.09400 5.18000 45.69000
C  49.70700 1.85100 46.19600
C  50.52900 5.09100 44.84400
C  51.57900 5.73900 45.74000
N  45.55800 6.74400 45.90100
C  46.80000 7.34100 45.94900
C  46.71900 8.74000 46.07200
C  45.30000 8.94400 46.16400
C  44.66100 7.70100 46.05100
C  47.71500 9.78700 46.09400
C  44.34800 9.94400 46.47200
O  44.53500 11.15800 46.69600
C  42.97800 9.21100 46.31400
C  42.13200 9.39600 47.52000
O  41.97600 8.54000 48.38600
O  41.38800 10.60300 47.46600
C  40.44400 10.66100 48.59300
H  40.85400 2.78800 45.15600
H  47.12500 0.96600 45.06000
H  48.96600 7.09600 45.93400
H  40.40600 7.27500 46.39100
H  39.96900 5.00200 44.65100
H  38.68200 5.69400 46.86300
H  39.93500 4.58800 47.55400
H  38.97900 4.07700 46.18800
H  40.72400 8.68600 44.32000
H  39.63000 7.30000 44.00300
H  42.20700 6.33700 43.15100
H  42.07600 7.99500 42.61800
H  41.87100 -0.60400 43.70700
H  40.95200 0.77700 44.15400
H  41.64000 -0.28200 45.43400
H  46.22600 -2.29100 44.23300
H  46.54800 -1.34000 45.69500
H  46.81000 -0.56600 44.03600
H  49.33200 2.60500 44.24000
H  49.64400 4.33700 46.68100
H  49.96500 0.97600 45.59900
H  48.98200 1.52100 46.94000
H  50.58100 2.26800 46.69600
H  50.15900 5.87300 44.18000
H  51.07000 4.42600 44.17000
H  51.52300 5.35800 46.75900
H  51.40300 6.81500 45.72200
H  52.54900 5.50600 45.30100
H  48.59100 9.31400 45.65000
H  47.95500 10.08600 47.11500
H  47.31200 10.68200 45.61900
H  42.49500 9.59100 45.41400
H  41.02500 10.77600 49.50800
H  39.73100 9.83700 48.57300
H  39.90800 11.60900 48.53400
Mg 28.43300 57.42600 43.07600
C  26.06400 55.19300 41.66100
C  30.87900 55.48800 41.45800
C  30.66100 59.73400 43.97500
C  25.93800 59.22100 44.38900
N  28.42500 55.59500 41.56800
C  27.36700 54.88500 41.20000
C  27.74400 53.82800 40.07900
C  29.24400 53.61100 40.46500
C  29.55100 54.96800 41.20700
C  29.64900 52.45700 41.41700
C  27.59100 54.41700 38.72600
C  27.18900 53.57100 37.47100
H  28.11200 53.57300 36.23100
N  30.48500 57.59500 42.75000
C  31.27700 56.68600 42.09800
C  32.65600 57.23700 42.05000
C  32.62300 58.44000 42.83000
C  31.23000 58.59800 43.26500
C  33.68300 56.62100 41.15600
C  33.77300 59.45300 43.00000
O  34.92200 59.13700 42.54000
C  33.69000 60.68400 43.78600
N  28.26300 59.30400 43.93000
C  29.35300 60.06000 44.29400
C  28.88400 61.37700 44.97500
C  27.36600 61.23900 45.12100
C  27.18300 59.83100 44.44200
C  29.71200 61.73600 46.22500
C  26.58900 62.33800 44.45000
C  26.70500 62.46900 42.93500
N  26.46500 57.15500 43.20900
C  25.52500 57.96600 43.80900
C  24.20000 57.45500 43.71800
C  24.37800 56.35300 42.81600
C  25.74100 56.20500 42.55600
C  22.90500 58.06400 44.28000
C  23.70500 55.35400 42.05700
O  22.49300 55.15500 41.89100
C  24.79800 54.56800 41.28200
C  24.69200 53.12300 41.69300
O  24.82700 52.64600 42.80100
O  24.50400 52.30100 40.63000
C  24.68000 50.85000 40.75600
H  31.62700 54.88100 40.94400
H  31.29800 60.56100 44.29600
H  25.13900 59.79300 44.86600
H  27.16000 52.90800 40.10600
H  29.78500 53.60700 39.51800
H  28.81500 51.76700 41.54800
H  29.81000 52.88900 42.40500
H  30.46100 51.94100 40.90600
H  28.44300 55.02800 38.42900
H  26.80000 55.14200 38.91700
H  26.20200 53.77300 37.05500
H  27.00600 52.53900 37.76900
H  33.24500 56.51100 40.16400
H  33.97900 55.63000 41.50000
H  34.58700 57.22500 41.07300
H  33.16900 61.53800 43.35300
H  34.70100 61.01700 44.02200
H  33.28200 60.46500 44.77200
H  29.02800 62.25700 44.34900
H  27.09700 61.04200 46.15800
H  30.65400 61.20800 46.37200
H  29.25000 61.72600 47.21200
H  29.86800 62.80200 46.05700
H  27.01100 63.27700 44.81000
H  25.58200 62.17600 44.83600
H  27.55900 61.91200 42.54900
H  26.87200 63.52300 42.71300
H  25.82900 62.13400 42.38000
H  22.09800 57.35800 44.08100
H  22.58300 59.00100 43.82500
H  23.00300 58.30600 45.33800
H  24.74100 54.47500 40.19700
H  24.13100 50.41100 41.58900
H  25.72500 50.62200 40.96600
H  24.37300 50.28500 39.87600

