158

Mg 16.97200 -1.74600 28.26800
C  15.66400 0.24800 30.63900
C  18.87400 -3.37300 30.60400
C  18.07600 -3.51300 25.72400
C  15.06900 0.21000 25.80100
N  17.29900 -1.53700 30.37200
C  16.55000 -0.67900 31.14800
C  16.96700 -0.75600 32.57200
C  18.16200 -1.80100 32.54400
C  18.10100 -2.34100 31.14900
C  19.54900 -1.23500 32.91200
C  15.81700 -1.13100 33.49300
C  15.92800 -0.58100 34.91900
H  17.32200 0.08900 35.34000
N  18.33100 -3.26000 28.20400
C  19.02800 -3.81500 29.28300
C  19.93800 -4.82500 28.75700
C  19.62200 -4.93100 27.32300
C  18.65300 -3.89600 26.99000
C  20.95200 -5.61600 29.65400
C  20.18700 -5.97100 26.41400
O  19.93400 -5.94800 25.21900
C  21.06900 -7.06300 26.85300
N  16.63200 -1.63800 26.05400
C  17.28800 -2.48600 25.23900
C  16.91000 -2.26400 23.76100
C  15.87200 -1.06200 23.85900
C  15.77700 -0.88000 25.38200
C  18.11800 -2.03600 22.81100
C  14.51000 -1.21800 23.09900
C  14.16900 -0.13000 22.06500
N  15.66200 -0.10200 28.22300
C  14.99700 0.62500 27.17800
C  14.35500 1.78600 27.76400
C  14.70100 1.72000 29.13700
C  15.32600 0.46800 29.32000
C  13.48000 2.85800 27.01900
C  14.47800 2.34500 30.39600
O  13.86300 3.41400 30.60500
C  15.08100 1.50400 31.42400
C  15.97500 2.45500 32.14900
O  17.14500 2.69000 31.84100
O  15.37400 2.94800 33.27400
C  16.16000 3.93800 34.00300
H  19.49900 -3.86200 31.35400
H  18.34000 -4.18400 24.90400
H  14.60500 0.88300 25.07800
H  17.35900 0.21000 32.89300
H  18.01800 -2.72700 33.10100
H  19.64100 -0.16200 32.74500
H  20.35400 -1.66500 32.31500
H  19.83100 -1.53500 33.92100
H  15.82100 -2.22100 33.50500
H  14.86100 -0.82400 33.06900
H  15.66100 -1.27700 35.71500
H  15.19600 0.22700 34.89100
H  21.20200 -4.88800 30.42600
H  21.72200 -5.92400 28.94800
H  20.42600 -6.47400 30.07200
H  21.10600 -7.88200 26.13400
H  20.48000 -7.48400 27.66800
H  22.07500 -6.70300 27.06800
H  16.34900 -3.16300 23.50400
H  16.34200 -0.14600 23.50100
H  18.90200 -2.66600 23.23200
H  18.44500 -0.99600 22.81400
H  17.81300 -2.20200 21.77800
H  13.65000 -1.28200 23.76500
H  14.49100 -2.14400 22.52300
H  13.83400 -0.66700 21.17800
H  15.12200 0.34100 21.82400
H  13.44200 0.61200 22.39400
H  13.81800 2.89100 25.98300
H  13.74800 3.86000 27.35600
H  12.40600 2.67900 26.97300
H  14.20700 1.23600 32.01800
H  16.62000 4.72700 33.40800
H  16.98700 3.51600 34.57500
H  15.40000 4.29200 34.69900
Mg 27.03300 49.90100 26.79500
C  24.96900 50.97500 29.49300
C  29.56400 49.42700 29.09700
C  29.11300 49.37200 24.25200
C  24.52800 51.17500 24.62200
N  27.22300 50.19300 28.99800
C  26.23700 50.48500 29.82800
C  26.72000 50.37400 31.25800
C  28.21100 49.95200 31.20100
C  28.38300 49.82700 29.64600
C  29.26800 50.81800 31.96200
C  25.77500 49.49800 32.17000
C  25.28500 50.05200 33.51600
H  26.20000 49.91200 34.77000
N  28.99600 49.29600 26.68600
C  29.81800 49.08100 27.74300
C  31.05300 48.51700 27.24700
C  30.99700 48.53500 25.81000
C  29.65500 49.08100 25.50800
C  32.07700 47.84600 28.21000
C  32.05600 48.16600 24.78900
O  31.97500 48.16800 23.56000
C  33.36000 47.74600 25.27300
N  26.87500 50.33200 24.82300
C  27.89200 49.91200 23.94300
C  27.45000 50.21400 22.54000
C  25.94600 50.46300 22.65500
C  25.73000 50.74400 24.10900
C  28.26300 51.44000 22.04700
C  24.97700 49.42600 22.10400
C  25.32900 47.95200 22.44300
N  25.11000 50.81700 26.96300
C  24.26600 51.33600 26.01600
C  23.12200 51.94700 26.61500
C  23.31600 51.83100 27.97300
C  24.56300 51.22100 28.17100
C  21.94000 52.51500 25.96300
C  22.71600 52.15700 29.23900
O  21.64900 52.65100 29.56000
C  23.81900 51.69900 30.26300
C  24.31800 52.87300 31.03700
O  25.11900 53.77500 30.67600
O  23.57000 52.96300 32.17900
C  24.04000 53.96300 33.17000
H  30.44000 49.23100 29.71800
H  29.70100 48.93200 23.44400
H  23.72000 51.48800 23.95700
H  26.70100 51.41100 31.59500
H  28.38600 48.92400 31.51600
H  29.73800 51.41200 31.17800
H  29.91900 50.12600 32.49600
H  28.77100 51.41200 32.72900
H  26.21900 48.51200 32.30600
H  24.85400 49.40800 31.59400
H  24.29900 49.64300 33.73700
H  25.07600 51.11700 33.41100
H  32.34000 46.86000 27.82700
H  31.72400 47.91500 29.23900
H  33.00700 48.35200 27.94900
H  33.76000 48.58100 25.84900
H  34.02900 47.44200 24.46800
H  33.39400 46.80200 25.81600
H  27.82700 49.53600 21.77500
H  25.68400 51.38400 22.13400
H  29.09400 51.73000 22.69000
H  27.64200 52.33500 22.07100
H  28.78800 51.33400 21.09700
H  24.99800 49.59500 21.02800
H  23.98000 49.49700 22.53800
H  26.07100 47.75300 23.21600
H  25.74100 47.53500 21.52400
H  24.44800 47.36400 22.70000
H  21.87500 52.09500 24.96000
H  22.15600 53.58200 26.02100
H  21.04100 52.35900 26.55900
H  23.38700 50.99700 30.97500
H  24.98600 53.62400 33.59200
H  23.31400 53.86800 33.97700
H  24.02200 54.98800 32.80000

