158

Mg 23.80600 -5.35700 45.44100
C  26.00300 -2.94100 44.14700
C  21.31800 -4.05700 43.47500
C  22.18300 -8.07300 45.98800
C  26.63300 -6.70200 47.18900
N  23.70700 -3.61900 44.17600
C  24.71100 -2.79900 43.77600
C  24.09500 -1.77900 42.71300
C  22.57900 -1.94100 42.87400
C  22.49900 -3.28500 43.59900
C  21.77000 -0.87000 43.69900
C  24.68400 -2.09500 41.27800
C  25.16400 -0.86500 40.42500
H  24.67200 -0.78300 38.96600
N  21.85600 -5.99700 44.88400
C  21.06500 -5.35700 43.98900
C  19.94400 -6.23700 43.66400
C  20.13800 -7.43900 44.34000
C  21.43000 -7.24800 45.11400
C  18.83900 -5.89300 42.60200
C  19.11900 -8.57400 44.31600
O  18.06100 -8.44700 43.61300
C  19.39500 -9.87400 45.07700
N  24.41100 -7.17300 46.35800
C  23.45000 -8.12300 46.52300
C  23.96700 -9.42800 47.18800
C  25.26900 -8.79200 47.84400
C  25.48400 -7.48200 47.11700
C  23.03400 -10.09600 48.24400
C  26.54200 -9.80100 47.85500
C  27.39800 -9.65800 49.15700
N  25.96800 -4.92100 45.67500
C  26.86700 -5.52100 46.43300
C  28.05900 -4.84200 46.33000
C  27.82000 -3.78200 45.43200
C  26.48900 -3.88100 45.05700
C  29.27300 -5.12500 47.07700
C  28.35000 -2.57300 44.81500
O  29.50400 -2.09000 44.80700
C  27.23300 -2.07400 43.88400
C  26.86400 -0.66200 44.22600
O  26.60100 -0.28300 45.34800
O  27.03400 0.06400 43.07900
C  26.78500 1.55900 43.24000
H  20.54900 -3.55400 42.88400
H  21.52700 -8.94300 46.06200
H  27.34500 -7.05500 47.93700
H  24.27000 -0.72300 42.91700
H  22.14000 -1.97500 41.87700
H  22.38900 -0.15000 44.23500
H  21.13000 -1.37100 44.42600
H  21.22100 -0.27200 42.97100
H  23.81900 -2.45700 40.72300
H  25.29900 -2.99500 41.28800
H  26.20500 -1.09300 40.19400
H  25.09300 0.07200 40.97700
H  18.64700 -6.57300 41.77300
H  19.02500 -4.95400 42.07900
H  17.90200 -5.91800 43.15700
H  19.16000 -9.66700 46.12100
H  20.43500 -10.18600 44.97700
H  18.69300 -10.57600 44.62800
H  24.21500 -10.02400 46.31000
H  25.07700 -8.45100 48.86100
H  21.99700 -9.83300 48.03500
H  23.27600 -9.92100 49.29300
H  22.95200 -11.16900 48.07500
H  27.19800 -9.58500 47.01300
H  26.12800 -10.80700 47.77400
H  28.45300 -9.81500 48.93100
H  27.16800 -10.42900 49.89200
H  27.16900 -8.70300 49.63000
H  29.54800 -4.15800 47.49700
H  30.06400 -5.37700 46.36900
H  29.15800 -5.81500 47.91300
H  27.53300 -2.21400 42.84500
H  26.49300 1.81300 44.25900
H  25.93100 1.79300 42.60400
H  27.70300 1.99000 42.84200
Mg 49.38100 34.59000 27.22000
C  47.42600 33.81600 29.98100
C  50.00900 37.56600 28.70100
C  51.16100 35.64300 24.37200
C  48.24100 31.95500 25.49400
N  48.82200 35.45300 29.27800
C  48.05600 35.00000 30.27600
C  47.82900 35.98400 31.39500
C  48.49000 37.26300 30.81300
C  49.13900 36.75400 29.50100
C  47.63000 38.56400 30.62900
C  48.48500 35.54300 32.75100
C  47.43500 35.38300 33.86000
H  47.30800 36.64000 34.77400
N  50.52200 36.29400 26.67900
C  50.69200 37.37900 27.46600
C  51.55600 38.28300 26.81200
C  51.95000 37.79100 25.55300
C  51.23100 36.49100 25.50900
C  51.88600 39.61800 27.39900
C  52.78900 38.47100 24.49200
O  53.03400 37.94700 23.42100
C  53.40100 39.76800 24.74300
N  49.57800 33.99900 25.21400
C  50.46800 34.49300 24.25900
C  50.40000 33.67700 22.95300
C  49.62800 32.41700 23.40200
C  49.09200 32.78800 24.76900
C  49.81700 34.55500 21.79400
C  50.40500 31.06400 23.37900
C  50.38900 30.29400 22.02600
N  48.15300 33.11800 27.61300
C  47.85300 32.03400 26.86900
C  47.04800 31.09900 27.61200
C  46.73100 31.87800 28.73300
C  47.52500 33.06300 28.77800
C  46.57500 29.75200 27.17800
C  45.88100 31.92700 29.92500
O  45.04700 31.11600 30.33900
C  46.19600 33.17800 30.72300
C  46.68200 32.65600 31.95000
O  47.83300 32.31100 32.16300
O  45.59800 32.43200 32.83000
C  45.86700 31.98000 34.20600
H  50.14500 38.58500 29.06700
H  51.81300 35.78300 23.50800
H  47.88200 31.04900 25.00300
H  46.74800 36.08600 31.49000
H  49.38100 37.46000 31.40900
H  48.30700 39.37500 30.89700
H  46.73500 38.52200 31.25000
H  47.19900 38.46700 29.63200
H  49.07200 36.33100 33.22400
H  49.11100 34.65900 32.63700
H  47.75700 34.62500 34.57400
H  46.46100 35.10000 33.46100
H  52.81800 39.65300 27.96400
H  51.08400 39.89800 28.08200
H  51.84000 40.46800 26.71800
H  54.17600 39.78400 25.50900
H  52.59900 40.50200 24.82500
H  53.89600 40.04000 23.81000
H  51.42300 33.42900 22.67200
H  48.73800 32.38200 22.77400
H  49.53200 35.54800 22.14200
H  48.89400 34.10900 21.42300
H  50.57500 34.59700 21.01200
H  50.04900 30.36300 24.13400
H  51.44600 31.27500 23.62300
H  49.89600 29.32400 22.08800
H  51.39400 30.25500 21.60600
H  49.84100 30.86500 21.27600
H  46.71000 29.11200 28.05000
H  47.33200 29.43900 26.45900
H  45.50500 29.70900 26.97400
H  45.33300 33.83300 30.84200
H  45.20000 31.12700 34.33200
H  45.56000 32.72900 34.93500
H  46.90800 31.68500 34.34500

