158

Mg 9.17500 4.26100 27.65100
C  10.62400 2.86800 30.43500
C  7.36400 6.38100 29.72900
C  8.04900 5.68800 25.04000
C  10.68500 1.68100 25.68300
N  8.92700 4.45900 29.84600
C  9.72800 3.93000 30.80600
C  9.57200 4.49400 32.17300
C  8.40300 5.56200 31.94200
C  8.11500 5.43700 30.40200
C  7.19100 5.30000 32.87200
C  10.85500 4.94500 32.96700
C  10.74600 5.86200 34.13900
H  11.68500 5.68100 35.32500
N  7.80900 5.74100 27.41200
C  7.20200 6.54100 28.33200
C  6.43700 7.50300 27.68100
C  6.74100 7.42900 26.31200
C  7.58900 6.23900 26.19600
C  5.52000 8.43100 28.37900
C  6.33900 8.36100 25.13900
O  6.55700 8.09100 23.98900
C  5.66400 9.63900 25.40500
N  9.20200 3.66200 25.63700
C  8.67400 4.47300 24.71600
C  8.98100 3.98400 23.22500
C  9.96100 2.82100 23.57300
C  9.88300 2.64800 25.02900
C  7.67700 3.61000 22.40300
C  11.35500 3.27600 22.91300
C  12.11900 2.22200 22.18600
N  10.40000 2.59600 27.94100
C  10.90200 1.63300 27.10600
C  11.68600 0.64800 27.85500
C  11.66600 1.14200 29.17600
C  10.82700 2.29800 29.17200
C  12.36300 -0.54800 27.34000
C  12.17500 1.00800 30.53400
O  13.01300 0.19600 30.93300
C  11.54300 2.12000 31.38100
C  10.86800 1.38800 32.50700
O  9.77900 0.81400 32.51500
O  11.69400 1.46500 33.64400
C  11.26300 1.18700 35.03700
H  6.78900 7.04200 30.38100
H  7.74800 6.12400 24.08600
H  11.20100 0.93800 25.07100
H  9.18000 3.61300 32.67900
H  8.88500 6.52500 32.10800
H  6.35600 4.95500 32.26100
H  6.83700 6.21000 33.35500
H  7.49400 4.68900 33.72200
H  11.38000 5.50600 32.19400
H  11.39000 4.11000 33.41900
H  9.69700 5.84600 34.43500
H  10.95900 6.84300 33.71300
H  5.95100 9.39800 28.63800
H  5.33400 8.10400 29.40200
H  4.57700 8.46100 27.83300
H  5.73400 10.37100 24.60000
H  6.28400 10.04600 26.20300
H  4.62300 9.33100 25.50300
H  9.56000 4.80900 22.80900
H  9.53100 1.92300 23.13100
H  6.85000 4.08100 22.93400
H  7.52500 2.54900 22.20300
H  7.79000 4.06100 21.41700
H  11.97700 3.71200 23.69500
H  11.23400 3.96700 22.07900
H  11.57100 1.28400 22.26700
H  13.06000 2.06400 22.71300
H  12.33100 2.35800 21.12500
H  12.11300 -1.33400 28.05200
H  13.43000 -0.37600 27.19800
H  12.00900 -0.81700 26.34400
H  12.29000 2.83900 31.71900
H  11.80000 1.78800 35.77100
H  11.27300 0.11700 35.24500
H  10.24500 1.50300 35.26800
Mg 29.38200 58.16100 40.79900
C  26.58500 56.51900 39.52300
C  31.38500 55.74800 39.24800
C  32.15200 60.22100 41.06600
C  27.25700 60.84800 41.59400
N  29.03100 56.46800 39.56200
C  27.80200 55.98700 39.10200
C  27.87400 54.77500 38.27000
C  29.39400 54.36500 38.44700
C  29.95900 55.59900 39.16200
C  29.57200 53.02600 39.14000
C  27.50000 55.00600 36.73700
C  26.34000 54.27700 36.07400
H  25.68400 55.08000 34.99600
N  31.53500 57.92900 40.39400
C  32.10300 56.81700 39.74900
C  33.49300 57.05000 39.54200
C  33.78300 58.27600 40.08500
C  32.49300 58.93200 40.50700
C  34.44800 56.03000 38.87800
C  35.19800 58.78600 40.21500
O  36.16400 58.07900 39.89600
C  35.53000 60.06800 40.87300
N  29.67700 60.23700 41.33300
C  30.91000 60.78600 41.37300
C  30.85400 62.30400 41.70800
C  29.33100 62.50500 42.00700
C  28.69800 61.13200 41.63700
C  31.82000 62.78800 42.77800
C  28.79600 63.73300 41.16500
C  28.86500 65.06200 41.84700
N  27.39500 58.54800 40.82900
C  26.62600 59.67600 41.24100
C  25.23500 59.31200 41.26700
C  25.19200 58.12400 40.54600
C  26.47700 57.69400 40.31000
C  24.14900 60.25800 41.73500
C  24.27700 57.23400 39.99300
O  23.08300 57.28100 39.93700
C  25.17500 56.08000 39.36400
C  24.77200 54.83200 40.15700
O  25.00500 54.61200 41.32600
O  23.86000 54.15100 39.42700
C  22.94900 53.31600 40.28500
H  31.89300 54.86400 38.85500
H  33.05000 60.84400 41.07400
H  26.56000 61.68300 41.69000
H  27.22100 54.00900 38.68800
H  29.95600 54.22000 37.52400
H  30.46100 53.03200 39.77100
H  29.68800 52.25200 38.38100
H  28.65900 52.70800 39.64300
H  28.43300 54.65000 36.30000
H  27.39600 56.08000 36.58000
H  25.57100 53.88700 36.74100
H  26.66700 53.31600 35.67800
H  35.04600 56.51300 38.10500
H  33.88000 55.26600 38.34600
H  35.02100 55.53200 39.66000
H  35.27300 60.93200 40.26000
H  36.60200 60.15800 41.04700
H  34.82900 60.15500 41.70300
H  31.12900 62.82800 40.79300
H  29.10300 62.78700 43.03400
H  32.60300 63.39800 42.32800
H  32.24800 61.98500 43.37900
H  31.26900 63.49100 43.40200
H  27.81800 63.50300 40.74200
H  29.36900 63.77600 40.23900
H  29.22400 65.73400 41.06800
H  29.48600 65.10300 42.74200
H  27.93700 65.44000 42.27500
H  23.12600 59.93400 41.54800
H  24.34300 61.19900 41.22100
H  24.22500 60.48000 42.80000
H  24.90500 55.96200 38.31500
H  22.34200 53.90300 40.97400
H  23.47300 52.65300 40.97300
H  22.34400 52.72200 39.60100

