158

Mg 1.05200 -0.89800 42.47200
C  4.51500 -0.43500 41.70100
C  0.36800 1.95300 41.08400
C  -2.12400 -1.90600 42.65900
C  1.97300 -4.22700 43.53400
N  2.32200 0.56400 41.47500
C  3.66300 0.60800 41.20600
C  4.11600 1.95300 40.67900
C  2.81500 2.80600 40.84300
C  1.77700 1.69800 41.07600
C  2.88400 3.86300 41.94700
C  4.56000 1.71600 39.18400
C  5.85300 2.38900 38.73500
H  5.89400 3.50400 37.69200
N  -0.64100 -0.01800 42.03700
C  -0.73200 1.13800 41.37800
C  -2.12500 1.49000 41.23500
C  -2.90300 0.41500 41.78000
C  -1.90400 -0.62000 42.14000
C  -2.51900 2.85100 40.72200
C  -4.39700 0.41500 42.00900
O  -5.10100 1.26500 41.55900
C  -5.06600 -0.66400 42.75800
N  0.05900 -2.88300 43.07600
C  -1.24500 -2.91300 43.11000
C  -1.79500 -4.27600 43.45600
C  -0.40800 -5.01500 43.89800
C  0.64400 -4.03300 43.47400
C  -2.78700 -4.20900 44.65000
C  -0.10200 -6.43700 43.33600
C  -1.22200 -7.21300 42.67100
N  2.81100 -2.14000 42.51100
C  3.01100 -3.39200 43.06400
C  4.41400 -3.75300 43.08500
C  5.01300 -2.65200 42.44300
C  4.03600 -1.66200 42.24100
C  4.99200 -4.91700 43.80400
C  6.29700 -2.14700 41.99300
O  7.31000 -2.81600 42.09600
C  6.03300 -0.63400 41.56100
C  6.81500 0.43100 42.28000
O  6.46000 1.01100 43.33100
O  7.88000 0.90100 41.52400
C  8.56800 2.07800 42.07500
H  0.07100 2.86500 40.56100
H  -3.19500 -2.11600 42.62200
H  2.27700 -5.11300 44.09500
H  4.96100 2.36400 41.23200
H  2.56600 3.28100 39.89400
H  2.39100 3.44600 42.82500
H  2.48100 4.78700 41.53100
H  3.95100 3.96600 42.14700
H  3.80300 2.20800 38.57300
H  4.51100 0.65100 38.95900
H  6.40400 1.54900 38.31300
H  6.45200 2.69000 39.59400
H  -3.52500 2.89100 40.30500
H  -1.80300 3.26600 40.01300
H  -2.51000 3.49500 41.60100
H  -5.15000 -1.58100 42.17400
H  -6.05900 -0.40900 43.12800
H  -4.50300 -0.72500 43.68900
H  -2.19100 -4.70500 42.53500
H  -0.42500 -5.03200 44.98800
H  -3.64500 -4.81500 44.35900
H  -3.17600 -3.20300 44.80800
H  -2.52100 -4.63100 45.61900
H  0.11800 -7.06000 44.20300
H  0.77300 -6.56200 42.69800
H  -1.23600 -8.28000 42.89000
H  -1.05800 -7.20300 41.59300
H  -2.20700 -6.80200 42.89300
H  4.66800 -5.84000 43.32300
H  4.59500 -5.03600 44.81300
H  6.06700 -4.84400 43.97200
H  6.29800 -0.46100 40.51800
H  9.04600 1.94400 43.04600
H  8.02600 3.02000 41.98100
H  9.39000 2.23400 41.37700
Mg 16.41600 -1.77200 27.86900
C  15.56100 0.37900 30.40100
C  18.55500 -3.37900 30.25500
C  17.80900 -3.68400 25.34600
C  14.84200 0.20600 25.64600
N  17.00700 -1.51200 30.14400
C  16.35700 -0.67100 30.89800
C  16.79400 -0.77400 32.34000
C  17.89200 -1.87700 32.16100
C  17.83600 -2.30300 30.73500
C  19.37500 -1.58200 32.61200
C  15.45200 -1.12800 33.20100
C  15.57000 -1.06800 34.66200
H  16.82000 -0.36600 35.30000
N  17.87900 -3.41700 27.82900
C  18.58200 -3.91900 28.90600
C  19.29100 -5.11600 28.42900
C  19.04600 -5.29800 27.04600
C  18.19400 -4.12600 26.63800
C  19.93700 -6.09300 29.39400
C  19.43900 -6.28600 26.06100
O  18.92900 -6.28100 24.93300
C  20.34600 -7.46900 26.46300
N  16.54400 -1.63100 25.73700
C  17.00300 -2.66600 24.90600
C  16.86700 -2.17100 23.43200
C  15.78200 -1.01400 23.55900
C  15.69000 -0.77200 25.09600
C  18.19800 -1.78600 22.87100
C  14.42200 -1.38300 22.95500
C  13.97100 -0.50800 21.86800
N  15.36700 -0.03700 27.89800
C  14.75500 0.67900 26.94100
C  13.96000 1.70500 27.47400
C  14.25800 1.68700 28.86500
C  15.10400 0.52500 29.06500
C  13.14000 2.70500 26.72700
C  14.05400 2.36100 30.05900
O  13.47700 3.40300 30.26600
C  14.87400 1.61100 31.17300
C  15.92100 2.52800 31.75400
O  16.88200 3.00800 31.19200
O  15.48300 2.83300 32.98200
C  16.27000 3.58200 33.88600
H  19.23100 -3.83900 30.97800
H  18.21800 -4.24400 24.50200
H  14.27800 0.73200 24.87200
H  17.27700 0.11600 32.74400
H  17.64500 -2.69000 32.84400
H  19.41000 -0.82200 33.39200
H  19.82800 -1.12700 31.73100
H  19.89900 -2.48000 32.93900
H  15.35700 -2.18400 32.94800
H  14.56000 -0.60100 32.86400
H  15.46500 -2.08800 35.03100
H  14.80700 -0.42100 35.09400
H  19.79100 -7.11500 29.04500
H  19.46100 -5.97700 30.36800
H  20.98900 -5.86200 29.56100
H  20.94200 -7.68900 25.57700
H  19.77100 -8.35900 26.72100
H  21.06300 -7.15900 27.22300
H  16.52000 -3.06000 22.90400
H  16.13100 -0.14100 23.00700
H  18.34300 -0.71700 22.71500
H  18.31200 -2.18900 21.86500
H  19.05100 -2.12800 23.45700
H  13.61300 -1.50200 23.67500
H  14.62000 -2.29700 22.39600
H  14.42800 -0.87200 20.94800
H  14.25400 0.52500 22.07300
H  12.88600 -0.54400 21.76400
H  13.00600 2.38200 25.69400
H  13.73000 3.61900 26.78800
H  12.14400 2.77800 27.16400
H  14.13800 1.34300 31.93200
H  17.29200 3.57200 33.50500
H  16.16800 3.19200 34.89900
H  15.89900 4.60600 33.88800

