158

Mg 0.68700 -1.79700 43.35600
C  4.09500 -1.99400 42.65000
C  0.63200 1.09000 41.37400
C  -2.70500 -1.83500 43.45600
C  0.88600 -4.93200 44.83300
N  2.13400 -0.64500 42.12200
C  3.49000 -0.86700 42.11500
C  4.26700 0.24600 41.32300
C  3.19800 1.37700 41.08600
C  1.91100 0.60500 41.62100
C  3.46600 2.76400 41.91300
C  4.97800 -0.20600 40.05600
C  6.31000 0.43600 39.90400
H  6.49500 1.59500 38.87600
N  -0.84500 -0.60800 42.47800
C  -0.69100 0.60900 41.74800
C  -1.98200 1.15700 41.33400
C  -2.97400 0.29700 41.96200
C  -2.23000 -0.81700 42.64500
C  -2.13300 2.35700 40.39600
C  -4.48800 0.56900 42.04400
O  -4.91000 1.56200 41.51900
C  -5.58500 -0.26200 42.70500
N  -0.71800 -3.29000 43.91800
C  -2.04300 -2.94400 44.13900
C  -2.78000 -3.91100 45.01700
C  -1.60300 -4.95900 45.25400
C  -0.36000 -4.38300 44.66300
C  -3.61700 -3.35100 46.19700
C  -1.94100 -6.37000 44.62700
C  -2.52300 -7.47300 45.63600
N  2.22600 -3.17200 43.86400
C  2.13000 -4.40300 44.46100
C  3.46600 -4.90800 44.62500
C  4.28800 -4.01600 43.89300
C  3.48100 -2.99500 43.46600
C  3.81300 -6.22800 45.16400
C  5.62200 -3.78000 43.40500
O  6.67500 -4.42400 43.50800
C  5.51900 -2.46100 42.48100
C  6.54100 -1.44500 42.93400
O  6.50200 -0.66800 43.89400
O  7.58800 -1.70400 42.13800
C  8.79700 -0.83800 42.34700
H  0.58300 2.01400 40.79400
H  -3.77900 -1.86700 43.65300
H  1.00700 -5.87400 45.37300
H  4.97400 0.65600 42.04500
H  3.05900 1.71000 40.05700
H  2.62700 2.82600 42.60500
H  3.39500 3.62500 41.24700
H  4.37900 2.76000 42.50800
H  4.29600 0.07300 39.25300
H  5.03400 -1.29400 40.01500
H  7.10000 -0.27500 39.66100
H  6.62700 0.89800 40.84000
H  -3.16600 2.70700 40.41300
H  -1.96400 2.03700 39.36800
H  -1.43200 3.13500 40.69800
H  -6.59900 0.02200 42.42300
H  -5.48200 -0.34800 43.78600
H  -5.36400 -1.26000 42.32500
H  -3.53800 -4.32400 44.35300
H  -1.47000 -5.06100 46.33100
H  -3.41500 -3.90700 47.11300
H  -4.69600 -3.31300 46.04700
H  -3.38900 -2.32000 46.46900
H  -1.02600 -6.85500 44.28600
H  -2.69900 -6.17600 43.86800
H  -3.56900 -7.56300 45.34300
H  -2.22200 -7.18700 46.64300
H  -2.05200 -8.45500 45.59000
H  3.48000 -6.23600 46.20200
H  4.87600 -6.42100 45.02000
H  3.15700 -6.96600 44.70200
H  5.85300 -2.78900 41.49700
H  9.24900 -1.07000 43.31100
H  8.47600 0.20300 42.35400
H  9.51400 -1.05600 41.55600
Mg -12.06200 15.74600 42.47800
C  -8.55600 16.57300 42.78300
C  -12.52600 19.23100 41.95300
C  -15.07400 15.04200 41.70100
C  -11.08700 12.32200 42.96600
N  -10.58500 17.62600 42.19600
C  -9.25400 17.67900 42.36100
C  -8.73800 19.11900 42.22400
C  -10.04200 19.96100 42.54100
C  -11.16000 18.87900 42.15100
C  -10.05400 20.38900 44.02500
C  -8.07900 19.45800 40.83400
C  -6.56400 19.84900 40.85800
H  -5.78300 18.85700 39.97900
N  -13.60700 16.96900 41.92500
C  -13.61000 18.36000 41.81500
C  -14.92600 18.73900 41.46700
C  -15.74300 17.57000 41.48000
C  -14.83400 16.44700 41.74600
C  -15.25800 20.14100 41.02500
C  -17.22400 17.52600 41.22300
O  -17.85400 18.48800 40.84200
C  -18.06700 16.26900 41.36400
N  -12.86100 13.96400 42.33600
C  -14.21800 13.94000 42.13100
C  -14.69700 12.44700 41.97300
C  -13.41200 11.62100 42.26900
C  -12.38100 12.70300 42.55400
C  -15.98300 12.08600 42.87500
C  -13.03600 10.61100 41.10100
C  -12.87900 9.08100 41.48700
N  -10.18600 14.66500 42.73500
C  -10.01700 13.26000 43.02300
C  -8.63900 12.99000 43.08100
C  -8.03600 14.26300 43.04200
C  -9.00900 15.23800 42.91200
C  -7.94800 11.68100 43.14400
C  -6.73900 14.93500 43.14100
O  -5.59600 14.48500 43.28700
C  -7.05700 16.47600 42.96400
C  -6.71900 17.15500 44.19800
O  -7.22500 16.96700 45.26700
O  -5.64800 17.99900 43.98500
C  -5.06800 18.59400 45.17200
H  -12.72000 20.30500 41.98600
H  -16.10500 14.70500 41.57400
H  -10.75700 11.28600 43.06500
H  -7.99400 19.37600 42.97800
H  -10.04500 20.86600 41.93300
H  -9.49000 19.66300 44.61000
H  -11.08600 20.31100 44.36700
H  -9.72000 21.42000 44.13800
H  -8.60100 20.29800 40.37600
H  -8.16000 18.51500 40.29300
H  -6.17700 19.72000 41.86900
H  -6.38000 20.84100 40.44700
H  -15.39100 20.20500 39.94500
H  -14.59100 20.95400 41.31300
H  -16.22700 20.39800 41.45300
H  -19.11300 16.57500 41.38600
H  -17.79200 15.83500 42.32500
H  -17.92300 15.62400 40.49700
H  -15.09300 12.34400 40.96300
H  -13.38600 11.10900 43.23100
H  -16.84400 11.79600 42.27300
H  -16.28900 12.91200 43.51700
H  -15.82900 11.28800 43.60200
H  -12.13000 10.83500 40.53700
H  -13.86400 10.56700 40.39300
H  -13.38500 8.46100 40.74700
H  -13.38600 8.91000 42.43600
H  -11.87900 8.74200 41.75900
H  -7.27300 11.34700 42.35700
H  -8.64100 10.85300 43.28900
H  -7.37900 11.65600 44.07400
H  -6.44500 16.84800 42.14200
H  -5.06800 17.80900 45.92800
H  -5.66400 19.46000 45.46000
H  -4.04200 18.90400 44.97800

