158

Mg 8.08500 3.00700 27.77400
C  9.51900 1.66300 30.61700
C  6.63300 5.48600 29.78200
C  6.70900 4.21300 24.95900
C  9.46100 0.26000 25.93100
N  8.00500 3.49500 29.88400
C  8.72900 2.78600 30.87600
C  8.46500 3.41500 32.24300
C  7.52900 4.63600 32.00500
C  7.39400 4.57300 30.42200
C  6.22300 4.82700 32.85900
C  9.74300 3.84700 33.07300
C  9.56800 4.72000 34.31900
H  10.49700 4.41700 35.47700
N  6.90300 4.68300 27.44400
C  6.42400 5.55900 28.35200
C  5.55900 6.50200 27.62600
C  5.46100 6.09900 26.28100
C  6.40400 4.97600 26.13200
C  4.90400 7.69500 28.27900
C  4.64000 6.75900 25.14100
O  4.77400 6.39100 23.98500
C  3.61700 7.82500 25.38000
N  7.94600 2.31900 25.80700
C  7.37800 3.03300 24.77700
C  7.56200 2.35900 23.42200
C  8.35500 1.09000 23.73500
C  8.65200 1.22700 25.20600
C  6.28800 2.04300 22.65200
C  9.67900 1.00600 22.96600
C  9.39500 0.89900 21.44300
N  9.20900 1.32400 28.12900
C  9.70700 0.34900 27.30800
C  10.71600 -0.40500 28.03300
C  10.61700 0.03100 29.35900
C  9.67700 1.08400 29.37600
C  11.52200 -1.51600 27.42800
C  11.10100 -0.22500 30.68600
O  11.92600 -0.96400 31.19900
C  10.41200 0.88300 31.53900
C  9.72700 0.10200 32.56200
O  8.97700 -0.82500 32.29800
O  9.99300 0.61100 33.82100
C  9.39000 -0.09500 34.94900
H  6.25600 6.34200 30.34500
H  6.39300 4.56400 23.97400
H  9.91900 -0.59000 25.42100
H  8.00000 2.63300 32.84300
H  8.27400 5.42500 32.09700
H  6.45000 5.51900 33.66900
H  5.92000 3.89700 33.33900
H  5.39800 5.10000 32.20100
H  10.35200 4.48500 32.43200
H  10.34900 2.98300 33.34800
H  8.55600 4.62700 34.71300
H  9.64600 5.79300 34.14400
H  4.93600 8.62900 27.71700
H  5.36200 7.89200 29.24900
H  3.86500 7.37800 28.37000
H  4.25700 8.70500 25.44800
H  3.05300 7.72300 26.30700
H  2.87000 7.80800 24.58600
H  8.26500 2.97100 22.85600
H  7.73600 0.19500 23.68100
H  6.17200 0.99300 22.38200
H  6.37900 2.72300 21.80500
H  5.46200 2.24600 23.33400
H  10.12000 0.07100 23.31000
H  10.35100 1.82200 23.23200
H  9.74100 1.76500 20.87900
H  8.34200 0.69100 21.25300
H  9.98800 0.13900 20.93400
H  12.53500 -1.51900 27.83100
H  11.52500 -1.58900 26.34000
H  11.11200 -2.47500 27.74500
H  11.18900 1.52000 31.96100
H  8.95000 0.70800 35.54000
H  10.09400 -0.68000 35.54200
H  8.44900 -0.62400 34.79300
Mg 16.43700 51.46100 25.15200
C  18.08100 50.54500 28.03400
C  13.76600 52.49000 27.06500
C  14.63400 51.75300 22.35300
C  19.04900 49.76900 23.32500
N  16.01300 51.50300 27.35400
C  16.87200 51.14200 28.33900
C  16.26000 51.61200 29.72000
C  14.77700 52.02200 29.36300
C  14.81000 51.98800 27.83700
C  13.61600 51.29100 30.11200
C  17.30200 52.61700 30.40900
C  17.80300 52.33500 31.84600
H  16.94300 51.60300 32.81200
N  14.50400 52.14600 24.80200
C  13.58200 52.53600 25.69800
C  12.32700 53.01700 25.06600
C  12.55700 52.71000 23.66100
C  13.94200 52.12200 23.52000
C  11.06200 53.63000 25.63500
C  11.65300 52.92500 22.48000
O  11.96400 52.71100 21.31800
C  10.22700 53.41600 22.63000
N  16.82000 50.92600 23.10100
C  15.91300 51.17200 22.11600
C  16.44700 50.78700 20.62000
C  17.92800 50.39000 21.02900
C  17.91000 50.31900 22.57300
C  15.62700 49.66600 19.92200
C  19.08500 51.21400 20.45700
C  19.35000 52.65700 20.97100
N  18.27400 50.41700 25.49500
C  19.22300 49.77800 24.69300
C  20.19400 49.18300 25.57300
C  19.85400 49.54700 26.86100
C  18.64400 50.23600 26.77800
C  21.28800 48.23000 25.08100
C  20.18100 49.37700 28.25900
O  21.11100 48.80400 28.77800
C  19.05400 50.01900 29.03300
C  18.48500 48.86700 29.89300
O  17.67700 48.03600 29.49200
O  19.13600 48.86900 31.10300
C  18.64800 47.85500 32.00800
H  12.90500 52.73700 27.68900
H  14.15100 51.83300 21.37600
H  19.97700 49.32100 22.96200
H  16.20300 50.71700 30.33900
H  14.52800 53.07300 29.51100
H  13.98600 50.77300 30.99700
H  12.99200 50.61000 29.53500
H  12.94600 52.04900 30.51900
H  16.74700 53.55100 30.31200
H  18.14400 52.83500 29.75200
H  18.18300 53.20400 32.38300
H  18.71000 51.75200 31.69100
H  11.26600 53.79300 26.69300
H  10.19900 52.97900 25.50000
H  10.79100 54.65800 25.39400
H  10.40400 54.45000 22.92700
H  9.73100 52.68000 23.26300
H  9.73100 53.32700 21.66400
H  16.37300 51.60900 19.90800
H  18.17100 49.36600 20.74600
H  15.11000 50.17000 19.10500
H  14.82600 49.31200 20.57100
H  16.25400 48.80300 19.69300
H  18.89900 51.19500 19.38300
H  19.88900 50.52000 20.70000
H  20.28500 52.64000 21.53200
H  18.44400 52.98700 21.48000
H  19.44000 53.35100 20.13500
H  21.12700 47.79300 24.09500
H  21.26900 47.41500 25.80300
H  22.20100 48.81900 25.16500
H  19.47600 50.74300 29.73000
H  17.64000 47.45400 31.90500
H  18.63700 48.32100 32.99400
H  19.36300 47.03200 32.03400

