158

Mg 55.30000 23.26900 43.92500
C  52.63800 25.30700 42.72300
C  53.26700 20.49800 43.12700
C  58.02000 21.23900 44.22000
C  57.18600 25.98900 44.62700
N  53.26100 22.95400 42.88400
C  52.39400 23.93100 42.48100
C  51.10300 23.41100 41.95200
C  51.19200 21.95100 42.42500
C  52.64000 21.72700 42.90000
C  50.27100 21.73100 43.65400
C  50.87800 23.53400 40.40600
C  49.50200 24.13600 39.97300
H  48.86500 23.68800 38.63000
N  55.60200 21.14100 43.76000
C  54.60400 20.19200 43.48300
C  55.23800 18.88400 43.51200
C  56.66900 19.06600 43.79700
C  56.81700 20.50300 43.99300
C  54.59600 17.50600 43.20000
C  57.63100 17.93100 43.92600
O  57.34200 16.79100 43.83200
C  59.01200 18.17800 44.40300
N  57.30000 23.56900 44.38300
C  58.18200 22.56400 44.53200
C  59.58900 23.06300 44.82200
C  59.34300 24.58300 44.99300
C  57.86000 24.74000 44.74700
C  60.37100 22.48700 46.04700
C  60.17400 25.33900 44.01000
C  61.35500 26.15200 44.67800
N  55.01600 25.32000 43.68300
C  55.90000 26.29200 44.05700
C  55.23300 27.54100 43.91100
C  53.88200 27.24100 43.48700
C  53.86700 25.86000 43.20600
C  55.86700 28.88400 44.33000
C  52.49000 27.74000 43.18800
O  51.98300 28.83800 43.39100
C  51.72700 26.58300 42.58200
C  51.54300 27.01400 41.17800
O  52.19200 26.68100 40.23400
O  50.41900 27.74300 41.12100
C  49.89100 28.29800 39.88400
H  52.64900 19.60800 42.98900
H  59.00000 20.75600 44.21000
H  57.85100 26.84300 44.77800
H  50.32700 24.01000 42.42800
H  50.89000 21.27400 41.62600
H  50.51500 20.75600 44.07500
H  49.22300 21.82700 43.37200
H  50.48000 22.50400 44.39400
H  50.99900 22.57000 39.91200
H  51.61800 24.16500 39.91500
H  49.69800 25.19300 39.79600
H  48.72100 23.95600 40.71300
H  54.89700 17.24500 42.18600
H  53.52800 17.65500 43.03800
H  54.78400 16.73600 43.94900
H  59.72700 18.51500 43.65100
H  59.39200 17.25800 44.84600
H  58.88900 18.83200 45.26700
H  60.14700 22.77600 43.93100
H  59.57500 25.01400 45.96700
H  61.16200 21.91000 45.57000
H  59.79200 21.87500 46.73900
H  60.78100 23.33500 46.59500
H  59.71700 26.02500 43.29700
H  60.69400 24.79000 43.22500
H  61.23100 26.19300 45.76000
H  61.46600 27.07500 44.10800
H  62.27500 25.57900 44.56200
H  56.87000 28.76400 44.73900
H  55.38800 29.24300 45.24100
H  55.80400 29.61500 43.52300
H  50.70800 26.43100 42.93800
H  50.70000 28.83500 39.38800
H  49.10300 28.99700 40.16400
H  49.58300 27.42300 39.31200
Mg 39.99700 40.74400 26.79300
C  39.59100 43.03500 29.27300
C  41.18500 38.45100 29.22800
C  40.70700 38.55600 24.29900
C  39.09600 43.10100 24.37800
N  40.26300 40.73200 28.96900
C  39.73700 41.70800 29.78100
C  39.68200 41.19800 31.17700
C  40.44100 39.85100 31.14900
C  40.67300 39.66100 29.66200
C  41.83200 39.71100 31.83200
C  38.29100 41.19400 32.05100
C  38.49200 42.05500 33.37700
H  37.82800 41.48900 34.60900
N  40.76900 38.86000 26.81400
C  41.24500 38.09900 27.85500
C  41.72600 36.79300 27.47500
C  41.55100 36.80400 26.06000
C  40.90800 38.10400 25.67200
C  42.35600 35.72100 28.45400
C  41.73200 35.61900 25.05800
O  41.30600 35.70300 23.88700
C  42.36200 34.41400 25.46500
N  39.95000 40.77400 24.64200
C  40.19700 39.74300 23.83700
C  40.05100 40.07300 22.31800
C  39.26800 41.44300 22.49000
C  39.40400 41.83700 23.94800
C  41.47300 40.18200 21.49500
C  37.81600 41.31800 21.95500
C  36.83900 40.67800 22.94500
N  39.49900 42.66500 26.72800
C  39.21500 43.57100 25.68500
C  39.05100 44.91900 26.23400
C  39.23200 44.75200 27.62100
C  39.42100 43.33900 27.88200
C  38.81900 46.19200 25.49100
C  39.15800 45.45300 28.82300
O  38.88200 46.63100 29.04600
C  39.35700 44.31700 30.02400
C  40.55000 44.87000 30.86000
O  41.73000 44.82500 30.53600
O  40.08300 45.13000 32.05100
C  40.88700 45.68200 33.09500
H  41.49500 37.72000 29.97800
H  41.14000 37.92300 23.52100
H  38.76300 43.86000 23.66700
H  40.34900 41.92500 31.64100
H  39.74200 39.06800 31.44200
H  41.86400 40.42800 32.65100
H  42.69300 39.88800 31.18800
H  41.97500 38.74600 32.31900
H  37.96700 40.17400 32.25900
H  37.54700 41.61400 31.37400
H  38.05900 43.02200 33.12000
H  39.56900 42.08400 33.54600
H  41.88300 34.75500 28.28000
H  42.12900 35.90400 29.50500
H  43.42800 35.64700 28.27000
H  42.61300 33.72200 24.66100
H  41.65400 33.76500 25.98100
H  43.26700 34.52600 26.06100
H  39.51100 39.24100 21.86600
H  39.75700 42.26600 21.96900
H  41.60400 41.23500 21.24400
H  41.40000 39.69000 20.52500
H  42.39200 39.92100 22.01800
H  37.79000 40.73900 21.03200
H  37.51800 42.29400 21.57200
H  37.15900 40.37600 23.94200
H  36.39000 39.79200 22.49700
H  36.02300 41.39000 23.06900
H  37.73900 46.25300 25.35700
H  39.33100 46.20700 24.52900
H  39.12300 47.01600 26.13600
H  38.45100 44.11400 30.59400
H  41.91000 45.84700 32.75700
H  40.87700 44.79500 33.72700
H  40.38400 46.56300 33.49200

