158

Mg 24.63600 -5.53200 46.12200
C  26.71700 -3.18300 44.37700
C  22.03400 -4.36800 44.36100
C  23.12500 -8.44000 46.80300
C  27.63700 -6.69200 47.68000
N  24.44300 -3.97900 44.62400
C  25.39800 -3.23500 43.91600
C  24.82900 -2.38300 42.83500
C  23.29400 -2.50500 43.01100
C  23.26400 -3.69900 44.09100
C  22.61800 -1.16100 43.57500
C  25.48900 -2.74300 41.45900
C  25.88000 -1.63200 40.49500
H  25.38000 -1.74400 39.03300
N  22.74200 -6.22100 45.83600
C  21.80800 -5.54600 45.12700
C  20.57300 -6.29900 45.12200
C  20.95000 -7.59600 45.66000
C  22.29900 -7.46900 46.21100
C  19.31100 -5.85500 44.43000
C  19.97800 -8.82200 45.66900
O  18.75000 -8.80500 45.37000
C  20.44000 -10.14500 46.15300
N  25.31200 -7.24800 47.13800
C  24.47300 -8.36100 47.18500
C  25.24700 -9.49000 47.84300
C  26.63600 -8.91300 48.31400
C  26.53000 -7.52600 47.69500
C  24.43300 -10.26300 49.00000
C  27.91400 -9.71500 47.93100
C  28.85400 -9.85200 49.14800
N  26.77900 -5.10300 46.07100
C  27.82200 -5.50000 46.90500
C  28.97900 -4.67800 46.73800
C  28.63500 -3.77800 45.68900
C  27.29100 -4.11900 45.31900
C  30.38200 -4.88500 47.33500
C  29.14300 -2.66600 44.91800
O  30.16700 -2.07100 44.91800
C  27.90700 -2.29500 43.95600
C  27.63200 -0.84800 44.16700
O  27.01800 -0.33000 45.07300
O  28.14600 -0.13600 43.16700
C  28.32800 1.27900 43.50700
H  21.18100 -4.14000 43.71900
H  22.81000 -9.47500 46.95100
H  28.47900 -6.94300 48.32900
H  24.95000 -1.30000 42.85600
H  22.73100 -2.78000 42.11900
H  23.16300 -0.24700 43.34100
H  22.46300 -1.16800 44.65400
H  21.67100 -0.92900 43.08800
H  24.79200 -3.41900 40.96400
H  26.34900 -3.37600 41.67900
H  26.96000 -1.54700 40.37900
H  25.69700 -0.63400 40.89500
H  18.36200 -6.38900 44.39300
H  19.50000 -5.78000 43.35900
H  19.07100 -4.84300 44.75900
H  19.64500 -10.88800 46.08400
H  20.74100 -10.00600 47.19100
H  21.25400 -10.37400 45.46500
H  25.53600 -10.25400 47.12100
H  26.58900 -8.75900 49.39200
H  24.17900 -11.28900 48.73600
H  23.49100 -9.72400 49.10600
H  25.01600 -10.14200 49.91400
H  28.46600 -9.26400 47.10700
H  27.83500 -10.77400 47.68600
H  29.72200 -9.21800 48.96900
H  29.16000 -10.89700 49.21600
H  28.42900 -9.52700 50.09800
H  30.86100 -5.85400 47.19400
H  30.18400 -4.70300 48.39100
H  30.95200 -4.14100 46.77700
H  28.28600 -2.39600 42.93900
H  29.33200 1.60400 43.23400
H  28.35800 1.49000 44.57700
H  27.55200 1.90800 43.07000
Mg 27.13600 50.28300 25.95200
C  25.20900 51.33300 28.84400
C  29.58600 49.23900 28.19700
C  29.16400 49.90100 23.36200
C  24.75200 51.95200 24.00100
N  27.30100 50.26400 28.29800
C  26.38900 50.71200 29.25200
C  26.88000 50.41300 30.68400
C  28.26500 49.79500 30.45200
C  28.41500 49.66700 28.91000
C  29.43500 50.61100 31.05900
C  25.92900 49.56200 31.50600
C  25.61500 50.11100 32.89100
H  26.66600 49.93400 33.98100
N  28.97300 49.48200 25.77600
C  29.82400 49.16600 26.84400
C  31.08100 48.74700 26.24900
C  30.99700 48.91200 24.81100
C  29.69200 49.43700 24.57900
C  32.20700 48.25700 27.11800
C  32.02700 48.57600 23.80000
O  31.74400 48.64800 22.56800
C  33.47100 48.12900 24.14700
N  27.02000 50.95400 24.03400
C  27.90600 50.46800 23.11500
C  27.38600 50.58700 21.69600
C  25.87800 51.03100 21.92000
C  25.85200 51.35000 23.40200
C  28.17100 51.58000 20.77900
C  24.74100 50.07900 21.46700
C  23.60000 50.76400 20.66400
N  25.28200 51.37000 26.30300
C  24.46000 52.04100 25.43000
C  23.30100 52.57800 26.09600
C  23.58400 52.29000 27.42300
C  24.78500 51.60300 27.49300
C  22.17900 53.20000 25.54200
C  23.02500 52.37700 28.82200
O  21.94600 52.83700 29.14600
C  24.08400 51.79500 29.85200
C  24.51900 52.82800 30.88200
O  25.44800 53.57600 30.81000
O  23.56100 52.84400 31.85900
C  23.76200 53.71200 33.07900
H  30.24300 48.77700 28.93700
H  29.80900 49.77000 22.49100
H  23.99300 52.37800 23.34200
H  27.04400 51.31200 31.27800
H  28.39400 48.82200 30.92700
H  29.14000 51.60300 31.40100
H  30.15600 50.69400 30.24500
H  29.88900 50.03600 31.86700
H  26.38100 48.57700 31.62600
H  24.96600 49.42300 31.01500
H  24.67900 49.63000 33.17600
H  25.25200 51.13600 32.82800
H  32.94700 49.04100 27.28100
H  32.64700 47.41000 26.59000
H  31.89400 48.01200 28.13300
H  33.91300 47.72800 23.23500
H  33.43100 47.17600 24.67400
H  33.92100 48.96600 24.68100
H  27.53700 49.69000 21.09600
H  25.83300 51.93500 21.31300
H  28.78800 52.22900 21.40100
H  27.60500 52.26600 20.15000
H  28.81700 50.95200 20.16600
H  24.33300 49.59100 22.35200
H  25.23300 49.30600 20.87600
H  22.64500 50.48300 21.10900
H  23.67200 50.35200 19.65700
H  23.72000 51.84700 20.67500
H  22.47800 54.06400 24.94900
H  21.44200 53.54300 26.26800
H  21.62400 52.50800 24.90800
H  23.66900 50.97100 30.43300
H  24.23200 54.62200 32.70500
H  24.55000 53.23500 33.66200
H  22.85300 53.83400 33.66800

