158

Mg 8.11600 4.22400 27.31900
C  9.52200 2.36600 29.94800
C  6.44500 6.14600 29.51100
C  6.60500 5.43000 24.59900
C  9.82700 1.78500 25.15200
N  7.94800 4.19600 29.49800
C  8.69900 3.43300 30.36200
C  8.46700 3.99900 31.81800
C  7.39900 5.16500 31.65600
C  7.25000 5.18700 30.12300
C  5.97600 5.08300 32.38300
C  9.85200 4.50500 32.38000
C  10.10300 4.01200 33.81200
H  10.65800 5.10900 34.83500
N  6.72100 5.64000 27.11200
C  6.11200 6.36000 28.13800
C  5.43600 7.48700 27.54900
C  5.43900 7.20300 26.14300
C  6.26900 6.02200 25.87100
C  4.51400 8.40500 28.39100
C  4.73400 7.98200 25.08900
O  4.70900 7.69500 23.90000
C  4.07800 9.30800 25.38000
N  8.09700 3.59000 25.19200
C  7.40500 4.32400 24.28000
C  7.73800 3.88400 22.82500
C  8.89100 2.86400 23.00700
C  8.94000 2.73400 24.53800
C  6.54600 3.40800 21.95700
C  10.24400 3.25900 22.37000
C  11.05600 2.21600 21.66900
N  9.47800 2.48700 27.49400
C  10.00300 1.60000 26.56600
C  10.94100 0.68000 27.28700
C  10.76600 0.97300 28.66100
C  9.87700 1.98200 28.64000
C  11.60400 -0.44900 26.60800
C  11.17600 0.63000 30.02300
O  12.11600 -0.04500 30.41200
C  10.32800 1.55600 30.88200
C  9.55100 0.75800 31.90900
O  8.57000 0.01400 31.70800
O  9.95200 1.09700 33.17400
C  9.06000 0.59500 34.24100
H  6.13100 6.90800 30.22700
H  6.09700 5.74900 23.68700
H  10.56600 1.20500 24.59400
H  7.98600 3.20400 32.38800
H  7.71800 6.16000 31.96600
H  5.17900 5.30900 31.67500
H  6.02600 5.92000 33.07900
H  5.93400 4.18200 32.99500
H  9.83300 5.59300 32.45700
H  10.67800 4.28600 31.70300
H  10.87700 3.24700 33.75400
H  9.19300 3.56400 34.21000
H  3.56500 8.51600 27.86700
H  4.87600 9.43300 28.42900
H  4.36300 7.95700 29.37300
H  4.16000 9.95300 24.50500
H  4.65200 9.77200 26.18200
H  3.02000 9.06900 25.48800
H  8.09500 4.72900 22.23600
H  8.60900 1.86600 22.66900
H  5.65000 3.18400 22.53500
H  6.86000 2.53900 21.37900
H  6.24000 4.19100 21.26300
H  10.86400 3.43200 23.25000
H  10.22700 4.23800 21.89100
H  11.28800 2.60300 20.67700
H  10.59400 1.24200 21.50400
H  11.99900 2.12800 22.20900
H  12.33200 0.04900 25.96700
H  10.93800 -1.18700 26.16100
H  12.19100 -0.97900 27.35800
H  11.04500 2.18500 31.41000
H  8.01900 0.76400 33.96300
H  9.23500 1.01000 35.23400
H  9.20100 -0.48300 34.31600
Mg 40.85200 8.85600 29.93500
C  42.72700 9.99600 32.72200
C  38.67300 7.38900 31.89200
C  39.30000 7.59300 27.13000
C  43.67500 9.59600 28.00000
N  40.86800 8.61500 32.10200
C  41.66800 9.16600 33.07300
C  41.04000 8.88300 34.46100
C  39.83900 7.85400 34.13200
C  39.73600 7.90500 32.58600
C  39.98000 6.50900 34.81100
C  40.77200 10.17400 35.35400
C  41.22400 10.02500 36.80200
H  41.45600 11.35200 37.56800
N  39.18500 7.74800 29.62500
C  38.35400 7.25200 30.55000
C  37.19700 6.71300 29.97500
C  37.27900 6.91100 28.55600
C  38.66000 7.38100 28.40500
C  36.05200 6.08600 30.77100
C  36.35400 6.68500 27.43800
O  36.59500 6.73400 26.23800
C  35.06000 6.09700 27.79300
N  41.42600 8.69400 27.89000
C  40.53400 8.12200 26.91900
C  41.20100 8.13700 25.49800
C  42.63200 8.82700 25.87900
C  42.59700 9.02900 27.35000
C  41.35500 6.76500 24.68100
C  42.87400 10.16500 25.05800
C  41.97400 11.37200 25.41300
N  42.70100 9.74800 30.21500
C  43.67500 10.06700 29.27800
C  44.79900 10.74400 29.90000
C  44.36100 10.84200 31.22200
C  43.16400 10.14300 31.37500
C  46.18700 11.11400 29.35600
C  44.78000 11.34400 32.55600
O  45.72400 12.01500 32.81000
C  43.60800 10.91000 33.60800
C  44.31900 10.14800 34.70600
O  44.73000 9.00200 34.63300
O  44.57200 10.95400 35.78400
C  45.48200 10.41000 36.86100
H  37.96200 6.89400 32.55700
H  38.85500 7.21800 26.20500
H  44.52900 10.01600 27.46400
H  41.75300 8.31600 35.05900
H  38.93600 8.16600 34.65800
H  40.45700 5.71500 34.23700
H  39.06700 6.09500 35.23800
H  40.68000 6.47900 35.64600
H  39.69300 10.32800 35.33500
H  41.18600 11.10400 34.96500
H  42.25000 9.67100 36.70100
H  40.64200 9.27400 37.33600
H  35.95600 5.01900 30.57200
H  35.10700 6.62900 30.77400
H  36.39100 6.07600 31.80700
H  35.04600 5.04200 28.06400
H  34.45800 6.37200 26.92700
H  34.68000 6.71400 28.60700
H  40.54500 8.87900 25.04200
H  43.42000 8.07600 25.81400
H  42.26000 6.72500 24.07400
H  40.57100 6.74500 23.92400
H  41.30200 5.88000 25.31500
H  42.67300 9.93900 24.01100
H  43.93000 10.43200 25.10500
H  41.52100 11.25700 26.39700
H  41.23200 11.57200 24.64000
H  42.70600 12.16600 25.55900
H  46.56900 10.21300 28.87600
H  46.97100 11.44900 30.03500
H  45.86300 11.80700 28.58000
H  43.10100 11.77900 34.03000
H  46.33900 9.84200 36.49800
H  44.90900 9.75400 37.51600
H  45.88000 11.26500 37.40700

