158

Mg 35.27900 3.71800 29.57200
C  32.85700 4.39800 31.96000
C  37.75100 3.68900 31.95400
C  37.49800 2.96900 27.13000
C  32.66100 3.85000 27.20900
N  35.31800 3.98500 31.76000
C  34.18600 4.25300 32.52200
C  34.66900 4.32800 33.93800
C  36.22200 4.46900 33.88700
C  36.51400 3.99800 32.46300
C  36.67200 5.94100 34.02200
C  34.09700 3.13500 34.75600
C  34.07100 3.15700 36.29100
H  34.69000 4.32700 36.97600
N  37.31000 3.39500 29.57000
C  38.11700 3.34000 30.59300
C  39.42500 2.84600 30.27300
C  39.46400 2.65000 28.89300
C  38.07200 3.01600 28.44000
C  40.48800 2.55600 31.33700
C  40.61900 2.12200 27.96300
O  40.48000 2.13600 26.76900
C  41.83500 1.53100 28.57600
N  35.08800 3.69500 27.51600
C  36.15100 3.28100 26.68400
C  35.62500 2.99400 25.23300
C  34.06800 3.25400 25.31600
C  33.90400 3.59000 26.81400
C  36.39600 3.75700 24.14600
C  33.14200 2.14500 24.65000
C  32.81200 1.01000 25.55100
N  33.21700 4.10700 29.52300
C  32.30000 4.21600 28.46600
C  30.98200 4.47400 28.93400
C  31.21200 4.63800 30.34700
C  32.56900 4.40300 30.63800
C  29.71900 4.57200 28.11800
C  30.51700 4.88200 31.61800
O  29.28600 4.89500 31.78300
C  31.59700 4.83000 32.67000
C  31.71100 6.18000 33.22900
O  32.51200 6.99600 32.91600
O  30.76200 6.30900 34.22700
C  30.82300 7.52500 35.04100
H  38.52600 3.66600 32.72400
H  38.26900 2.70200 26.40400
H  31.85900 3.86700 26.46800
H  34.18900 5.23600 34.30300
H  36.71400 3.82100 34.61200
H  35.79100 6.57900 33.94100
H  37.42900 6.13600 33.26300
H  37.18100 6.08400 34.97500
H  34.74000 2.30100 34.47400
H  33.09200 2.91000 34.39700
H  34.47300 2.20500 36.63500
H  33.00200 3.16300 36.50700
H  40.86500 1.54700 31.16700
H  40.01400 2.52900 32.31800
H  41.26300 3.32200 31.35100
H  42.20200 2.30300 29.25200
H  42.52700 1.32500 27.75900
H  41.63300 0.66700 29.20900
H  35.64700 1.92100 25.03900
H  33.76100 4.15100 24.77800
H  36.55200 3.14700 23.25600
H  37.33500 4.05400 24.61400
H  35.86100 4.65800 23.84800
H  33.76000 1.64700 23.90300
H  32.36100 2.56900 24.01900
H  32.51500 1.27300 26.56600
H  33.73500 0.45500 25.71900
H  32.07700 0.33600 25.11200
H  28.89300 4.26100 28.75800
H  29.76100 3.86700 27.28800
H  29.66600 5.58400 27.71900
H  31.34200 4.13000 33.46500
H  31.78600 7.97800 35.28000
H  30.51800 7.15900 36.02100
H  30.22000 8.36900 34.70700
Mg 27.42000 50.22100 26.93300
C  25.17100 51.12600 29.43400
C  29.77700 49.37800 29.39600
C  29.51400 49.20600 24.42300
C  25.10000 51.17200 24.51400
N  27.42400 50.24100 29.16300
C  26.34800 50.56400 29.97500
C  26.69200 50.44700 31.41100
C  28.24100 50.07400 31.41100
C  28.54400 49.85200 29.90700
C  29.10600 51.12800 32.09900
C  25.73200 49.38600 32.16400
C  24.87200 49.81700 33.38700
H  24.92300 48.83600 34.54200
N  29.35600 49.47000 26.93700
C  30.19100 49.21200 28.04100
C  31.42900 48.64600 27.58000
C  31.36500 48.62500 26.11800
C  30.04300 49.13600 25.76400
C  32.47800 48.14900 28.49100
C  32.44800 48.27000 25.14500
O  32.32000 48.27700 23.89600
C  33.75900 47.82300 25.76700
N  27.38000 50.34700 24.79500
C  28.22000 49.63700 23.99200
C  27.81000 49.57300 22.56900
C  26.42500 50.18200 22.64400
C  26.27500 50.64800 24.08400
C  28.82800 50.13200 21.49400
C  25.25500 49.17100 22.20000
C  24.05100 49.82500 21.49800
N  25.53700 51.14700 26.91700
C  24.67700 51.33800 25.91500
C  23.44600 51.93800 26.39600
C  23.54100 51.79300 27.83100
C  24.87700 51.38400 28.04000
C  22.35500 52.50900 25.54900
C  22.80500 52.02900 29.09300
O  21.69100 52.50200 29.26800
C  23.84600 51.57300 30.16900
C  23.97800 52.72100 31.05300
O  24.41300 53.80500 30.76100
O  23.28500 52.42300 32.15900
C  23.15200 53.40400 33.19000
H  30.62000 49.28400 30.08500
H  30.15000 48.82900 23.61900
H  24.29300 51.23100 23.78200
H  26.46300 51.40100 31.88500
H  28.31400 49.23400 32.10300
H  29.60900 51.67000 31.29900
H  29.81900 50.69900 32.80300
H  28.49600 51.89500 32.57500
H  26.14200 48.41700 32.45100
H  25.05300 49.02000 31.39300
H  23.82200 49.91700 33.11300
H  25.14500 50.84700 33.61700
H  32.91900 47.19300 28.20800
H  32.12700 48.15800 29.52300
H  33.23700 48.93000 28.44800
H  33.77900 46.81300 26.17800
H  34.13600 48.61100 26.41900
H  34.36900 47.76600 24.86600
H  27.75000 48.52800 22.26700
H  26.40300 51.11300 22.07800
H  29.47600 50.59800 22.23700
H  28.37000 50.89600 20.86600
H  29.44600 49.50900 20.84800
H  25.02800 48.68900 23.15100
H  25.67200 48.36700 21.59400
H  23.91700 49.39600 20.50400
H  24.09700 50.88600 21.25400
H  23.12100 49.55900 22.00100
H  21.61500 51.70900 25.52900
H  22.69400 52.72400 24.53600
H  21.95600 53.33600 26.13500
H  23.58900 50.66100 30.70700
H  22.11900 53.48300 33.52700
H  23.38700 54.41500 32.85800
H  23.72800 53.14200 34.07700

