158

Mg 47.13600 16.43800 28.75000
C  45.23500 16.29000 31.71700
C  49.24900 18.46900 30.27900
C  48.54700 17.01000 25.65800
C  44.34800 15.20800 26.99500
N  47.21000 17.28800 30.79100
C  46.44500 16.95600 31.92800
C  47.05700 17.58300 33.09800
C  48.19400 18.50300 32.59500
C  48.25000 18.03400 31.12700
C  48.17100 20.07900 32.83000
C  47.44700 16.53700 34.20500
C  47.16000 16.92400 35.68500
H  47.21300 18.47000 36.20200
N  48.76700 17.38500 28.09000
C  49.55500 18.16600 28.92400
C  50.71200 18.64900 28.18900
C  50.60000 18.06900 26.87100
C  49.25900 17.41400 26.79100
C  51.79100 19.49900 28.74500
C  51.67800 18.07300 25.71100
O  51.48100 17.60500 24.62400
C  52.97500 18.84800 25.90200
N  46.58900 16.08000 26.58700
C  47.34600 16.43000 25.55300
C  46.55800 16.24900 24.25200
C  45.28500 15.43700 24.66300
C  45.43400 15.61500 26.17100
C  46.31300 17.72300 23.68100
C  45.27600 13.85900 24.22500
C  44.30500 13.53800 23.07900
N  45.26100 15.71700 29.15500
C  44.30200 15.18600 28.41500
C  43.17300 14.73000 29.28600
C  43.53700 15.24300 30.52300
C  44.76800 15.80400 30.48900
C  41.84100 14.05600 28.79800
C  43.02900 15.31200 31.83800
O  41.96900 14.96800 32.29700
C  44.16900 15.87300 32.68500
C  43.53100 16.95400 33.52600
O  42.90100 17.92600 33.13100
O  43.81100 16.69400 34.85600
C  43.26000 17.58500 35.91700
H  49.89200 19.10700 30.88900
H  49.09500 17.13500 24.72200
H  43.52000 14.85100 26.37800
H  46.35100 18.20100 33.65300
H  49.12700 18.10900 32.99800
H  47.91800 20.54500 31.87800
H  49.07700 20.48900 33.27600
H  47.40600 20.24300 33.58900
H  48.52500 16.38300 34.27100
H  47.05500 15.54700 33.97300
H  47.83400 16.35600 36.32500
H  46.16700 16.52800 35.89800
H  51.58100 19.68400 29.79900
H  51.67900 20.39200 28.13000
H  52.76100 19.02700 28.58800
H  52.80200 19.81500 26.37500
H  53.44400 18.96000 24.92500
H  53.52800 18.11600 26.49100
H  47.27800 15.73800 23.61300
H  44.33900 15.92100 24.41900
H  45.28700 17.70700 23.31600
H  47.01200 17.96900 22.88100
H  46.30600 18.42700 24.51300
H  45.16000 13.31300 25.16100
H  46.30000 13.61300 23.94700
H  43.96000 14.43500 22.56500
H  43.37000 13.11100 23.44000
H  44.73300 12.83200 22.36800
H  42.10500 13.00300 28.70000
H  41.34600 14.51700 27.94400
H  41.19600 14.16200 29.67000
H  44.55900 15.15000 33.40200
H  42.17300 17.51800 35.92100
H  43.66800 18.56600 35.67200
H  43.66100 17.37700 36.91000
Mg -1.89100 33.88700 27.13800
C  -3.73000 31.90900 29.32600
C  -0.42700 35.52100 29.71800
C  -0.60100 36.22300 24.90100
C  -3.71400 32.55000 24.53500
N  -2.37900 33.98400 29.24300
C  -3.00300 32.95300 29.93400
C  -2.64800 33.01100 31.38600
C  -1.74700 34.29400 31.51400
C  -1.50800 34.69700 30.04800
C  -2.38800 35.36300 32.40700
C  -2.00100 31.67300 31.91200
C  -2.82800 31.00300 33.00700
H  -2.08300 30.83800 34.32400
N  -0.57200 35.55300 27.29800
C  -0.02700 36.06400 28.49900
C  0.97800 37.01200 28.14300
C  0.94000 37.26900 26.68200
C  -0.09800 36.31000 26.20500
C  1.70600 37.72200 29.19800
C  1.74100 38.18300 25.82700
O  1.46100 38.34900 24.65900
C  2.82600 39.02200 26.40700
N  -2.17200 34.32600 24.98600
C  -1.51300 35.29500 24.33200
C  -1.86500 35.24400 22.84200
C  -2.70600 33.99700 22.65800
C  -2.87600 33.56600 24.13600
C  -2.45100 36.58600 22.20100
C  -1.99300 32.91900 21.84400
C  -0.91800 32.07600 22.52000
N  -3.43600 32.51200 26.91500
C  -3.94400 31.95300 25.78200
C  -4.74300 30.76600 26.15400
C  -4.68600 30.72500 27.50800
C  -3.90900 31.79200 27.91600
C  -5.53800 29.88400 25.25700
C  -5.17300 29.97600 28.63400
O  -5.94800 28.99700 28.69300
C  -4.51600 30.71400 29.91300
C  -5.55300 31.06500 30.94900
O  -6.30600 32.02200 30.92700
O  -5.69300 30.06100 31.90700
C  -6.84400 29.98800 32.77000
H  0.20700 35.82100 30.55500
H  -0.30200 36.96500 24.15800
H  -4.27800 32.10300 23.71400
H  -3.58500 33.13900 31.92800
H  -0.72300 34.06900 31.81300
H  -3.11700 35.86200 31.76800
H  -1.65800 36.12600 32.67900
H  -2.87800 35.03000 33.32200
H  -1.04300 31.99300 32.32300
H  -1.66000 31.06200 31.07700
H  -3.00800 29.98500 32.66300
H  -3.73600 31.52400 33.31100
H  1.37600 38.75900 29.25300
H  2.76400 37.70500 28.93300
H  1.54100 37.37300 30.21700
H  2.54800 39.74000 27.17800
H  3.24300 39.67900 25.64400
H  3.52500 38.33300 26.88300
H  -0.91600 35.18200 22.30900
H  -3.68500 34.24300 22.24600
H  -2.44700 37.37500 22.95300
H  -3.50800 36.52800 21.94100
H  -1.80000 36.74700 21.34200
H  -1.49100 33.38000 20.99300
H  -2.78200 32.29200 21.43000
H  0.08100 32.35700 22.18500
H  -1.19900 31.04500 22.30500
H  -0.92200 32.25800 23.59500
H  -5.12800 28.87600 25.32200
H  -5.56200 30.27100 24.23800
H  -6.59700 29.72500 25.46100
H  -3.79200 30.02600 30.34800
H  -6.78500 29.03000 33.28800
H  -7.79600 30.07600 32.24800
H  -6.86300 30.81600 33.47800

