158

Mg 35.75400 48.59900 25.27000
C  35.74400 46.60700 28.26900
C  34.66400 51.25200 27.15400
C  35.36700 50.32700 22.42200
C  36.73800 45.80200 23.45400
N  35.22500 48.80200 27.52700
C  35.26600 47.91100 28.52600
C  35.08100 48.59700 29.91100
C  34.63700 50.01700 29.45900
C  34.69600 50.03100 27.93500
C  33.26600 50.42700 29.93800
C  36.29700 48.57100 30.79200
C  36.09800 48.56600 32.30800
H  34.71600 48.67100 32.97800
N  35.34000 50.58200 24.83900
C  34.83800 51.51500 25.77700
C  34.63800 52.80200 25.09300
C  34.82000 52.50100 23.74700
C  35.20600 51.09900 23.61900
C  34.16400 54.06100 25.77800
C  34.80000 53.43200 22.57500
O  35.06900 53.02900 21.47300
C  34.52800 54.85900 22.76500
N  35.85000 48.08000 23.20900
C  35.78900 49.03000 22.23800
C  36.28500 48.46700 20.85300
C  36.67100 47.03100 21.22700
C  36.50500 47.00800 22.76300
C  35.22200 48.55500 19.65200
C  38.07700 46.63600 20.74700
C  39.24000 47.17700 21.52900
N  36.00600 46.55700 25.65600
C  36.54200 45.56300 24.85600
C  36.69700 44.34900 25.70800
C  36.45200 44.75700 26.96700
C  35.99600 46.08300 26.93600
C  37.16000 42.92200 25.18700
C  36.35500 44.22100 28.30500
O  36.33800 43.05900 28.59000
C  36.03600 45.39100 29.23700
C  34.90500 45.17400 30.14500
O  33.74900 45.39300 29.91800
O  35.47300 44.72900 31.30700
C  34.45700 44.56900 32.40200
H  34.33200 52.09500 27.76400
H  35.30000 50.83900 21.46000
H  37.07400 45.02300 22.76600
H  34.27600 48.07700 30.43100
H  35.42200 50.72100 29.73500
H  33.32900 51.31400 30.56800
H  32.82900 49.66800 30.58800
H  32.57500 50.73500 29.15400
H  36.98100 49.40900 30.65600
H  36.85400 47.67900 30.50500
H  36.70800 49.35000 32.75700
H  36.52100 47.64900 32.71900
H  35.02900 54.72000 25.85300
H  33.78600 53.69300 26.73200
H  33.36000 54.57900 25.25500
H  34.84300 55.46000 21.91200
H  35.10500 55.22500 23.61400
H  33.46100 55.04100 22.89100
H  37.13900 49.08000 20.56400
H  35.91600 46.34600 20.84000
H  35.10500 47.65000 19.05500
H  35.50200 49.28500 18.89300
H  34.23700 48.85200 20.01200
H  38.05700 47.11000 19.76600
H  38.13900 45.54800 20.76400
H  39.67500 46.38100 22.13400
H  38.80000 47.92700 22.18600
H  40.08000 47.59000 20.97100
H  36.73300 42.73600 24.20200
H  36.76900 42.13100 25.82800
H  38.24600 42.97300 25.26600
H  36.90900 45.62200 29.84700
H  34.17500 43.53300 32.58700
H  33.57700 45.17500 32.18900
H  34.82100 44.85500 33.38900
Mg 16.64500 52.14000 25.82100
C  18.28700 50.98800 28.69600
C  14.06200 53.24100 27.75300
C  15.26800 53.46100 23.09300
C  19.18200 50.76000 23.87800
N  16.30100 52.18400 27.98300
C  17.16000 51.71000 29.01100
C  16.63000 52.17000 30.36100
C  15.21200 52.69400 30.04600
C  15.15300 52.69500 28.48400
C  14.08000 51.97600 30.92300
C  17.57500 53.26600 30.93300
C  18.09700 52.89100 32.29100
H  17.32700 53.41000 33.46200
N  14.86700 53.12300 25.44700
C  13.94900 53.51100 26.37600
C  12.83300 54.16600 25.71700
C  13.14400 54.18900 24.30100
C  14.48300 53.51600 24.20500
C  11.73800 54.85900 26.50600
C  12.32500 54.59800 23.12600
O  12.63600 54.44100 21.95100
C  11.04800 55.33500 23.26300
N  17.04100 51.99600 23.78800
C  16.46200 52.77500 22.88400
C  17.16300 52.81200 21.50500
C  18.55600 52.07300 21.76100
C  18.21900 51.54000 23.26100
C  16.34800 52.21100 20.31600
C  19.77800 53.00000 21.66000
C  21.13300 52.29600 21.53300
N  18.27800 51.00200 26.12500
C  19.20400 50.46400 25.27200
C  20.23600 49.66700 25.99700
C  19.88800 49.90500 27.32700
C  18.66200 50.60000 27.38700
C  21.53500 49.11200 25.51000
C  20.35500 49.68300 28.66400
O  21.29600 49.01600 29.10300
C  19.40400 50.45100 29.62600
C  18.90900 49.68800 30.78200
O  17.98200 48.90200 30.67800
O  19.76400 49.73500 31.79300
C  19.89700 48.71200 32.77300
H  13.20900 53.61700 28.32100
H  14.83400 53.93900 22.21200
H  19.99700 50.24900 23.36200
H  16.51300 51.31800 31.03100
H  15.12100 53.72900 30.37500
H  14.52700 51.69700 31.87700
H  13.77900 51.15500 30.27100
H  13.23100 52.64800 31.04700
H  17.07000 54.21700 31.10500
H  18.45400 53.41800 30.30700
H  19.12900 53.22000 32.40900
H  18.26300 51.81400 32.30700
H  12.03200 55.31300 27.45200
H  10.91500 54.14400 26.52100
H  11.33700 55.66900 25.89700
H  11.21300 56.23200 23.86100
H  10.50700 54.61100 23.87200
H  10.49800 55.46100 22.33100
H  17.33800 53.86500 21.28400
H  18.70500 51.17300 21.16500
H  15.45500 51.72800 20.71200
H  16.95100 51.44600 19.82600
H  16.09400 53.03600 19.65000
H  19.84100 53.73600 22.46200
H  19.55900 53.55100 20.74500
H  21.77600 52.61700 22.35200
H  21.66300 52.69000 20.66500
H  21.05100 51.21200 21.45100
H  21.97000 48.42800 26.23800
H  22.25800 49.91300 25.34800
H  21.35700 48.60900 24.56000
H  19.91600 51.28000 30.11500
H  20.72500 48.98500 33.42800
H  19.89300 47.73900 32.28300
H  19.03600 48.73000 33.44200

