158

Mg 52.85500 24.92100 45.53800
C  50.16100 27.04400 44.48300
C  51.00000 22.29800 44.41700
C  55.70100 23.16700 45.24900
C  54.64300 27.78200 46.19700
N  50.90000 24.74600 44.49600
C  49.90500 25.69400 44.23000
C  48.74700 24.99900 43.48700
C  48.77700 23.59000 44.17700
C  50.33900 23.53400 44.30600
C  47.95300 23.53800 45.47400
C  48.83800 25.15600 41.92700
C  47.61300 25.09600 41.05800
H  47.71300 24.32500 39.77300
N  53.24400 22.90000 45.15700
C  52.36000 22.02200 44.78200
C  52.99200 20.75800 44.86100
C  54.37100 20.90800 45.09300
C  54.48400 22.36200 45.18400
C  52.11200 19.48000 44.61300
C  55.37400 19.76900 45.19000
O  55.14400 18.60700 44.81000
C  56.68200 19.93800 45.89400
N  54.85200 25.39500 45.59800
C  55.85300 24.48600 45.48800
C  57.28100 25.08700 45.70100
C  56.93100 26.53800 46.10500
C  55.37800 26.60100 45.98100
C  58.07500 24.32800 46.72200
C  57.68700 27.63500 45.36500
C  58.31000 28.61200 46.35700
N  52.43800 26.94600 45.63800
C  53.20900 27.98600 45.87900
C  52.57600 29.21100 45.84400
C  51.39000 28.87000 45.21500
C  51.31400 27.48600 45.07400
C  52.96300 30.63000 46.28100
C  50.11100 29.45300 44.75100
O  49.77000 30.63000 44.84600
C  49.28000 28.25100 44.10800
C  49.21800 28.45900 42.61900
O  50.12200 28.69900 41.85300
O  47.84400 28.57900 42.30400
C  47.56500 29.12300 40.97900
H  50.33900 21.45400 44.20900
H  56.64200 22.61300 45.25700
H  55.26700 28.57900 46.60700
H  47.81500 25.42200 43.86200
H  48.46800 22.74700 43.55900
H  48.71200 23.62000 46.25200
H  47.35600 22.62600 45.45900
H  47.33100 24.42500 45.59700
H  49.54500 24.46300 41.46900
H  49.36800 26.10500 41.85200
H  47.39500 26.12000 40.75200
H  46.77500 24.73900 41.65600
H  51.10100 19.69000 44.26200
H  52.12100 18.93600 45.55700
H  52.64700 18.87400 43.88200
H  57.20000 18.98200 45.83600
H  56.59200 20.44100 46.85700
H  57.30000 20.66900 45.37300
H  57.67900 24.99100 44.69100
H  57.14800 26.56300 47.17200
H  59.11100 24.52800 46.44600
H  58.04700 23.24200 46.80600
H  57.74500 24.75800 47.66800
H  57.00500 28.10600 44.65600
H  58.46900 27.24000 44.71700
H  59.40000 28.57900 46.32800
H  58.01800 28.41500 47.38800
H  57.91900 29.60900 46.15200
H  53.84900 30.44400 46.88700
H  52.17700 31.05900 46.90300
H  53.21400 31.21400 45.39600
H  48.24100 28.21400 44.43400
H  46.48000 29.19500 40.90700
H  47.84000 28.50500 40.12500
H  47.74200 30.19700 40.91700
Mg -5.43100 25.58200 26.51600
C  -3.78000 26.77900 29.51700
C  -7.03700 23.22500 28.48500
C  -6.54900 24.08400 23.73900
C  -3.08500 27.18500 24.72800
N  -5.34400 25.11900 28.71300
C  -4.77800 25.84900 29.78100
C  -5.39200 25.37900 31.12500
C  -6.04500 24.05000 30.71700
C  -6.22300 24.16600 29.18300
C  -5.31800 22.76900 31.18000
C  -6.37100 26.43300 31.69300
C  -6.39300 26.63200 33.25500
H  -5.80000 25.54700 34.13700
N  -6.75400 23.94700 26.15800
C  -7.35400 23.14600 27.09600
C  -8.22900 22.15100 26.38300
C  -8.09800 22.38000 24.95600
C  -7.17000 23.58000 24.92400
C  -9.10800 21.16400 27.17400
C  -8.74300 21.61600 23.79400
O  -8.57600 21.81400 22.58800
C  -9.59700 20.43500 24.04700
N  -4.77000 25.50700 24.54800
C  -5.45600 24.87500 23.58500
C  -4.95100 25.19600 22.16100
C  -3.94200 26.35700 22.47300
C  -3.92000 26.38400 23.99500
C  -4.43900 23.95700 21.36600
C  -4.16900 27.78800 21.91300
C  -3.12300 28.48500 21.03100
N  -3.83900 26.85900 26.97000
C  -3.04900 27.44800 26.11400
C  -2.11700 28.31400 26.79200
C  -2.44900 28.13300 28.14200
C  -3.42000 27.18600 28.20200
C  -1.08800 29.23600 26.18500
C  -2.10200 28.52900 29.50300
O  -1.29200 29.39600 29.83200
C  -3.08900 27.80700 30.43400
C  -2.25200 27.08900 31.48200
O  -1.17900 26.54900 31.33800
O  -2.86400 27.15800 32.69400
C  -2.02000 26.79000 33.83900
H  -7.54600 22.53800 29.16400
H  -6.90900 23.65100 22.80400
H  -2.33400 27.81200 24.24300
H  -4.62100 25.05200 31.82200
H  -7.02400 24.00900 31.19500
H  -4.92000 22.24600 30.31000
H  -5.92300 22.13100 31.82300
H  -4.38900 22.93600 31.72600
H  -7.39800 26.27300 31.36700
H  -6.13600 27.40800 31.26700
H  -7.46100 26.63300 33.46900
H  -5.98700 27.59500 33.56900
H  -9.04500 20.14200 26.79900
H  -10.15700 21.45600 27.11600
H  -8.82500 21.04100 28.21900
H  -10.30500 20.63800 24.85200
H  -8.88000 19.68000 24.36900
H  -10.15100 20.20700 23.13600
H  -5.76100 25.61800 21.56700
H  -2.96000 26.00800 22.15300
H  -4.43300 23.04800 21.96900
H  -3.49000 24.16900 20.87300
H  -4.93900 23.89600 20.39900
H  -4.32200 28.45300 22.76400
H  -5.03900 27.65400 21.27100
H  -3.06300 29.55600 21.22200
H  -3.29600 28.41600 19.95700
H  -2.11400 28.09300 21.16500
H  -0.34800 28.62200 25.67200
H  -0.59700 29.82700 26.95800
H  -1.57400 29.90300 25.47200
H  -3.87800 28.34900 30.95500
H  -0.98700 27.12900 33.75400
H  -2.04300 25.71900 34.04200
H  -2.39100 27.43400 34.63600

