158

Mg 47.81400 15.46900 28.16000
C  45.54300 15.31900 30.78200
C  49.79600 17.47100 30.17300
C  50.08300 15.67800 25.65600
C  45.47800 13.91200 26.18800
N  47.58100 16.35700 30.20600
C  46.73400 15.93900 31.12900
C  47.08400 16.47300 32.53200
C  48.35400 17.34300 32.22000
C  48.58600 17.09200 30.72800
C  48.43400 18.81600 32.68800
C  47.29100 15.35700 33.60200
C  46.52300 15.58000 34.94100
H  46.52500 16.99800 35.56900
N  49.71100 16.39200 27.96600
C  50.33100 17.17800 28.91400
C  51.69900 17.56600 28.40400
C  51.77100 16.99300 27.06900
C  50.50700 16.31400 26.83600
C  52.73300 18.34500 29.27500
C  52.98900 17.08500 26.07300
O  53.03400 16.58800 24.95800
C  54.18700 17.92300 26.49600
N  47.83200 14.87900 26.27900
C  48.79800 15.11900 25.36800
C  48.32000 14.72100 23.97200
C  47.10900 13.76200 24.15700
C  46.82000 14.12600 25.66400
C  48.10500 15.96000 23.11100
C  47.19500 12.26900 23.81600
C  46.92500 11.24200 24.96400
N  45.84900 14.73300 28.33800
C  45.04400 14.13200 27.48500
C  43.79800 13.66400 28.18600
C  43.98600 14.15400 29.48700
C  45.22300 14.78600 29.54200
C  42.64700 12.83000 27.64700
C  43.47600 14.11100 30.78900
O  42.43300 13.55300 31.20500
C  44.32600 15.02500 31.70200
C  43.68100 16.18600 32.33000
O  43.71700 17.33900 31.90400
O  42.91500 15.75900 33.39200
C  42.20600 16.81800 34.16600
H  50.46500 18.02700 30.83200
H  50.67400 15.68500 24.73800
H  44.71100 13.53500 25.50700
H  46.30200 17.18700 32.79000
H  49.22000 16.79100 32.58500
H  47.53700 19.05800 33.25800
H  48.26200 19.40100 31.78500
H  49.33700 19.12400 33.21500
H  48.33900 15.26700 33.88900
H  46.94000 14.38400 33.26000
H  46.80000 14.97200 35.80300
H  45.49500 15.40700 34.62200
H  53.17800 19.21100 28.78500
H  53.59200 17.71600 29.50900
H  52.35000 18.70200 30.23100
H  53.81800 18.90600 26.78700
H  54.89300 17.99500 25.66900
H  54.56000 17.51800 27.43700
H  49.20700 14.18000 23.64200
H  46.32300 14.15200 23.51000
H  48.24200 16.73700 23.86300
H  47.09500 16.10600 22.72700
H  48.86000 16.01400 22.32600
H  48.15200 12.06100 23.33900
H  46.46600 12.11500 23.02100
H  46.83900 11.74300 25.92800
H  47.72500 10.50700 25.05100
H  45.97300 10.80600 24.66400
H  42.60300 11.81700 28.04700
H  42.77200 12.78300 26.56500
H  41.65100 13.23900 27.81700
H  44.60000 14.26300 32.43100
H  41.70000 17.47900 33.46300
H  42.85500 17.45300 34.77000
H  41.38500 16.49100 34.80500
Mg 30.34600 57.94200 40.83500
C  27.24100 56.52300 39.84600
C  31.97700 55.24100 39.21600
C  33.20000 59.60000 40.85000
C  28.58500 60.72600 41.82000
N  29.66600 56.20800 39.55600
C  28.34400 55.78700 39.35800
C  28.31700 54.49100 38.54900
C  29.81100 54.06100 38.61300
C  30.57000 55.24300 39.22200
C  30.03700 52.75300 39.42000
C  27.82200 54.62700 37.07300
C  26.51900 53.82800 36.68300
H  26.25700 53.72900 35.16300
N  32.38900 57.38200 40.25500
C  32.82600 56.24800 39.70800
C  34.29600 56.33600 39.50300
C  34.68300 57.68900 39.88700
C  33.40200 58.26500 40.35700
C  35.16200 55.24900 38.98100
C  36.09900 58.29200 39.75900
O  37.01300 57.59700 39.37600
C  36.42900 59.66800 40.21200
N  30.83500 59.92000 41.17300
C  32.07000 60.37100 41.21200
C  32.14100 61.85600 41.61400
C  30.66300 62.19800 41.95200
C  29.94700 60.84300 41.58700
C  33.17100 62.22800 42.72700
C  30.12200 63.37200 41.13800
C  29.38600 64.47100 41.81100
N  28.28400 58.55600 40.94800
C  27.75600 59.64300 41.51700
C  26.30100 59.53100 41.53700
C  26.09900 58.34400 40.85900
C  27.30800 57.73200 40.52100
C  25.38400 60.62600 42.06100
C  25.05500 57.49500 40.29100
O  23.82200 57.68000 40.31100
C  25.79000 56.30700 39.64400
C  25.26000 55.09900 40.22000
O  25.81300 54.44400 41.09300
O  24.04100 54.79700 39.65800
C  23.38100 53.54200 39.96700
H  32.45400 54.31800 38.88200
H  34.13700 60.15300 40.94300
H  28.16700 61.69200 42.11300
H  27.75800 53.72300 39.08300
H  30.23900 53.88400 37.62600
H  30.86600 52.35400 38.83500
H  29.13000 52.14800 39.43600
H  30.39700 53.03800 40.40900
H  28.55000 54.25500 36.35300
H  27.60700 55.64700 36.75600
H  25.69100 54.13600 37.32000
H  26.54600 52.78100 36.98600
H  34.57000 54.52700 38.41900
H  35.44700 54.71200 39.88600
H  35.98900 55.64800 38.39400
H  37.44600 59.99400 39.99300
H  36.37700 59.55000 41.29400
H  35.75400 60.37700 39.73300
H  32.44100 62.35100 40.69000
H  30.72800 62.33700 43.03100
H  33.70400 61.32100 43.01100
H  32.62400 62.61300 43.58800
H  33.91800 62.97400 42.45500
H  29.41600 62.86800 40.47900
H  30.91300 63.78000 40.50900
H  29.37000 64.18400 42.86300
H  28.41600 64.55000 41.31900
H  29.98300 65.33800 41.53100
H  25.96400 61.44600 42.48500
H  24.67000 60.12100 42.71100
H  24.81500 61.13900 41.28500
H  25.65000 56.30600 38.56300
H  23.60100 52.77400 39.22600
H  22.30500 53.71300 40.00000
H  23.66200 53.23200 40.97300

