158

Mg 23.77500 -5.72500 45.05700
C  25.84500 -3.30700 43.68900
C  21.15700 -4.50800 43.11900
C  22.08800 -8.56100 45.57800
C  26.53700 -7.16400 46.51900
N  23.62700 -4.22400 43.35000
C  24.57200 -3.24900 43.09500
C  23.99200 -2.12800 42.14300
C  22.41500 -2.40900 42.18100
C  22.38400 -3.82900 42.90000
C  21.36500 -1.40800 42.83200
C  24.57900 -2.41000 40.69200
C  25.10300 -1.11400 40.02600
H  24.75100 -0.95000 38.46000
N  21.78200 -6.38000 44.57100
C  20.88500 -5.70200 43.79400
C  19.60400 -6.35200 43.99200
C  19.83500 -7.65300 44.51000
C  21.27000 -7.63200 44.87400
C  18.31500 -5.81600 43.40500
C  18.83500 -8.68600 44.74400
O  17.66300 -8.40100 44.49700
C  19.12800 -10.01600 45.39000
N  24.23300 -7.61600 45.84500
C  23.32900 -8.57700 46.06600
C  23.82700 -9.68000 46.91900
C  25.29200 -9.10500 47.28300
C  25.34500 -7.91700 46.45100
C  22.95800 -10.15400 48.13300
C  26.48900 -10.11200 47.04400
C  27.37500 -10.43500 48.26800
N  25.75600 -5.40900 45.12200
C  26.78300 -6.02500 45.79600
C  27.99800 -5.22700 45.74100
C  27.66100 -4.23800 44.83200
C  26.30700 -4.31500 44.53000
C  29.31800 -5.64100 46.37700
C  28.19800 -3.14800 44.08600
O  29.33600 -2.69900 44.09100
C  27.02700 -2.55700 43.23000
C  26.82500 -1.09700 43.45600
O  26.20400 -0.52000 44.39700
O  27.51500 -0.41000 42.51100
C  27.46300 1.08200 42.50100
H  20.25300 -3.98100 42.80500
H  21.69000 -9.54100 45.84700
H  27.40000 -7.48100 47.10900
H  24.14600 -1.17900 42.65700
H  22.05800 -2.60400 41.16900
H  20.96400 -0.72500 42.08300
H  21.95100 -0.83100 43.54800
H  20.52800 -1.91000 43.31600
H  23.79400 -2.78800 40.03700
H  25.31600 -3.21300 40.67300
H  26.13700 -1.05300 40.36400
H  24.65300 -0.22800 40.47600
H  18.31100 -6.08300 42.34800
H  18.29300 -4.72700 43.40300
H  17.44600 -6.13600 43.98100
H  18.28300 -10.70200 45.33700
H  19.45000 -9.82900 46.41400
H  19.98800 -10.46800 44.89500
H  23.85100 -10.54800 46.26000
H  25.36600 -8.61600 48.25400
H  23.54000 -10.28600 49.04500
H  22.59000 -11.12400 47.79800
H  22.15800 -9.41800 48.22100
H  27.18400 -9.57000 46.40300
H  26.14200 -11.06200 46.63800
H  28.34000 -9.96000 48.09400
H  27.51800 -11.48700 48.51700
H  26.93900 -10.08600 49.20400
H  29.05000 -5.97900 47.37800
H  30.07600 -4.86900 46.24600
H  29.62900 -6.46300 45.73200
H  27.21200 -2.82600 42.19000
H  28.31600 1.61100 42.92500
H  26.70300 1.39000 43.21900
H  27.18000 1.46700 41.52200
Mg 44.76200 3.87400 47.18600
C  42.43200 6.51700 46.70400
C  42.09800 1.71100 46.97600
C  46.85800 1.40900 46.55300
C  47.22000 6.14500 46.97300
N  42.51400 4.12100 46.63700
C  41.85500 5.25900 46.55700
C  40.39300 5.03800 46.37000
C  40.18400 3.61200 46.97700
C  41.68100 3.09300 46.88800
C  39.63800 3.59400 48.48000
C  39.90100 5.22100 44.89100
C  38.69100 6.19700 44.72500
H  38.00000 6.25600 43.35200
N  44.51400 1.78800 46.82200
C  43.34200 1.09700 46.83000
C  43.60200 -0.32300 46.74000
C  44.96000 -0.42700 46.52200
C  45.51100 0.94200 46.67700
C  42.54600 -1.38000 46.89600
C  45.75600 -1.69200 46.22200
O  45.14600 -2.73800 46.35800
C  47.17500 -1.70900 45.89000
N  46.78600 3.76300 46.61300
C  47.49100 2.61500 46.62000
C  48.97000 2.81900 46.76800
C  49.08700 4.41000 47.08600
C  47.56500 4.78800 46.92300
C  49.72800 1.83300 47.70100
C  50.07500 5.10300 46.06500
C  51.10000 6.04300 46.69800
N  44.84300 5.95400 46.95300
C  45.95700 6.71000 46.94400
C  45.58000 8.17600 46.87800
C  44.15600 8.12800 46.87400
C  43.78600 6.77500 46.83200
C  46.40800 9.41900 46.92300
C  42.95100 8.92800 46.87900
O  42.88100 10.17300 47.02700
C  41.81100 7.93700 46.74700
C  40.96100 7.95500 48.00400
O  41.14300 7.30400 48.99900
O  39.91600 8.89300 47.86300
C  38.77000 8.80900 48.86900
H  41.30500 0.98100 47.15500
H  47.62000 0.62800 46.52600
H  47.94300 6.95100 47.11400
H  40.07000 5.80800 47.07100
H  39.61600 2.99100 46.28400
H  38.68400 3.06700 48.47500
H  39.46300 4.59200 48.88400
H  40.36100 3.11400 49.14000
H  39.67300 4.24800 44.45600
H  40.70500 5.75600 44.38500
H  39.06000 7.18200 45.01400
H  37.96700 5.96900 45.50800
H  42.70600 -1.91700 47.83100
H  42.67900 -2.10500 46.09300
H  41.48200 -1.14400 46.86300
H  47.43600 -2.75700 45.74300
H  47.75300 -1.49600 46.79000
H  47.43100 -1.19800 44.96200
H  49.26000 2.65900 45.72900
H  49.47600 4.60200 48.08600
H  50.47800 2.38100 48.27100
H  50.18800 1.09400 47.04500
H  49.04500 1.33700 48.39100
H  49.51300 5.66400 45.31900
H  50.53600 4.33800 45.44100
H  52.07300 5.55400 46.73300
H  50.90500 6.41000 47.70600
H  51.24400 6.94400 46.10200
H  46.44400 9.81400 45.90800
H  47.42200 9.29900 47.30400
H  45.88300 10.14500 47.54400
H  41.24700 8.11600 45.83200
H  37.87800 8.95900 48.26100
H  38.87200 9.59700 49.61500
H  38.78300 7.86900 49.42100

