158

Mg 47.25600 25.85900 28.37100
C  48.29500 27.99000 30.84700
C  46.42600 23.45900 30.78500
C  46.62600 23.64300 25.91400
C  48.48600 28.16400 25.99600
N  47.54300 25.75900 30.50900
C  47.73400 26.80300 31.40300
C  47.68900 26.42200 32.82600
C  47.31900 24.87400 32.69100
C  47.07700 24.64100 31.20600
C  48.27000 23.81000 33.35000
C  46.62700 27.25200 33.66300
C  47.29800 28.04100 34.76900
H  46.50100 28.17100 36.09700
N  46.62700 23.77900 28.33300
C  46.29700 23.02300 29.46400
C  45.78300 21.68600 28.94700
C  45.79500 21.71500 27.52500
C  46.32900 23.06300 27.21100
C  45.09300 20.66200 29.97600
C  45.35400 20.66500 26.50500
O  45.45400 20.81700 25.27700
C  44.85200 19.39000 27.08400
N  47.53100 25.91200 26.22700
C  47.12700 24.89200 25.43300
C  47.33800 25.23900 23.89600
C  47.92600 26.68600 23.94200
C  47.92300 26.95600 25.44900
C  48.31400 24.20700 23.25300
C  47.02500 27.76100 23.22100
C  47.60000 29.16900 22.88500
N  48.12000 27.69800 28.34500
C  48.61400 28.50000 27.33300
C  49.16300 29.71500 27.90200
C  49.12400 29.53800 29.23900
C  48.41600 28.30100 29.48000
C  49.58200 30.98000 27.21200
C  49.22700 30.25600 30.50700
O  49.54800 31.42500 30.66400
C  48.78600 29.26600 31.62400
C  49.94500 28.91100 32.41800
O  50.75500 27.98400 32.26500
O  49.98900 29.73700 33.52400
C  50.93800 29.38900 34.59500
H  46.00100 22.80600 31.55000
H  46.38900 22.92300 25.12800
H  48.64300 29.02500 25.34400
H  48.72400 26.63100 33.09600
H  46.38300 24.66100 33.20700
H  49.12200 24.35000 33.76300
H  48.66800 23.19800 32.54100
H  47.80600 23.17700 34.10700
H  45.87500 26.68800 34.21500
H  46.06400 28.01700 33.12800
H  47.47700 29.07000 34.45600
H  48.25700 27.57000 34.98500
H  44.00800 20.70100 29.88000
H  45.26000 20.94700 31.01500
H  45.52300 19.66400 29.88400
H  45.52500 18.80300 27.70900
H  44.47400 18.81100 26.24200
H  43.98700 19.78800 27.61600
H  46.34600 25.18900 23.44500
H  48.95800 26.70400 23.59300
H  48.47400 23.37500 23.93800
H  49.24100 24.71500 22.98800
H  47.82200 23.94600 22.31600
H  46.06200 27.84200 23.72600
H  46.85000 27.30900 22.24500
H  48.66300 28.92900 22.88000
H  47.25900 29.81700 23.69200
H  47.30900 29.51600 21.89400
H  50.62500 30.82500 26.93800
H  49.44300 31.84400 27.86100
H  49.05400 31.09900 26.26600
H  47.99000 29.52300 32.32300
H  51.91600 29.54400 34.13900
H  50.80600 28.39400 35.01900
H  50.86600 30.10600 35.41200
Mg 36.00800 49.67200 25.27800
C  36.27100 47.55300 28.06000
C  34.66200 51.96700 27.32900
C  35.00300 51.36900 22.59300
C  36.98300 46.93500 23.33700
N  35.42900 49.72700 27.41500
C  35.70500 48.78900 28.32700
C  35.34900 49.23500 29.76700
C  34.66900 50.59800 29.55900
C  34.94600 50.80000 28.03500
C  33.12500 50.66400 29.86300
C  36.60700 49.46400 30.72800
C  36.35700 49.15600 32.20200
H  34.90000 48.96900 32.68500
N  35.19300 51.58900 24.98700
C  34.71900 52.34600 25.99600
C  34.33600 53.60000 25.40100
C  34.32600 53.39600 23.95500
C  34.80700 52.06700 23.81000
C  33.92000 54.78100 26.21600
C  33.71100 54.24600 22.84200
O  33.50600 53.90100 21.67500
C  33.44400 55.72300 23.14300
N  35.84700 49.17000 23.27500
C  35.46500 50.06700 22.32500
C  35.83400 49.58500 20.91900
C  36.38500 48.19400 21.19600
C  36.45000 48.06500 22.66800
C  34.71600 49.74700 19.81800
C  37.72200 47.79100 20.30200
C  39.00600 48.46800 20.63800
N  36.48800 47.55900 25.58600
C  36.94200 46.62800 24.65800
C  37.35000 45.44500 25.33000
C  37.07500 45.72600 26.70000
C  36.56700 47.00900 26.76300
C  37.99500 44.25200 24.70700
C  37.09500 45.25500 28.08100
O  37.59400 44.16600 28.52400
C  36.64100 46.45800 28.98900
C  35.44000 45.88500 29.64500
O  34.32300 45.98500 29.21900
O  35.76700 45.22300 30.83000
C  34.69800 44.79900 31.75600
H  34.30600 52.76700 27.98200
H  34.95000 52.06500 21.75400
H  37.26200 46.09800 22.69200
H  34.66800 48.52600 30.24000
H  35.21300 51.37200 30.10000
H  32.50700 50.67500 28.96500
H  32.70400 51.52600 30.38000
H  32.89300 49.76300 30.43000
H  37.01400 50.47400 30.67100
H  37.45100 48.84200 30.43000
H  36.70300 50.00700 32.78900
H  36.96500 48.28100 32.43200
H  32.87300 55.06600 26.12000
H  34.44000 55.67100 25.86100
H  34.20400 54.69100 27.26500
H  32.48600 55.85800 23.64500
H  33.56900 56.19100 22.16700
H  34.24300 56.14800 23.75200
H  36.66900 50.15500 20.51100
H  35.71600 47.38200 20.91200
H  34.22900 50.67100 20.13100
H  34.04000 48.90100 19.69200
H  35.28700 50.01200 18.92800
H  37.61600 48.16200 19.28300
H  37.74700 46.70300 20.36500
H  39.82100 47.74800 20.70000
H  38.90500 48.83400 21.66000
H  39.18000 49.38600 20.07600
H  38.35500 43.60000 25.50200
H  38.86500 44.38500 24.06500
H  37.20000 43.68900 24.21700
H  37.40000 46.65000 29.74800
H  34.34400 43.81000 31.46600
H  33.86000 45.49500 31.77900
H  35.13900 44.73600 32.75100

