158

Mg 48.42900 35.78600 28.83400
C  46.22100 34.07900 31.00200
C  48.39800 38.33900 31.03600
C  50.05800 37.62800 26.59500
C  47.76300 33.34100 26.40600
N  47.40600 36.10200 30.76300
C  46.60400 35.26600 31.48600
C  46.31200 35.85000 32.85400
C  46.62200 37.36200 32.65400
C  47.59300 37.27000 31.42400
C  45.49300 38.27500 32.24900
C  46.92100 35.05800 34.03500
C  48.15400 35.54600 34.75900
H  48.00800 36.46300 35.94200
N  49.23000 37.69200 28.86600
C  49.19600 38.56900 29.95100
C  49.99700 39.68900 29.58500
C  50.52000 39.49600 28.27600
C  49.92900 38.26800 27.79200
C  50.37400 40.74000 30.64300
C  51.41200 40.38300 27.40400
O  51.69900 40.09600 26.27300
C  51.97400 41.67900 28.00900
N  48.54800 35.56600 26.64000
C  49.42200 36.43200 26.09200
C  49.89200 35.93400 24.77400
C  49.33600 34.45700 24.73200
C  48.58200 34.41400 26.04300
C  49.45900 36.84900 23.58800
C  50.46400 33.31300 24.76500
C  50.79600 32.68100 23.37500
N  47.37800 34.02700 28.71400
C  47.15500 33.13200 27.63600
C  46.34000 32.10000 28.04500
C  45.91200 32.39800 29.34800
C  46.58600 33.59300 29.72200
C  46.06400 30.88800 27.27500
C  45.07500 31.99700 30.42400
O  44.33800 31.02600 30.56600
C  45.09900 33.13400 31.46100
C  45.09900 32.48400 32.80200
O  45.71800 31.47400 33.18600
O  44.05700 33.09900 33.47700
C  43.83900 32.67900 34.92100
H  48.47300 39.19000 31.71600
H  50.71600 38.12800 25.88000
H  47.84500 32.51300 25.69900
H  45.24400 35.88100 33.06700
H  47.14100 37.77300 33.51900
H  44.58400 37.72500 32.00200
H  45.74300 38.82300 31.34000
H  45.29800 39.06700 32.97200
H  47.13600 34.01300 33.80800
H  46.11300 35.00900 34.76400
H  48.73800 36.07200 34.00300
H  48.75700 34.73800 35.17200
H  51.46400 40.78200 30.63800
H  49.91200 40.57800 31.61700
H  49.85800 41.66200 30.37600
H  52.27400 41.46700 29.03500
H  51.07200 42.28300 28.10600
H  52.78200 42.09800 27.41100
H  50.97600 35.86800 24.67700
H  48.66200 34.39100 23.87800
H  49.05800 36.31700 22.72500
H  50.31200 37.39100 23.17900
H  48.62000 37.47200 23.90000
H  50.15200 32.53800 25.46400
H  51.42800 33.76500 24.99700
H  50.38000 33.18400 22.50200
H  50.33900 31.69200 23.32500
H  51.83400 32.64100 23.04400
H  45.29000 30.25800 27.71200
H  47.00400 30.35200 27.14500
H  45.85200 31.20300 26.25300
H  44.14300 33.63100 31.29500
H  42.75800 32.60700 35.03500
H  44.31200 33.45300 35.52500
H  44.29800 31.69900 35.05800
Mg 6.00500 53.57500 41.36700
C  5.42500 50.12200 40.79200
C  8.97000 53.37600 39.82000
C  6.10500 56.94500 41.39700
C  2.73500 53.77200 42.76100
N  6.88800 51.92400 40.25200
C  6.57600 50.58900 40.18600
C  7.63100 49.90800 39.31200
C  8.85000 50.85300 39.36500
C  8.16700 52.22400 39.83300
C  10.00300 50.35600 40.26800
C  6.95800 49.77100 37.89600
C  7.30100 48.49000 37.15800
H  6.37600 47.83900 36.17400
N  7.37600 54.97300 40.82600
C  8.57500 54.71000 40.21900
C  9.35600 55.85700 40.06800
C  8.57300 56.93400 40.47600
C  7.25500 56.34600 40.89600
C  10.85600 55.72100 39.59800
C  9.06900 58.40100 40.44100
O  10.12200 58.70800 39.86600
C  8.21100 59.56700 40.91000
N  4.60500 55.14900 41.87100
C  4.89200 56.47100 41.75200
C  3.71000 57.41100 42.12100
C  2.73200 56.34300 42.66400
C  3.34700 55.00900 42.40700
C  4.10400 58.52400 43.17800
C  1.31500 56.57800 42.15100
C  0.61100 57.86600 42.65900
N  4.41100 52.27400 41.75100
C  3.18900 52.46200 42.39100
C  2.59600 51.18200 42.62900
C  3.37800 50.18900 41.92700
C  4.52600 50.88800 41.51500
C  1.30600 50.97400 43.49600
C  3.58700 48.83700 41.69200
O  2.81200 47.91500 41.91400
C  4.91700 48.69300 40.96500
C  4.93800 47.71800 39.87300
O  4.57300 47.89800 38.71900
O  5.33500 46.51000 40.29500
C  5.06300 45.30300 39.47700
H  9.93100 53.24600 39.31900
H  6.29300 58.01800 41.47800
H  1.79500 53.87900 43.30700
H  7.75100 48.91800 39.75300
H  9.28500 51.01600 38.37900
H  9.73800 49.45000 40.81400
H  10.31400 51.12300 40.97700
H  10.78700 50.07900 39.56200
H  7.25200 50.54300 37.18500
H  5.87200 49.86200 37.93600
H  7.48000 47.83100 38.00700
H  8.25400 48.60300 36.64300
H  11.51800 56.52100 39.93000
H  10.95100 55.57000 38.52200
H  11.25700 54.80700 40.03600
H  8.77600 60.49300 40.80800
H  7.84300 59.40900 41.92400
H  7.38800 59.45400 40.20500
H  3.39700 57.86500 41.18100
H  2.71500 56.50900 43.74100
H  5.06900 58.28700 43.62600
H  3.38100 58.63700 43.98600
H  4.29200 59.43100 42.60400
H  0.62500 55.79200 42.45900
H  1.33900 56.55500 41.06200
H  -0.29500 57.68800 43.23900
H  0.41800 58.50000 41.79300
H  1.30800 58.39100 43.31200
H  1.21200 49.88800 43.51700
H  0.48400 51.46600 42.97600
H  1.52000 51.28400 44.51900
H  5.62400 48.29700 41.69300
H  4.01000 45.05300 39.34700
H  5.51900 44.44300 39.96600
H  5.53900 45.37600 38.49900

