158

Mg -10.36800 38.75600 40.50900
C  -8.23200 36.09300 39.57300
C  -7.95600 40.92700 39.14900
C  -12.57300 41.13800 40.48100
C  -12.83100 36.39200 41.38300
N  -8.37700 38.48600 39.24700
C  -7.73700 37.33100 39.04100
C  -6.35200 37.58200 38.38300
C  -6.14900 39.13300 38.66200
C  -7.58300 39.59000 39.00300
C  -5.16300 39.60000 39.72800
C  -6.42800 37.22500 36.90100
C  -5.71200 35.93100 36.39800
H  -6.37400 35.38200 35.18100
N  -10.26800 40.79500 40.14000
C  -9.20100 41.52000 39.59800
C  -9.44900 42.91100 39.67700
C  -10.76900 43.07700 40.22500
C  -11.26900 41.65800 40.30900
C  -8.58900 43.99400 39.17900
C  -11.53500 44.40900 40.56200
O  -11.04700 45.52800 40.43000
C  -12.82900 44.25700 41.30000
N  -12.41500 38.72500 40.62400
C  -13.11500 39.90000 40.63600
C  -14.63800 39.59200 40.73300
C  -14.75800 38.03900 40.94200
C  -13.22000 37.70600 41.02300
C  -15.40100 40.43300 41.78900
C  -15.47600 37.25600 39.86000
C  -16.55500 36.33000 40.32700
N  -10.52600 36.68000 40.54800
C  -11.54000 35.89100 41.00000
C  -11.08000 34.52100 41.08100
C  -9.76100 34.57000 40.50300
C  -9.49400 35.90800 40.21400
C  -11.81900 33.35400 41.75800
C  -8.57300 33.77700 40.16800
O  -8.45700 32.58200 40.18800
C  -7.51300 34.74300 39.68900
C  -6.32800 34.76400 40.59200
O  -5.89300 35.76400 41.24800
O  -5.79600 33.47900 40.71000
C  -4.97500 33.09000 41.91400
H  -7.13700 41.62700 38.97000
H  -13.31600 41.93600 40.42100
H  -13.54600 35.65400 41.75300
H  -5.69900 36.94300 38.97700
H  -5.83900 39.57800 37.71700
H  -5.83000 39.88600 40.54100
H  -4.58500 40.44000 39.34300
H  -4.54700 38.83400 40.20000
H  -6.00500 38.04200 36.31700
H  -7.48000 37.23300 36.61600
H  -5.56200 35.19400 37.18700
H  -4.69500 36.24800 36.16500
H  -8.32400 44.66100 39.99900
H  -9.22100 44.50900 38.45600
H  -7.76600 43.54500 38.62200
H  -13.59400 44.03300 40.55600
H  -13.04100 45.23300 41.73700
H  -12.77000 43.58600 42.15600
H  -14.98400 39.79600 39.72000
H  -15.15400 37.79700 41.92800
H  -14.77700 41.14600 42.32800
H  -15.86100 39.92100 42.63500
H  -16.23900 40.92800 41.29800
H  -14.76800 36.51400 39.49200
H  -15.89400 37.90200 39.08800
H  -17.48100 36.88600 40.18300
H  -16.45200 36.06600 41.38000
H  -16.59200 35.47700 39.65000
H  -11.25900 32.43700 41.57200
H  -12.84900 33.14800 41.46700
H  -11.70000 33.53700 42.82600
H  -7.25900 34.35900 38.70000
H  -3.90700 33.17500 41.71200
H  -5.19800 32.06300 42.20200
H  -5.25200 33.74300 42.74200
Mg -1.08300 34.99400 27.34800
C  -3.08800 33.22900 29.55300
C  -0.41200 37.20800 29.88900
C  0.46200 36.83000 25.01600
C  -2.45500 33.00900 24.69700
N  -1.79900 35.22900 29.46300
C  -2.40000 34.23500 30.19400
C  -2.29800 34.53000 31.73700
C  -1.70200 35.97700 31.75700
C  -1.24400 36.18900 30.31100
C  -2.65600 37.13500 32.18600
C  -1.43600 33.51300 32.53600
C  -2.07200 32.71300 33.64600
H  -2.61600 33.58200 34.83100
N  0.08800 36.65400 27.53600
C  0.20900 37.42200 28.62400
C  1.14700 38.45200 28.31600
C  1.49100 38.42700 26.91000
C  0.65000 37.31600 26.41200
C  1.64100 39.42900 29.38000
C  2.54500 39.14400 26.08300
O  2.93700 38.78500 24.97800
C  3.06400 40.46300 26.58600
N  -1.08500 34.91600 25.19000
C  -0.34000 35.83700 24.48700
C  -0.25600 35.50700 22.94200
C  -1.25100 34.28300 22.90400
C  -1.62500 34.05400 24.37600
C  -0.63100 36.78400 22.09900
C  -0.50900 32.98200 22.36600
C  0.74000 32.52200 23.20400
N  -2.52400 33.49500 27.11300
C  -2.95100 32.82700 25.95700
C  -3.96100 31.87200 26.37600
C  -3.93800 31.85400 27.74100
C  -3.10100 32.95300 28.16900
C  -4.73200 30.96600 25.45700
C  -4.43000 31.18400 28.94000
O  -5.17200 30.23300 29.10400
C  -3.80600 31.92700 30.18700
C  -4.92800 32.20400 31.11900
O  -5.71700 33.14400 31.03300
O  -4.91200 31.29700 32.11700
C  -5.78200 31.59200 33.25400
H  -0.02300 37.76600 30.74300
H  1.19000 37.24500 24.31500
H  -2.78300 32.39400 23.85600
H  -3.32000 34.48000 32.11400
H  -0.81400 36.13500 32.36900
H  -3.06300 37.51900 31.25100
H  -2.11600 37.90800 32.73200
H  -3.48900 36.87200 32.83800
H  -0.57200 33.98100 33.00700
H  -1.09100 32.73700 31.85200
H  -1.21200 32.18600 34.06000
H  -2.86800 32.07200 33.26800
H  2.58900 39.02100 29.73200
H  0.91100 39.60000 30.17100
H  1.76100 40.45800 29.04300
H  2.32000 41.18900 26.91500
H  3.75300 40.95600 25.90000
H  3.67900 40.25500 27.46100
H  0.78900 35.21400 22.84100
H  -2.15700 34.58700 22.37900
H  -1.45900 36.61900 21.40900
H  0.28900 37.11700 21.61800
H  -0.99600 37.60000 22.72200
H  -0.07700 33.27300 21.40900
H  -1.10000 32.12500 22.04300
H  0.83200 32.99500 24.18100
H  1.64300 32.54600 22.59400
H  0.55800 31.46400 23.39700
H  -4.13100 30.39600 24.74900
H  -5.37500 31.67900 24.94100
H  -5.22000 30.26100 26.13000
H  -3.06300 31.39600 30.78200
H  -5.55700 32.46000 33.87400
H  -5.87600 30.64500 33.78500
H  -6.80500 31.77900 32.92900

