158

Mg 24.92900 -8.04100 46.76900
C  27.26600 -5.53700 45.80900
C  22.50700 -6.35600 44.89600
C  22.91500 -10.65700 47.24900
C  27.67000 -9.85100 48.20700
N  24.94400 -6.21300 45.38700
C  25.93900 -5.29100 45.26100
C  25.51600 -4.09700 44.40500
C  23.90200 -4.10100 44.59000
C  23.78700 -5.66500 44.91200
C  23.29100 -3.16900 45.63200
C  25.99600 -4.31700 42.96400
C  25.80100 -3.16000 42.00000
H  26.29300 -3.38300 40.59600
N  23.01800 -8.51600 46.03100
C  22.17900 -7.66900 45.36400
C  20.85900 -8.32400 45.27500
C  20.97200 -9.54800 46.00000
C  22.32200 -9.63100 46.46300
C  19.69200 -7.74900 44.51800
C  19.80800 -10.62200 46.19500
O  18.68200 -10.45700 45.71400
C  20.00000 -11.89400 46.98300
N  25.30500 -9.94400 47.51400
C  24.23500 -10.84800 47.65100
C  24.68700 -11.99900 48.48800
C  26.31900 -11.80400 48.47100
C  26.44600 -10.40700 48.11300
C  24.11500 -11.85600 49.87200
C  27.19800 -12.74300 47.54700
C  27.86500 -13.98700 48.26100
N  26.96500 -7.65900 47.20700
C  27.91200 -8.48200 47.75800
C  29.16100 -7.77200 47.82400
C  28.93100 -6.60000 47.05300
C  27.60800 -6.65000 46.63300
C  30.39800 -8.16300 48.49300
C  29.59300 -5.36300 46.64900
O  30.70900 -4.86400 46.89300
C  28.53400 -4.67800 45.78000
C  28.37100 -3.20300 46.22300
O  28.89600 -2.22000 45.69300
O  27.40400 -3.06500 47.27600
C  27.09900 -1.67600 47.68200
H  21.72900 -5.66600 44.56400
H  22.31900 -11.50400 47.59500
H  28.51800 -10.41300 48.60300
H  25.93000 -3.21900 44.90000
H  23.42100 -3.96800 43.62100
H  23.77800 -2.19900 45.53200
H  23.53700 -3.52600 46.63200
H  22.21700 -2.98300 45.65200
H  25.56300 -5.18500 42.46700
H  27.07200 -4.39600 43.11600
H  26.39900 -2.37000 42.45400
H  24.77600 -2.81000 41.87700
H  19.72200 -6.66000 44.48200
H  18.73300 -7.94600 44.99700
H  19.64000 -8.25600 43.55400
H  20.32000 -11.62500 47.99000
H  20.77000 -12.48500 46.48700
H  19.04400 -12.41100 47.07100
H  24.28000 -12.94900 48.14200
H  26.72200 -11.97400 49.46900
H  23.06300 -12.13900 49.91400
H  24.03600 -10.78900 50.07700
H  24.76800 -12.24600 50.65400
H  28.00200 -12.15200 47.10700
H  26.60300 -13.09500 46.70400
H  27.76800 -13.88900 49.34300
H  28.91000 -14.15100 47.99900
H  27.23200 -14.79000 47.88300
H  31.12000 -8.64900 47.83700
H  30.16000 -8.76200 49.37100
H  30.87700 -7.24000 48.82000
H  28.86100 -4.62700 44.74200
H  26.72900 -1.07600 46.85000
H  27.99700 -1.22900 48.10800
H  26.32800 -1.93600 48.40800
Mg -10.76800 39.74000 42.76500
C  -9.00800 36.92000 41.63400
C  -8.55600 41.59000 40.95300
C  -12.90100 42.35700 43.16200
C  -13.37600 37.60800 43.91000
N  -9.01000 39.19900 41.29000
C  -8.40800 38.01900 41.08500
C  -7.08100 38.08600 40.18900
C  -6.83400 39.67200 40.28500
C  -8.19800 40.22400 40.83400
C  -5.63000 40.07800 41.12900
C  -7.32200 37.55200 38.74400
C  -6.54200 36.33800 38.23800
H  -5.94400 36.52100 36.90000
N  -10.73300 41.70400 42.19000
C  -9.79500 42.23600 41.40700
C  -10.05100 43.70600 41.23900
C  -11.15100 43.98500 42.05900
C  -11.66400 42.65400 42.52400
C  -9.26900 44.57500 40.39600
C  -11.60900 45.40100 42.32300
O  -11.06300 46.38900 41.86600
C  -12.91000 45.68500 43.11500
N  -12.83200 39.93500 43.56100
C  -13.51000 41.15200 43.60900
C  -14.90700 40.95100 44.20400
C  -15.07600 39.40100 44.29000
C  -13.66200 38.95200 43.86200
C  -15.10300 41.77700 45.50800
C  -16.26000 38.83800 43.37300
C  -17.05100 37.62900 43.92700
N  -11.05100 37.71400 42.93600
C  -12.15200 36.98700 43.46400
C  -11.83800 35.55900 43.42000
C  -10.59500 35.49600 42.65700
C  -10.11800 36.82700 42.43300
C  -12.72200 34.42100 43.91500
C  -9.63500 34.63300 42.12300
O  -9.60800 33.38400 42.10600
C  -8.58000 35.53600 41.44400
C  -7.24100 35.21900 41.87200
O  -6.88900 35.29300 43.04500
O  -6.66700 34.51000 40.86900
C  -5.37300 33.85800 41.08000
H  -7.79000 42.27600 40.58600
H  -13.51500 43.26000 43.15700
H  -14.19900 36.91100 44.08000
H  -6.29000 37.47800 40.62800
H  -6.65800 40.12400 39.30900
H  -4.88500 40.59500 40.52500
H  -5.14000 39.29300 41.70500
H  -5.95900 40.92000 41.73800
H  -7.42400 38.39200 38.05700
H  -8.34600 37.18300 38.69600
H  -7.21300 35.49500 38.07400
H  -5.68000 36.23600 38.89700
H  -8.74200 43.90600 39.71600
H  -8.54800 45.02500 41.07800
H  -9.89100 45.32800 39.91000
H  -12.87400 45.19400 44.08700
H  -13.78500 45.38500 42.53800
H  -13.06000 46.75100 43.28600
H  -15.70000 41.46300 43.66000
H  -15.27100 39.06400 45.30900
H  -14.13300 42.10700 45.87700
H  -15.63500 41.14000 46.21600
H  -15.68100 42.65500 45.22100
H  -15.82200 38.57300 42.41000
H  -16.87100 39.65700 42.99200
H  -18.01300 37.86400 44.38300
H  -16.44500 36.99900 44.57800
H  -17.17700 37.01700 43.03400
H  -12.23300 33.44900 43.86300
H  -13.65100 34.39200 43.34500
H  -13.06100 34.49900 44.94900
H  -8.67500 35.27600 40.39000
H  -4.67300 34.41000 41.70500
H  -4.87800 33.86100 40.10900
H  -5.55200 32.93700 41.63500

