158

Mg 1.78200 -2.20300 45.27200
C  5.15100 -1.22900 44.90000
C  0.78700 0.68100 43.73900
C  -1.21100 -3.68100 44.90100
C  3.05900 -5.34900 46.63800
N  2.87900 -0.50300 44.25600
C  4.25400 -0.22700 44.32900
C  4.64200 1.02500 43.52800
C  3.20000 1.73600 43.51200
C  2.19600 0.60300 43.87800
C  3.09900 2.85000 44.59100
C  5.15000 0.47700 42.10800
C  6.37200 1.13200 41.54700
H  6.10300 1.98200 40.30200
N  -0.01500 -1.49600 44.59500
C  -0.23400 -0.28400 44.03700
C  -1.66400 -0.24700 43.66000
C  -2.25400 -1.50200 43.78500
C  -1.12700 -2.32500 44.42800
C  -2.28000 1.05300 42.99700
C  -3.71200 -1.92400 43.42400
O  -4.55500 -1.10400 43.04500
C  -4.14200 -3.39300 43.35300
N  1.03000 -4.19900 45.76400
C  -0.28700 -4.49600 45.56200
C  -0.56900 -5.94400 45.73500
C  0.68000 -6.47100 46.41400
C  1.70700 -5.29200 46.25600
C  -1.87400 -6.19500 46.61800
C  1.15200 -7.86000 45.79900
C  1.90100 -8.83900 46.69100
N  3.67000 -3.06700 45.84900
C  4.03100 -4.33300 46.40600
C  5.50600 -4.43000 46.55600
C  5.94100 -3.24700 46.00400
C  4.79900 -2.46900 45.51600
C  6.26700 -5.57600 47.15600
C  7.11500 -2.44900 45.74600
O  8.28700 -2.69500 46.04400
C  6.64500 -1.14100 45.01300
C  7.01000 0.02300 45.82900
O  6.95000 0.11100 47.05200
O  7.49000 1.02800 45.02400
C  7.91300 2.27700 45.56400
H  0.50400 1.60600 43.23300
H  -2.23500 -4.05100 44.81000
H  3.32400 -6.30300 47.09900
H  5.30200 1.70200 44.06900
H  3.01500 2.29500 42.59500
H  3.03600 3.79400 44.05000
H  4.01700 3.01300 45.15500
H  2.21700 2.68800 45.21000
H  4.29400 0.56900 41.43900
H  5.41000 -0.56600 42.29100
H  7.01300 0.30100 41.25100
H  6.84500 1.78000 42.28400
H  -3.01800 0.86000 42.21800
H  -1.44300 1.62300 42.59400
H  -2.87000 1.52900 43.78100
H  -4.39000 -3.66600 44.37900
H  -3.39600 -3.99500 42.83400
H  -5.03500 -3.46100 42.73300
H  -0.53800 -6.51300 44.80600
H  0.60700 -6.53300 47.49900
H  -2.73100 -6.20000 45.94600
H  -2.06200 -5.44200 47.38300
H  -1.79500 -7.13500 47.16400
H  1.84200 -7.65100 44.98100
H  0.36400 -8.41200 45.28800
H  1.47600 -8.96200 47.68700
H  2.97900 -8.68000 46.73500
H  1.94100 -9.79000 46.16100
H  5.63200 -5.92600 47.97000
H  7.24900 -5.23300 47.48400
H  6.40700 -6.29400 46.34800
H  7.27200 -1.17400 44.12200
H  8.81100 2.56400 45.01700
H  8.18500 2.27000 46.61900
H  7.13300 3.00500 45.34100
Mg 29.36700 58.89400 41.26000
C  26.76300 56.91000 39.99600
C  31.56700 56.86600 39.84100
C  31.65800 61.37600 41.66200
C  26.83600 61.18700 42.38200
N  29.15000 57.17600 39.88600
C  28.05600 56.48100 39.62100
C  28.34000 55.34400 38.64300
C  29.87500 55.16300 38.85300
C  30.24400 56.45800 39.63200
C  30.25800 53.79500 39.67600
C  27.85300 55.77800 37.25700
C  26.99800 54.77100 36.45500
H  27.34400 54.50100 34.99000
N  31.32700 59.12100 40.73700
C  32.10600 58.13500 40.26700
C  33.46600 58.53500 40.22600
C  33.57300 59.85300 40.82100
C  32.17700 60.16300 41.12800
C  34.55000 57.75200 39.40700
C  34.77700 60.72500 41.07100
O  35.92600 60.31200 40.78200
C  34.68300 62.05700 41.60500
N  29.27200 60.96800 42.00600
C  30.36300 61.76000 42.08800
C  29.94000 63.12800 42.56300
C  28.45700 63.06700 42.82000
C  28.16600 61.67900 42.32600
C  30.70300 63.77100 43.65000
C  27.59400 64.24100 42.14400
C  26.54300 64.70600 43.15200
N  27.20000 58.92800 41.41900
C  26.34100 59.91300 41.91100
C  25.01900 59.41500 41.74500
C  25.09000 58.26500 41.02600
C  26.47700 58.08600 40.76600
C  23.68100 60.08800 42.17200
C  24.40200 57.16700 40.44100
O  23.23200 56.94900 40.46300
C  25.42000 56.27400 39.68900
C  25.26600 54.98600 40.27100
O  25.79300 54.63300 41.35400
O  24.60500 54.16500 39.36300
C  24.85700 52.71100 39.52700
H  32.22700 56.04600 39.55000
H  32.28700 62.25400 41.82200
H  26.08200 61.86300 42.79100
H  27.88100 54.44400 39.05300
H  30.34900 55.17500 37.87200
H  29.35400 53.29800 40.02700
H  30.77000 54.00000 40.61700
H  30.77700 53.09300 39.02300
H  28.72100 55.95200 36.62200
H  27.29400 56.69000 37.46400
H  25.98400 55.16900 36.46900
H  26.87500 53.83700 37.00400
H  34.63600 56.74500 39.81500
H  35.56700 58.14600 39.39700
H  34.26200 57.64600 38.36100
H  34.22900 62.74600 40.89400
H  35.72400 62.38000 41.64500
H  34.26100 62.08300 42.60900
H  30.01400 63.84000 41.74100
H  28.25600 63.01900 43.89100
H  31.69300 63.33200 43.77100
H  30.25800 63.53400 44.61600
H  30.85600 64.84300 43.52900
H  27.03700 63.95100 41.25300
H  28.17600 65.13200 41.90600
H  25.57100 64.51100 42.70000
H  26.68600 65.78500 43.22100
H  26.58400 64.29500 44.16100
H  22.91000 59.36700 41.89900
H  23.53800 60.94000 41.50800
H  23.52500 60.44400 43.19000
H  25.19700 56.29700 38.62300
H  24.06700 52.25600 40.12400
H  25.69400 52.51500 40.19700
H  25.07400 52.11500 38.64000

