158

Mg 1.14000 7.78900 28.16800
C  1.66500 9.93100 30.91300
C  1.52000 5.19000 30.36900
C  1.30100 5.76200 25.54000
C  1.30300 10.54900 26.00100
N  1.54400 7.58400 30.41700
C  1.54400 8.59500 31.28400
C  1.24200 8.06800 32.69600
C  1.54500 6.51600 32.56500
C  1.53800 6.43500 31.02900
C  2.89700 6.07400 33.09100
C  -0.21800 8.25000 33.17400
C  -0.57100 8.84100 34.62500
H  0.47400 8.59000 35.74000
N  1.12200 5.80000 27.95200
C  1.29100 4.85500 29.02000
C  1.18900 3.51500 28.47300
C  1.05100 3.65000 27.04400
C  1.19300 5.07300 26.80800
C  1.27300 2.39500 29.34900
C  0.84500 2.57200 25.97200
O  0.83200 2.85200 24.76300
C  0.58800 1.17100 26.42800
N  1.24000 8.12400 26.05900
C  1.30400 7.13000 25.19200
C  1.28000 7.62900 23.69000
C  0.99000 9.18400 23.87300
C  1.14100 9.26900 25.39000
C  2.59400 7.36200 22.95100
C  -0.30600 9.83000 23.20200
C  -1.41700 10.46600 24.00300
N  1.44700 9.82300 28.30300
C  1.44300 10.83700 27.41000
C  1.69300 12.12300 28.10300
C  1.74300 11.75700 29.41200
C  1.62900 10.41000 29.54200
C  1.79800 13.35800 27.43100
C  1.95000 12.29500 30.70200
O  2.20400 13.45200 31.03600
C  1.79200 11.16300 31.71400
C  2.81600 11.23100 32.74100
O  3.96700 10.85100 32.52300
O  2.39800 11.85800 33.84600
C  3.51800 12.14800 34.86100
H  1.79600 4.36900 31.03500
H  1.23800 5.12100 24.65900
H  1.33700 11.35500 25.26500
H  2.04300 8.48800 33.30400
H  0.77700 5.87900 33.00400
H  3.60600 5.87800 32.28700
H  2.58300 5.15000 33.57700
H  3.40700 6.74900 33.77800
H  -0.78100 7.32200 33.27200
H  -0.73800 8.83600 32.41600
H  -1.53500 8.45100 34.95300
H  -0.78400 9.88900 34.41600
H  1.80700 1.63800 28.77500
H  0.28600 2.02800 29.63100
H  1.92100 2.50400 30.21800
H  1.40800 0.63300 26.90300
H  0.26700 0.46200 25.66500
H  -0.29300 1.23900 27.06700
H  0.50200 7.09700 23.14200
H  1.86400 9.75900 23.56800
H  3.28200 6.90900 23.66400
H  3.00800 8.27100 22.51400
H  2.43600 6.60300 22.18500
H  -0.67800 9.02400 22.57000
H  -0.01700 10.65800 22.55500
H  -1.09900 10.31500 25.03400
H  -2.33400 9.88000 23.94700
H  -1.59800 11.51300 23.76000
H  0.78700 13.76100 27.36400
H  2.24800 13.18900 26.45400
H  2.39700 14.00100 28.07600
H  0.86800 11.41500 32.23400
H  4.43100 12.56000 34.43300
H  3.79400 11.23200 35.38300
H  3.26800 12.82000 35.68100
Mg 30.10200 57.88000 40.85600
C  27.44000 56.08300 39.54800
C  32.30900 55.51200 39.36000
C  32.70700 59.95800 41.37700
C  27.79000 60.24700 41.84900
N  29.84000 56.00400 39.63800
C  28.68900 55.46900 39.22900
C  28.86800 54.21400 38.37700
C  30.33200 53.80100 38.78400
C  30.89400 55.18900 39.27600
C  30.48600 52.80700 40.01900
C  28.69000 54.50200 36.96400
C  27.71100 53.53800 36.25900
H  26.92400 54.20200 35.11600
N  32.20800 57.67700 40.45900
C  32.86100 56.61900 39.89400
C  34.32600 56.90000 39.84100
C  34.42700 58.21600 40.44500
C  33.12200 58.70800 40.80500
C  35.32400 55.91600 39.24000
C  35.70600 58.97100 40.64600
O  36.75800 58.51900 40.20400
C  35.89000 60.22600 41.48200
N  30.24600 59.75500 41.68000
C  31.45700 60.46200 41.71100
C  31.20200 61.80200 42.48300
C  29.68200 61.88300 42.51600
C  29.14800 60.50000 42.00800
C  31.82200 61.85200 43.87900
C  29.09600 63.22900 41.99500
C  29.09900 64.31700 43.06100
N  28.01800 58.15500 40.85500
C  27.17000 59.13600 41.22200
C  25.78600 58.90500 40.98800
C  25.86400 57.64400 40.28300
C  27.26400 57.29900 40.27500
C  24.64200 59.65400 41.42200
C  25.07300 56.58700 39.59100
O  23.90400 56.58200 39.23600
C  26.03800 55.51800 39.10400
C  25.60900 54.31000 39.82200
O  25.68800 54.10600 41.04900
O  24.88600 53.48300 38.93700
C  24.48000 52.11100 39.49000
H  32.93300 54.70500 38.97000
H  33.43300 60.77200 41.44200
H  27.12300 61.05400 42.15700
H  28.23400 53.41000 38.75000
H  30.96600 53.47700 37.95900
H  30.60000 53.41100 40.92000
H  31.35600 52.22700 39.71300
H  29.61700 52.15700 40.11800
H  29.67900 54.52000 36.50700
H  28.33700 55.51200 36.75500
H  26.90100 53.27000 36.93700
H  28.34700 52.72800 35.90300
H  35.74300 56.34600 38.33100
H  34.92000 54.97500 38.86700
H  36.11500 55.76900 39.97600
H  35.50000 60.95800 40.77500
H  36.95400 60.39300 41.65200
H  35.26500 60.23000 42.37500
H  31.63300 62.66300 41.97100
H  29.37200 61.87700 43.56000
H  32.74400 61.27300 43.91900
H  31.13600 61.56600 44.67700
H  32.22900 62.85500 44.00700
H  28.11000 63.13600 41.54100
H  29.84500 63.58600 41.28800
H  29.48000 65.30000 42.78400
H  29.45400 64.07400 44.06300
H  28.04200 64.49500 43.26000
H  23.75600 59.06800 41.17700
H  24.63200 60.58600 40.85800
H  24.53700 59.82800 42.49200
H  25.74600 55.31700 38.07400
H  24.59300 51.37700 38.69300
H  23.40100 52.15800 39.63500
H  25.08900 51.65600 40.27200

