158

Mg 47.67200 16.21500 27.58000
C  45.75300 16.25700 30.56000
C  50.06500 17.99600 29.25200
C  49.24500 16.43200 24.76300
C  44.80900 14.87500 26.00500
N  47.82700 16.90700 29.70500
C  47.02400 16.74200 30.79700
C  47.64200 17.22600 32.10200
C  48.93300 18.08100 31.57700
C  48.94200 17.60300 30.01300
C  48.78500 19.60500 31.62900
C  48.06300 15.97400 33.02300
C  47.68900 16.23000 34.55900
H  47.74400 17.62300 35.16500
N  49.53700 17.00700 27.12000
C  50.37800 17.65100 27.92600
C  51.50200 18.09300 27.17500
C  51.32600 17.59200 25.84600
C  49.95000 16.99200 25.82600
C  52.69900 18.61700 27.95000
C  52.17300 17.62800 24.61000
O  51.92800 16.91700 23.55500
C  53.49900 18.41600 24.64600
N  47.04200 15.74300 25.64500
C  47.92800 15.89300 24.62900
C  47.26200 15.41200 23.23200
C  45.89400 14.83800 23.68100
C  45.89500 15.12300 25.18900
C  47.22000 16.60200 22.28500
C  45.73200 13.29200 23.41100
C  44.84800 12.78600 22.23500
N  45.63700 15.70600 28.08700
C  44.70700 15.15400 27.38900
C  43.53000 14.86600 28.28100
C  43.94300 15.25300 29.51700
C  45.18800 15.82700 29.32600
C  42.21700 14.19600 27.91700
C  43.58600 15.29500 30.91400
O  42.51900 14.99300 31.40600
C  44.72600 15.91500 31.65300
C  44.15400 17.01900 32.50100
O  43.78100 18.11200 32.04200
O  44.06300 16.71900 33.85800
C  43.59500 17.72900 34.75600
H  50.76100 18.57300 29.86400
H  49.75400 16.45800 23.79800
H  43.98000 14.33200 25.54600
H  46.93500 17.97700 32.45500
H  49.88700 17.68900 31.92900
H  47.95500 19.81900 32.30200
H  48.46300 20.05300 30.68800
H  49.74600 20.08100 31.82400
H  49.11000 15.67700 32.95900
H  47.36700 15.17200 32.77400
H  48.35500 15.66300 35.21000
H  46.70800 15.78000 34.70600
H  53.32000 17.83200 28.38100
H  52.41400 19.34700 28.70700
H  53.35200 19.17000 27.27500
H  53.39800 19.30500 25.26800
H  53.73700 18.69300 23.61900
H  54.30100 17.79100 25.03800
H  47.91700 14.68200 22.75600
H  45.02900 15.39400 23.31800
H  47.84800 17.46500 22.51000
H  46.19900 16.96800 22.39600
H  47.54700 16.16600 21.34100
H  45.40700 12.74000 24.29300
H  46.74400 12.93200 23.22900
H  45.41300 12.08600 21.61900
H  44.41500 13.58900 21.63800
H  43.93700 12.23700 22.47300
H  42.30100 13.15500 28.23000
H  41.92600 14.33700 26.87600
H  41.34000 14.57400 28.44300
H  45.11400 15.17800 32.35600
H  43.07400 17.22400 35.56800
H  42.92800 18.45600 34.29200
H  44.42700 18.28500 35.18800
Mg -10.62600 16.66200 41.03100
C  -7.20800 16.80100 41.58200
C  -10.58500 19.94500 40.19500
C  -13.97400 16.41000 40.31400
C  -10.54100 13.13700 41.40900
N  -9.07800 18.09400 40.85800
C  -7.75900 17.96200 41.06000
C  -7.01600 19.27300 40.59600
C  -8.14900 20.28500 40.76500
C  -9.40000 19.38700 40.64300
C  -8.25300 21.07300 42.10500
C  -6.47600 19.16400 39.19400
C  -5.00300 18.87700 39.04700
H  -4.65000 17.85900 38.04800
N  -12.07500 18.00700 40.30400
C  -11.87000 19.31800 40.04500
C  -13.10000 19.91100 39.73400
C  -14.02400 18.85600 39.65900
C  -13.37800 17.64300 40.04500
C  -13.30000 21.42400 39.43500
C  -15.41300 19.05300 39.15400
O  -15.76800 20.22200 38.93100
C  -16.45200 17.95700 38.87600
N  -12.00300 14.91700 40.57000
C  -13.34000 15.13600 40.56200
C  -14.16800 13.86200 40.91200
C  -12.99800 12.75900 41.02800
C  -11.73900 13.62500 40.98700
C  -14.98000 14.05700 42.26000
C  -13.07000 11.59800 39.94200
C  -12.31800 11.83600 38.57700
N  -9.18800 15.20200 41.45000
C  -9.26500 13.81500 41.61200
C  -7.95400 13.29100 42.08700
C  -7.10200 14.48300 42.08500
C  -7.86300 15.53500 41.64300
C  -7.56900 11.84100 42.26700
C  -5.79900 15.00500 42.39800
O  -4.80800 14.42800 42.77000
C  -5.89700 16.55900 42.15500
C  -5.72200 17.40500 43.40400
O  -4.95700 18.35900 43.49500
O  -6.52600 16.95800 44.40800
C  -6.15900 17.39300 45.78900
H  -10.49900 21.01600 40.00100
H  -15.06500 16.36500 40.35300
H  -10.57200 12.07300 41.65300
H  -6.09400 19.40600 41.16100
H  -8.24800 21.05600 40.00200
H  -7.30600 20.81900 42.58200
H  -9.03400 20.82400 42.82300
H  -8.24900 22.14500 41.91100
H  -6.57800 20.15700 38.75700
H  -7.01200 18.38000 38.65900
H  -4.64800 18.40700 39.96400
H  -4.54300 19.83000 38.78500
H  -13.74000 21.47700 38.43900
H  -12.33800 21.93600 39.47200
H  -13.94000 21.87100 40.19600
H  -15.94500 17.22500 38.24700
H  -17.20600 18.40400 38.22800
H  -16.93900 17.50500 39.74000
H  -14.88700 13.63800 40.12500
H  -12.84600 12.31900 42.01400
H  -14.69000 14.96000 42.79800
H  -14.96700 13.11900 42.81500
H  -16.01900 14.21800 41.97300
H  -14.13900 11.50500 39.75300
H  -12.67500 10.76900 40.52900
H  -13.06000 11.98600 37.79400
H  -11.72200 10.94300 38.38900
H  -11.67000 12.71200 38.60600
H  -7.83400 11.28200 41.37000
H  -8.13200 11.40600 43.09300
H  -6.49800 11.87200 42.46900
H  -5.06200 16.73200 41.47600
H  -6.80300 18.20200 46.13300
H  -5.19100 17.89500 45.80000
H  -5.95300 16.57600 46.48100

