158

Mg 35.43200 3.30500 29.87900
C  32.95100 3.92200 32.30000
C  37.82300 3.51100 32.51300
C  37.87200 2.53100 27.65500
C  33.08100 3.54500 27.41600
N  35.36100 3.75700 32.14800
C  34.24400 3.92100 32.89100
C  34.54200 3.98300 34.43000
C  36.11200 4.09800 34.42800
C  36.49900 3.77400 32.93000
C  36.66400 5.35800 35.02800
C  34.09500 2.66200 35.16900
C  33.63300 2.70900 36.62300
H  34.31800 3.75800 37.53800
N  37.51100 3.01800 30.04100
C  38.32800 3.19800 31.20100
C  39.67000 2.78200 30.88800
C  39.66500 2.33900 29.48800
C  38.31400 2.67300 28.97700
C  40.76300 2.60400 31.94800
C  40.69600 1.51900 28.71700
O  40.53900 1.19100 27.53400
C  41.89300 0.94700 29.38100
N  35.47000 3.09600 27.79600
C  36.56700 2.70700 27.15800
C  36.18000 2.65800 25.66000
C  34.63100 2.85600 25.51500
C  34.36200 3.21900 26.99700
C  36.98300 3.49500 24.60100
C  33.85300 1.69300 24.97200
C  33.31400 1.74000 23.58600
N  33.45000 3.84500 29.78100
C  32.58600 3.78600 28.69100
C  31.19400 4.02000 29.16900
C  31.30100 4.08100 30.56700
C  32.66700 3.84600 30.90400
C  29.92800 4.22800 28.41400
C  30.56900 4.28300 31.83700
O  29.41100 4.51400 32.05200
C  31.64900 4.23700 32.97100
C  31.76500 5.57700 33.57400
O  32.01400 6.65400 33.01700
O  31.19400 5.52200 34.84400
C  31.12000 6.70800 35.71100
H  38.56600 3.45200 33.31000
H  38.49900 2.13500 26.85400
H  32.33900 3.51800 26.61500
H  33.97900 4.84000 34.79900
H  36.50200 3.23400 34.96700
H  37.46600 5.12700 35.72900
H  35.87100 5.98100 35.44200
H  37.21100 5.82200 34.20700
H  34.82800 1.85600 35.14000
H  33.24200 2.32300 34.58100
H  33.83700 1.69200 36.95700
H  32.54300 2.72700 36.64500
H  41.71000 2.81000 31.45100
H  40.72400 1.60400 32.38000
H  40.61000 3.39800 32.67900
H  42.69100 1.63400 29.66400
H  42.27800 0.19200 28.69500
H  41.50100 0.34700 30.20200
H  36.47400 1.67400 25.29600
H  34.43000 3.71200 24.87000
H  36.42600 3.92800 23.77000
H  37.75500 2.86800 24.15600
H  37.50000 4.26900 25.16700
H  33.04000 1.43800 25.65200
H  34.49600 0.81800 25.06300
H  33.92600 2.49000 23.08400
H  32.27000 2.05400 23.56600
H  33.53100 0.89100 22.93700
H  29.27000 3.42000 28.73400
H  30.07300 4.39000 27.34600
H  29.43500 5.12700 28.78300
H  31.39400 3.52500 33.75600
H  30.28900 7.35500 35.42800
H  32.07400 7.23400 35.67500
H  31.00500 6.33900 36.73000
Mg 35.52500 48.05300 25.11500
C  36.07500 46.01100 27.93800
C  33.93100 50.32400 27.01700
C  34.87900 49.66700 22.21200
C  36.90500 45.34800 23.17000
N  35.20600 48.21500 27.32800
C  35.59300 47.29700 28.33000
C  35.15200 47.90400 29.68100
C  34.30300 49.17900 29.35000
C  34.43300 49.22600 27.82600
C  32.84500 49.04900 29.88100
C  36.35500 48.13000 30.65600
C  36.00400 48.12600 32.17400
H  34.57600 47.91900 32.66400
N  34.65900 49.83400 24.71900
C  34.06800 50.62800 25.61400
C  33.72900 51.87300 24.95800
C  33.93900 51.70500 23.54500
C  34.52700 50.33700 23.44300
C  33.26700 53.06400 25.69600
C  33.67800 52.56200 22.38800
O  33.75100 52.13700 21.23200
C  33.24300 53.90800 22.62500
N  35.74300 47.50700 22.97700
C  35.48200 48.45400 22.03000
C  35.98500 47.96900 20.62500
C  36.55700 46.47600 20.92100
C  36.42400 46.39800 22.45500
C  34.87700 48.03200 19.54000
C  38.05700 46.38700 20.46300
C  38.98900 47.48800 21.16700
N  36.29000 46.09500 25.45200
C  36.82400 45.17300 24.54700
C  37.28700 44.03700 25.36200
C  36.93200 44.29800 26.68800
C  36.43700 45.56000 26.66000
C  37.95100 42.75100 24.87500
C  36.84900 43.65600 27.98500
O  37.24000 42.59100 28.36900
C  36.38500 44.82800 28.89400
C  35.23200 44.34500 29.67600
O  34.14400 44.04100 29.23700
O  35.59500 44.41800 31.03600
C  34.43100 43.95100 31.91300
H  33.32900 51.06100 27.55100
H  34.76600 50.24000 21.28900
H  37.49000 44.62900 22.59200
H  34.46300 47.19700 30.14300
H  34.68400 50.14800 29.67000
H  32.65800 49.79200 30.65600
H  32.65000 48.04800 30.26700
H  32.17100 49.27600 29.05500
H  36.89500 48.97600 30.23200
H  37.12600 47.36300 30.58000
H  36.45800 48.99400 32.65200
H  36.43800 47.24100 32.63900
H  32.18500 53.02500 25.57600
H  33.69700 53.98200 25.29300
H  33.43200 53.09300 26.77300
H  34.15000 54.42700 22.93200
H  32.34300 53.90000 23.24000
H  32.86600 54.37000 21.71200
H  36.80000 48.61500 20.29800
H  36.00800 45.69600 20.39400
H  34.08100 48.66100 19.94000
H  34.43600 47.05100 19.35800
H  35.15100 48.50000 18.59500
H  38.00600 46.65500 19.40800
H  38.40200 45.35300 20.45700
H  38.44700 47.96100 21.98600
H  39.35900 48.22300 20.45200
H  39.81900 46.98700 21.66700
H  38.42500 43.03600 23.93500
H  37.11400 42.07400 24.70400
H  38.68500 42.20900 25.47300
H  37.25700 45.17700 29.44700
H  34.55500 42.88600 32.11000
H  33.45000 44.37300 31.69500
H  34.76300 44.49500 32.79800

