158

Mg 35.28000 3.17800 29.43900
C  33.16100 4.13900 32.14000
C  37.85300 2.73900 31.64000
C  37.15200 2.00200 26.89700
C  32.68000 3.92200 27.18800
N  35.49900 3.51600 31.61100
C  34.52000 3.88800 32.54200
C  35.07500 3.85800 33.94400
C  36.64900 3.75800 33.67900
C  36.68200 3.30100 32.18200
C  37.47500 5.05100 33.91500
C  34.46100 2.81500 34.91100
C  34.17600 3.29600 36.30400
H  35.05700 4.39100 36.87100
N  37.22700 2.35700 29.29100
C  38.09900 2.23900 30.31700
C  39.34500 1.59400 29.83400
C  39.09100 1.26000 28.44500
C  37.70400 1.80900 28.15600
C  40.51100 1.16800 30.66200
C  39.96000 0.41300 27.47700
O  39.61100 0.22400 26.35600
C  41.35700 -0.23700 27.88400
N  35.02000 3.06500 27.45400
C  35.94500 2.64000 26.58300
C  35.46200 2.61600 25.13800
C  33.94000 2.88300 25.29300
C  33.86000 3.38800 26.67600
C  36.24800 3.68900 24.37300
C  32.84400 1.84600 24.97500
C  31.64500 2.39100 24.23700
N  33.37600 3.89700 29.57700
C  32.37600 4.03300 28.55300
C  31.15900 4.43000 29.13000
C  31.43600 4.46300 30.52900
C  32.80800 4.13400 30.73700
C  29.87500 4.66300 28.41400
C  30.83600 4.75800 31.79700
O  29.68200 5.11700 32.12000
C  31.92600 4.39000 32.94200
C  31.97100 5.62700 33.88000
O  32.46800 6.71700 33.68600
O  31.31200 5.40300 35.04500
C  31.23000 6.57400 35.98800
H  38.63500 2.54900 32.37700
H  37.62500 1.62400 25.98900
H  31.86400 4.00000 26.46700
H  34.77200 4.85000 34.28100
H  37.07800 3.03500 34.37300
H  36.80700 5.90400 34.03500
H  38.01000 5.25800 32.98800
H  38.14500 4.97600 34.77100
H  35.09800 1.93300 34.84500
H  33.51500 2.53000 34.45100
H  34.11100 2.51000 37.05800
H  33.18000 3.73000 36.39600
H  40.59200 0.08300 30.72200
H  40.37000 1.66500 31.62200
H  41.42100 1.45700 30.13700
H  42.08800 0.56000 28.01800
H  41.47400 -0.84400 26.98600
H  41.09500 -0.77100 28.79700
H  35.61200 1.64200 24.67300
H  33.73400 3.71400 24.61900
H  37.15600 3.96600 24.90900
H  35.73500 4.65100 24.36100
H  36.45300 3.21800 23.41200
H  32.57400 1.36900 25.91700
H  33.25700 1.07100 24.32900
H  30.76600 1.99900 24.75000
H  31.67100 1.94400 23.24300
H  31.58000 3.46800 24.08200
H  29.75800 4.01500 27.54500
H  29.73600 5.68100 28.05200
H  29.01100 4.34100 28.99500
H  31.52200 3.49300 33.41300
H  30.64600 7.34000 35.47700
H  32.17800 6.77100 36.48800
H  30.47000 6.31800 36.72600
Mg 35.67900 48.44200 24.75600
C  36.00800 46.76500 27.91400
C  34.40500 51.13400 26.47100
C  35.14300 49.87900 21.78100
C  36.67500 45.45400 23.14600
N  35.14100 48.81000 27.01700
C  35.38600 48.04400 28.05200
C  34.99600 48.76200 29.38700
C  34.24200 50.06400 28.85600
C  34.53400 50.00200 27.30900
C  32.64500 50.08300 29.06300
C  36.16500 49.06200 30.44300
C  35.90100 48.74200 31.87000
H  34.55500 49.04000 32.48200
N  35.07200 50.37000 24.16400
C  34.62900 51.34700 25.06000
C  34.55800 52.56800 24.25400
C  34.78600 52.20900 22.88600
C  34.89000 50.75600 22.89600
C  34.37600 53.85600 24.91600
C  34.84300 52.99800 21.68100
O  35.15900 52.56300 20.58500
C  34.33900 54.37200 21.67500
N  35.99900 47.76200 22.77700
C  35.65800 48.55900 21.70900
C  35.98200 47.81400 20.40300
C  36.59500 46.44100 20.86300
C  36.34400 46.53300 22.36800
C  34.84700 47.67800 19.47000
C  38.11800 46.30700 20.59700
C  39.01900 47.38200 21.23500
N  36.24400 46.49300 25.31000
C  36.64900 45.38500 24.57900
C  37.06800 44.30500 25.42300
C  36.81900 44.84100 26.74800
C  36.32800 46.16300 26.65500
C  37.60800 43.08300 24.89700
C  37.00100 44.51300 28.19500
O  37.40500 43.50800 28.79100
C  36.53500 45.86600 29.00400
C  35.43200 45.37200 29.89200
O  34.20700 45.43500 29.58900
O  35.88300 45.06000 31.12700
C  34.84600 44.58300 32.02200
H  34.05000 52.04500 26.95700
H  35.03700 50.35500 20.80400
H  36.98900 44.53700 22.64400
H  34.32800 48.07000 29.90000
H  34.66200 50.94800 29.33600
H  32.08500 50.12400 28.12800
H  32.58200 50.90800 29.77300
H  32.34400 49.17400 29.58300
H  36.32000 50.14000 30.48600
H  37.07200 48.69400 29.96400
H  36.60600 49.36800 32.41700
H  36.11900 47.67900 31.97200
H  35.02300 54.52900 24.35300
H  34.75900 53.73300 25.92900
H  33.36500 54.24500 24.79500
H  34.08500 54.67600 20.65900
H  35.17200 55.00100 21.99000
H  33.35300 54.55300 22.10200
H  36.72100 48.52400 20.03100
H  35.99800 45.64700 20.41400
H  33.85900 47.80000 19.91400
H  34.76700 46.69300 19.01100
H  34.90000 48.42600 18.67800
H  38.17900 46.51200 19.52800
H  38.41100 45.28800 20.85100
H  39.88900 46.88100 21.66000
H  38.67600 48.06000 22.01600
H  39.21600 48.09000 20.43000
H  36.87400 42.75000 24.16300
H  37.69700 42.38300 25.72800
H  38.60200 43.22600 24.47100
H  37.37100 46.29000 29.56100
H  35.14100 44.20800 33.00200
H  34.27200 43.76600 31.58500
H  34.15000 45.38100 32.28000

