158

Mg -1.75600 17.52600 26.31600
C  -2.25100 15.41800 29.09700
C  -1.87600 20.22100 28.61300
C  -1.75700 19.63000 23.84200
C  -2.30300 14.84700 24.29800
N  -1.86400 17.80700 28.64200
C  -1.94500 16.77300 29.52600
C  -2.19300 17.34500 30.97400
C  -2.28200 18.83400 30.75800
C  -2.03100 18.98700 29.23800
C  -3.50600 19.60000 31.31000
C  -1.08100 16.91400 32.06600
C  -0.92700 17.78200 33.33400
H  -0.90200 17.00700 34.66500
N  -1.62500 19.62800 26.30000
C  -1.62400 20.53300 27.28600
C  -1.23900 21.82900 26.71900
C  -1.10900 21.66500 25.34600
C  -1.53200 20.25300 25.09100
C  -1.30400 23.09200 27.58300
C  -0.71800 22.72500 24.26600
O  -0.53500 22.38800 23.08500
C  -0.43200 24.08800 24.71200
N  -2.21800 17.29700 24.31900
C  -2.16200 18.33000 23.46400
C  -2.44700 17.82300 22.02300
C  -2.13700 16.26700 22.17800
C  -2.23600 16.06600 23.67400
C  -3.87100 18.10900 21.55000
C  -0.79600 15.77300 21.43600
C  0.52000 15.69800 22.24100
N  -2.00500 15.58000 26.61600
C  -2.23300 14.58600 25.68700
C  -2.34700 13.30000 26.24900
C  -2.42900 13.58700 27.67000
C  -2.21900 14.99100 27.77200
C  -2.46500 11.99800 25.60200
C  -2.60600 13.03400 28.97300
O  -2.80300 11.86700 29.37100
C  -2.50000 14.21400 29.93700
C  -1.43300 13.88800 30.90100
O  -0.23600 14.09800 30.65600
O  -1.99100 13.32300 31.99100
C  -0.92000 13.05400 32.97800
H  -1.90600 21.05300 29.31900
H  -1.73400 20.34000 23.01200
H  -2.35900 14.00800 23.60100
H  -3.12900 17.04200 31.44200
H  -1.41600 19.37400 31.14000
H  -4.03100 20.06100 30.47300
H  -3.18100 20.37800 32.00100
H  -4.14200 18.95600 31.91800
H  -0.11200 16.68300 31.62500
H  -1.21500 15.87000 32.34800
H  -1.69100 18.55900 33.29500
H  -0.00700 18.36200 33.25900
H  -0.30300 23.51300 27.49600
H  -1.35100 22.92200 28.65900
H  -2.01900 23.79200 27.15200
H  0.39800 24.14100 25.41700
H  -1.29800 24.59500 25.13500
H  -0.04300 24.64500 23.85900
H  -1.86000 18.28700 21.23100
H  -3.02500 15.72800 21.84700
H  -4.47800 17.20400 21.49900
H  -3.83100 18.55900 20.55800
H  -4.46700 18.77800 22.17000
H  -0.55200 16.47600 20.63900
H  -0.90900 14.83000 20.90100
H  0.47600 16.01200 23.28400
H  1.14100 16.49000 21.82400
H  1.00000 14.72000 22.24600
H  -1.57800 11.86900 24.98300
H  -3.36500 12.14500 25.00500
H  -2.70800 11.21200 26.31800
H  -3.51500 14.37700 30.29800
H  -1.49600 12.69200 33.82900
H  -0.37200 13.97600 33.17300
H  -0.13500 12.37600 32.64100
Mg 47.47100 16.76100 28.43700
C  45.64800 16.28300 31.39300
C  49.55800 18.89700 29.97300
C  48.95600 17.27900 25.34500
C  44.66600 15.30500 26.68000
N  47.57900 17.53600 30.49200
C  46.80600 17.11500 31.55100
C  47.39000 17.65600 32.89800
C  48.58000 18.65000 32.33200
C  48.64700 18.30300 30.85200
C  48.42300 20.16500 32.48800
C  47.99000 16.45900 33.73600
C  48.33200 16.89700 35.19800
H  48.19500 18.40100 35.56100
N  49.06500 17.79400 27.81000
C  49.86300 18.61400 28.57800
C  50.99100 19.05900 27.84700
C  50.95600 18.37900 26.61500
C  49.64100 17.70700 26.51900
C  52.08000 20.03800 28.45100
C  51.97600 18.41300 25.63500
O  51.90500 17.85400 24.50000
C  53.29900 19.10400 25.86100
N  46.88600 16.37800 26.38200
C  47.66400 16.79600 25.26300
C  47.00200 16.48200 23.92700
C  45.79100 15.70500 24.41300
C  45.67700 15.81000 25.93700
C  46.66900 17.72700 23.08400
C  45.68000 14.21800 23.87900
C  44.81300 13.96500 22.60700
N  45.55000 15.79600 28.85200
C  44.46700 15.32400 28.06200
C  43.37900 14.94000 28.88400
C  43.79200 15.20700 30.22000
C  45.11300 15.80500 30.15000
C  42.15300 14.28800 28.38100
C  43.41400 15.15600 31.62700
O  42.34300 14.77700 32.12000
C  44.57700 15.79300 32.38000
C  43.98200 16.90200 33.22000
O  43.22800 17.76000 32.81300
O  44.46200 16.92700 34.45200
C  44.02900 18.02600 35.35000
H  50.28900 19.35800 30.64100
H  49.44300 17.48300 24.38900
H  43.84900 14.90100 26.07800
H  46.65200 18.24600 33.44100
H  49.58000 18.41700 32.70000
H  49.24100 20.66400 33.00700
H  47.47600 20.30000 33.01000
H  48.28100 20.69600 31.54700
H  48.94700 16.17700 33.29500
H  47.37800 15.56500 33.85000
H  49.35400 16.55700 35.36800
H  47.72600 16.31800 35.89600
H  52.56000 20.75800 27.78800
H  52.78500 19.37500 28.95300
H  51.67400 20.57100 29.31000
H  54.02900 18.80000 25.11000
H  53.72500 18.70200 26.78100
H  53.23400 20.18900 25.78600
H  47.76300 15.83300 23.49400
H  44.88500 16.19800 24.05800
H  47.10500 18.57600 23.61000
H  45.62700 17.73800 22.76400
H  47.17000 17.65800 22.11800
H  45.22200 13.57400 24.63000
H  46.69500 13.84700 23.73200
H  44.13100 14.78400 22.37600
H  44.26400 13.02600 22.54300
H  45.57000 13.94200 21.82300
H  41.61500 13.89200 29.24300
H  42.45400 13.56200 27.62600
H  41.42800 14.93900 27.89200
H  44.94500 15.01200 33.04600
H  43.70200 18.93300 34.84100
H  44.80900 18.41100 36.00700
H  43.16900 17.73200 35.95200

