158

Mg 45.34600 3.57700 47.66300
C  43.43100 6.42200 47.17300
C  42.33800 1.65600 47.54200
C  47.19300 0.82600 47.47500
C  48.18400 5.60100 47.64400
N  43.20900 4.02200 47.32300
C  42.63100 5.24600 47.11400
C  41.13800 5.08000 46.76000
C  40.71200 3.58500 47.03000
C  42.16900 3.05300 47.29200
C  39.69900 3.36100 48.14100
C  40.83500 5.65600 45.29300
C  39.67000 6.59700 45.22300
H  38.76300 6.56700 43.98700
N  44.86800 1.56100 47.50600
C  43.60300 0.93900 47.53400
C  43.79900 -0.50400 47.38000
C  45.21300 -0.70400 47.40100
C  45.80600 0.57200 47.45600
C  42.66800 -1.46600 47.16000
C  45.86000 -2.19800 47.23900
O  45.20700 -3.20100 47.14900
C  47.35700 -2.39200 47.27400
N  47.43100 3.23200 47.62000
C  47.98800 2.01200 47.63100
C  49.51700 1.98000 47.84400
C  49.81100 3.53700 47.84300
C  48.37600 4.21000 47.77200
C  49.93600 1.19500 49.00700
C  50.88300 4.03100 46.78900
C  52.17400 4.36200 47.33600
N  45.77800 5.62400 47.46400
C  46.97300 6.30300 47.51800
C  46.66800 7.68200 47.37600
C  45.31900 7.79700 47.21000
C  44.80200 6.47900 47.33700
C  47.72000 8.74200 47.12700
C  44.24700 8.69300 46.98700
O  44.31000 9.86100 46.83000
C  42.91500 7.86300 46.88900
C  41.92600 8.41500 47.85600
O  41.55000 7.85500 48.88200
O  41.35800 9.55600 47.36500
C  39.95900 9.88900 47.90300
H  41.42100 1.06300 47.52400
H  47.88900 -0.01400 47.52800
H  49.10500 6.17700 47.76100
H  40.58000 5.74300 47.42100
H  40.42400 3.06700 46.11500
H  39.78100 4.23400 48.78800
H  39.93100 2.47800 48.73700
H  38.66100 3.36900 47.81100
H  40.58900 4.80800 44.65300
H  41.73800 6.15700 44.94500
H  40.04700 7.61700 45.30300
H  39.01500 6.55000 46.09300
H  42.47700 -2.03300 48.07000
H  42.89700 -2.13400 46.32900
H  41.80300 -0.93600 46.76100
H  47.89100 -1.75700 46.56800
H  47.56300 -3.42500 46.99400
H  47.63600 -2.34700 48.32700
H  49.99200 1.49700 46.99000
H  50.27800 3.74200 48.80600
H  49.15000 1.09900 49.75500
H  50.84600 1.52600 49.50800
H  50.13100 0.21400 48.57400
H  50.43800 4.73500 46.08600
H  50.93500 3.18200 46.10700
H  52.51000 5.03100 46.54400
H  52.87600 3.54800 47.51800
H  52.04600 5.01800 48.19700
H  47.26300 9.59900 46.63500
H  48.51900 8.33800 46.50500
H  48.02500 8.93700 48.15500
H  42.73700 8.09000 45.83700
H  39.29400 9.13700 47.48100
H  39.63000 10.88300 47.59800
H  40.00600 9.74300 48.98200
Mg 48.81000 34.43800 26.44000
C  46.74700 33.24500 29.04900
C  49.10700 37.43800 28.03400
C  50.00700 35.81700 23.48800
C  47.70000 31.74100 24.48400
N  47.96800 35.21800 28.25800
C  47.28700 34.53700 29.27600
C  47.21700 35.42000 30.59500
C  47.64100 36.83000 30.08100
C  48.30400 36.46900 28.70400
C  46.50600 37.91900 30.00000
C  48.20400 34.88800 31.67200
C  47.53900 34.57300 33.09200
H  46.69800 35.71300 33.70700
N  49.62200 36.28800 25.89300
C  49.76900 37.30900 26.74500
C  50.62900 38.27200 26.07000
C  50.83900 37.81700 24.70700
C  50.12000 36.59300 24.61200
C  50.94200 39.51100 26.75600
C  51.63500 38.52900 23.51200
O  51.57800 38.12200 22.36900
C  52.39400 39.89700 23.62600
N  48.87500 33.83800 24.23200
C  49.38200 34.60800 23.25600
C  49.57100 33.77900 21.86700
C  48.65700 32.58000 22.20900
C  48.42500 32.65500 23.75600
C  49.07700 34.74800 20.71000
C  49.13900 31.20800 21.73000
C  48.94900 31.17200 20.19500
N  47.64300 32.70900 26.74400
C  47.20000 31.72700 25.83100
C  46.39900 30.76600 26.59200
C  46.11100 31.33900 27.82500
C  46.90200 32.52700 27.89000
C  45.83500 29.57400 25.91100
C  45.34300 31.20500 29.12100
O  44.62700 30.31900 29.56000
C  45.68100 32.46200 29.86900
C  46.22000 31.97200 31.10400
O  47.40900 31.65100 31.23500
O  45.26900 31.85800 32.17500
C  45.65000 31.20000 33.43300
H  49.24500 38.36700 28.59100
H  50.45400 36.17300 22.55800
H  47.40100 31.01800 23.72200
H  46.18200 35.28300 30.91000
H  48.30200 37.41300 30.72300
H  46.39200 38.23600 31.03700
H  45.59600 37.49200 29.57800
H  46.90700 38.76100 29.43600
H  48.93200 35.68800 31.80500
H  48.77300 33.99600 31.41200
H  48.28200 34.03300 33.68000
H  46.88800 33.71300 32.93200
H  50.11500 40.20500 26.60600
H  51.84000 39.98900 26.36600
H  51.16200 39.23400 27.78700
H  52.58200 40.36000 22.65700
H  53.27200 39.76300 24.25800
H  51.72400 40.50700 24.23300
H  50.63900 33.57600 21.78100
H  47.69700 32.86500 21.77800
H  48.06200 34.61300 20.33700
H  49.69700 34.68100 19.81600
H  49.11900 35.78500 21.04400
H  48.53200 30.37800 22.09100
H  50.15500 31.11300 22.11100
H  48.66700 32.13700 19.77200
H  48.21200 30.39700 19.98800
H  49.87000 30.82500 19.72500
H  45.20000 29.03000 26.60900
H  46.60800 28.95400 25.45600
H  45.18600 29.91800 25.10600
H  44.76300 33.01900 30.05600
H  44.90000 31.31300 34.21600
H  46.63400 31.44000 33.83500
H  45.73000 30.14200 33.18300

