158

Mg 45.48700 5.26300 47.87000
C  43.07700 7.87200 47.10200
C  42.95100 3.03700 47.13800
C  47.75300 2.82700 48.07100
C  47.95000 7.68400 47.95200
N  43.29900 5.45500 47.22200
C  42.47600 6.57900 47.00500
C  41.08600 6.26200 46.56300
C  41.04000 4.74100 46.92100
C  42.55600 4.32800 47.11100
C  40.24200 4.29900 48.17600
C  40.79700 6.45700 45.02800
C  39.29900 6.29200 44.74600
H  38.66500 7.41200 43.93800
N  45.36500 3.15000 47.73400
C  44.25100 2.44300 47.36500
C  44.66100 0.99200 47.38400
C  46.05100 0.93700 47.84200
C  46.46100 2.36100 47.89900
C  43.68700 -0.19500 47.21500
C  46.83600 -0.36900 48.12300
O  46.21600 -1.42500 48.17500
C  48.25600 -0.34700 48.36200
N  47.53000 5.24200 47.97400
C  48.23200 4.09200 48.19500
C  49.73700 4.39700 48.33400
C  49.81400 5.96500 48.23400
C  48.32300 6.33700 48.04300
C  50.44600 3.69400 49.56200
C  50.75800 6.50500 47.05700
C  50.46300 6.15900 45.57500
N  45.61800 7.27800 47.59600
C  46.65800 8.20400 47.66600
C  46.16200 9.54100 47.38300
C  44.77100 9.44700 47.25600
C  44.48500 8.04900 47.34000
C  47.07400 10.75400 47.38700
C  43.57000 10.18700 47.04700
O  43.47700 11.37000 46.87600
C  42.38700 9.18300 46.82000
C  41.16500 9.39400 47.65500
O  40.97900 9.00800 48.82600
O  40.17500 10.11900 46.95200
C  39.07700 10.59500 47.76600
H  42.21200 2.24000 47.03700
H  48.53700 2.06800 48.03300
H  48.69400 8.46900 48.10400
H  40.33700 6.69300 47.22800
H  40.67300 4.22500 46.03300
H  39.74000 5.12800 48.67400
H  40.86300 3.76500 48.89500
H  39.45900 3.61200 47.85400
H  41.35600 5.66400 44.53300
H  41.16600 7.42000 44.67500
H  38.75300 6.20200 45.68500
H  39.17700 5.30600 44.29800
H  43.41400 -0.73300 48.12300
H  44.23400 -0.99300 46.71300
H  42.81600 0.07700 46.61900
H  48.68800 -1.32100 48.58800
H  48.56300 0.36400 49.12900
H  48.46500 0.02100 47.35800
H  50.19900 3.92600 47.46600
H  50.14700 6.41800 49.16800
H  49.77300 3.20600 50.26800
H  50.94200 4.48600 50.12300
H  51.09900 2.91300 49.17100
H  51.73100 6.10100 47.33700
H  50.84800 7.57800 47.23100
H  49.51600 5.61900 45.56300
H  51.20400 5.47400 45.16200
H  50.28100 7.07100 45.00600
H  46.69500 11.47400 46.66200
H  47.97800 10.43900 46.86600
H  47.45700 11.09100 48.35000
H  41.99200 9.12500 45.80600
H  38.29600 9.83500 47.80500
H  38.61400 11.44800 47.26900
H  39.45700 10.85300 48.75400
Mg 40.53500 9.62100 29.67600
C  42.47400 10.77000 32.25800
C  38.18400 8.40200 31.96600
C  38.83400 8.13300 27.15100
C  43.15700 10.44700 27.42200
N  40.32100 9.69300 31.85000
C  41.22700 10.19600 32.73000
C  40.73600 10.20700 34.19100
C  39.53600 9.18500 34.10700
C  39.31500 9.10400 32.58700
C  39.67200 7.74100 34.62500
C  40.43700 11.69200 34.68400
C  40.85100 12.13700 36.04700
H  39.61100 12.59600 36.91700
N  38.69400 8.49100 29.59900
C  37.83600 8.17400 30.61500
C  36.68300 7.48600 30.08300
C  36.93400 7.26100 28.74800
C  38.25900 7.93600 28.41700
C  35.53600 6.84200 30.88400
C  36.20400 6.43900 27.70900
O  36.65600 6.29900 26.52800
C  34.85400 5.85100 28.02500
N  41.04600 9.29600 27.61000
C  40.06100 8.71100 26.80500
C  40.53900 8.72800 25.33400
C  41.63400 9.81100 25.33900
C  41.98600 9.83000 26.84700
C  41.04300 7.39900 24.85200
C  41.17900 11.20200 24.75400
C  40.67000 12.20300 25.74700
N  42.45900 10.43700 29.81100
C  43.39300 10.74300 28.76400
C  44.58900 11.34900 29.39700
C  44.17200 11.39300 30.74800
C  42.92600 10.85400 30.94300
C  45.86900 11.85600 28.72900
C  44.60000 11.97300 32.01700
O  45.62000 12.60000 32.32200
C  43.53000 11.58000 33.07400
C  44.25000 10.74600 34.07000
O  44.81000 9.66100 33.76700
O  44.30200 11.37500 35.31400
C  45.09600 10.69900 36.43700
H  37.44600 8.14300 32.72800
H  38.28700 7.73600 26.29300
H  43.86400 10.88300 26.71300
H  41.46100 9.85200 34.92400
H  38.66100 9.62400 34.58400
H  39.83200 6.97700 33.86400
H  38.77600 7.43500 35.16500
H  40.52200 7.72600 35.30700
H  39.36100 11.77000 34.52500
H  40.90500 12.43400 34.03800
H  41.40300 13.05900 35.86100
H  41.47200 11.45800 36.63200
H  35.77800 7.03600 31.92900
H  35.35500 5.77100 30.79600
H  34.54100 7.25000 30.70400
H  34.12600 6.60300 28.33000
H  34.92700 5.04700 28.75800
H  34.35900 5.46600 27.13400
H  39.71300 9.14900 24.76200
H  42.58700 9.62500 24.84300
H  41.44600 6.83100 25.69100
H  41.73700 7.57500 24.03000
H  40.13400 6.91600 24.49500
H  40.47800 11.11600 23.92400
H  42.09300 11.48100 24.23000
H  41.49500 12.65200 26.29900
H  39.92800 11.70800 26.37400
H  40.18600 13.09200 25.34200
H  45.74300 12.76000 28.13200
H  46.10300 11.05000 28.03300
H  46.60300 11.97400 29.52500
H  43.20100 12.46000 33.62700
H  44.39800 10.40500 37.22100
H  45.72600 11.44900 36.91600
H  45.59900 9.81400 36.04700

