158

Mg 25.90400 -0.34700 28.98500
C  27.83600 -0.30500 31.93600
C  23.12400 -0.07800 30.93400
C  24.09100 -0.33700 26.17700
C  28.72900 -1.39300 27.19800
N  25.56400 -0.37300 31.29400
C  26.46500 -0.07700 32.25900
C  25.88200 0.17800 33.68400
C  24.36900 0.16000 33.27000
C  24.34400 -0.10900 31.68800
C  23.47400 -0.96800 34.02500
C  26.48500 1.36900 34.42300
C  27.09200 1.24100 35.72700
H  26.78200 2.22800 36.86700
N  23.84900 -0.22800 28.62100
C  22.88100 -0.08900 29.55800
C  21.62800 0.11500 28.88000
C  21.86500 0.17700 27.48500
C  23.28200 -0.16800 27.36900
C  20.32700 0.16900 29.67800
C  20.98700 0.39300 26.27800
O  21.39600 0.41300 25.11200
C  19.52700 0.61500 26.48800
N  26.35900 -0.87700 26.92700
C  25.42900 -0.66400 25.91400
C  26.05900 -0.92700 24.58900
C  27.56200 -1.22600 24.96600
C  27.55400 -1.17600 26.43400
C  25.49000 -1.87900 23.53700
C  28.63700 -0.37600 24.16900
C  28.97900 1.01600 24.69400
N  27.90000 -0.79000 29.39500
C  28.91400 -1.22300 28.56700
C  30.19800 -1.26000 29.37500
C  29.77500 -0.87900 30.62200
C  28.41300 -0.67000 30.63600
C  31.58400 -1.58300 28.85100
C  30.31200 -0.65200 31.93000
O  31.46300 -0.82400 32.28700
C  29.05100 -0.30600 32.80200
C  28.83800 -1.35400 33.81300
O  28.32200 -2.45500 33.64000
O  29.41400 -0.93400 35.00400
C  29.31600 -1.77800 36.20700
H  22.34200 0.00400 31.69100
H  23.59500 -0.23000 25.21000
H  29.59200 -1.58700 26.55900
H  26.07900 -0.79200 34.13900
H  23.83400 1.10900 33.30000
H  23.98300 -1.32300 34.92200
H  23.40900 -1.80900 33.33600
H  22.43100 -0.73000 34.23600
H  25.78400 2.20300 34.44600
H  27.27700 1.83300 33.83500
H  28.17100 1.11900 35.63700
H  26.85400 0.23600 36.07500
H  20.58100 0.39600 30.71300
H  19.83800 -0.79100 29.50600
H  19.80700 1.01500 29.22800
H  19.05800 0.66500 25.50500
H  19.32100 1.48400 27.11300
H  19.21600 -0.33700 26.91800
H  26.18500 0.02900 24.08100
H  27.80500 -2.28200 24.84900
H  26.29400 -2.37500 22.99300
H  24.88900 -1.29900 22.83700
H  24.81000 -2.60100 23.98700
H  28.37400 -0.41200 23.11200
H  29.53000 -1.00100 24.18500
H  29.97300 0.99200 25.14300
H  28.27600 1.20100 25.50600
H  28.95300 1.81800 23.95700
H  32.26500 -1.00000 29.47000
H  31.69200 -1.39000 27.78400
H  31.70100 -2.63000 29.13200
H  29.07600 0.70900 33.19800
H  29.34300 -2.84400 35.98500
H  28.39200 -1.62300 36.76300
H  30.26800 -1.57600 36.69800
Mg 8.35200 48.39900 28.21800
C  6.64300 47.46600 31.18600
C  11.33800 48.32400 29.80900
C  9.78200 49.61300 25.40700
C  5.15800 48.64100 26.54800
N  8.94900 47.87400 30.25000
C  8.06800 47.56100 31.31300
C  8.89600 47.52400 32.67200
C  10.33100 48.12900 32.15800
C  10.30500 48.09200 30.68100
C  10.86100 49.47900 32.76000
C  8.96700 46.06600 33.32400
C  8.77300 46.20400 34.81900
H  9.55000 45.25000 35.75900
N  10.28700 48.66400 27.61100
C  11.38200 48.58500 28.39000
C  12.59500 48.71000 27.56500
C  12.12200 49.12300 26.29000
C  10.65300 49.21300 26.41000
C  13.95800 48.43000 28.06100
C  12.88800 49.44700 25.02300
O  12.42700 49.92200 23.99900
C  14.31200 49.23400 24.98600
N  7.54600 49.16300 26.41200
C  8.39500 49.66500 25.46800
C  7.62800 50.26500 24.24300
C  6.15700 49.75600 24.51700
C  6.30000 49.10900 25.86800
C  7.76200 51.81000 24.21300
C  5.51300 48.75500 23.56400
C  5.89100 48.72600 22.06200
N  6.27800 48.05100 28.68300
C  5.14700 48.09500 27.87300
C  4.02000 47.76700 28.69300
C  4.54800 47.52600 29.99000
C  5.94900 47.71900 29.91100
C  2.60500 47.73000 28.22900
C  4.14300 47.15100 31.34500
O  2.99000 46.92800 31.80000
C  5.58400 47.15700 32.25300
C  5.70300 45.77300 32.86100
O  6.00700 44.77500 32.23100
O  5.42800 45.85500 34.17100
C  5.31100 44.57500 34.89000
H  12.26700 48.37800 30.38100
H  10.20000 50.06300 24.50400
H  4.29700 48.98500 25.97000
H  8.34600 48.26900 33.24600
H  11.07400 47.41600 32.51500
H  11.42200 50.04300 32.01500
H  11.51300 49.30000 33.61500
H  10.01700 50.09000 33.08100
H  9.92800 45.56000 33.22300
H  8.26500 45.39000 32.83600
H  7.73400 46.11000 35.13600
H  9.12200 47.20500 35.07400
H  13.93900 48.07300 29.09000
H  14.36700 49.43800 28.13900
H  14.63100 47.85000 27.43000
H  14.44100 48.15700 24.87300
H  14.78300 49.70200 25.85000
H  14.71700 49.80800 24.15300
H  7.95600 49.72600 23.35400
H  5.46700 50.59300 24.62400
H  8.67600 52.15300 24.69800
H  6.88000 52.25600 24.67300
H  7.68800 52.16900 23.18700
H  4.44300 48.86500 23.74200
H  5.80900 47.83800 24.07300
H  5.98000 49.72600 21.63600
H  4.95700 48.41800 21.59300
H  6.64600 47.97000 21.84900
H  2.33200 48.56500 27.58400
H  1.83800 47.70500 29.00400
H  2.46100 46.81400 27.65800
H  5.65700 47.84100 33.09800
H  4.27600 44.43800 35.20400
H  5.89600 44.60200 35.80900
H  5.63500 43.74200 34.26600

