158

Mg 3.45600 0.69500 44.44300
C  6.25500 2.77800 44.25500
C  1.55300 3.20300 42.98100
C  0.89900 -1.55500 43.90900
C  5.64400 -1.95800 45.28900
N  3.87800 2.67300 43.70000
C  5.11400 3.30700 43.66400
C  4.97300 4.77500 43.28200
C  3.36000 4.95100 43.20600
C  2.86400 3.55500 43.33500
C  2.69900 5.89700 44.26000
C  5.74500 5.11700 41.89700
C  6.08800 3.97000 40.93300
H  6.51600 4.25300 39.50100
N  1.43100 0.79000 43.70400
C  0.88400 1.91400 43.13400
C  -0.42300 1.59600 42.66300
C  -0.64600 0.22400 42.97600
C  0.55700 -0.26200 43.59000
C  -1.41800 2.62800 42.03100
C  -1.92300 -0.64700 42.56000
O  -2.83200 -0.09000 41.98100
C  -2.20400 -2.06700 43.02300
N  3.32400 -1.46900 44.37800
C  2.11600 -2.12700 44.28900
C  2.36000 -3.59500 44.51300
C  3.78000 -3.73400 45.18400
C  4.30800 -2.32000 44.92600
C  1.30000 -4.42100 45.16700
C  4.68900 -4.98300 44.71800
C  5.35000 -5.73400 45.82300
N  5.50100 0.35200 44.67300
C  6.23600 -0.70900 45.16800
C  7.55900 -0.31000 45.49900
C  7.69100 1.00500 45.07900
C  6.39800 1.37700 44.65500
C  8.64200 -1.20200 45.98200
C  8.54600 2.20400 44.97300
O  9.73700 2.32000 45.14100
C  7.60400 3.35300 44.49500
C  7.61500 4.55600 45.35500
O  8.38700 5.47700 45.14800
O  6.69600 4.58300 46.34500
C  6.62000 5.81900 47.16300
H  1.01000 4.08300 42.63100
H  0.13500 -2.32500 43.78100
H  6.27300 -2.73600 45.72700
H  5.38200 5.31400 44.13700
H  3.11100 5.38000 42.23600
H  3.02400 5.48600 45.21600
H  1.64700 5.79900 43.99100
H  3.02000 6.93400 44.16400
H  6.64300 5.54600 42.34400
H  5.17800 5.89800 41.38900
H  5.40100 3.12500 40.96300
H  7.02500 3.52500 41.26500
H  -1.41400 2.38600 40.96800
H  -1.06200 3.65400 42.11900
H  -2.43200 2.42800 42.37700
H  -1.94600 -2.18700 44.07500
H  -1.55900 -2.59300 42.31900
H  -3.27000 -2.29100 42.97900
H  2.31200 -3.87000 43.45900
H  3.58100 -3.70300 46.25600
H  0.64400 -3.82600 45.80100
H  1.80500 -5.22900 45.69600
H  0.83500 -4.92400 44.31900
H  5.33500 -4.59100 43.93300
H  4.09200 -5.73100 44.19600
H  4.91600 -5.43000 46.77600
H  6.41200 -5.50200 45.75300
H  5.13100 -6.80100 45.82700
H  8.88800 -2.02800 45.31500
H  8.37500 -1.53300 46.98500
H  9.61600 -0.71400 46.01000
H  8.24700 3.59300 43.64800
H  5.84600 6.47500 46.76600
H  7.57600 6.34200 47.17700
H  6.32000 5.54500 48.17400
Mg 26.02900 50.63500 26.37300
C  24.06000 51.48200 29.15200
C  28.46600 49.57800 28.63200
C  28.07100 50.10700 23.79700
C  23.49200 51.77000 24.25600
N  26.17500 50.59000 28.66700
C  25.22900 50.89700 29.59700
C  25.62700 50.55700 31.06000
C  27.20600 50.31000 30.88200
C  27.36200 50.15200 29.32000
C  28.17200 51.39600 31.43100
C  24.66200 49.47900 31.70300
C  24.02300 49.80000 33.10800
H  24.94200 50.23300 34.24800
N  27.92100 49.84000 26.15300
C  28.75500 49.44900 27.22300
C  29.98000 48.90200 26.69900
C  29.95200 49.17700 25.23600
C  28.61700 49.75600 25.01700
C  30.97000 48.15100 27.57100
C  31.07300 48.85600 24.24600
O  31.11300 49.29800 23.10600
C  32.15200 47.98000 24.59900
N  25.87700 50.91500 24.31600
C  26.83800 50.60500 23.45500
C  26.34800 50.76700 22.03900
C  24.81900 50.98400 22.18700
C  24.69400 51.25800 23.69100
C  27.13000 51.82900 21.24100
C  23.87800 49.86500 21.69600
C  22.70600 50.32500 20.90200
N  24.15400 51.52500 26.64000
C  23.23100 51.97600 25.70300
C  22.04400 52.45200 26.41200
C  22.35700 52.33500 27.78000
C  23.61200 51.80200 27.82300
C  20.78600 52.92200 25.77900
C  21.84800 52.62400 29.10700
O  20.79400 53.19000 29.43600
C  22.92100 52.05400 30.07700
C  23.36300 53.14400 30.99100
O  24.43800 53.67800 30.99700
O  22.50000 53.16700 32.06000
C  22.97000 53.92200 33.18200
H  29.23900 49.25900 29.33500
H  28.60700 49.83700 22.88500
H  22.63500 51.97500 23.61200
H  25.46100 51.50300 31.57500
H  27.43400 49.34900 31.34200
H  27.58100 52.28400 31.65700
H  28.85600 51.66800 30.62700
H  28.71600 51.01400 32.29500
H  25.15000 48.51500 31.84100
H  23.76300 49.32000 31.10800
H  23.48700 48.92000 33.46400
H  23.29500 50.58200 32.89100
H  31.98600 48.38800 27.25400
H  30.88600 47.07000 27.46400
H  30.89800 48.37800 28.63400
H  32.71000 47.88300 23.66800
H  31.69800 47.04200 24.91800
H  32.87200 48.44300 25.27400
H  26.63500 49.81900 21.58400
H  24.56400 51.97400 21.80900
H  28.09700 51.78200 21.74200
H  26.59800 52.76600 21.40800
H  27.16500 51.67100 20.16300
H  23.64900 49.30300 22.60200
H  24.39700 49.29300 20.92700
H  22.62900 49.65000 20.04900
H  22.83800 51.29600 20.42400
H  21.73600 50.19800 21.38300
H  19.98300 52.82100 26.50800
H  20.52200 52.30800 24.91700
H  20.79000 53.99200 25.57500
H  22.51900 51.18200 30.59300
H  23.10900 54.93100 32.79100
H  23.91600 53.57400 33.59700
H  22.23300 53.90000 33.98400

