158

Mg -2.16900 17.63300 27.06200
C  -2.39600 15.21700 29.74300
C  -2.72500 20.04400 29.47300
C  -2.46100 19.87400 24.52600
C  -1.99400 14.97800 24.86700
N  -2.76000 17.65500 29.40100
C  -2.63300 16.56600 30.26500
C  -2.71900 16.90200 31.71700
C  -2.73900 18.46900 31.54500
C  -2.79900 18.77800 30.05900
C  -3.82300 19.30800 32.37100
C  -1.59600 16.34600 32.69900
C  -1.18400 17.23800 33.94300
H  -1.01500 16.57200 35.36000
N  -2.38800 19.66300 26.97800
C  -2.54500 20.45700 28.08700
C  -2.49900 21.84500 27.66800
C  -2.39700 21.83600 26.26100
C  -2.44200 20.38100 25.88500
C  -2.40800 23.02900 28.65000
C  -2.36600 23.03500 25.21100
O  -2.22500 22.87400 24.01200
C  -2.06600 24.37600 25.75600
N  -2.22600 17.42400 24.95100
C  -2.26200 18.54300 24.08200
C  -2.12800 18.08600 22.60900
C  -1.74900 16.56200 22.76300
C  -2.00900 16.29400 24.23900
C  -3.44900 18.32900 21.77900
C  -0.30900 16.28500 22.39900
C  0.79000 16.60500 23.40600
N  -2.20900 15.48700 27.18000
C  -2.12200 14.55200 26.16400
C  -2.02900 13.22400 26.72400
C  -2.12200 13.41500 28.10800
C  -2.34400 14.80500 28.34600
C  -1.81800 11.98000 26.00400
C  -2.12000 12.77500 29.34200
O  -1.95100 11.56700 29.61000
C  -2.20400 13.86200 30.45100
C  -0.91800 13.65000 31.16400
O  0.17800 14.02600 30.87000
O  -1.18000 12.98600 32.35800
C  -0.08800 12.71600 33.27400
H  -2.69600 20.82200 30.23900
H  -2.50200 20.54200 23.66300
H  -1.83000 14.12900 24.20000
H  -3.64100 16.50900 32.14500
H  -1.76500 18.82200 31.88300
H  -3.16200 19.99200 32.90300
H  -4.23700 18.63900 33.12500
H  -4.48300 19.79000 31.64800
H  -0.75500 16.15900 32.03100
H  -1.84600 15.35900 33.08900
H  -2.07800 17.86000 33.99700
H  -0.33900 17.89500 33.73700
H  -2.35700 22.64500 29.66800
H  -3.30800 23.64000 28.57300
H  -1.50200 23.56900 28.37400
H  -1.09900 24.47300 26.25000
H  -2.86900 24.68000 26.42700
H  -1.98700 25.02500 24.88300
H  -1.19400 18.50300 22.23300
H  -2.38500 15.99000 22.08800
H  -3.80100 19.31500 22.08200
H  -4.22900 17.57400 21.87400
H  -3.28300 18.41100 20.70500
H  -0.16900 17.00300 21.59100
H  -0.20100 15.29800 21.95000
H  0.41700 16.96400 24.36600
H  1.54400 17.25100 22.95500
H  1.45400 15.77300 23.64000
H  -1.33200 12.30700 25.08500
H  -2.72400 11.41000 25.79800
H  -1.04800 11.46100 26.57600
H  -3.03600 13.60800 31.10700
H  0.72200 12.25900 32.70600
H  -0.56900 12.07400 34.01200
H  0.24000 13.59000 33.83700
Mg 36.17400 48.91200 26.61800
C  36.56300 46.76700 29.44500
C  35.09100 51.31700 28.72000
C  35.31500 50.55400 23.97300
C  37.12300 46.11000 24.63400
N  35.75700 49.02100 28.80600
C  36.07200 48.06200 29.78100
C  35.92000 48.67900 31.20100
C  34.99700 49.93300 30.90600
C  35.27600 50.14800 29.38200
C  33.46500 49.78200 31.13200
C  37.27200 49.10500 31.83300
C  37.55300 48.61300 33.30500
H  36.43600 48.61900 34.28700
N  35.46000 50.75300 26.38700
C  35.08500 51.60800 27.36500
C  34.81500 52.89500 26.66000
C  34.90300 52.73700 25.29500
C  35.20700 51.30700 25.16600
C  34.57800 54.19000 27.44500
C  34.77900 53.79600 24.20000
O  35.06900 53.56600 23.02200
C  34.06300 55.13400 24.54600
N  36.39000 48.39000 24.62300
C  35.78500 49.26300 23.65300
C  35.94100 48.63900 22.24000
C  36.66300 47.29700 22.41100
C  36.74700 47.26900 23.97800
C  34.63600 48.54000 21.42700
C  38.03000 47.06800 21.68200
C  39.26000 47.72200 22.26900
N  36.83600 46.86100 26.94500
C  37.23400 45.91900 26.06300
C  37.56100 44.67900 26.68700
C  37.38900 44.99500 28.06200
C  36.82500 46.29300 28.11400
C  38.00100 43.43000 25.96500
C  37.40700 44.50600 29.40100
O  37.63000 43.36800 29.75500
C  36.90300 45.57600 30.41400
C  35.70000 45.10500 31.12600
O  34.88200 44.38200 30.65400
O  35.77200 45.35200 32.48900
C  34.63600 44.80000 33.28500
H  34.78500 52.22100 29.25100
H  35.12400 51.04700 23.01800
H  37.25100 45.27000 23.94900
H  35.38600 47.96700 31.83100
H  35.34900 50.85600 31.36700
H  32.87300 50.37300 30.43400
H  33.20900 50.34300 32.03100
H  33.15600 48.73900 31.20700
H  37.38600 50.17200 32.02300
H  37.96300 48.62700 31.13800
H  38.34700 49.24800 33.70000
H  37.97300 47.61300 33.19900
H  35.22700 54.98500 27.07800
H  34.90700 53.97300 28.46200
H  33.50800 54.38700 27.50100
H  33.49700 55.56200 23.71900
H  34.62900 55.88600 25.09600
H  33.33900 54.85600 25.31300
H  36.47100 49.36900 21.62800
H  36.09600 46.39900 22.16300
H  34.20800 47.54500 21.31000
H  34.74300 49.08000 20.48600
H  33.85000 49.06600 21.96900
H  37.99100 47.13400 20.59500
H  38.25800 46.01400 21.84400
H  39.69800 48.37200 21.51100
H  39.92400 46.95400 22.66700
H  39.01600 48.42400 23.06600
H  38.36200 43.70500 24.97400
H  37.18000 42.71300 26.00300
H  38.82700 43.01700 26.54400
H  37.65800 45.91700 31.12200
H  34.52600 45.53900 34.07900
H  34.81500 43.82800 33.74500
H  33.71500 44.74900 32.70400

