158

Mg 35.24900 48.90300 26.40000
C  35.57000 46.69900 29.05700
C  34.25900 51.31200 28.88900
C  34.37200 51.00500 24.05300
C  35.89000 46.37000 24.14500
N  34.89200 48.90600 28.67700
C  35.23700 47.94500 29.55400
C  35.03600 48.32500 30.99600
C  34.36600 49.76900 30.86500
C  34.59700 50.06500 29.37100
C  32.87900 49.89900 31.19500
C  36.43100 48.29800 31.74600
C  36.49500 47.96100 33.22700
H  35.22100 48.08200 34.07000
N  34.52600 50.90700 26.42200
C  34.18400 51.69600 27.47100
C  33.66000 52.98800 27.05900
C  33.86000 52.99800 25.66300
C  34.30500 51.64400 25.27800
C  33.04500 54.10300 27.91600
C  33.69300 54.10300 24.52700
O  33.81100 53.97100 23.31300
C  33.44700 55.48300 25.04100
N  35.08700 48.73900 24.39000
C  34.73300 49.73000 23.53700
C  34.57600 49.23300 22.14200
C  35.38000 47.85400 22.16800
C  35.59200 47.63200 23.65500
C  33.11900 49.16800 21.56900
C  36.65100 47.73200 21.35100
C  37.89200 48.46800 21.84600
N  35.72800 46.90100 26.47000
C  35.98500 45.97000 25.50400
C  36.15800 44.63900 26.13300
C  36.04000 44.88200 27.50800
C  35.67700 46.25700 27.65500
C  36.54400 43.41100 25.35400
C  36.14900 44.27500 28.77900
O  36.43200 43.10400 29.09900
C  35.83800 45.41900 29.83500
C  34.67100 44.87500 30.58500
O  33.55400 44.65300 30.06600
O  35.04900 44.51500 31.84600
C  33.95500 44.00600 32.64100
H  33.81900 52.02300 29.59100
H  33.90800 51.59400 23.26000
H  35.83800 45.58300 23.39000
H  34.41800 47.57200 31.48400
H  34.98600 50.47800 31.41400
H  32.38300 48.95500 31.42200
H  32.33300 50.36300 30.37400
H  32.78400 50.58900 32.03400
H  36.95600 49.25400 31.74100
H  37.09900 47.62900 31.20300
H  37.33500 48.42500 33.74500
H  36.76000 46.90400 33.18100
H  32.35000 54.76600 27.40100
H  33.84600 54.55000 28.50500
H  32.58500 53.63300 28.78500
H  33.49700 56.22800 24.24700
H  34.22600 55.74900 25.75500
H  32.44900 55.56600 25.47200
H  35.10200 49.93200 21.49100
H  34.66600 47.11300 21.80800
H  32.38500 49.39600 22.34200
H  32.91300 48.16700 21.19000
H  32.86300 49.79800 20.71700
H  36.30200 47.91400 20.33400
H  36.83000 46.65700 21.34500
H  38.81000 47.90500 22.01400
H  37.69300 49.11900 22.69800
H  38.20800 49.13400 21.04200
H  36.33000 42.49400 25.90400
H  37.60800 43.51200 25.13600
H  36.05100 43.25700 24.39500
H  36.71500 45.33000 30.47600
H  33.53800 43.17900 32.06600
H  33.22300 44.77100 32.89900
H  34.36700 43.55700 33.54600
Mg -5.29000 25.56100 26.96100
C  -3.93700 27.27900 29.65900
C  -7.08900 23.72800 29.15100
C  -6.34700 23.73200 24.35000
C  -3.23600 27.30000 24.85000
N  -5.51100 25.54000 29.19500
C  -4.87800 26.33300 30.08500
C  -5.33200 26.00000 31.53900
C  -6.00600 24.57000 31.29800
C  -6.17600 24.55800 29.76600
C  -5.21200 23.30000 31.90000
C  -6.30000 27.03000 32.06500
C  -6.30500 27.10500 33.60200
H  -5.70000 25.99300 34.42400
N  -6.64200 24.08300 26.82200
C  -7.27600 23.41800 27.77200
C  -8.22700 22.58000 27.23600
C  -8.08400 22.57600 25.80400
C  -7.00800 23.51800 25.61800
C  -9.22900 21.78100 28.12200
C  -8.86100 21.88100 24.76400
O  -8.62400 22.12900 23.59500
C  -9.81300 20.81100 25.14700
N  -4.81100 25.47600 24.91400
C  -5.44800 24.66400 24.02500
C  -5.04600 24.93100 22.57100
C  -4.22100 26.24400 22.76000
C  -4.06500 26.39800 24.24100
C  -4.20100 23.78100 21.88200
C  -4.70000 27.54300 22.05400
C  -4.01700 27.71700 20.67700
N  -3.80400 26.89400 27.17100
C  -3.14600 27.65600 26.21700
C  -2.45100 28.76500 26.82100
C  -2.71700 28.67200 28.17700
C  -3.51400 27.50700 28.33700
C  -1.72200 29.89200 26.17600
C  -2.54800 29.24900 29.53800
O  -1.98300 30.27900 29.93400
C  -3.37600 28.37300 30.47600
C  -2.48900 28.03900 31.64300
O  -1.50300 27.36000 31.60600
O  -3.07000 28.58700 32.80200
C  -2.40100 28.32300 34.09900
H  -7.62600 23.17700 29.92600
H  -6.60000 23.10200 23.49500
H  -2.66600 27.94300 24.17600
H  -4.39300 25.95000 32.09000
H  -6.99800 24.65900 31.74100
H  -4.29400 23.80600 32.19800
H  -4.97400 22.58200 31.11500
H  -5.73000 22.77100 32.70000
H  -7.27200 26.75600 31.65500
H  -5.93300 27.97800 31.67200
H  -7.34500 27.11600 33.92700
H  -5.71600 27.99700 33.81300
H  -10.06100 22.47100 28.26200
H  -8.87400 21.73000 29.15100
H  -9.42100 20.79100 27.70800
H  -9.35200 19.94800 25.62600
H  -10.34200 20.49300 24.24800
H  -10.50400 21.31800 25.82100
H  -5.94200 25.16200 21.99400
H  -3.22100 26.07600 22.36000
H  -4.27800 22.89200 22.50700
H  -3.11900 23.91200 21.89300
H  -4.53100 23.49600 20.88300
H  -4.43400 28.44300 22.60900
H  -5.77500 27.36300 22.07600
H  -3.06200 28.21400 20.85000
H  -4.66900 28.23100 19.97100
H  -3.70800 26.75600 20.26600
H  -0.66000 29.74400 25.98100
H  -1.88600 30.83100 26.70500
H  -2.14300 30.24800 25.23600
H  -4.14100 29.08200 30.79100
H  -3.13000 28.26000 34.90700
H  -1.67100 29.08600 34.37000
H  -1.85800 27.38000 34.04700

