158

Mg -2.52400 17.12600 27.79000
C  -2.93400 15.02800 30.55800
C  -3.14300 19.95500 30.01100
C  -2.35400 19.15800 25.23800
C  -2.63600 14.38400 25.60900
N  -2.97200 17.41200 30.02300
C  -3.00500 16.38700 30.90000
C  -3.27700 16.93300 32.30800
C  -3.30700 18.52900 32.13800
C  -3.17300 18.66900 30.69300
C  -4.38300 19.31000 32.88800
C  -2.24500 16.53400 33.44200
C  -2.21300 17.25900 34.79800
H  -1.92600 16.40700 36.04600
N  -2.64400 19.26000 27.59700
C  -2.88100 20.20600 28.59900
C  -2.83200 21.56900 28.05100
C  -2.57000 21.43200 26.65400
C  -2.53500 19.92200 26.40200
C  -2.86700 22.84200 28.88500
C  -2.29300 22.46100 25.62300
O  -2.23000 22.16900 24.44100
C  -1.94400 23.84700 26.04400
N  -2.57400 16.85400 25.71400
C  -2.36200 17.88500 24.86900
C  -2.23800 17.35900 23.41100
C  -2.37800 15.79500 23.57300
C  -2.56400 15.66400 25.04400
C  -3.33800 17.97700 22.40300
C  -1.19400 15.06000 22.90600
C  0.22400 14.95000 23.55600
N  -2.59700 15.19500 27.94300
C  -2.69700 14.17800 26.99000
C  -2.85300 12.83700 27.63300
C  -2.88600 13.18200 29.00900
C  -2.78600 14.67200 29.16600
C  -3.09900 11.53200 27.05700
C  -3.09400 12.58200 30.35800
O  -3.27800 11.43700 30.70500
C  -3.13200 13.75600 31.43100
C  -2.00200 13.44300 32.34100
O  -0.85700 13.75900 32.15500
O  -2.46300 12.70100 33.38600
C  -1.45300 12.26800 34.35000
H  -3.14900 20.73200 30.77800
H  -2.21300 19.79700 24.36300
H  -2.61600 13.54000 24.91700
H  -4.24500 16.60500 32.68600
H  -2.36600 18.97500 32.46200
H  -5.19400 19.73500 32.29700
H  -3.87400 20.07900 33.46800
H  -4.85200 18.65200 33.62000
H  -1.22900 16.54400 33.04800
H  -2.51900 15.52500 33.75100
H  -3.16900 17.75400 34.97100
H  -1.50800 18.06400 34.58700
H  -1.89600 23.29900 29.07700
H  -3.33100 22.73700 29.86600
H  -3.45800 23.53800 28.28900
H  -1.51100 24.40700 25.21500
H  -1.10500 23.85400 26.74100
H  -2.78900 24.36100 26.50100
H  -1.34500 17.69300 22.88200
H  -3.35500 15.45900 23.22600
H  -3.89200 18.68300 23.02100
H  -3.92100 17.11500 22.07800
H  -2.87200 18.36800 21.49900
H  -1.03100 15.59400 21.96900
H  -1.52700 14.03600 22.73800
H  0.68200 15.92100 23.74300
H  0.88500 14.26100 23.02900
H  -0.02100 14.40600 24.46900
H  -3.70000 11.73500 26.17000
H  -3.55700 11.02400 27.90500
H  -2.12000 11.08000 26.89500
H  -4.09500 13.77800 31.94100
H  -0.63200 11.69000 33.92600
H  -1.89300 11.55000 35.04200
H  -1.04500 13.09800 34.92700
Mg -2.23100 34.03100 28.22500
C  -4.21300 32.55900 30.63900
C  -1.01400 36.18000 30.78700
C  -0.53000 35.63600 25.86100
C  -3.58700 31.87100 25.77600
N  -2.71700 34.38100 30.33500
C  -3.42200 33.52900 31.21800
C  -3.27000 33.94300 32.63500
C  -2.64600 35.31200 32.61000
C  -2.09600 35.31900 31.14400
C  -3.59200 36.46300 32.84600
C  -2.58300 32.90700 33.50400
C  -3.41800 32.25000 34.54500
H  -3.13900 32.53800 36.00100
N  -0.89000 35.65300 28.28400
C  -0.45800 36.33100 29.47100
C  0.64800 37.18100 29.08000
C  0.68500 37.22900 27.64700
C  -0.25800 36.14100 27.18000
C  1.31100 38.05700 30.09100
C  1.52800 38.02000 26.73600
O  1.51000 37.98400 25.48700
C  2.46200 39.03800 27.33000
N  -2.19600 33.83000 26.08800
C  -1.36900 34.61700 25.39000
C  -1.38600 34.21600 23.92500
C  -2.12100 32.82300 23.93900
C  -2.63800 32.78500 25.35500
C  -1.96000 35.28000 22.86500
C  -1.07900 31.62900 23.66800
C  0.43200 31.93200 24.03500
N  -3.60200 32.49600 28.22800
C  -4.05500 31.72900 27.13900
C  -5.12300 30.82800 27.62300
C  -5.21400 31.11500 29.01800
C  -4.28500 32.17200 29.30900
C  -5.90100 29.91200 26.83700
C  -5.88000 30.77700 30.29600
O  -6.81200 30.08800 30.55600
C  -5.16700 31.56600 31.36100
C  -6.24700 32.34700 32.10200
O  -6.53800 33.53400 31.88100
O  -6.79600 31.60400 33.13200
C  -7.73500 32.36100 34.03100
H  -0.60800 36.77800 31.60500
H  0.15000 35.95100 25.06700
H  -3.94100 31.21300 24.98000
H  -4.29600 34.03900 32.99100
H  -1.78700 35.45300 33.26600
H  -3.49600 37.29000 32.14200
H  -3.50300 36.86900 33.85400
H  -4.60200 36.07100 32.72600
H  -1.63100 33.27800 33.88500
H  -2.19200 32.26300 32.71600
H  -3.56500 31.17200 34.48300
H  -4.47400 32.43100 34.34400
H  0.78100 38.09700 31.04300
H  1.35000 39.10300 29.79000
H  2.31000 37.63800 30.21700
H  3.16400 39.37600 26.56700
H  2.97900 38.36600 28.01500
H  1.98100 39.88100 27.82500
H  -0.35600 34.15300 23.57600
H  -2.91800 32.74400 23.20000
H  -2.72200 35.94800 23.26500
H  -2.32100 34.62400 22.07200
H  -1.11100 35.78500 22.40600
H  -1.20000 31.35000 22.62100
H  -1.36100 30.76100 24.26400
H  1.00700 31.03800 24.27600
H  0.36800 32.56400 24.92100
H  0.88300 32.41200 23.16700
H  -6.16900 29.02700 27.41500
H  -5.41700 29.54600 25.93200
H  -6.78300 30.43400 26.46600
H  -4.57000 30.96900 32.05000
H  -7.23900 33.15600 34.58600
H  -8.14100 31.61800 34.71800
H  -8.54500 32.83300 33.47500

