158

Mg 40.74100 8.40300 29.69900
C  42.66000 10.02500 32.01600
C  38.73200 7.21500 32.07700
C  39.17900 6.75200 27.36300
C  43.28300 9.22800 27.34100
N  40.79300 8.45600 31.86800
C  41.50500 9.39200 32.54400
C  40.94800 9.63500 33.92000
C  39.85300 8.49700 34.00200
C  39.82700 7.94800 32.59200
C  40.10000 7.44100 35.10600
C  40.44100 11.18100 34.18500
C  40.87000 11.88200 35.48300
H  41.23900 10.96600 36.69200
N  39.13800 7.34400 29.69200
C  38.39900 6.91700 30.74900
C  37.34700 6.00300 30.37600
C  37.33700 6.02300 29.01400
C  38.65500 6.62800 28.64700
C  36.61000 5.29800 31.50000
C  36.33400 5.36600 28.04500
O  36.44200 5.38700 26.84100
C  35.20700 4.65100 28.73000
N  41.30000 7.91900 27.67200
C  40.36700 7.31400 26.91500
C  40.80200 7.26400 25.44700
C  41.95100 8.32700 25.38700
C  42.23200 8.49800 26.89400
C  41.21600 5.86100 24.82900
C  41.58000 9.72400 24.76100
C  40.48400 10.59900 25.31000
N  42.57200 9.48100 29.57000
C  43.55300 9.66900 28.59100
C  44.67900 10.46300 29.09900
C  44.36400 10.63700 30.45500
C  43.08700 10.02200 30.64800
C  45.85600 11.01300 28.33500
C  44.78800 11.17000 31.66800
O  45.80500 11.75000 32.01500
C  43.61600 11.01200 32.67100
C  44.29700 10.49000 33.87800
O  44.63700 9.31800 34.05700
O  44.61300 11.49900 34.74100
C  45.54500 11.24000 35.84300
H  37.99000 7.00700 32.85100
H  38.68100 6.27000 26.52000
H  43.95700 9.44200 26.50800
H  41.68000 9.37000 34.68300
H  38.87700 8.95900 34.14900
H  40.48500 6.53200 34.64400
H  39.14600 7.20600 35.57800
H  40.83000 7.87400 35.79000
H  39.35300 11.12200 34.15300
H  40.80700 11.84200 33.40000
H  40.04300 12.46600 35.88600
H  41.65400 12.60800 35.26800
H  37.22900 4.66200 32.13300
H  35.89000 4.51000 31.28000
H  36.12800 6.14400 31.99000
H  34.67500 5.32500 29.40100
H  35.72300 3.80100 29.17600
H  34.37800 4.27900 28.12900
H  39.88500 7.56300 24.93800
H  42.83200 7.86300 24.94300
H  41.11200 5.08600 25.58800
H  42.28100 5.83900 24.60100
H  40.70000 5.56000 23.91600
H  41.36300 9.40900 23.74000
H  42.43100 10.40400 24.73900
H  39.92000 10.04700 26.06300
H  39.77700 10.86400 24.52400
H  40.79900 11.50000 25.83600
H  46.78200 10.48700 28.56300
H  45.97200 12.07500 28.55200
H  45.60900 10.77100 27.30100
H  43.07400 11.94700 32.81400
H  46.05900 12.14500 36.16900
H  46.18500 10.38200 35.64300
H  45.04400 10.86200 36.73400
Mg -5.21000 24.54100 27.19500
C  -3.54100 26.38400 29.69300
C  -6.38000 22.49900 29.72600
C  -6.78300 22.59100 24.87600
C  -3.73200 26.39300 24.81700
N  -5.00900 24.47500 29.48500
C  -4.39300 25.40300 30.31600
C  -4.77800 25.15700 31.76100
C  -5.38000 23.70500 31.74000
C  -5.61200 23.56800 30.25200
C  -4.48700 22.58300 32.40100
C  -5.82800 26.14800 32.28500
C  -5.66000 26.57200 33.74800
H  -5.92800 25.52000 34.86000
N  -6.48000 22.85300 27.28100
C  -6.76500 22.19100 28.42600
C  -7.52200 21.02600 28.10100
C  -7.81700 21.04500 26.69400
C  -6.98500 22.14200 26.23200
C  -7.94700 20.03100 29.14500
C  -8.63000 20.10000 25.80900
O  -8.90700 20.38500 24.62300
C  -9.08700 18.72400 26.28000
N  -5.32000 24.55800 25.17000
C  -5.97300 23.61500 24.38200
C  -5.69900 23.91000 22.94300
C  -4.77200 25.17400 22.83700
C  -4.60800 25.45200 24.34000
C  -5.24900 22.67900 22.10000
C  -5.37300 26.38000 22.08300
C  -4.94400 26.45700 20.60500
N  -3.89500 26.01800 27.18100
C  -3.38100 26.77900 26.13200
C  -2.50100 27.90900 26.61000
C  -2.55000 27.71500 28.00000
C  -3.42600 26.62300 28.30100
C  -1.78700 28.93500 25.74900
C  -2.03300 28.27400 29.24000
O  -1.24900 29.20200 29.44300
C  -2.78100 27.47500 30.39000
C  -1.66500 26.98400 31.33300
O  -0.58100 26.54900 31.00300
O  -2.03300 27.27600 32.64500
C  -1.03300 26.85400 33.62600
H  -6.79600 21.92300 30.55500
H  -7.24600 22.04300 24.05300
H  -3.20100 26.86300 23.98700
H  -3.94200 25.15700 32.46000
H  -6.32400 23.59600 32.27400
H  -3.58700 22.93500 32.90600
H  -4.09000 21.81900 31.73300
H  -5.03500 22.07100 33.19200
H  -6.83700 25.75100 32.17600
H  -5.77900 27.08800 31.73500
H  -6.23400 27.46900 33.98000
H  -4.65000 26.93300 33.94100
H  -7.01100 19.85400 29.67500
H  -8.29300 19.05500 28.80500
H  -8.67800 20.40400 29.86200
H  -8.25700 18.16700 26.71500
H  -9.45700 18.28200 25.35500
H  -9.85300 18.80700 27.05100
H  -6.66900 24.06000 22.46800
H  -3.77200 24.98400 22.44500
H  -5.16100 21.82900 22.77700
H  -4.26700 22.88500 21.67500
H  -6.05700 22.54500 21.38000
H  -5.16500 27.26900 22.67800
H  -6.45400 26.27700 21.98600
H  -4.65800 25.46600 20.25200
H  -4.05700 27.05100 20.38400
H  -5.81000 26.77000 20.02100
H  -2.54700 29.61400 25.36200
H  -1.26100 28.53800 24.88100
H  -1.10500 29.45700 26.42000
H  -3.50500 28.04800 30.96900
H  -1.16000 25.83800 34.00100
H  -1.12400 27.59400 34.42100
H  0.01800 26.83100 33.33800

