158

Mg 46.67800 24.39400 28.95100
C  47.24100 26.92100 31.40600
C  45.69800 22.36500 31.49100
C  46.65100 22.00500 26.67800
C  48.18300 26.56500 26.54100
N  46.51400 24.63100 31.23700
C  46.64600 25.77100 31.96600
C  46.12200 25.56400 33.42000
C  45.86000 24.01900 33.41600
C  45.97600 23.59900 31.95700
C  46.88000 23.15400 34.21800
C  44.97500 26.57800 33.85900
C  45.27700 27.20800 35.22400
H  44.31200 27.13300 36.36900
N  45.98300 22.49300 29.05900
C  45.60600 21.85100 30.17600
C  45.08900 20.60000 29.69900
C  45.41300 20.38000 28.37900
C  46.02700 21.64700 27.94600
C  44.44000 19.64400 30.55600
C  45.22800 19.25500 27.44400
O  45.55000 19.31600 26.20800
C  44.76400 17.97000 28.03400
N  47.48300 24.28600 26.96200
C  47.20100 23.21900 26.15800
C  47.59700 23.38100 24.67200
C  47.75900 24.93800 24.65600
C  47.78500 25.32000 26.12700
C  48.93400 22.63500 24.43400
C  46.60300 25.64900 23.97800
C  46.72100 26.17300 22.51200
N  47.57700 26.25600 28.91800
C  48.19900 27.00600 27.86700
C  48.63800 28.23500 28.44300
C  48.37100 28.21700 29.77700
C  47.67100 27.04300 30.05000
C  49.16100 29.35400 27.66100
C  48.50700 28.96200 31.03600
O  49.12400 29.94300 31.35000
C  47.85600 28.09700 32.16000
C  48.94300 27.62900 33.17100
O  49.88900 26.92500 32.88500
O  48.58900 28.16500 34.36600
C  49.35300 27.77400 35.54300
H  45.39700 21.67200 32.28000
H  46.58100 21.30700 25.84100
H  48.30500 27.27300 25.71900
H  47.04900 25.75000 33.96300
H  44.85600 23.86400 33.81100
H  47.55200 22.53000 33.62900
H  46.27700 22.51200 34.86000
H  47.37300 23.82500 34.92200
H  44.02000 26.05600 33.92300
H  45.05900 27.39300 33.13900
H  45.84700 28.13400 35.14500
H  46.00100 26.55600 35.71100
H  45.01000 18.71900 30.47000
H  43.40800 19.46300 30.25500
H  44.48300 19.88500 31.61800
H  45.46000 17.62100 28.79700
H  44.84100 17.23700 27.23000
H  43.75000 18.03900 28.42800
H  46.73900 23.02900 24.09900
H  48.70400 25.23300 24.20000
H  49.13300 21.80000 25.10500
H  49.83700 23.24200 24.49600
H  48.87900 22.34400 23.38500
H  46.28600 26.45300 24.64200
H  45.78000 24.93400 23.99800
H  47.71600 25.87300 22.18400
H  46.71000 27.25100 22.35100
H  45.93100 25.73000 21.90500
H  48.40500 30.02700 27.25600
H  49.67200 28.98500 26.77200
H  49.83300 29.83300 28.37300
H  47.08400 28.77500 32.52400
H  49.89700 28.61400 35.97500
H  50.01600 26.95300 35.27100
H  48.69700 27.60100 36.39700
Mg 9.26800 47.23400 26.43700
C  7.23200 47.01300 29.26500
C  11.90800 47.99600 28.49600
C  11.09400 48.07500 23.70300
C  6.40900 47.32900 24.36500
N  9.50000 47.45700 28.57400
C  8.59300 47.23200 29.56400
C  9.15800 47.36700 31.03500
C  10.67600 47.73700 30.73400
C  10.72600 47.86400 29.14000
C  11.24100 48.95800 31.45600
C  9.10700 46.07600 31.91800
C  10.18100 45.89000 33.04700
H  9.67600 45.37700 34.38800
N  11.33200 47.64900 26.05300
C  12.22500 47.91600 27.08300
C  13.53400 48.15700 26.50600
C  13.33300 48.24800 25.10000
C  11.91400 47.86400 24.87800
C  14.84800 48.32400 27.26200
C  14.32200 48.60400 23.90100
O  13.91000 48.67500 22.78700
C  15.70500 48.78300 24.19700
N  8.83900 47.42500 24.31600
C  9.76600 47.98100 23.49700
C  9.22200 48.31400 22.12100
C  7.72000 47.86900 22.27800
C  7.63200 47.53600 23.76000
C  9.27300 49.90900 21.82400
C  7.28200 46.71200 21.35500
C  5.86000 46.83200 20.82500
N  7.26300 47.07100 26.70100
C  6.16900 47.13100 25.77300
C  4.97600 46.95900 26.46900
C  5.31800 46.89500 27.84000
C  6.74800 46.94700 27.92500
C  3.56800 46.89300 25.90000
C  4.83400 46.71600 29.15300
O  3.73100 46.38000 29.60700
C  6.04000 46.88800 30.15800
C  5.97400 45.73000 30.99000
O  6.45200 44.60400 30.70700
O  5.41900 46.05900 32.22200
C  5.31500 44.92600 33.18000
H  12.69200 48.29600 29.19500
H  11.76700 48.32700 22.88100
H  5.47600 47.36500 23.79900
H  8.59400 48.16000 31.52600
H  11.36200 46.89300 30.80300
H  11.25600 49.86400 30.84900
H  12.19100 48.59300 31.84600
H  10.78900 49.22700 32.41100
H  9.07500 45.21700 31.24800
H  8.12300 46.15000 32.38200
H  10.68200 46.84100 33.22700
H  10.92700 45.28700 32.52900
H  15.45200 49.14600 26.88000
H  15.45000 47.41900 27.34900
H  14.59000 48.66200 28.26600
H  16.33800 48.87200 23.31400
H  16.09900 48.04400 24.89300
H  15.72100 49.78000 24.63800
H  9.72100 47.67300 21.39400
H  7.11300 48.75200 22.07600
H  10.25700 50.28500 22.10100
H  8.43400 50.47800 22.22500
H  9.21100 50.01800 20.74100
H  7.32200 45.82700 21.99100
H  7.98300 46.64800 20.52300
H  5.37100 47.75500 21.13800
H  5.32300 45.98200 21.24600
H  5.82500 46.70700 19.74300
H  3.09500 45.98100 26.26400
H  3.56900 46.78100 24.81500
H  3.06000 47.77600 26.28900
H  5.85800 47.72500 30.83200
H  4.24000 44.90500 33.35800
H  5.77600 45.37300 34.06200
H  5.80200 43.96900 32.99300

