158

Mg 40.62900 9.57000 30.10000
C  42.53000 10.59400 32.87100
C  38.31700 8.26600 32.31500
C  38.96200 8.50900 27.43600
C  43.41700 10.12500 28.05100
N  40.48800 9.50400 32.39800
C  41.32400 10.02800 33.27400
C  40.58500 10.11400 34.64700
C  39.30600 9.24000 34.46200
C  39.32700 8.94700 33.00900
C  39.07300 7.96100 35.28300
C  40.21100 11.62300 34.95600
C  39.81000 11.93500 36.39100
H  40.77300 12.66400 37.31000
N  38.88600 8.42100 29.89200
C  38.10900 7.96800 30.88600
C  36.94700 7.33200 30.26100
C  37.11500 7.46100 28.85500
C  38.36400 8.14600 28.67500
C  35.83300 6.80200 30.99800
C  36.20700 7.03400 27.75300
O  36.43000 7.05700 26.55600
C  34.91600 6.50400 28.15400
N  41.15100 9.28200 28.01200
C  40.25000 8.86900 27.11400
C  40.77700 8.98200 25.67300
C  42.25200 9.54900 25.84000
C  42.30900 9.58900 27.39900
C  40.48200 7.72900 24.75200
C  42.53200 10.87600 25.05700
C  42.12200 12.21000 25.67600
N  42.59100 10.21200 30.34700
C  43.60200 10.37900 29.40400
C  44.76900 10.87000 30.04700
C  44.46900 10.96800 31.36300
C  43.09600 10.56400 31.53000
C  46.08500 11.19300 29.33700
C  44.90100 11.35200 32.66900
O  45.99500 11.81700 32.94000
C  43.70500 11.16500 33.67700
C  44.24200 10.14000 34.70100
O  44.56100 8.98700 34.40300
O  44.36800 10.73300 35.92400
C  44.66600 9.79000 37.00200
H  37.49100 7.97600 32.96900
H  38.61400 8.16900 26.45900
H  44.30000 10.42200 27.48100
H  41.10700 9.83100 35.56100
H  38.46200 9.92100 34.58000
H  39.95000 7.65500 35.85400
H  38.75300 7.09900 34.69900
H  38.31600 8.23600 36.01800
H  39.38000 11.97600 34.34600
H  41.02000 12.29900 34.67900
H  39.40100 11.00800 36.79300
H  38.92800 12.57500 36.35500
H  34.83500 7.05000 30.63600
H  35.79800 7.29800 31.96700
H  35.89200 5.72200 31.13100
H  34.45400 6.09000 27.25800
H  34.27300 7.28700 28.55500
H  35.16400 5.72400 28.87400
H  40.25500 9.81900 25.20800
H  42.99700 8.79900 25.57300
H  41.46600 7.42700 24.39300
H  39.88600 7.91300 23.85800
H  40.10100 6.87100 25.30600
H  42.04800 10.85600 24.08100
H  43.60900 10.94400 24.90200
H  42.01200 12.25400 26.75900
H  41.07100 12.41500 25.47000
H  42.72300 13.08100 25.41700
H  46.32900 10.49200 28.53800
H  46.83200 11.29200 30.12500
H  45.88900 12.06500 28.71200
H  43.41100 12.07000 34.20800
H  44.79600 8.74400 36.72500
H  43.74000 9.89300 37.56700
H  45.57300 9.99500 37.57000
Mg 48.71800 35.15700 27.18700
C  46.99200 33.66900 29.93100
C  48.99900 37.92200 29.01000
C  50.29100 36.56900 24.55800
C  47.98600 32.35100 25.15300
N  48.23200 35.57800 29.41500
C  47.62900 34.84300 30.35500
C  47.66500 35.62400 31.66500
C  47.84800 37.10500 31.15600
C  48.31300 36.87400 29.73700
C  46.47000 37.86700 31.03000
C  48.71300 35.10800 32.64500
C  48.49500 35.30700 34.17300
H  47.52500 36.45700 34.47800
N  49.61700 37.02600 26.87000
C  49.62600 38.04900 27.76400
C  50.37700 39.12700 27.20400
C  50.82900 38.73500 25.86000
C  50.23000 37.36700 25.68500
C  50.65800 40.37100 27.95800
C  51.67100 39.50800 24.83200
O  52.08900 38.92400 23.83100
C  51.98800 41.00300 25.22100
N  49.01400 34.59900 25.04500
C  49.81600 35.27700 24.24300
C  49.81300 34.67600 22.86100
C  49.22800 33.23500 23.05600
C  48.67200 33.37800 24.49900
C  49.11100 35.61700 21.81900
C  50.23900 32.11300 22.89400
C  50.39300 31.49400 21.53800
N  47.73200 33.38900 27.40900
C  47.48900 32.32600 26.53600
C  46.68600 31.37500 27.25400
C  46.45000 31.86600 28.54700
C  47.09100 33.09900 28.61200
C  46.15200 30.13800 26.63600
C  45.72600 31.53300 29.78100
O  44.89700 30.67000 30.02900
C  45.97700 32.84100 30.68000
C  46.36900 32.36800 32.08700
O  47.42100 31.82900 32.43500
O  45.30800 32.62700 32.95200
C  45.68600 32.16400 34.35200
H  48.98500 38.86800 29.55500
H  50.74500 36.91900 23.62900
H  47.89800 31.44200 24.55500
H  46.66700 35.49100 32.08400
H  48.48900 37.68500 31.82100
H  45.60400 37.28300 31.34400
H  46.18300 38.10500 30.00600
H  46.62300 38.81300 31.54900
H  49.64100 35.56600 32.30200
H  48.99200 34.08000 32.41300
H  49.49500 35.50100 34.56200
H  48.09300 34.34500 34.48900
H  49.90900 40.48800 28.74200
H  50.55400 41.18500 27.24100
H  51.66800 40.37400 28.36800
H  52.61000 41.12100 26.10900
H  51.06700 41.58300 25.25100
H  52.60500 41.47200 24.45500
H  50.85500 34.66100 22.54100
H  48.44300 32.87400 22.39000
H  48.28400 35.04800 21.39500
H  49.82900 35.83300 21.02800
H  48.76500 36.53800 22.28800
H  50.07400 31.25800 23.54900
H  51.24000 32.51200 23.06100
H  49.55100 31.80300 20.91900
H  50.30400 30.40900 21.47300
H  51.35700 31.72600 21.08500
H  46.99900 29.49800 26.38700
H  45.58000 30.46800 25.76900
H  45.51000 29.70700 27.40400
H  45.04500 33.39800 30.77500
H  44.75000 31.87700 34.83200
H  46.16800 32.96400 34.91300
H  46.24500 31.23400 34.45600

