158

Mg -1.56700 17.96700 26.39400
C  -2.33400 15.76500 29.12800
C  -2.23800 20.64300 28.49800
C  -1.46200 20.02400 23.67300
C  -1.68500 15.22900 24.26100
N  -2.12500 18.19800 28.59900
C  -2.21000 17.13300 29.47800
C  -2.37900 17.72000 30.92700
C  -2.61300 19.22100 30.68900
C  -2.34200 19.38500 29.18700
C  -4.14600 19.61800 30.98300
C  -1.32100 17.35900 32.01500
C  -1.44000 18.11100 33.33200
H  -0.99900 17.34000 34.60600
N  -1.68400 19.98600 26.10700
C  -1.99100 20.91500 27.10800
C  -2.01900 22.26300 26.51100
C  -1.79500 22.09300 25.08500
C  -1.58300 20.66700 24.90700
C  -2.39500 23.53100 27.25700
C  -1.82000 23.19700 23.93300
O  -1.62200 22.87800 22.75700
C  -2.14000 24.57700 24.25900
N  -1.56200 17.64800 24.29100
C  -1.34200 18.65500 23.37300
C  -1.29200 18.15600 21.92100
C  -1.18100 16.62400 22.18200
C  -1.50200 16.43400 23.65300
C  -2.56400 18.48400 21.06100
C  0.20000 16.05200 21.79100
C  1.51200 16.76000 22.25000
N  -1.97100 15.91800 26.56100
C  -1.92000 14.91200 25.60700
C  -2.28000 13.60500 26.23300
C  -2.47300 13.90000 27.61300
C  -2.27500 15.32600 27.74800
C  -2.33900 12.33200 25.48200
C  -2.69700 13.26900 28.83600
O  -2.81500 12.06300 29.12800
C  -2.51200 14.50200 29.98400
C  -1.25300 14.17800 30.73900
O  -0.19500 14.22600 30.33800
O  -1.66300 13.55400 31.88300
C  -0.67500 12.87800 32.68200
H  -2.45800 21.54200 29.07700
H  -1.32600 20.62600 22.77200
H  -1.70200 14.32100 23.65300
H  -3.26800 17.16800 31.23200
H  -1.94000 19.80200 31.31800
H  -4.75300 18.72600 31.13900
H  -4.56200 20.13600 30.11900
H  -4.18400 20.33000 31.80800
H  -0.37100 17.58400 31.53000
H  -1.40800 16.30100 32.26400
H  -2.50500 18.31100 33.44800
H  -0.90300 19.04300 33.15500
H  -3.35400 23.91300 26.90700
H  -1.64800 24.30600 27.08500
H  -2.48800 23.33900 28.32600
H  -3.19500 24.63100 24.52900
H  -1.87600 25.15500 23.37300
H  -1.47900 24.93400 25.04900
H  -0.38000 18.47300 21.41500
H  -2.01700 16.17100 21.64900
H  -3.29800 17.68300 20.97300
H  -2.27600 18.74400 20.04200
H  -3.05500 19.37100 21.46100
H  0.18300 16.03400 20.70100
H  0.20900 14.99900 22.07400
H  1.53800 17.71200 22.78000
H  2.15900 16.92700 21.38900
H  2.03200 15.99800 22.83100
H  -2.80100 12.54800 24.51800
H  -2.98200 11.69200 26.08700
H  -1.33400 11.91000 25.49700
H  -3.39700 14.46400 30.61900
H  0.13200 12.53300 32.03500
H  -1.15500 11.96900 33.04300
H  -0.29600 13.51200 33.48400
Mg -5.59000 25.73500 26.08000
C  -3.86300 27.13700 28.89300
C  -7.02200 23.54700 28.23000
C  -6.69400 24.22500 23.45500
C  -3.86500 28.05700 24.00100
N  -5.46600 25.38900 28.28900
C  -4.72200 26.04400 29.19900
C  -4.97100 25.51600 30.64500
C  -5.99600 24.35800 30.40900
C  -6.15300 24.45200 28.88900
C  -5.56200 23.02500 30.95800
C  -5.53400 26.60300 31.60500
C  -6.73300 26.28800 32.55300
H  -6.51400 25.05000 33.51700
N  -6.78000 24.15700 25.87800
C  -7.33200 23.36100 26.86900
C  -8.22200 22.36300 26.27900
C  -8.17300 22.59600 24.84600
C  -7.19900 23.70600 24.68900
C  -9.09300 21.43500 27.14600
C  -8.91200 21.89600 23.81700
O  -8.72900 22.04500 22.60700
C  -10.06600 21.02100 24.17400
N  -5.44900 26.14900 24.08400
C  -5.96800 25.32800 23.18300
C  -5.42400 25.67100 21.78100
C  -4.85000 27.07000 21.92200
C  -4.71800 27.09500 23.43000
C  -4.49600 24.52800 21.21900
C  -5.92300 28.16400 21.44400
C  -5.54700 28.95500 20.17400
N  -4.06600 27.20200 26.36200
C  -3.51800 28.09200 25.43000
C  -2.76800 29.09800 26.14800
C  -2.87800 28.79600 27.49000
C  -3.59000 27.59000 27.59200
C  -2.21800 30.32200 25.41900
C  -2.51400 29.17100 28.83200
O  -1.95500 30.12800 29.17700
C  -3.09300 28.07000 29.83500
C  -1.90800 27.55600 30.57000
O  -0.93100 26.96200 30.05900
O  -2.11800 27.74400 31.95900
C  -0.96000 27.37600 32.77400
H  -7.50700 22.87300 28.94000
H  -7.03200 23.67500 22.57500
H  -3.44000 28.78600 23.30800
H  -4.00300 25.12200 30.95500
H  -6.97400 24.55600 30.84900
H  -4.76200 22.62900 30.33200
H  -6.37500 22.35100 31.22500
H  -5.01500 23.08100 31.89900
H  -5.77300 27.51800 31.06300
H  -4.62100 26.75000 32.18100
H  -7.58300 26.15400 31.88400
H  -6.84500 27.19200 33.15100
H  -8.90000 20.37800 26.96600
H  -10.10400 21.76100 26.89900
H  -9.07300 21.59100 28.22500
H  -10.37000 20.40200 23.33000
H  -10.95100 21.58100 24.47600
H  -9.76800 20.23400 24.86700
H  -6.24500 25.62300 21.06700
H  -3.88800 27.06500 21.40900
H  -3.53800 24.93500 20.89700
H  -4.87500 23.94000 20.38300
H  -4.30800 23.80100 22.00900
H  -6.15500 28.92400 22.19100
H  -6.89900 27.77400 21.15500
H  -4.53700 28.67600 19.87400
H  -5.42600 30.00700 20.43300
H  -6.33600 28.88000 19.42500
H  -1.35600 30.06100 24.80500
H  -2.02100 31.13700 26.11500
H  -2.95200 30.64100 24.67900
H  -3.83500 28.64200 30.39100
H  -1.18800 27.52300 33.82900
H  -0.15600 28.05400 32.48700
H  -0.67200 26.35400 32.52500

