158

Mg 27.03300 49.90100 26.79500
C  24.96900 50.97500 29.49300
C  29.56400 49.42700 29.09700
C  29.11300 49.37200 24.25200
C  24.52800 51.17500 24.62200
N  27.22300 50.19300 28.99800
C  26.23700 50.48500 29.82800
C  26.72000 50.37400 31.25800
C  28.21100 49.95200 31.20100
C  28.38300 49.82700 29.64600
C  29.26800 50.81800 31.96200
C  25.77500 49.49800 32.17000
C  25.28500 50.05200 33.51600
H  26.20000 49.91200 34.77000
N  28.99600 49.29600 26.68600
C  29.81800 49.08100 27.74300
C  31.05300 48.51700 27.24700
C  30.99700 48.53500 25.81000
C  29.65500 49.08100 25.50800
C  32.07700 47.84600 28.21000
C  32.05600 48.16600 24.78900
O  31.97500 48.16800 23.56000
C  33.36000 47.74600 25.27300
N  26.87500 50.33200 24.82300
C  27.89200 49.91200 23.94300
C  27.45000 50.21400 22.54000
C  25.94600 50.46300 22.65500
C  25.73000 50.74400 24.10900
C  28.26300 51.44000 22.04700
C  24.97700 49.42600 22.10400
C  25.32900 47.95200 22.44300
N  25.11000 50.81700 26.96300
C  24.26600 51.33600 26.01600
C  23.12200 51.94700 26.61500
C  23.31600 51.83100 27.97300
C  24.56300 51.22100 28.17100
C  21.94000 52.51500 25.96300
C  22.71600 52.15700 29.23900
O  21.64900 52.65100 29.56000
C  23.81900 51.69900 30.26300
C  24.31800 52.87300 31.03700
O  25.11900 53.77500 30.67600
O  23.57000 52.96300 32.17900
C  24.04000 53.96300 33.17000
H  30.44000 49.23100 29.71800
H  29.70100 48.93200 23.44400
H  23.72000 51.48800 23.95700
H  26.70100 51.41100 31.59500
H  28.38600 48.92400 31.51600
H  29.73800 51.41200 31.17800
H  29.91900 50.12600 32.49600
H  28.77100 51.41200 32.72900
H  26.21900 48.51200 32.30600
H  24.85400 49.40800 31.59400
H  24.29900 49.64300 33.73700
H  25.07600 51.11700 33.41100
H  32.34000 46.86000 27.82700
H  31.72400 47.91500 29.23900
H  33.00700 48.35200 27.94900
H  33.76000 48.58100 25.84900
H  34.02900 47.44200 24.46800
H  33.39400 46.80200 25.81600
H  27.82700 49.53600 21.77500
H  25.68400 51.38400 22.13400
H  29.09400 51.73000 22.69000
H  27.64200 52.33500 22.07100
H  28.78800 51.33400 21.09700
H  24.99800 49.59500 21.02800
H  23.98000 49.49700 22.53800
H  26.07100 47.75300 23.21600
H  25.74100 47.53500 21.52400
H  24.44800 47.36400 22.70000
H  21.87500 52.09500 24.96000
H  22.15600 53.58200 26.02100
H  21.04100 52.35900 26.55900
H  23.38700 50.99700 30.97500
H  24.98600 53.62400 33.59200
H  23.31400 53.86800 33.97700
H  24.02200 54.98800 32.80000
Mg -2.45600 34.31300 26.53100
C  -3.97400 32.45000 29.13500
C  -1.05800 36.24700 29.00000
C  -1.16200 36.16800 24.22200
C  -4.14800 32.33200 24.18700
N  -2.67300 34.39200 28.89700
C  -3.12700 33.43800 29.70200
C  -2.93900 33.81100 31.16400
C  -2.13600 35.14800 31.04200
C  -1.91800 35.29600 29.53200
C  -2.90600 36.39400 31.66600
C  -2.22400 32.76800 32.03100
C  -2.92400 32.36700 33.33300
H  -2.25200 32.36100 34.69100
N  -1.19700 36.00100 26.55300
C  -0.82000 36.69600 27.65500
C  -0.09300 37.83500 27.24200
C  -0.15700 37.94900 25.87900
C  -0.82800 36.70600 25.46200
C  0.64000 38.73500 28.25700
C  0.27900 39.09700 24.93700
O  -0.05300 39.07900 23.75100
C  1.03400 40.26300 25.34100
N  -2.62200 34.21800 24.42700
C  -1.96600 35.05700 23.67800
C  -2.21200 34.77000 22.18100
C  -2.95700 33.42000 22.20900
C  -3.22000 33.26100 23.69200
C  -2.98000 35.88600 21.42000
C  -2.28100 32.30000 21.49400
C  -1.53400 31.30300 22.42500
N  -3.75300 32.74800 26.59000
C  -4.34000 32.04400 25.54300
C  -5.20200 31.06800 26.13500
C  -5.11300 31.14300 27.50600
C  -4.21500 32.23200 27.73300
C  -6.17600 30.23800 25.29600
C  -5.58700 30.62300 28.79500
O  -6.39700 29.73600 29.05200
C  -4.80600 31.45900 29.91700
C  -5.83200 32.13500 30.87500
O  -6.43300 33.18500 30.65100
O  -5.91500 31.46800 32.01200
C  -6.98000 31.87900 32.99800
H  -0.46100 36.74100 29.77000
H  -0.62900 36.69700 23.42900
H  -4.54100 31.65200 23.42900
H  -3.92600 34.08600 31.53600
H  -1.20700 35.18300 31.61100
H  -3.73300 36.65500 31.00600
H  -2.15000 37.15800 31.85000
H  -3.34200 36.20000 32.64600
H  -1.31000 33.18000 32.45700
H  -2.14800 31.84700 31.45200
H  -3.15800 31.31100 33.19800
H  -3.86600 32.89900 33.46600
H  1.37800 39.42800 27.85100
H  1.14700 38.13700 29.01500
H  -0.18300 39.40500 28.50900
H  0.52200 40.95400 26.01100
H  1.32600 40.83800 24.46200
H  1.97000 39.86300 25.73200
H  -1.22300 34.55400 21.77700
H  -3.99300 33.53200 21.88800
H  -3.98600 35.56900 21.14400
H  -2.38600 36.11500 20.53600
H  -3.04500 36.78500 22.03200
H  -1.53300 32.59800 20.76000
H  -3.11700 31.70000 21.13300
H  -2.26100 30.62300 22.87000
H  -0.96800 31.77400 23.22800
H  -0.90800 30.67700 21.78800
H  -5.67700 29.75100 24.45900
H  -6.96500 30.85700 24.86900
H  -6.63000 29.47700 25.93000
H  -4.30600 30.78700 30.61500
H  -6.44100 32.39300 33.79400
H  -7.37300 30.99700 33.50400
H  -7.84100 32.40100 32.58100

