158

Mg 30.22500 58.11200 41.22600
C  27.26400 56.39700 40.05300
C  31.96700 55.34500 39.94900
C  32.96100 59.90900 41.44300
C  28.17800 60.91200 41.80300
N  29.62000 56.09400 39.99600
C  28.34800 55.62800 39.73700
C  28.48900 54.25500 39.06200
C  29.98000 53.78100 39.44300
C  30.56000 55.16000 39.81100
C  30.01100 52.53800 40.37400
C  28.02400 54.14200 37.56100
C  28.89600 54.94100 36.56900
H  28.05800 56.00700 35.74400
N  32.17400 57.62000 40.86800
C  32.71500 56.49300 40.28700
C  34.20700 56.65000 40.11600
C  34.46900 57.92800 40.73100
C  33.17000 58.54100 41.07700
C  35.23700 55.60300 39.69200
C  35.85400 58.54200 40.78000
O  36.81800 58.03900 40.30300
C  36.11900 59.85100 41.50800
N  30.52500 60.18700 41.42600
C  31.79800 60.67200 41.63600
C  31.78900 62.07200 42.31900
C  30.21700 62.33600 42.30500
C  29.58900 61.01300 41.85100
C  32.45300 62.26200 43.70200
C  29.76500 63.45100 41.32200
C  28.46300 64.18800 41.82200
N  28.10500 58.56900 41.14000
C  27.49400 59.65200 41.50600
C  26.03100 59.39300 41.50900
C  25.90200 58.13400 40.99200
C  27.19000 57.72000 40.66000
C  24.83800 60.34400 41.88700
C  24.92600 57.18500 40.57800
O  23.67600 57.12100 40.67700
C  25.77100 56.08100 39.85100
C  25.39000 54.78800 40.50600
O  25.93700 54.25400 41.46400
O  24.16600 54.36000 39.94100
C  23.63900 53.08100 40.34500
H  32.69800 54.54200 39.83600
H  33.75500 60.60900 41.71000
H  27.33900 61.46200 42.23600
H  27.74400 53.63100 39.55600
H  30.58000 53.52100 38.57100
H  30.26800 52.83800 41.39000
H  30.83800 51.94300 39.98500
H  29.05600 52.01300 40.36700
H  26.98400 54.45900 37.49300
H  27.98800 53.13400 37.14600
H  29.24000 54.21900 35.82900
H  29.70500 55.50000 37.04000
H  35.80600 55.96700 38.83600
H  34.80900 54.63400 39.43300
H  36.00100 55.38200 40.43700
H  35.81400 60.73200 40.94300
H  37.20700 59.86800 41.58300
H  35.76800 59.83100 42.53900
H  32.28400 62.74600 41.61900
H  29.73200 62.47400 43.27200
H  31.79500 62.73500 44.43100
H  33.36100 62.83800 43.51800
H  32.84000 61.30000 44.03700
H  29.51900 63.10700 40.31700
H  30.54300 64.21000 41.23800
H  28.24300 63.81700 42.82300
H  27.62800 64.05200 41.13500
H  28.68200 65.23300 42.03900
H  25.17200 61.00000 42.69100
H  23.94400 59.79200 42.17800
H  24.65100 61.01700 41.05100
H  25.46500 56.12100 38.80600
H  23.98800 52.44800 39.52900
H  22.56200 53.00300 40.49800
H  24.12200 52.83000 41.28900
Mg 5.28000 54.42400 40.61700
C  5.06500 50.74300 40.51500
C  8.58100 54.06800 39.95600
C  5.20000 57.57200 39.65900
C  1.76600 54.40000 41.09500
N  6.58600 52.61600 39.89800
C  6.37400 51.24400 40.14400
C  7.71300 50.41400 40.18300
C  8.81500 51.50700 40.08300
C  7.93300 52.85000 40.00600
C  9.90900 51.48900 41.16700
C  7.82900 49.22000 39.20900
C  7.17500 49.54500 37.83700
H  8.05800 49.86700 36.58900
N  6.77300 55.72400 40.15300
C  8.03800 55.35300 39.87700
C  8.76400 56.54200 39.51100
C  7.80600 57.59200 39.46000
C  6.50900 57.01800 39.77400
C  10.27900 56.54600 39.13800
C  8.18800 59.02800 39.19500
O  9.31400 59.29600 38.88300
C  7.17200 60.23800 39.23200
N  3.70700 55.72400 40.23700
C  3.96800 57.04500 40.01500
C  2.68500 57.91000 39.91100
C  1.64600 56.88600 40.51700
C  2.36100 55.55800 40.57600
C  2.79200 59.26500 40.60900
C  0.24400 56.82900 39.91000
C  -0.99100 57.17000 40.81200
N  3.72900 53.00200 40.77200
C  2.35600 53.18000 41.10800
C  1.76300 51.88500 41.45600
C  2.86200 51.01200 41.39300
C  3.93900 51.65200 40.76500
C  0.36900 51.64000 41.82200
C  3.22600 49.62500 41.66400
O  2.62900 48.72900 42.23000
C  4.61300 49.35100 40.93800
C  4.48000 48.40300 39.72900
O  4.13400 48.71500 38.59600
O  4.73200 47.14000 40.10800
C  4.57800 46.12000 39.02400
H  9.66800 53.97100 39.93500
H  5.22000 58.55100 39.17600
H  0.70600 54.41200 41.35700
H  7.63800 50.04600 41.20600
H  9.32500 51.32900 39.13600
H  10.86900 51.45200 40.65100
H  9.72000 50.66000 41.84800
H  9.81900 52.36800 41.80600
H  7.46800 48.28300 39.63300
H  8.83700 48.92900 38.91200
H  6.41900 50.33000 37.82000
H  6.67200 48.63400 37.51100
H  10.92900 55.80600 39.60600
H  10.81000 57.45100 39.43200
H  10.51700 56.37000 38.08900
H  7.70000 61.19200 39.24300
H  6.61100 60.18100 40.16400
H  6.58800 60.15600 38.31500
H  2.48800 58.14400 38.86500
H  1.66700 57.22500 41.55300
H  3.68700 59.19900 41.22700
H  2.01900 59.55400 41.32100
H  2.89100 60.07400 39.88500
H  0.14600 55.83100 39.48200
H  0.21600 57.47800 39.03500
H  -1.70900 57.95500 40.57400
H  -0.70400 57.28100 41.85800
H  -1.55100 56.24200 40.93300
H  0.53400 51.08000 42.74300
H  -0.19800 50.95800 41.18900
H  -0.20500 52.55000 41.99500
H  5.35100 48.94500 41.63000
H  4.83400 45.21400 39.57400
H  5.18000 46.33600 38.14100
H  3.55000 45.95000 38.70400

