158

Mg 25.30900 1.06900 30.40300
C  27.23500 1.06700 33.25800
C  22.46000 1.49500 32.34000
C  23.36000 1.10600 27.59300
C  28.00200 0.56800 28.47600
N  24.86600 1.27500 32.57200
C  25.88500 1.38800 33.48200
C  25.27600 1.77800 34.90700
C  23.73400 1.78800 34.59800
C  23.65400 1.48200 33.14400
C  22.83200 0.99500 35.62000
C  25.93000 3.08800 35.57600
C  26.56600 2.90000 36.94400
H  26.35900 4.00800 37.98500
N  23.25400 1.18300 30.08700
C  22.27000 1.38300 30.99600
C  21.02000 1.49500 30.32000
C  21.26100 1.47100 28.99000
C  22.68900 1.32100 28.83500
C  19.70800 1.62500 31.07700
C  20.26100 1.50400 27.83800
O  20.52500 1.34200 26.65100
C  18.81800 2.00700 28.12200
N  25.61500 0.90600 28.32600
C  24.71000 0.89800 27.35700
C  25.34200 0.77300 25.95700
C  26.86500 0.84400 26.30000
C  26.85400 0.73600 27.79000
C  24.86900 -0.59800 25.25500
C  27.63700 2.08400 25.72700
C  26.99600 3.40100 26.05300
N  27.26500 0.87300 30.72500
C  28.27600 0.59200 29.85200
C  29.53700 0.47400 30.60800
C  29.13700 0.68000 31.94000
C  27.75500 0.91300 31.96000
C  30.87000 0.19300 30.11200
C  29.68700 0.79500 33.27800
O  30.84300 0.72900 33.70700
C  28.45100 1.03600 34.23400
C  28.42400 -0.10700 35.17200
O  27.91300 -1.19000 34.93100
O  28.95000 0.25900 36.42500
C  28.77400 -0.65700 37.50000
H  21.55100 1.73500 32.89500
H  22.83200 1.22700 26.64500
H  28.87800 0.46000 27.83400
H  25.40400 1.06900 35.72400
H  23.43500 2.83400 34.53300
H  21.82000 1.38800 35.72400
H  23.32600 0.95400 36.59100
H  22.57600 0.00600 35.24000
H  25.10400 3.79700 35.50700
H  26.70200 3.37600 34.86200
H  27.63400 2.97000 36.73900
H  26.34700 1.91300 37.35100
H  19.02600 0.81700 30.81000
H  19.38700 2.64000 30.84500
H  19.82900 1.48800 32.15200
H  18.36400 1.91300 27.13500
H  18.80700 2.99400 28.58300
H  18.22100 1.32000 28.72100
H  25.09300 1.66400 25.38100
H  27.35700 -0.00800 25.83100
H  23.96100 -1.00900 25.69700
H  25.62900 -1.37900 25.28100
H  24.68400 -0.52200 24.18400
H  27.76100 2.02800 24.64500
H  28.58400 2.16500 26.26000
H  26.79500 3.91500 25.11300
H  27.63500 4.09700 26.59600
H  26.05600 3.42300 26.60600
H  30.86200 -0.88200 29.93200
H  31.55700 0.66800 30.81300
H  31.04300 0.70600 29.16700
H  28.61300 1.96200 34.78700
H  27.95700 -0.38000 38.16500
H  29.66200 -0.67600 38.13200
H  28.61400 -1.67600 37.14600
Mg 49.59200 35.52200 27.78700
C  47.31400 34.18900 30.32000
C  50.13000 38.20300 29.84600
C  51.30200 36.96900 25.29300
C  48.61300 32.96700 25.74100
N  48.80900 36.11300 29.87200
C  47.90100 35.44600 30.70300
C  47.63900 36.27400 31.95000
C  48.51800 37.55500 31.71700
C  49.18000 37.28400 30.44000
C  47.73900 38.93300 31.80200
C  47.99600 35.61300 33.30800
C  49.25000 34.69600 33.32300
H  50.55300 35.17700 33.96800
N  50.81100 37.22300 27.72300
C  50.92900 38.18700 28.67300
C  51.99200 39.16300 28.23600
C  52.38400 38.67800 26.99900
C  51.52100 37.52200 26.61600
C  52.47400 40.21700 29.23500
C  53.46800 39.29900 26.13400
O  53.75700 38.76500 25.08900
C  54.07300 40.71300 26.48500
N  49.98200 35.01300 25.76500
C  50.66100 35.78100 24.86600
C  50.85300 35.07900 23.48900
C  49.94500 33.81100 23.64000
C  49.46700 33.90700 25.12800
C  50.59900 36.00700 22.23700
C  50.60100 32.42700 23.29500
C  49.62500 31.61700 22.49900
N  48.26300 33.94600 27.97300
C  48.04800 32.88400 27.04700
C  47.11500 31.89200 27.55600
C  46.77100 32.40200 28.83200
C  47.50700 33.61500 29.08100
C  46.68300 30.63600 26.86700
C  45.90900 32.13600 29.96100
O  45.09400 31.24200 30.15400
C  46.07800 33.33000 30.88100
C  46.26600 32.88500 32.26300
O  47.18300 32.22300 32.70600
O  45.26600 33.34200 33.08700
C  45.21500 32.87600 34.47300
H  50.26300 39.13200 30.40500
H  51.73000 37.47400 24.42400
H  48.52800 32.04600 25.16100
H  46.57300 36.49500 31.89800
H  49.24200 37.63100 32.52800
H  47.52900 39.53200 30.91600
H  48.36800 39.58700 32.40500
H  46.81300 38.94500 32.37800
H  47.11700 35.07100 33.65600
H  48.10500 36.30800 34.14100
H  49.61500 34.29900 32.37600
H  49.08100 33.84100 33.97800
H  53.20700 39.69600 29.85100
H  51.61500 40.57200 29.80400
H  52.83400 41.10300 28.71000
H  53.30600 41.48400 26.41400
H  54.77500 40.92300 25.67700
H  54.54800 40.62500 27.46200
H  51.90200 34.80900 23.37100
H  49.05800 33.97200 23.02700
H  50.46200 37.07500 22.40500
H  49.74000 35.58600 21.71500
H  51.54800 35.97400 21.70200
H  50.82800 31.84300 24.18800
H  51.55200 32.51100 22.77000
H  48.71300 32.08800 22.13100
H  49.27900 30.65300 22.87100
H  50.08000 31.53400 21.51100
H  45.90500 30.86800 26.13900
H  46.31600 29.91500 27.59700
H  47.58000 30.23000 26.40000
H  45.22300 34.00300 30.81900
H  44.78600 31.87500 34.52000
H  44.73600 33.58600 35.14700
H  46.22100 32.74500 34.87100

