158

Mg -0.01800 7.42100 26.14400
C  1.00900 9.10700 28.91800
C  -0.45400 4.69000 27.87700
C  -0.74700 5.90300 23.18300
C  0.86300 10.34200 24.23900
N  0.44200 6.91900 28.17300
C  0.64600 7.77000 29.17700
C  0.53800 7.06300 30.54900
C  0.40400 5.55300 30.16200
C  0.12500 5.71100 28.63500
C  1.68400 4.71100 30.44600
C  -0.68600 7.56400 31.42900
C  -0.49600 7.62800 32.90300
H  0.62800 6.79700 33.57800
N  -0.57400 5.53100 25.60200
C  -0.68400 4.52600 26.46800
C  -1.25100 3.37400 25.76500
C  -1.34800 3.77900 24.35300
C  -0.84200 5.09200 24.33200
C  -1.69500 2.11100 26.55700
C  -1.77500 2.87900 23.22400
O  -1.88900 3.16300 22.02700
C  -2.11900 1.37500 23.54800
N  0.10000 8.03100 24.05600
C  -0.19500 7.18000 23.07000
C  0.11600 7.76300 21.62800
C  0.32200 9.26600 21.92600
C  0.41400 9.24700 23.52700
C  1.26600 7.03300 20.87300
C  -0.69800 10.17400 21.34800
C  -2.17600 10.08700 21.93700
N  0.70600 9.37200 26.45200
C  1.03700 10.39900 25.61200
C  1.42900 11.60000 26.36400
C  1.51900 11.18300 27.65100
C  1.01200 9.79900 27.67600
C  1.73000 12.98200 25.88000
C  1.84800 11.52600 29.01200
O  2.38000 12.54300 29.54900
C  1.44700 10.22200 29.86500
C  2.60300 9.85300 30.77700
O  3.54600 9.14500 30.45600
O  2.51300 10.60600 31.88800
C  3.68300 10.87300 32.74300
H  -0.61500 3.75800 28.42200
H  -1.24600 5.37500 22.36800
H  0.99700 11.25400 23.65300
H  1.51500 7.23000 31.00200
H  -0.48300 5.13000 30.63400
H  2.28600 4.70000 29.53700
H  1.55700 3.67900 30.77100
H  2.30800 5.26200 31.15000
H  -1.59400 7.01700 31.17500
H  -0.89000 8.57200 31.06900
H  -1.34800 7.15100 33.38600
H  -0.46500 8.61700 33.36100
H  -2.66600 1.78100 26.18700
H  -1.79000 2.06000 27.64100
H  -1.03000 1.27300 26.34700
H  -1.19300 0.94600 23.93200
H  -2.37500 0.79600 22.66100
H  -2.95300 1.51400 24.23600
H  -0.77800 7.61600 21.02200
H  1.27800 9.56600 21.49600
H  1.25200 5.97300 21.12700
H  2.18700 7.44000 21.29100
H  1.22200 7.10000 19.78600
H  -0.72700 10.07200 20.26300
H  -0.35300 11.17300 21.61600
H  -2.42700 11.09100 22.28000
H  -2.20100 9.45200 22.82300
H  -2.97500 9.63200 21.35000
H  1.58400 13.70300 26.68500
H  1.13900 13.20800 24.99200
H  2.77100 13.05200 25.56300
H  0.53900 10.51800 30.38900
H  3.59500 10.28500 33.65700
H  3.56700 11.94400 32.90600
H  4.66400 10.64700 32.32500
Mg 24.65100 -5.83300 45.29400
C  27.08200 -3.76700 44.00700
C  22.33900 -4.69000 43.33800
C  22.72500 -8.56500 46.15000
C  27.21400 -7.23400 47.29500
N  24.77200 -4.49900 43.67200
C  25.82600 -3.62600 43.40900
C  25.37000 -2.46400 42.56700
C  23.77700 -2.64100 42.50300
C  23.60000 -4.01400 43.24500
C  23.00000 -1.37600 43.07800
C  26.04900 -2.62300 41.17800
C  26.18900 -1.46300 40.28000
H  25.65300 -1.66300 38.82500
N  22.73200 -6.46800 44.94300
C  21.94000 -5.82400 44.06100
C  20.64900 -6.47400 43.96200
C  20.74600 -7.62800 44.73300
C  22.13800 -7.62200 45.32400
C  19.59000 -6.08800 43.04300
C  19.65700 -8.68000 44.99100
O  18.57600 -8.57600 44.43600
C  19.79100 -9.87400 45.90700
N  24.92700 -7.60800 46.47100
C  24.01500 -8.64200 46.66800
C  24.54900 -9.79000 47.53300
C  25.91400 -9.24400 48.06100
C  26.03600 -7.94400 47.24700
C  23.56100 -10.40600 48.59800
C  27.16900 -10.15800 48.03100
C  28.15700 -10.04400 49.22100
N  26.70800 -5.49400 45.69400
C  27.54300 -6.10400 46.54700
C  28.90400 -5.58900 46.44900
C  28.70500 -4.61600 45.48600
C  27.36900 -4.62100 45.00800
C  30.19400 -5.77000 47.25400
C  29.33200 -3.48200 44.71500
O  30.49000 -3.02200 44.74700
C  28.28000 -2.92600 43.76000
C  28.22300 -1.45100 44.08400
O  28.18000 -0.96800 45.19500
O  28.35300 -0.73200 42.92300
C  28.35500 0.70600 43.11700
H  21.70500 -3.99600 42.78200
H  22.21200 -9.50700 46.35900
H  28.01600 -7.51100 47.98300
H  25.63300 -1.55800 43.11300
H  23.41000 -2.73700 41.48200
H  23.56600 -0.44600 43.03100
H  22.80500 -1.48500 44.14500
H  22.01300 -1.32700 42.61900
H  25.71600 -3.46900 40.57600
H  27.08600 -2.82700 41.44500
H  27.21800 -1.10400 40.30000
H  25.58100 -0.66600 40.70800
H  19.77500 -5.14400 42.53000
H  18.56100 -6.06500 43.40000
H  19.56500 -6.79400 42.21300
H  20.56200 -10.51000 45.47200
H  18.83100 -10.38000 46.00400
H  20.01500 -9.56100 46.92800
H  24.73500 -10.61900 46.85000
H  25.65600 -9.01600 49.09500
H  23.94900 -10.28800 49.61000
H  23.51500 -11.47200 48.37800
H  22.60100 -9.88800 48.58500
H  27.72500 -9.85700 47.14300
H  26.80900 -11.18400 47.94600
H  29.07000 -9.74400 48.70700
H  28.22800 -10.90200 49.89000
H  27.80700 -9.36700 50.00100
H  30.06600 -6.62700 47.91500
H  30.40600 -4.79600 47.69700
H  30.94300 -5.90000 46.47300
H  28.68800 -3.01400 42.75300
H  28.00500 1.06800 44.08400
H  27.70800 1.09800 42.33200
H  29.38000 1.01400 42.91000

