158

Mg 35.65300 -0.12100 29.57000
C  33.62500 1.24900 32.07500
C  38.20800 -0.44200 31.83400
C  37.57700 -1.37300 27.16800
C  33.01900 0.43000 27.29500
N  35.86900 0.32600 31.71200
C  34.91500 0.90100 32.50100
C  35.50300 1.14900 33.88800
C  37.06300 0.91400 33.77800
C  37.09300 0.18300 32.41300
C  37.85900 2.16400 33.80200
C  34.87700 0.28100 34.97800
C  34.89800 0.77700 36.41500
H  35.92300 1.84600 36.75300
N  37.50000 -1.06500 29.61000
C  38.35900 -1.03400 30.60000
C  39.58400 -1.83100 30.25600
C  39.32900 -2.20300 28.92000
C  38.08200 -1.55500 28.44900
C  40.73100 -2.02400 31.18700
C  40.28100 -2.99200 28.01900
O  40.03800 -3.16800 26.85500
C  41.55400 -3.78000 28.58200
N  35.29100 -0.43200 27.47100
C  36.34300 -0.88800 26.66800
C  35.99500 -0.52400 25.12500
C  34.41200 -0.26400 25.22200
C  34.21200 -0.06700 26.72600
C  36.68300 0.74800 24.57000
C  33.54100 -1.43700 24.78200
C  32.49000 -1.02300 23.68300
N  33.66400 0.63000 29.66100
C  32.71500 0.74000 28.64500
C  31.57200 1.41100 29.19900
C  31.83700 1.58500 30.56000
C  33.15300 1.09300 30.75100
C  30.34400 1.66500 28.39900
C  31.31000 2.09100 31.81400
O  30.25700 2.63400 32.14700
C  32.45100 1.90300 32.86100
C  32.68100 3.28700 33.35000
O  32.97400 4.29000 32.72300
O  32.45000 3.23500 34.72400
C  32.49700 4.39800 35.53800
H  38.96400 -0.36400 32.61900
H  38.33300 -1.46000 26.38500
H  32.15400 0.66900 26.67400
H  35.34700 2.21600 34.04600
H  37.39700 0.27600 34.59600
H  37.20100 3.02600 33.69400
H  38.57200 2.16500 32.97800
H  38.44800 2.18200 34.71900
H  35.25300 -0.74100 35.00400
H  33.84800 0.12500 34.65600
H  35.03100 -0.05600 37.10500
H  33.93900 1.25400 36.61900
H  41.60000 -1.91600 30.53900
H  40.79200 -2.96300 31.73700
H  40.76800 -1.20400 31.90400
H  41.72900 -4.58000 27.86200
H  41.43900 -4.18400 29.58800
H  42.50400 -3.24800 28.62500
H  36.29400 -1.44300 24.61900
H  34.12600 0.71300 24.83200
H  37.50300 1.07100 25.21200
H  36.04800 1.61300 24.37700
H  37.20300 0.41100 23.67300
H  32.96600 -1.81900 25.62500
H  34.15500 -2.17200 24.26200
H  31.48100 -1.34400 23.94200
H  32.79700 -1.58000 22.79800
H  32.45700 0.06100 23.56600
H  29.62500 2.17500 29.04100
H  29.82800 0.72900 28.18800
H  30.58900 2.26900 27.52500
H  32.06500 1.22700 33.62400
H  32.82300 4.08700 36.53100
H  31.52500 4.83200 35.77000
H  33.01500 5.23300 35.06600
Mg 41.57900 6.85100 29.62600
C  43.12400 8.42300 32.38100
C  39.12100 5.57700 31.76000
C  39.98100 5.48600 27.01500
C  44.03400 8.03600 27.66600
N  41.17400 6.91900 31.79900
C  41.87500 7.85700 32.66400
C  41.11700 7.86100 33.97100
C  40.07400 6.69200 33.91300
C  40.09400 6.35600 32.40200
C  40.49200 5.42400 34.69000
C  40.49100 9.18700 34.48600
C  40.49800 9.35300 36.00200
H  41.38800 10.40400 36.63600
N  39.87600 5.66100 29.40100
C  38.99100 5.28200 30.39600
C  37.93800 4.58700 29.81900
C  38.04800 4.68200 28.47800
C  39.33900 5.27800 28.20400
C  36.79400 4.12500 30.68900
C  37.02000 4.25400 27.43700
O  37.21000 4.49600 26.27300
C  35.68400 3.53100 27.80800
N  42.21800 6.41300 27.66200
C  41.21300 6.02500 26.71400
C  41.79900 6.21900 25.29200
C  43.00700 7.18600 25.48600
C  43.06300 7.25400 27.07600
C  42.29200 4.88300 24.67800
C  42.90400 8.54800 24.84100
C  41.56700 9.36000 25.12900
N  43.43800 7.83100 29.94700
C  44.29700 8.24900 29.03100
C  45.44700 8.92200 29.67700
C  45.04400 9.05300 31.02400
C  43.77500 8.34200 31.11200
C  46.64600 9.55200 29.03900
C  45.26700 9.71700 32.30400
O  46.07700 10.57300 32.65100
C  44.02200 9.29100 33.26300
C  44.70400 8.60100 34.37600
O  45.40500 7.62300 34.33100
O  44.42300 9.17600 35.55800
C  44.82100 8.63300 36.85700
H  38.33100 5.30700 32.46500
H  39.40400 5.11900 26.16400
H  44.82900 8.40100 27.01300
H  41.87700 7.56100 34.69200
H  39.05100 6.89600 34.23000
H  40.97400 4.73000 34.00100
H  39.57500 4.93100 35.01200
H  41.18400 5.67100 35.49600
H  39.42900 9.22100 34.24000
H  41.01000 9.93400 33.88600
H  40.52500 8.40500 36.53900
H  39.49500 9.68700 36.26400
H  35.79600 4.48600 30.44100
H  36.93900 4.16900 31.76900
H  36.85400 3.05000 30.51700
H  36.05500 2.79900 28.52500
H  35.18900 3.00600 26.99100
H  35.12800 4.19800 28.46800
H  41.09000 6.69200 24.61300
H  43.97500 6.79900 25.16900
H  43.35900 4.66500 24.68600
H  42.04800 4.85200 23.61600
H  41.82500 3.99000 25.09400
H  42.90200 8.47900 23.75300
H  43.74900 9.21600 25.00800
H  41.12900 9.01100 26.06400
H  40.77800 9.19800 24.39500
H  41.88700 10.40200 25.14500
H  46.46000 9.58500 27.96500
H  47.55500 8.98600 29.24500
H  46.77400 10.60400 29.29200
H  43.57600 10.23000 33.59000
H  44.94800 7.56300 36.69300
H  44.06500 8.71800 37.63700
H  45.78900 9.01100 37.18800

