158

Mg 50.63600 45.41400 42.49500
C  47.60900 47.15300 41.65700
C  49.34300 42.55400 41.37700
C  53.84600 44.29500 42.17900
C  51.99000 48.62800 43.36800
N  48.72600 44.96200 41.51500
C  47.62400 45.71100 41.37500
C  46.45900 44.88200 40.79800
C  46.92200 43.40500 41.12300
C  48.42900 43.61600 41.27500
C  46.14400 42.73800 42.34400
C  46.33500 45.13900 39.25600
C  44.80700 45.08300 38.72500
H  44.37200 43.77100 38.22400
N  51.47300 43.67100 41.94100
C  50.74100 42.57700 41.60900
C  51.66400 41.43200 41.53400
C  52.94900 41.91000 41.59200
C  52.79200 43.36200 41.87700
C  51.23700 39.98900 41.32900
C  54.23800 41.11100 41.35300
O  54.25500 39.91100 41.12400
C  55.61400 41.79400 41.23200
N  52.60300 46.37400 42.67400
C  53.76200 45.62900 42.55900
C  55.04100 46.44200 43.02000
C  54.38300 47.75800 43.52700
C  52.91400 47.57800 43.21600
C  55.93100 45.71600 44.01700
C  54.99500 49.05300 42.92800
C  55.18400 50.21500 43.92700
N  50.02100 47.46500 42.44400
C  50.63100 48.61800 42.97900
C  49.71400 49.73800 42.83000
C  48.58300 49.21100 42.21700
C  48.73200 47.81900 42.14800
C  50.08200 51.16800 43.05100
C  47.20100 49.51400 41.87700
O  46.66600 50.64100 41.88100
C  46.51300 48.18900 41.40200
C  45.25400 47.74700 42.03800
O  45.11300 46.93600 42.94000
O  44.24500 48.42600 41.37100
C  42.88300 47.98500 41.49100
H  48.96000 41.59700 41.01600
H  54.87800 43.96100 42.30700
H  52.37900 49.58500 43.72400
H  45.52700 45.24300 41.23400
H  46.61100 42.75400 40.30600
H  45.51100 42.05300 41.77900
H  45.51100 43.45900 42.86200
H  46.88900 42.27700 42.99200
H  46.89600 44.35300 38.75000
H  46.80000 46.06800 38.92600
H  44.89500 45.90400 38.01300
H  44.16400 45.52800 39.48400
H  51.83000 39.58600 40.50700
H  50.15600 39.92100 41.21200
H  51.50800 39.40900 42.21100
H  55.96000 42.10700 42.21700
H  55.46900 42.52800 40.43900
H  56.35600 41.07500 40.88600
H  55.53900 46.60300 42.06400
H  54.45500 47.76600 44.61500
H  56.09100 46.39600 44.85400
H  56.90200 45.37000 43.66400
H  55.39300 44.86800 44.44100
H  54.34400 49.32700 42.09700
H  55.96500 48.76600 42.52300
H  54.36900 50.92800 43.80300
H  56.15600 50.69700 43.82100
H  55.13700 49.70700 44.89000
H  50.68200 51.49700 42.20300
H  50.70000 51.35700 43.92900
H  49.21700 51.83200 43.08300
H  46.32700 48.27500 40.33200
H  42.38600 48.27800 40.56600
H  42.46800 48.33900 42.43500
H  42.85300 46.89800 41.56500
Mg 8.96000 48.79200 25.88600
C  6.78100 48.84700 28.55100
C  11.47000 50.13400 27.79700
C  10.90900 48.39100 23.27200
C  6.18300 47.90400 23.80800
N  9.11500 49.39000 27.92600
C  8.12500 49.14800 28.89600
C  8.62100 49.69300 30.33200
C  9.98700 50.48000 29.95900
C  10.21400 50.04400 28.45900
C  10.00400 52.03000 30.11700
C  8.77700 48.62700 31.45000
C  8.23800 49.04600 32.82900
H  8.27500 48.04600 34.01600
N  10.97200 49.12700 25.60400
C  11.88800 49.64900 26.52000
C  13.18300 49.54200 25.93000
C  13.08700 48.98900 24.59200
C  11.58200 48.88300 24.37900
C  14.44000 49.73800 26.85900
C  14.16900 48.59200 23.62400
O  13.99900 48.16300 22.49000
C  15.51500 48.82100 23.99500
N  8.57100 48.49700 23.76300
C  9.61800 48.29500 22.91900
C  9.14200 47.80700 21.55300
C  7.61600 47.82900 21.70000
C  7.44800 48.02100 23.21400
C  9.70300 48.36500 20.20200
C  6.85200 46.56600 21.15600
C  5.45800 46.77000 20.40900
N  6.84500 48.53400 26.09400
C  5.87700 48.26000 25.14800
C  4.52700 48.19200 25.91200
C  4.81700 48.44600 27.27600
C  6.22200 48.60200 27.30600
C  3.13700 47.97100 25.26400
C  4.30900 48.47300 28.57700
O  3.20300 48.29700 29.08900
C  5.48400 48.91700 29.46900
C  5.37600 47.91900 30.55900
O  5.77400 46.74900 30.47500
O  4.72400 48.40100 31.67800
C  4.57300 47.48600 32.78800
H  12.26500 50.60500 28.37900
H  11.48500 47.99400 22.43400
H  5.34200 47.50700 23.23600
H  7.87500 50.36100 30.76400
H  10.86600 50.20000 30.53900
H  10.29500 52.30700 31.13000
H  9.03600 52.45800 29.85400
H  10.69800 52.52500 29.43700
H  9.83600 48.38700 31.54400
H  8.19600 47.79600 31.04900
H  7.15800 49.14500 32.72100
H  8.72600 49.98600 33.08700
H  14.26500 49.88900 27.92500
H  14.99700 50.57200 26.43400
H  14.98200 48.81300 26.66000
H  15.88500 48.11800 24.74100
H  15.58600 49.88600 24.21600
H  16.23700 48.71200 23.18600
H  9.55600 46.80000 21.51000
H  7.19100 48.75900 21.32200
H  10.09000 47.54600 19.59600
H  10.59900 48.95400 20.39700
H  8.96600 48.87600 19.58200
H  6.57100 45.85400 21.93200
H  7.54100 46.01100 20.51900
H  4.75700 46.04200 20.81900
H  5.69700 46.58700 19.36200
H  5.13600 47.79500 20.59200
H  2.75600 48.88200 24.80300
H  2.45500 47.40900 25.90100
H  3.55400 47.23000 24.58100
H  5.30800 49.95900 29.73900
H  4.02000 48.08200 33.51400
H  5.55300 47.19000 33.16100
H  3.95600 46.62100 32.54200

