158

Mg 47.30000 34.52000 26.60700
C  45.45700 33.35300 29.38800
C  47.61900 37.57000 28.28400
C  48.63700 35.71600 23.78600
C  46.34700 31.60500 24.90000
N  46.74200 35.25800 28.65800
C  46.05200 34.58800 29.69500
C  46.22100 35.42200 31.00600
C  46.48800 36.87000 30.45300
C  47.04000 36.58300 29.06100
C  45.23500 37.82300 30.35000
C  47.35700 34.82200 31.90700
C  46.97400 34.52500 33.30900
H  47.91000 34.98300 34.42900
N  48.13000 36.38800 26.17100
C  48.14100 37.51600 26.96600
C  48.70700 38.56800 26.19300
C  49.01400 38.02600 24.86000
C  48.60200 36.64700 24.92600
C  48.75900 39.98700 26.73500
C  49.76500 38.73500 23.68200
O  49.92400 38.20000 22.57800
C  50.41100 40.07400 23.83900
N  47.44500 33.78000 24.70300
C  48.12200 34.42700 23.70200
C  48.30300 33.56900 22.41600
C  47.79200 32.14800 22.85600
C  47.20400 32.52700 24.27400
C  47.47900 34.13900 21.27000
C  48.79100 31.06800 23.24200
C  49.85400 30.59400 22.14700
N  46.08300 32.77500 26.96500
C  45.86000 31.63200 26.22400
C  45.02400 30.74700 27.03300
C  44.74700 31.42400 28.26600
C  45.54700 32.61000 28.19400
C  44.56800 29.41600 26.54200
C  44.12900 31.25100 29.56400
O  43.44500 30.37500 30.12200
C  44.44500 32.58700 30.24900
C  44.82000 32.30500 31.71800
O  45.71000 31.55100 32.13600
O  43.89700 32.83500 32.54200
C  43.84400 32.43700 33.93400
H  47.64500 38.57600 28.70800
H  49.10600 35.95000 22.82800
H  46.18900 30.69500 24.31700
H  45.25600 35.44900 31.51300
H  47.20600 37.50100 30.97700
H  45.42200 38.65900 31.02400
H  44.29100 37.33200 30.58700
H  45.11300 38.24000 29.35000
H  48.22500 35.47900 31.94100
H  47.62900 33.87800 31.43600
H  47.03300 33.43800 33.36700
H  46.01200 34.96700 33.56900
H  48.23800 40.19900 27.66900
H  48.16900 40.57400 26.03100
H  49.73100 40.47900 26.77100
H  49.70600 40.80900 24.22700
H  50.76000 40.56800 22.93200
H  51.20900 39.80200 24.53000
H  49.37100 33.59300 22.20100
H  47.01000 31.68200 22.25700
H  47.99000 34.15700 20.30800
H  47.04400 35.13200 21.38600
H  46.68000 33.45300 20.98700
H  48.20000 30.22100 23.59000
H  49.26600 31.37200 24.17500
H  50.84600 30.61000 22.59800
H  49.89000 31.24200 21.27100
H  49.70200 29.56200 21.83300
H  45.03300 29.27500 25.56600
H  43.47900 29.45200 26.57600
H  44.95000 28.63500 27.19900
H  43.54600 33.20300 30.23200
H  44.58500 32.94400 34.55100
H  43.93400 31.36500 34.11300
H  42.86100 32.73100 34.30300
Mg -1.51400 34.65300 26.79800
C  -3.28100 32.91600 29.23300
C  -0.48800 36.85100 29.09400
C  -0.26600 36.62700 24.19400
C  -2.56700 32.42400 24.40700
N  -1.74900 34.79100 28.97900
C  -2.53500 33.94000 29.81600
C  -2.37900 34.32500 31.22000
C  -1.48300 35.58500 31.17700
C  -1.26900 35.80000 29.62400
C  -2.10700 36.82000 31.81300
C  -1.76900 33.16300 32.05700
C  -2.51700 32.83000 33.40500
H  -1.74400 32.75200 34.77500
N  -0.46300 36.43100 26.66500
C  -0.07500 37.20500 27.75000
C  0.81000 38.23000 27.31100
C  0.73500 38.29600 25.84800
C  -0.02000 37.02200 25.49900
C  1.55300 39.17100 28.26200
C  1.33000 39.34000 24.84700
O  1.33700 39.15800 23.65800
C  1.94000 40.60900 25.45300
N  -1.67700 34.71900 24.55700
C  -1.04600 35.60900 23.73900
C  -1.16100 35.11800 22.28000
C  -1.70800 33.68500 22.37500
C  -1.98000 33.54800 23.86600
C  -1.93200 36.16100 21.37300
C  -0.77100 32.63400 21.73000
C  0.44700 32.20400 22.59100
N  -2.73700 33.02100 26.71800
C  -3.05300 32.21300 25.66400
C  -4.06300 31.20900 26.14600
C  -4.09000 31.40000 27.56200
C  -3.29500 32.50700 27.89000
C  -4.81600 30.27900 25.37700
C  -4.64300 30.94300 28.82900
O  -5.43900 29.99100 29.05600
C  -4.07200 31.85000 29.95500
C  -5.11400 32.42100 30.80200
O  -5.63300 33.50400 30.65300
O  -5.41400 31.51400 31.85000
C  -6.29100 32.16500 32.86200
H  0.04000 37.54800 29.74800
H  0.05900 37.31200 23.40800
H  -2.87500 31.72900 23.62300
H  -3.36700 34.56400 31.61500
H  -0.49300 35.44300 31.61200
H  -2.23100 37.56800 31.03000
H  -1.56400 37.11100 32.71100
H  -3.16300 36.73300 32.07000
H  -0.79100 33.28900 32.52300
H  -1.52400 32.31500 31.41700
H  -2.89300 31.81800 33.25800
H  -3.35200 33.50400 33.59900
H  2.60600 39.16700 27.98100
H  1.61000 38.95700 29.33000
H  1.10600 40.16400 28.28600
H  1.18100 40.89600 26.18100
H  1.97100 41.36800 24.67200
H  2.92900 40.26500 25.75700
H  -0.12900 35.12800 21.92700
H  -2.70200 33.67500 21.92900
H  -2.66100 35.67300 20.72600
H  -1.14600 36.58100 20.74500
H  -2.38700 36.97600 21.93600
H  -0.51100 33.01700 20.74400
H  -1.47600 31.83900 21.48500
H  0.44000 32.67000 23.57700
H  1.37700 32.34600 22.04100
H  0.42600 31.12700 22.75800
H  -4.50800 30.43200 24.34300
H  -5.88300 30.49900 25.40900
H  -4.78600 29.23700 25.69800
H  -3.40000 31.25900 30.57800
H  -5.70900 32.59200 33.67800
H  -6.73600 31.35200 33.43400
H  -7.01500 32.91700 32.54700

