158

Mg -1.17100 17.80000 26.25600
C  -1.59400 15.28400 28.68700
C  -1.88900 20.09600 28.62700
C  -0.95200 20.08400 23.90600
C  -1.16700 15.26900 23.85600
N  -1.53400 17.68800 28.43900
C  -1.61800 16.57000 29.21700
C  -1.78100 16.91500 30.66700
C  -2.20000 18.46900 30.58000
C  -1.94100 18.74400 29.11400
C  -3.63400 18.99100 31.03800
C  -0.64100 16.50300 31.72000
C  -0.53400 17.37000 32.99400
H  -0.26600 16.78300 34.32900
N  -1.25000 19.84000 26.28000
C  -1.51100 20.59100 27.38600
C  -1.48800 21.97900 26.92600
C  -1.13000 21.96800 25.51100
C  -1.09800 20.58800 25.14200
C  -1.87000 23.23600 27.86000
C  -0.97600 23.11500 24.62300
O  -0.67000 22.93600 23.42200
C  -1.10600 24.54600 25.15200
N  -1.02700 17.69500 24.18700
C  -0.97300 18.80600 23.46100
C  -1.03800 18.48900 21.87900
C  -0.96300 16.92900 21.89700
C  -1.09300 16.59800 23.42500
C  -2.24700 19.16300 21.21200
C  0.18800 16.30000 21.14600
C  1.59500 16.24900 21.70200
N  -1.36400 15.69700 26.25200
C  -1.33700 14.81800 25.20200
C  -1.58100 13.47500 25.67500
C  -1.63300 13.62800 27.06200
C  -1.47800 15.00500 27.33000
C  -1.69800 12.33400 24.80400
C  -1.81300 12.88600 28.27000
O  -1.82900 11.65700 28.43300
C  -1.86400 13.92800 29.41200
C  -0.83800 13.51200 30.35900
O  0.33500 13.72400 30.26400
O  -1.40900 12.94200 31.46100
C  -0.58000 12.47000 32.53600
H  -2.23300 20.81400 29.37400
H  -0.99300 20.71500 23.01500
H  -1.24700 14.47500 23.11100
H  -2.72200 16.41900 30.90500
H  -1.56000 19.11500 31.18100
H  -3.52200 19.78800 31.77300
H  -4.12600 18.21100 31.61700
H  -4.27500 19.28900 30.20800
H  0.25000 16.32600 31.11600
H  -0.99600 15.50400 31.97100
H  -1.51000 17.84000 33.11600
H  0.25800 18.08900 32.78400
H  -2.67200 23.82300 27.41200
H  -1.01100 23.89700 27.96900
H  -2.01400 22.91500 28.89200
H  -1.02600 25.31600 24.38500
H  -0.32300 24.53700 25.91100
H  -2.10200 24.79400 25.51700
H  -0.17200 18.99400 21.45100
H  -1.86200 16.60900 21.36900
H  -2.92200 19.63600 21.92600
H  -2.74500 18.43200 20.57400
H  -1.81400 19.98500 20.64200
H  0.24400 16.89200 20.23300
H  -0.11900 15.31300 20.80200
H  1.56200 16.67600 22.70400
H  2.39000 16.70200 21.11000
H  1.82200 15.18800 21.80500
H  -1.70400 11.39900 25.36500
H  -0.93400 12.39000 24.02900
H  -2.71400 12.38100 24.41200
H  -2.81500 13.87300 29.94400
H  -1.23000 11.98100 33.26200
H  -0.06100 13.33800 32.94100
H  0.10900 11.68300 32.23000
Mg 35.77300 2.64600 30.77700
C  33.30000 3.57400 33.24100
C  38.13300 2.79000 33.35300
C  38.15800 2.11300 28.55500
C  33.37100 2.81000 28.46500
N  35.70600 2.99200 33.04300
C  34.62000 3.37300 33.79700
C  35.01600 3.65100 35.23700
C  36.59000 3.64900 35.18200
C  36.84000 3.05000 33.82000
C  37.35900 4.94900 35.52500
C  34.25700 2.60600 36.17400
C  34.09300 2.88100 37.64300
H  35.01600 3.91400 38.31800
N  37.91000 2.50900 30.95900
C  38.66500 2.63000 32.05400
C  40.08000 2.43700 31.69700
C  40.10600 2.17400 30.30100
C  38.72000 2.27300 29.85700
C  41.23000 2.57100 32.64500
C  41.25700 1.73600 29.37300
O  41.12700 1.56300 28.15600
C  42.62300 1.58200 29.96700
N  35.73300 2.41900 28.83600
C  36.83700 2.19900 28.08400
C  36.45000 1.94600 26.63000
C  34.89300 1.96300 26.61600
C  34.64100 2.45500 27.98900
C  37.08000 2.96500 25.56500
C  34.09800 0.65000 26.29300
C  34.05900 0.32600 24.78500
N  33.78200 3.22300 30.78100
C  32.89000 3.15500 29.71400
C  31.58100 3.47400 30.12300
C  31.71100 3.74400 31.51100
C  33.04700 3.56000 31.87500
C  30.38200 3.52500 29.22200
C  30.97600 3.95400 32.74800
O  29.77200 4.01800 32.98100
C  31.99900 3.99700 33.96300
C  31.96500 5.32700 34.56700
O  32.56600 6.32800 34.12600
O  31.17300 5.32200 35.63900
C  31.23400 6.54500 36.52100
H  38.88400 2.83200 34.14500
H  38.90800 2.03200 27.76400
H  32.63300 2.87300 27.66200
H  34.67300 4.62500 35.58900
H  36.75600 2.92900 35.98300
H  37.86200 5.28400 34.61800
H  38.22500 4.73600 36.15100
H  36.65000 5.72600 35.81100
H  34.90300 1.73200 36.08700
H  33.29200 2.33100 35.75000
H  34.24500 1.98600 38.24600
H  33.04000 3.05300 37.86900
H  40.99700 3.04600 33.59800
H  41.91300 3.30000 32.20900
H  41.87000 1.73000 32.91300
H  42.55800 1.02300 30.90100
H  43.15200 2.51900 30.13800
H  43.33600 1.05800 29.33000
H  36.82800 0.93600 26.46900
H  34.60400 2.79800 25.97900
H  37.78800 2.48800 24.88700
H  37.58200 3.78000 26.08600
H  36.29300 3.45900 24.99600
H  33.08200 0.87800 26.61800
H  34.33000 -0.23400 26.88600
H  34.68100 1.06500 24.27900
H  33.10100 0.25300 24.27000
H  34.47200 -0.67300 24.64500
H  29.74300 2.79400 29.71700
H  30.46300 3.24200 28.17300
H  29.70500 4.37900 29.24300
H  31.73500 3.25100 34.71200
H  31.17200 6.22900 37.56200
H  30.40500 7.18700 36.22200
H  32.19300 7.05300 36.41700

