158

Mg 17.18700 50.42900 26.24800
C  19.07500 49.05100 28.85500
C  14.90100 51.47500 28.46900
C  15.64000 51.65800 23.64000
C  19.65200 48.96600 23.94200
N  17.08700 50.31500 28.40000
C  17.94900 49.80300 29.28900
C  17.55300 50.11500 30.77300
C  15.96700 50.26600 30.60800
C  15.89200 50.70000 29.11700
C  15.11600 49.13000 31.13300
C  18.15800 51.44900 31.26400
C  18.43300 51.37800 32.72900
H  17.49400 50.76600 33.63900
N  15.56800 51.52200 26.05200
C  14.75400 51.90500 27.08100
C  13.67600 52.78900 26.54300
C  13.95700 52.97900 25.15500
C  15.12200 52.01100 24.89100
C  12.63600 53.47900 27.48100
C  13.24200 53.86300 24.10600
O  13.58800 53.91500 22.92900
C  12.20800 54.90400 24.52200
N  17.55200 50.24300 24.12800
C  16.68800 50.82900 23.26500
C  16.93700 50.41900 21.78600
C  18.39800 49.92400 21.89600
C  18.50900 49.67300 23.40700
C  15.87300 49.40500 21.37800
C  19.41200 50.90600 21.29800
C  20.45000 50.23300 20.36500
N  18.99300 49.18900 26.29300
C  19.85900 48.71700 25.34200
C  20.91400 47.96100 25.99200
C  20.63400 48.06400 27.35000
C  19.50700 48.84400 27.49400
C  22.03300 47.21700 25.26600
C  21.07600 47.68000 28.67100
O  22.05700 46.96300 28.99200
C  20.05700 48.40700 29.76200
C  19.44000 47.35100 30.57100
O  18.40800 46.77400 30.25600
O  19.86000 47.35000 31.87700
C  19.14200 46.53000 32.90600
H  14.11600 51.89700 29.10000
H  14.90700 51.91100 22.87100
H  20.43300 48.60700 23.26900
H  17.82400 49.25800 31.38900
H  15.60300 51.17200 31.09200
H  14.21900 49.51700 31.61500
H  15.69800 48.55500 31.85400
H  14.82700 48.39300 30.38400
H  17.44800 52.25300 31.06900
H  19.10800 51.67100 30.77900
H  18.82800 52.36100 32.98700
H  19.41500 50.92200 32.84900
H  12.41900 54.51000 27.20400
H  12.88900 53.54300 28.54000
H  11.64500 53.04100 27.36800
H  11.86300 55.36500 23.59700
H  12.64200 55.58100 25.25700
H  11.37400 54.30500 24.88800
H  16.75200 51.25400 21.10900
H  18.43800 48.95400 21.39900
H  15.03800 49.93500 20.92000
H  15.51600 48.87400 22.26100
H  16.26400 48.54900 20.82800
H  19.85800 51.47200 22.11600
H  18.85500 51.59100 20.65900
H  21.40800 50.72200 20.53900
H  20.19300 50.69500 19.41100
H  20.51000 49.15300 20.23500
H  22.34900 47.62800 24.30700
H  21.73800 46.25800 24.84200
H  22.91500 47.03000 25.87900
H  20.69900 49.11600 30.28400
H  19.72700 45.70000 33.30000
H  18.15500 46.18000 32.60400
H  19.13100 47.13600 33.81200
Mg -12.18400 38.72000 41.36700
C  -9.86600 36.08900 40.58200
C  -9.89700 40.94800 39.69200
C  -14.47700 41.17300 41.29800
C  -14.51500 36.47500 42.18800
N  -10.09900 38.45700 40.14600
C  -9.38500 37.31600 40.04300
C  -8.12300 37.51700 39.17500
C  -8.08600 39.08900 39.00800
C  -9.45600 39.58500 39.66300
C  -6.79600 39.80600 39.55100
C  -8.15400 36.80100 37.78400
C  -7.00600 35.89200 37.42300
H  -5.90600 36.51000 36.56400
N  -12.12900 40.84700 40.79800
C  -11.04900 41.51300 40.24700
C  -11.44100 42.89100 40.02000
C  -12.79700 43.01500 40.38600
C  -13.22900 41.66200 40.85000
C  -10.54300 43.92800 39.33100
C  -13.63800 44.29600 40.36500
O  -13.05400 45.28500 40.00700
C  -15.09900 44.41400 40.76000
N  -14.12700 38.80000 41.65300
C  -14.83700 39.91400 41.73300
C  -16.23100 39.67600 42.26000
C  -16.30100 38.15100 42.28100
C  -14.90300 37.77800 42.08000
C  -16.48600 40.51300 43.48800
C  -17.30100 37.46900 41.34300
C  -18.15100 36.29700 41.94700
N  -12.16000 36.74100 41.54100
C  -13.21800 35.92100 41.92700
C  -12.75700 34.61400 42.15100
C  -11.45400 34.66900 41.55800
C  -11.14100 35.99200 41.20700
C  -13.47700 33.48700 42.81100
C  -10.30700 33.82500 41.26800
O  -10.11700 32.61200 41.53200
C  -9.28900 34.72400 40.65600
C  -7.98600 34.47800 41.42300
O  -7.27000 33.52900 41.27200
O  -7.77100 35.45100 42.37100
C  -6.73100 35.09000 43.26100
H  -9.24700 41.58400 39.08700
H  -15.33300 41.85000 41.30700
H  -15.34000 35.79200 42.40100
H  -7.29600 37.16500 39.79200
H  -8.17500 39.38300 37.96300
H  -6.23600 39.12700 40.19300
H  -6.92700 40.72000 40.13100
H  -6.09800 40.11200 38.77100
H  -8.42000 37.44500 36.94500
H  -8.98900 36.11900 37.93800
H  -7.22800 34.97300 36.88100
H  -6.51400 35.65100 38.36500
H  -11.07900 44.65900 38.72500
H  -9.81100 43.39200 38.72700
H  -9.87100 44.29200 40.10900
H  -15.41300 45.45300 40.65400
H  -15.27900 44.26100 41.82400
H  -15.84900 43.80900 40.25000
H  -16.92700 39.93900 41.46400
H  -16.62200 37.90500 43.29300
H  -15.62400 41.16600 43.62800
H  -16.60100 39.95600 44.41700
H  -17.35600 41.13400 43.27300
H  -16.65900 37.13700 40.52800
H  -17.92000 38.23400 40.87500
H  -19.13200 36.27800 41.47200
H  -18.28000 36.45900 43.01700
H  -17.65700 35.34000 41.78300
H  -12.71700 32.84300 43.25400
H  -14.14000 33.07400 42.05100
H  -13.94700 33.98100 43.66100
H  -9.10500 34.46200 39.61400
H  -5.81200 34.91300 42.70100
H  -6.91400 34.17400 43.82200
H  -6.65400 35.90100 43.98500

