158

Mg 26.13300 1.15300 28.93000
C  27.99400 1.06100 31.86100
C  23.29800 1.21300 30.87100
C  24.52800 1.56700 26.16400
C  29.00600 0.63800 27.11700
N  25.72300 1.08700 31.12900
C  26.68400 1.23100 32.11200
C  26.00400 1.39000 33.50400
C  24.48700 1.17700 33.19100
C  24.46400 1.14100 31.62600
C  23.88100 -0.08000 33.89400
C  26.32800 2.73500 34.20900
C  27.01500 2.56600 35.63300
H  26.60300 3.51700 36.71000
N  24.16400 1.25100 28.57300
C  23.12200 1.22900 29.48900
C  21.89700 1.43400 28.75200
C  22.25700 1.73700 27.42700
C  23.73200 1.47100 27.32200
C  20.55400 1.48300 29.40700
C  21.42700 2.41500 26.29500
O  21.87100 2.71400 25.23400
C  20.05700 2.75700 26.72200
N  26.67400 0.94800 26.90000
C  25.82500 1.42000 25.98500
C  26.47100 1.52600 24.58100
C  27.98300 1.32900 24.90400
C  27.93600 0.87100 26.36700
C  25.86700 0.48800 23.56400
C  28.76600 2.68400 24.92500
C  30.17900 2.61400 24.29500
N  28.11000 0.75600 29.35700
C  29.12000 0.50800 28.52800
C  30.36100 0.18400 29.28900
C  29.97700 0.54100 30.56700
C  28.57500 0.77700 30.58600
C  31.68300 -0.18000 28.76800
C  30.49500 0.58100 31.90500
O  31.61700 0.34300 32.34300
C  29.26500 0.99700 32.78400
C  29.16900 0.06500 33.91100
O  28.62800 -1.00200 33.97100
O  29.76200 0.67700 34.98300
C  29.88100 -0.11600 36.22400
H  22.41200 1.17800 31.50800
H  24.06800 1.84200 25.21300
H  29.99200 0.59300 26.65000
H  26.44900 0.61900 34.13200
H  23.98900 2.08400 33.53500
H  24.71500 -0.72500 34.17200
H  23.37100 -0.55800 33.05800
H  23.17900 0.13000 34.70100
H  25.46100 3.37000 34.39100
H  26.96700 3.30800 33.53700
H  28.05600 2.82600 35.44600
H  26.87200 1.54900 36.00100
H  19.87500 2.32500 29.27600
H  20.49900 1.27800 30.47700
H  20.03200 0.62900 28.97400
H  19.46900 3.18500 25.91000
H  20.14200 3.58500 27.42600
H  19.51000 1.88000 27.06900
H  26.16000 2.53000 24.29000
H  28.51600 0.61100 24.28100
H  25.21400 -0.24100 24.04200
H  26.71400 0.01600 23.06500
H  25.37800 1.01000 22.74100
H  28.82000 3.08700 25.93700
H  28.17600 3.42000 24.38100
H  30.71200 3.30000 24.95400
H  30.25500 3.01500 23.28500
H  30.51200 1.58300 24.41500
H  32.48900 0.47900 29.09200
H  31.78100 -0.18900 27.68300
H  31.90700 -1.17500 29.15300
H  29.41700 1.94200 33.30500
H  30.41300 -1.05600 36.07900
H  28.85600 -0.36200 36.49900
H  30.45100 0.30300 37.05300
Mg 9.29200 48.78900 26.00100
C  7.31000 49.00500 28.97400
C  12.07300 49.54600 27.99200
C  11.23300 48.55200 23.36700
C  6.45100 48.17200 24.22800
N  9.57600 49.29900 28.18800
C  8.66000 49.21200 29.21800
C  9.30800 49.55700 30.50700
C  10.65100 50.20900 30.01600
C  10.83500 49.64300 28.61600
C  10.74300 51.79800 29.96900
C  9.53800 48.38000 31.40400
C  8.98200 48.60000 32.84200
H  8.89900 47.44500 33.83500
N  11.41000 49.00400 25.74800
C  12.41200 49.34700 26.65200
C  13.71500 49.21100 26.08100
C  13.45900 48.77200 24.71100
C  11.98700 48.73800 24.54400
C  15.05500 49.48000 26.82600
C  14.50400 48.36900 23.56200
O  14.07100 47.93900 22.46900
C  15.97900 48.44500 23.84600
N  8.91700 48.47100 24.08300
C  9.85900 48.39100 23.10400
C  9.27500 48.03600 21.73600
C  7.76700 47.76500 22.03400
C  7.68700 48.20100 23.54000
C  9.47500 48.97300 20.60700
C  7.25400 46.29700 21.79500
C  8.11600 45.19100 22.41200
N  7.31600 48.53800 26.47200
C  6.25300 48.28700 25.59900
C  5.04200 48.21300 26.38100
C  5.40800 48.53400 27.65800
C  6.80600 48.71400 27.68600
C  3.56300 47.97000 25.85600
C  4.86500 48.72200 28.98000
O  3.72500 48.69100 29.34200
C  6.09200 49.12800 29.89900
C  5.91600 48.14100 31.01300
O  6.36500 47.03700 31.04000
O  5.03800 48.66900 31.98700
C  4.56400 47.67800 32.96900
H  12.86300 49.86200 28.67700
H  11.85700 48.47300 22.47400
H  5.58500 47.91000 23.61700
H  8.69100 50.30400 31.00500
H  11.53400 49.99700 30.61900
H  9.75500 52.25800 29.97700
H  11.17200 52.06800 29.00400
H  11.22800 52.20500 30.85600
H  10.60200 48.14300 31.42000
H  9.16200 47.45200 30.97200
H  8.00200 49.07600 32.80700
H  9.54700 49.39300 33.33200
H  15.57500 48.52500 26.91000
H  14.92700 49.76700 27.87000
H  15.61400 50.24400 26.28600
H  16.26100 47.84200 24.70900
H  16.11900 49.50500 24.05600
H  16.48100 48.12700 22.93200
H  9.73600 47.07400 21.50900
H  7.19100 48.43900 21.40000
H  9.13600 49.98300 20.83800
H  9.09500 48.49200 19.70600
H  10.55100 48.91100 20.44600
H  7.23700 46.24300 20.70700
H  6.20100 46.21100 22.06300
H  7.56800 44.36500 22.86500
H  8.78900 45.60200 23.16500
H  8.76200 44.79400 21.62900
H  3.40300 48.25800 24.81700
H  2.84100 48.49400 26.48100
H  3.32000 46.91900 26.01200
H  5.91900 50.14500 30.25100
H  5.41200 47.11200 33.35300
H  3.92100 46.96100 32.45800
H  3.96000 48.13400 33.75400

