158

Mg 16.47000 -2.02300 27.93100
C  15.43600 0.17300 30.56900
C  18.59300 -3.55500 30.14900
C  17.92700 -3.43500 25.23800
C  14.90600 0.37100 25.79600
N  16.97100 -1.62600 30.05800
C  16.35800 -0.78100 30.95100
C  16.91800 -0.93300 32.38700
C  18.10200 -1.98100 32.15000
C  17.87800 -2.49000 30.70800
C  19.61600 -1.64300 32.41900
C  15.80700 -1.36800 33.33600
C  15.89800 -0.84600 34.77000
H  17.12800 -0.04500 35.15100
N  17.95400 -3.41700 27.71500
C  18.58500 -4.03500 28.74900
C  19.22700 -5.25000 28.17200
C  19.21800 -5.15200 26.76500
C  18.37200 -3.96400 26.45700
C  19.89100 -6.34700 29.01400
C  19.76600 -6.09500 25.66100
O  19.56300 -5.85200 24.52000
C  20.55800 -7.30700 26.04100
N  16.31900 -1.66400 25.87500
C  17.03800 -2.32400 24.90000
C  16.79800 -1.78300 23.47100
C  15.64900 -0.73800 23.65800
C  15.67800 -0.63900 25.25900
C  18.07800 -1.23500 22.68300
C  14.25700 -1.14300 23.02900
C  14.13500 -0.88500 21.50900
N  15.18900 -0.23400 28.06800
C  14.59400 0.58900 27.11300
C  13.74700 1.58100 27.75900
C  14.08100 1.38900 29.09300
C  14.97700 0.34100 29.22500
C  12.97900 2.63500 27.12000
C  13.90200 2.03600 30.32700
O  13.28300 3.04200 30.58900
C  14.67700 1.08400 31.41900
C  15.34900 2.00800 32.32100
O  16.36600 2.64000 32.15100
O  14.46200 2.29200 33.38500
C  14.69200 3.50200 34.09300
H  19.17600 -4.14300 30.86100
H  18.20500 -3.97300 24.32900
H  14.48000 1.10200 25.10500
H  17.28800 0.08800 32.48200
H  17.88300 -2.84600 32.77700
H  20.23800 -1.86300 31.55100
H  19.95000 -2.26300 33.25000
H  19.51100 -0.62600 32.79600
H  15.76000 -2.45400 33.42400
H  14.86300 -1.07100 32.87800
H  15.80500 -1.73300 35.39600
H  14.94300 -0.38900 35.02800
H  19.45900 -7.29600 28.69600
H  19.62300 -6.14100 30.05000
H  20.97900 -6.36900 28.94700
H  21.47700 -7.01100 26.54600
H  20.82600 -7.87000 25.14700
H  20.11700 -7.98000 26.77600
H  16.48600 -2.59300 22.81200
H  15.97000 0.23000 23.27500
H  19.03100 -1.39000 23.18900
H  17.97500 -0.16100 22.53000
H  18.12400 -1.57100 21.64700
H  13.42200 -0.70000 23.57100
H  14.11600 -2.21900 23.13200
H  13.30500 -0.21800 21.28000
H  13.84200 -1.87100 21.14700
H  15.03000 -0.49800 21.02200
H  13.45600 3.03800 26.22600
H  13.08800 3.45800 27.82500
H  11.91600 2.43600 26.98700
H  13.92600 0.62100 32.05900
H  15.50200 3.40500 34.81600
H  13.87600 3.83900 34.73100
H  14.91100 4.34000 33.43100
Mg -10.51800 37.97700 40.98200
C  -9.30100 34.94200 40.28600
C  -7.57400 39.43700 39.72000
C  -12.09000 40.97800 40.84000
C  -13.44300 36.56300 41.96100
N  -8.77400 37.32300 39.96000
C  -8.45100 35.97100 39.87600
C  -7.05100 35.80700 39.17000
C  -6.45900 37.20600 39.30500
C  -7.68100 38.05100 39.62300
C  -5.31200 37.41600 40.41700
C  -7.16200 35.39500 37.65900
C  -6.08700 34.48900 37.17300
H  -5.83300 34.42400 35.65800
N  -9.92900 39.90500 40.32600
C  -8.68700 40.35700 39.90700
C  -8.73500 41.77700 39.85800
C  -10.08900 42.21200 40.04800
C  -10.75300 41.00500 40.48200
C  -7.48200 42.58600 39.56500
C  -10.57200 43.71400 39.79600
O  -9.76400 44.52500 39.35700
C  -12.01200 43.99200 39.66700
N  -12.48800 38.63800 41.11900
C  -12.86700 39.92700 41.10400
C  -14.24700 40.13600 41.75100
C  -14.76500 38.69900 41.77400
C  -13.47000 37.94000 41.69100
C  -14.12900 40.93000 43.12000
C  -15.74200 38.34500 40.65600
C  -17.17100 38.55400 40.87100
N  -11.19600 36.11200 41.37900
C  -12.37600 35.67700 41.84500
C  -12.33100 34.22100 41.99900
C  -11.16300 33.87400 41.29100
C  -10.49300 35.09200 40.97300
C  -13.40700 33.35200 42.61000
C  -10.33800 32.76200 40.79400
O  -10.48900 31.53200 40.89200
C  -9.11200 33.41500 40.04900
C  -7.83500 32.83200 40.60400
O  -7.22900 32.02200 39.97800
O  -7.49900 33.32600 41.84600
C  -6.23600 32.86100 42.46900
H  -6.58300 39.83100 39.48300
H  -12.52700 41.95600 41.05000
H  -14.42400 36.09500 42.06600
H  -6.38900 35.09400 39.66100
H  -6.02800 37.35800 38.31600
H  -5.08000 36.41800 40.78700
H  -5.63700 38.05600 41.23700
H  -4.45900 37.83400 39.88200
H  -7.23000 36.33700 37.11400
H  -8.05900 34.87900 37.31700
H  -6.41500 33.54000 37.59800
H  -5.10700 34.67800 37.61200
H  -7.54200 43.13200 38.62400
H  -6.53100 42.05500 39.61300
H  -7.43400 43.49100 40.17000
H  -12.45600 43.08100 39.26600
H  -12.21200 44.81200 38.97600
H  -12.26800 44.18800 40.70800
H  -14.70200 40.79700 41.01300
H  -15.20300 38.45700 42.74200
H  -13.17900 41.45900 43.04600
H  -13.99900 40.25000 43.96100
H  -14.93700 41.59900 43.41800
H  -15.49300 37.39500 40.18300
H  -15.59000 39.04500 39.83400
H  -17.61100 37.60800 41.18800
H  -17.76200 38.75700 39.97800
H  -17.30500 39.45700 41.46600
H  -13.58800 33.79900 43.58800
H  -12.99800 32.34400 42.66900
H  -14.35500 33.40700 42.07500
H  -9.27000 33.11900 39.01200
H  -5.61300 32.37800 41.71600
H  -6.33900 32.15700 43.29500
H  -5.56300 33.68000 42.72000

