158

Mg 1.87500 -1.17300 43.48700
C  5.32200 -0.51800 42.74600
C  1.09000 1.84000 41.79700
C  -1.36400 -1.88100 43.60800
C  2.74000 -4.22600 44.59200
N  3.09800 0.40600 42.37600
C  4.47200 0.54500 42.32700
C  4.84900 1.74500 41.44900
C  3.60000 2.64500 41.62200
C  2.44100 1.57400 41.88600
C  3.68400 3.64800 42.73000
C  5.22000 1.27700 39.94200
C  6.72100 1.60200 39.64900
H  7.41300 0.82900 38.53100
N  0.07800 -0.17100 42.86400
C  -0.03400 1.09300 42.21000
C  -1.40200 1.35900 41.93600
C  -2.15700 0.23400 42.28900
C  -1.17500 -0.69000 42.95300
C  -1.84700 2.62500 41.27900
C  -3.68300 0.14000 42.23700
O  -4.29200 0.90000 41.51200
C  -4.44700 -0.93400 42.92300
N  0.88000 -2.87600 43.70000
C  -0.47000 -2.89500 43.91000
C  -0.93200 -4.27100 44.37000
C  0.44300 -5.16300 44.37300
C  1.42900 -4.03600 44.21100
C  -1.77200 -4.28600 45.67000
C  0.68000 -6.25800 43.32500
C  0.67300 -7.66300 43.85200
N  3.64500 -2.18900 43.79200
C  3.83600 -3.45400 44.29700
C  5.22400 -3.67100 44.46200
C  5.77600 -2.53700 43.88900
C  4.83100 -1.68900 43.43300
C  5.91800 -4.83400 45.11300
C  7.12500 -1.90300 43.70100
O  8.23900 -2.28400 43.97200
C  6.85100 -0.63900 42.81600
C  7.61400 0.54500 43.30600
O  8.48900 1.11200 42.67300
O  7.19000 0.82400 44.60700
C  7.92500 2.01200 45.03700
H  0.82000 2.75200 41.26000
H  -2.41000 -2.18000 43.70100
H  3.04600 -5.22300 44.91600
H  5.72000 2.09600 42.00200
H  3.53700 3.23500 40.70700
H  3.56200 4.68400 42.41600
H  4.63500 3.64300 43.26200
H  2.91100 3.54300 43.49100
H  4.76500 1.86900 39.14800
H  5.01900 0.21500 39.80700
H  7.30300 1.52000 40.56700
H  6.63200 2.61000 39.24600
H  -2.28400 2.38200 40.31000
H  -1.10300 3.37200 41.00100
H  -2.68300 3.00900 41.86300
H  -5.53300 -0.85100 42.96500
H  -4.09200 -1.05200 43.94700
H  -4.27500 -1.75900 42.23200
H  -1.63100 -4.49400 43.56400
H  0.49500 -5.69000 45.32600
H  -2.45100 -3.43300 45.66600
H  -1.04200 -4.23900 46.47900
H  -2.34400 -5.20100 45.82100
H  1.69700 -6.10100 42.96800
H  -0.13500 -6.25300 42.60200
H  0.36300 -7.60900 44.89600
H  1.67800 -8.05000 43.68300
H  -0.08300 -8.30700 43.40300
H  5.32300 -5.45000 45.78700
H  6.84100 -4.61100 45.64700
H  6.26200 -5.50900 44.32900
H  7.25300 -0.91000 41.84000
H  8.92700 1.83700 45.42900
H  7.43900 2.33100 45.95900
H  7.96200 2.85800 44.35100
Mg 26.01200 0.89000 29.26800
C  27.69300 0.56300 32.19200
C  23.05500 1.42700 30.88600
C  24.57400 0.92000 26.16800
C  29.14900 0.18400 27.61100
N  25.32700 0.66600 31.36100
C  26.28700 0.79700 32.32900
C  25.53700 1.21400 33.69100
C  24.14500 1.37000 33.23700
C  24.13500 1.18900 31.74300
C  23.17100 0.41100 34.01200
C  26.14700 2.46600 34.30600
C  26.85900 2.24900 35.65600
H  26.44200 3.11100 36.89300
N  24.14000 1.09100 28.61300
C  23.03800 1.33400 29.44500
C  21.86100 1.36900 28.59400
C  22.25100 1.23100 27.29000
C  23.69600 1.08100 27.31500
C  20.48400 1.50600 29.24600
C  21.47700 1.45200 25.97300
O  21.91000 1.23000 24.85500
C  20.01200 1.85300 26.09300
N  26.74700 0.67000 27.19000
C  25.96100 0.85400 26.11000
C  26.73900 0.58500 24.81400
C  28.23600 0.59300 25.25100
C  28.08400 0.55200 26.79100
C  26.34000 -0.66300 23.94600
C  29.16200 1.80000 24.83200
C  29.74000 1.64100 23.47500
N  27.99500 0.20800 29.73600
C  29.19000 0.06000 28.95200
C  30.26800 -0.18700 29.83200
C  29.69800 0.04600 31.11300
C  28.33100 0.26600 31.03100
C  31.62700 -0.66100 29.56700
C  30.02500 0.12700 32.56100
O  31.04700 0.06400 33.21800
C  28.73400 0.44000 33.27100
C  28.50100 -0.67300 34.27000
O  27.86800 -1.72300 34.05600
O  28.88300 -0.26000 35.53600
C  28.45100 -1.13900 36.65100
H  22.19200 1.88100 31.37800
H  24.17900 0.91400 25.15000
H  30.10700 0.02600 27.11200
H  25.67700 0.35200 34.34300
H  23.81700 2.37300 33.51200
H  23.66700 -0.49400 34.36200
H  22.35200 0.20900 33.32200
H  22.85400 0.89100 34.93700
H  25.37200 3.18100 34.58300
H  26.93200 2.82800 33.64300
H  27.89200 2.56200 35.50400
H  26.90800 1.18300 35.87800
H  19.79600 0.76900 28.83400
H  20.05700 2.50100 29.11700
H  20.32200 1.18500 30.27500
H  19.41700 1.11700 26.63300
H  19.49000 2.05200 25.15700
H  19.86600 2.76400 26.67400
H  26.61200 1.36300 24.06000
H  28.71000 -0.34700 24.96900
H  25.62000 -1.31000 24.44700
H  27.22700 -1.18600 23.59000
H  25.79900 -0.26600 23.08700
H  30.02800 2.03600 25.45000
H  28.52900 2.68400 24.75600
H  29.55500 0.66600 23.02500
H  30.80700 1.86400 23.49300
H  29.32300 2.35200 22.76200
H  32.24700 0.06400 29.04000
H  31.65800 -1.57100 28.97000
H  32.09000 -0.94800 30.51100
H  28.99300 1.39200 33.73600
H  28.71400 -2.17900 36.45400
H  27.37400 -1.06100 36.79800
H  28.99200 -0.81000 37.53800

