158

Mg -10.97300 38.54100 40.87200
C  -9.80600 35.20100 40.09400
C  -7.94700 39.71000 39.60000
C  -12.28500 41.62400 40.72100
C  -14.07700 37.20200 41.69800
N  -9.11900 37.47700 39.76800
C  -8.82100 36.16800 39.70400
C  -7.48600 35.95600 39.11900
C  -6.76900 37.36700 39.47300
C  -7.99400 38.24500 39.65200
C  -5.75700 37.40000 40.63700
C  -7.36800 35.47100 37.64200
C  -7.94700 36.50100 36.58400
H  -9.21300 36.21100 35.80300
N  -10.28100 40.34000 40.17900
C  -9.00100 40.69000 39.67300
C  -8.93200 42.12700 39.34000
C  -10.18200 42.65900 39.67600
C  -11.02100 41.53600 40.23200
C  -7.77600 42.78500 38.61200
C  -10.61600 44.10200 39.34600
O  -9.83400 44.86100 38.82200
C  -12.09200 44.58800 39.49100
N  -12.97000 39.32000 40.99500
C  -13.19800 40.59500 41.10100
C  -14.64200 40.95700 41.54600
C  -15.16600 39.46400 41.76900
C  -13.96300 38.59200 41.53900
C  -14.82600 41.87200 42.75300
C  -16.47200 39.10500 40.98900
C  -17.64500 38.61200 41.82800
N  -11.76800 36.67500 40.91000
C  -13.03000 36.27000 41.35200
C  -13.06500 34.84500 41.33900
C  -11.84200 34.36300 40.89200
C  -11.08900 35.53100 40.61700
C  -14.28300 34.06600 41.69100
C  -11.05300 33.18600 40.67500
O  -11.36300 32.01800 40.74900
C  -9.70800 33.66900 40.08800
C  -8.54900 33.00400 40.80600
O  -8.45800 32.76200 42.01700
O  -7.52200 32.74100 39.90500
C  -6.35700 32.29100 40.49600
H  -6.90600 40.03500 39.54300
H  -12.71500 42.61900 40.85100
H  -15.10500 37.00100 42.00900
H  -7.07100 35.11000 39.66700
H  -6.21900 37.77700 38.62600
H  -4.79400 37.76800 40.28400
H  -5.73700 36.41100 41.09600
H  -6.07200 38.08000 41.42800
H  -8.10100 34.66900 37.55600
H  -6.37200 35.23000 37.27300
H  -7.15200 36.67400 35.85900
H  -8.01800 37.52300 36.95600
H  -8.03800 43.41400 37.76200
H  -7.00600 42.06700 38.32900
H  -7.26900 43.49800 39.26200
H  -12.34900 44.83500 40.52100
H  -12.80500 43.83300 39.16100
H  -12.11000 45.56200 39.00200
H  -15.19900 41.31300 40.67900
H  -15.29600 39.39500 42.84900
H  -14.00900 42.58300 42.87700
H  -14.94300 41.33400 43.69400
H  -15.80900 42.33200 42.65700
H  -16.33900 38.27900 40.29000
H  -16.78600 39.93300 40.35300
H  -18.52700 39.25300 41.80900
H  -17.34400 38.53000 42.87200
H  -17.93700 37.61800 41.49000
H  -13.99300 33.11900 42.14600
H  -14.88000 33.74300 40.83800
H  -14.94700 34.48600 42.44600
H  -9.84700 33.24800 39.09300
H  -6.27900 31.24500 40.79500
H  -6.11700 32.80100 41.42900
H  -5.53500 32.43100 39.79400
Mg -5.56500 26.06800 26.57800
C  -4.41600 27.66900 29.48300
C  -7.40900 24.09100 28.46300
C  -6.52500 24.51100 23.67700
C  -3.27600 27.87100 24.69200
N  -5.71000 25.89100 28.63900
C  -5.11700 26.58400 29.71400
C  -5.74700 26.25000 31.03200
C  -6.34100 24.81200 30.66800
C  -6.53300 24.89600 29.20800
C  -5.58600 23.55700 31.16000
C  -6.83200 27.20600 31.67500
C  -6.88500 27.27200 33.24500
H  -6.08300 26.20400 34.01900
N  -6.78800 24.51400 26.13600
C  -7.59100 23.91400 27.10000
C  -8.36000 22.86600 26.47700
C  -8.11200 22.91000 25.08500
C  -7.10600 24.00700 24.88000
C  -9.22200 21.94800 27.24600
C  -8.64900 21.97100 23.89200
O  -8.36900 22.15500 22.72000
C  -9.60200 20.85500 24.22100
N  -5.06900 26.28100 24.47000
C  -5.56300 25.47600 23.49000
C  -4.99600 25.77300 22.15200
C  -3.89800 26.81000 22.42200
C  -4.12000 27.04200 23.94300
C  -4.25800 24.52300 21.53200
C  -4.26800 28.08600 21.68000
C  -3.84500 28.25500 20.19900
N  -4.16900 27.52500 26.91400
C  -3.36200 28.18600 26.06600
C  -2.59000 29.16100 26.84100
C  -3.01900 29.00900 28.20600
C  -4.03200 28.02500 28.20300
C  -1.49400 29.97600 26.22400
C  -2.78400 29.56800 29.48100
O  -2.08400 30.46400 29.93300
C  -3.82300 28.77600 30.36400
C  -3.01400 28.30300 31.52800
O  -2.04300 27.56100 31.44000
O  -3.29900 29.04000 32.63600
C  -2.30200 28.83000 33.76600
H  -7.80600 23.39100 29.20000
H  -6.81000 23.98400 22.76400
H  -2.40700 28.29200 24.18200
H  -4.87900 26.18300 31.68800
H  -7.37300 24.76400 31.01500
H  -6.11300 23.13900 32.01800
H  -4.61400 23.89700 31.52000
H  -5.49300 22.87800 30.31300
H  -7.82900 27.07700 31.25500
H  -6.47100 28.17700 31.33500
H  -7.92100 27.37400 33.56800
H  -6.29200 28.17400 33.40100
H  -10.26700 21.92300 26.93700
H  -9.18900 22.25700 28.29100
H  -8.86400 20.92900 27.10700
H  -9.27300 20.23400 25.05400
H  -9.72900 20.20500 23.35500
H  -10.54400 21.15300 24.68100
H  -5.81700 26.16800 21.55400
H  -2.88400 26.44500 22.25800
H  -4.37500 23.64300 22.16500
H  -3.18500 24.55000 21.34500
H  -4.87100 24.32400 20.65300
H  -3.86300 28.91300 22.26400
H  -5.34000 28.26900 21.76300
H  -3.55300 27.29400 19.77500
H  -2.97800 28.91300 20.14300
H  -4.64700 28.81300 19.71600
H  -1.90100 30.66100 25.48000
H  -0.80500 29.31200 25.70300
H  -0.99000 30.56600 26.98900
H  -4.54200 29.50600 30.73700
H  -1.29400 28.97400 33.37600
H  -2.43600 27.86900 34.26300
H  -2.49300 29.58100 34.53200

