158

Mg 25.15100 1.88800 29.82100
C  27.32500 1.64300 32.54800
C  22.48600 1.70500 32.03500
C  23.04500 1.80700 27.19900
C  27.85300 1.17900 27.73000
N  24.94000 1.77900 31.96700
C  26.00300 1.84800 32.84300
C  25.50000 2.15100 34.24300
C  23.97700 1.86000 34.19400
C  23.79100 1.86800 32.62700
C  23.56200 0.47300 34.82400
C  25.91700 3.53400 34.72800
C  26.51800 3.77500 36.11400
H  26.13000 2.81900 37.28100
N  23.05800 1.76500 29.64800
C  22.17400 1.66400 30.65200
C  20.86400 1.59300 30.18800
C  20.98600 1.55200 28.76600
C  22.39700 1.72600 28.46400
C  19.68500 1.40400 31.04700
C  19.84300 1.60400 27.75900
O  20.15100 1.78500 26.56900
C  18.46000 1.32400 28.22500
N  25.43400 1.70300 27.77700
C  24.42300 1.86600 26.89200
C  24.99300 2.10700 25.44700
C  26.47400 1.67800 25.57400
C  26.65100 1.51900 27.14700
C  24.14900 1.45200 24.32800
C  27.33300 2.90100 25.09800
C  27.53300 2.93600 23.55900
N  27.13200 1.48000 30.00500
C  28.08900 1.13600 29.04700
C  29.31000 0.90600 29.73500
C  29.11200 1.20600 31.07800
C  27.73500 1.42100 31.23000
C  30.61600 0.68500 29.02500
C  29.77300 1.23000 32.40000
O  30.97900 1.18300 32.71300
C  28.55100 1.55300 33.45800
C  28.43900 0.49700 34.50500
O  27.62800 -0.39300 34.47800
O  29.31900 0.61900 35.49600
C  28.99800 -0.38200 36.57400
H  21.76600 1.84500 32.84300
H  22.39100 1.85100 26.32500
H  28.67200 1.04300 27.02100
H  25.93700 1.44500 34.94900
H  23.15600 2.53800 34.42800
H  23.04500 -0.13700 34.08400
H  22.82300 0.71700 35.58700
H  24.42200 -0.14700 35.07600
H  25.09000 4.24300 34.77000
H  26.64600 3.97800 34.05000
H  26.05600 4.70800 36.43700
H  27.60700 3.79400 36.06500
H  19.08500 2.21400 30.63100
H  19.86600 1.59200 32.10500
H  19.19200 0.43300 31.01900
H  18.46400 0.55700 28.99900
H  17.72100 1.13700 27.44600
H  18.18700 2.23100 28.76500
H  24.71100 3.15300 25.33300
H  26.70900 0.74500 25.06300
H  24.86000 1.24400 23.52800
H  23.31400 2.10700 24.08100
H  23.67900 0.60200 24.82300
H  28.28800 2.77800 25.60900
H  26.82700 3.83900 25.32900
H  28.61100 2.90600 23.39700
H  27.18000 3.87400 23.13100
H  26.98700 2.14300 23.04900
H  30.50000 0.02600 28.16500
H  31.19200 0.24200 29.83800
H  30.98700 1.63400 28.63700
H  28.90200 2.50100 33.86800
H  29.63900 -0.29700 37.45100
H  28.99200 -1.38700 36.15300
H  28.06200 -0.28100 37.12400
Mg 53.73800 24.76900 44.18400
C  50.80400 26.76100 43.71400
C  51.61900 21.92300 43.89600
C  56.40900 22.99200 43.66500
C  55.55600 27.70900 44.40100
N  51.52300 24.41400 43.80100
C  50.52800 25.39400 43.56900
C  49.17700 24.69300 43.40100
C  49.50400 23.24000 43.87500
C  51.01000 23.17500 43.80200
C  49.10500 22.83300 45.32100
C  48.42800 24.77100 42.04300
C  49.24000 25.22300 40.87800
H  49.28700 24.55400 39.55500
N  54.06400 22.71800 43.77700
C  53.07600 21.70800 43.73000
C  53.64700 20.45100 43.62300
C  55.01300 20.65700 43.67300
C  55.24000 22.16600 43.66200
C  52.83500 19.17500 43.55700
C  56.12400 19.65500 43.75500
O  55.82800 18.43700 43.72700
C  57.57500 20.13000 44.09800
N  55.60700 25.24600 43.98500
C  56.59400 24.32100 43.81100
C  57.98700 25.00800 43.50100
C  57.72500 26.50100 43.85500
C  56.22200 26.49800 44.20000
C  59.20000 24.31200 44.16800
C  58.12400 27.45500 42.69300
C  59.06000 28.63500 43.01900
N  53.31900 26.75600 44.19800
C  54.19000 27.88600 44.44600
C  53.40400 29.04200 44.67700
C  52.08000 28.64700 44.33000
C  52.05500 27.28800 44.01000
C  53.76100 30.42100 44.89700
C  50.72300 29.13700 44.17100
O  50.24800 30.24700 44.38900
C  49.89200 27.93900 43.76100
C  49.33900 28.37000 42.45300
O  49.97400 28.47100 41.43000
O  48.01900 28.81800 42.63400
C  47.31800 29.19400 41.34500
H  50.90800 21.10400 44.01800
H  57.31100 22.47300 43.33500
H  56.25900 28.54400 44.44500
H  48.47400 25.11500 44.12000
H  49.11100 22.52800 43.15000
H  49.88500 22.18400 45.71900
H  48.21800 22.23400 45.11600
H  48.78400 23.70700 45.88800
H  47.67200 25.55200 42.12300
H  48.00000 23.78300 41.87100
H  50.28700 25.27900 41.17400
H  48.87300 26.20700 40.58900
H  51.91700 19.29900 42.98400
H  52.71500 18.62400 44.49000
H  53.45800 18.46600 43.01000
H  58.07100 19.18500 44.32200
H  57.65200 20.74400 44.99500
H  58.07400 20.54700 43.22300
H  58.04500 24.81800 42.43000
H  58.24100 26.67000 44.80000
H  58.99800 23.49400 44.85900
H  59.67000 25.10000 44.75700
H  59.85000 23.99300 43.35300
H  57.17100 27.92600 42.45200
H  58.50900 26.96300 41.80000
H  59.43600 28.40800 44.01600
H  58.59100 29.61700 43.08900
H  59.87100 28.66200 42.29100
H  54.76400 30.65600 44.54300
H  53.72100 30.64700 45.96300
H  53.12200 31.17200 44.43200
H  49.15900 27.75900 44.54800
H  47.26400 28.42200 40.57700
H  47.77600 30.06600 40.87800
H  46.28900 29.45600 41.59400

