158

Mg 2.31100 -1.12800 44.39600
C  5.65800 -0.16600 44.16900
C  1.41800 1.99400 43.28900
C  -0.83600 -2.13200 43.98500
C  3.36500 -4.42200 44.92600
N  3.50200 0.69600 43.85000
C  4.84100 0.87800 43.82800
C  5.20100 2.30000 43.37200
C  3.80800 3.05600 43.62900
C  2.78500 1.89300 43.63500
C  3.78700 3.93000 44.95200
C  5.78500 2.43200 41.88700
C  4.80400 2.17700 40.71900
H  4.85000 3.07400 39.46000
N  0.57700 -0.23000 43.57900
C  0.38900 1.07300 43.14000
C  -0.92900 1.30200 42.60500
C  -1.52500 -0.03100 42.70400
C  -0.61700 -0.89000 43.47900
C  -1.42900 2.60800 42.10200
C  -2.86500 -0.39800 42.13800
O  -3.46600 0.48100 41.58500
C  -3.38600 -1.73500 42.14800
N  1.47300 -2.98700 44.36200
C  0.11300 -3.08800 44.43100
C  -0.37700 -4.47100 44.76700
C  1.00700 -5.31900 44.97900
C  2.02200 -4.17300 44.72100
C  -1.44400 -4.50800 45.88700
C  1.19600 -6.53800 44.01300
C  1.23100 -7.88400 44.67100
N  4.10200 -2.09500 44.75600
C  4.40500 -3.46700 44.91400
C  5.77400 -3.65600 44.95400
C  6.34700 -2.41600 44.70200
C  5.31000 -1.50800 44.52000
C  6.47100 -4.96700 45.25400
C  7.62200 -1.67500 44.56200
O  8.78700 -2.03800 44.58600
C  7.14500 -0.29000 44.04600
C  7.92500 0.73400 44.68900
O  8.75100 1.33800 44.12700
O  7.63300 0.84900 46.02600
C  8.16000 2.11500 46.58700
H  1.19700 3.01200 42.96000
H  -1.88400 -2.43400 44.03100
H  3.66300 -5.45400 45.12300
H  5.92800 2.58400 44.13300
H  3.47200 3.53100 42.70800
H  3.31000 3.35700 45.74700
H  3.24600 4.83900 44.69000
H  4.77000 4.30400 45.23800
H  6.74400 1.95200 41.69000
H  6.11900 3.46500 41.79600
H  3.76500 1.99800 40.99500
H  5.05800 1.17900 40.36100
H  -2.49000 2.84800 42.16500
H  -1.08500 2.83900 41.09400
H  -0.87200 3.30500 42.72700
H  -4.15400 -1.66400 41.37700
H  -3.87000 -1.95600 43.10000
H  -2.54700 -2.38400 41.89900
H  -0.86700 -5.05900 43.99200
H  1.14400 -5.62200 46.01700
H  -1.46000 -3.53300 46.37500
H  -1.21700 -5.25000 46.65200
H  -2.47100 -4.71400 45.58500
H  2.11000 -6.37000 43.44200
H  0.42500 -6.58100 43.24500
H  0.68000 -8.64900 44.12400
H  0.64700 -7.91000 45.59200
H  2.20700 -8.29200 44.93500
H  6.47100 -5.11500 46.33400
H  7.50600 -4.97400 44.91200
H  5.99000 -5.81500 44.76700
H  7.39600 -0.15100 42.99500
H  8.01000 2.02100 47.66200
H  7.74700 3.06300 46.24300
H  9.24200 2.10900 46.45900
Mg 25.06400 -8.05600 47.35300
C  27.43000 -5.80600 46.06100
C  22.90600 -7.11200 44.90000
C  23.36900 -10.83600 48.01100
C  27.92400 -9.56700 49.18500
N  25.29700 -6.80300 45.34200
C  26.23600 -5.75900 45.26100
C  25.84200 -4.75400 44.16200
C  24.34300 -5.13600 43.97600
C  24.15900 -6.43700 44.75900
C  23.32400 -4.01100 44.36300
C  26.63900 -4.87900 42.82700
C  27.73200 -3.78300 42.64900
H  27.83400 -3.21200 41.23400
N  23.25100 -8.77200 46.79600
C  22.52100 -8.19500 45.79400
C  21.27900 -8.85500 45.77600
C  21.37000 -9.90700 46.76000
C  22.73600 -9.86700 47.27200
C  20.09500 -8.37400 44.88400
C  20.37400 -10.89100 47.16300
O  19.33100 -10.93300 46.53300
C  20.37500 -11.75200 48.46300
N  25.59000 -9.93000 48.47500
C  24.64200 -10.88500 48.58400
C  25.20500 -12.22000 49.24500
C  26.48900 -11.63700 49.86400
C  26.69000 -10.26100 49.19000
C  24.30600 -12.92900 50.25600
C  27.70100 -12.54900 49.82600
C  28.53900 -12.68700 51.19000
N  27.16600 -7.80600 47.69600
C  28.18100 -8.37400 48.50600
C  29.44300 -7.58900 48.38500
C  29.12400 -6.61100 47.44800
C  27.77700 -6.77000 47.07500
C  30.71400 -7.80600 49.29100
C  29.77600 -5.48000 46.85400
O  30.85600 -4.99400 47.10300
C  28.65000 -4.81000 46.02200
C  28.30800 -3.43200 46.61800
O  27.54300 -3.27900 47.58500
O  28.95800 -2.43000 45.90800
C  28.44700 -1.04100 46.04700
H  22.25800 -6.71900 44.11300
H  22.80400 -11.75400 48.18400
H  28.78000 -10.02700 49.68300
H  25.98900 -3.77800 44.62500
H  24.19200 -5.36900 42.92200
H  22.41600 -4.03200 43.76000
H  23.93200 -3.10800 44.29500
H  23.01900 -4.10000 45.40500
H  25.99100 -4.92600 41.95200
H  27.07200 -5.87100 42.95100
H  28.69600 -4.23600 42.87900
H  27.58800 -2.91900 43.29800
H  20.13200 -7.30400 44.67800
H  19.17100 -8.57800 45.42500
H  20.04200 -8.96600 43.97100
H  20.88900 -12.68800 48.24400
H  19.32200 -11.81400 48.74000
H  20.99100 -11.20600 49.17800
H  25.52100 -12.86600 48.42600
H  26.20500 -11.37600 50.88400
H  24.46800 -12.58500 51.27800
H  24.33700 -14.01700 50.18800
H  23.27100 -12.66600 50.03700
H  28.35300 -12.31100 48.98500
H  27.32900 -13.54200 49.57300
H  29.46600 -12.12000 51.10000
H  28.70300 -13.74600 51.39000
H  27.90000 -12.27000 51.96800
H  30.48400 -8.34600 50.20900
H  31.13500 -6.84800 49.59500
H  31.49700 -8.26700 48.68800
H  28.91500 -4.50000 45.01100
H  28.79200 -0.50900 46.93300
H  27.35800 -1.01900 46.09300
H  28.79500 -0.52100 45.15400

