158

Mg 3.07700 -0.31100 44.99500
C  6.57200 0.35400 44.68700
C  2.60300 2.44100 42.89400
C  -0.04500 -1.10300 44.95400
C  3.99700 -3.49900 46.43200
N  4.40400 1.16600 43.89400
C  5.78000 1.16600 43.90300
C  6.36900 2.26300 42.98200
C  5.08500 3.08300 42.71100
C  3.95900 2.16600 43.11600
C  4.90200 4.52700 43.26800
C  7.14300 1.59600 41.81200
C  8.59700 2.07200 41.48200
H  9.05200 2.00700 40.07700
N  1.49000 0.61700 44.16700
C  1.48500 1.69500 43.39300
C  0.06600 2.01900 43.08900
C  -0.74100 0.97300 43.55300
C  0.19200 0.11800 44.35000
C  -0.35600 3.29000 42.35800
C  -2.24500 0.79800 43.27800
O  -2.77700 1.63400 42.57300
C  -2.97900 -0.34200 43.76500
N  2.18100 -2.07600 45.52600
C  0.82800 -2.12900 45.42800
C  0.35700 -3.52000 45.78500
C  1.57000 -4.30500 46.41600
C  2.67000 -3.28300 46.03800
C  -0.81100 -3.55900 46.76100
C  1.94600 -5.72400 45.83800
C  0.74000 -6.65900 45.37700
N  4.87500 -1.40600 45.51900
C  5.03600 -2.61900 46.15300
C  6.45800 -2.73200 46.49100
C  7.06400 -1.60400 45.92600
C  6.09100 -0.80900 45.33800
C  7.14300 -3.76300 47.25900
C  8.32900 -0.91200 45.73600
O  9.45300 -1.17600 46.05800
C  8.06700 0.33300 44.91700
C  8.49300 1.47000 45.79400
O  7.88500 1.83300 46.83000
O  9.68300 1.99800 45.28800
C  9.93700 3.36800 45.80600
H  2.35100 3.25700 42.21300
H  -1.08400 -1.44100 44.95600
H  4.17000 -4.43500 46.96600
H  7.04900 2.84800 43.60100
H  5.06300 3.07100 41.62100
H  4.93400 5.20600 42.41500
H  5.78700 4.76100 43.86100
H  3.94800 4.64900 43.78100
H  6.58200 1.85600 40.91500
H  7.05400 0.51600 41.69200
H  9.34200 1.59000 42.11400
H  8.76800 3.10900 41.77200
H  -0.90400 3.07500 41.44100
H  0.48700 3.93800 42.11900
H  -1.12100 3.71000 43.01000
H  -4.04500 -0.16700 43.61900
H  -2.71900 -0.49000 44.81300
H  -2.71000 -1.26800 43.25800
H  0.13800 -3.90600 44.79000
H  1.57700 -4.26200 47.50500
H  -0.89400 -2.66700 47.38100
H  -0.81900 -4.48000 47.34400
H  -1.70800 -3.68500 46.15500
H  2.56300 -6.27100 46.55200
H  2.60800 -5.72400 44.97200
H  0.96800 -7.69400 45.63100
H  0.60300 -6.72200 44.29700
H  -0.25500 -6.38400 45.72700
H  7.20200 -4.71700 46.73500
H  6.56500 -3.78900 48.18400
H  8.12400 -3.40800 47.57500
H  8.57100 0.38200 43.95200
H  10.35500 4.02100 45.03900
H  10.62500 3.43400 46.64800
H  9.03600 3.91100 46.09000
Mg 45.99700 2.96100 46.74400
C  43.81200 5.72900 46.24700
C  43.18100 1.00900 46.50900
C  48.14200 0.55300 46.34500
C  48.71400 5.36000 46.49300
N  43.79000 3.30700 46.43700
C  43.16200 4.51300 46.26600
C  41.59800 4.38200 45.98900
C  41.37600 2.89300 46.46900
C  42.83600 2.32000 46.47800
C  40.53600 2.71600 47.75900
C  41.05400 4.75300 44.57400
C  40.21500 6.03100 44.43600
H  40.81000 6.95600 43.38800
N  45.74600 0.99900 46.56500
C  44.48200 0.40700 46.45800
C  44.64800 -1.05200 46.37000
C  46.04800 -1.25100 46.23400
C  46.75100 0.10100 46.41300
C  43.56900 -1.98700 46.29400
C  46.71200 -2.62400 45.99600
O  46.04900 -3.65400 45.88700
C  48.20000 -2.78800 46.09500
N  48.10000 3.00000 46.38500
C  48.74600 1.77200 46.40100
C  50.27800 1.98500 46.52700
C  50.51300 3.54300 46.49400
C  49.04000 3.99400 46.50800
C  50.85700 1.31700 47.76200
C  51.29300 4.08500 45.18100
C  52.77900 3.95600 45.16700
N  46.31500 5.15200 46.49600
C  47.44500 5.94900 46.47400
C  47.06100 7.30900 46.35000
C  45.59700 7.31100 46.45300
C  45.22600 5.93000 46.33100
C  48.01900 8.50500 46.30100
C  44.42100 8.13600 46.53600
O  44.28800 9.33400 46.65900
C  43.18900 7.14000 46.49700
C  42.40800 7.27000 47.77800
O  42.27200 6.44000 48.65700
O  41.76500 8.45700 47.67700
C  40.72000 8.72900 48.62900
H  42.31800 0.34400 46.44700
H  48.83100 -0.28800 46.25000
H  49.50900 6.10800 46.52500
H  41.14300 5.17700 46.58100
H  40.88600 2.24500 45.74200
H  41.03600 2.07800 48.48800
H  39.60200 2.21500 47.50500
H  40.30200 3.65300 48.26400
H  40.45000 3.93400 44.18400
H  41.89500 4.91300 43.90000
H  40.17700 6.57000 45.38200
H  39.19000 5.71900 44.23700
H  42.62200 -1.48900 46.08900
H  43.45200 -2.41200 47.29100
H  43.67000 -2.80700 45.58300
H  48.43600 -3.84800 45.99900
H  48.55900 -2.50800 47.08500
H  48.92300 -2.28300 45.45400
H  50.76900 1.41600 45.73800
H  51.01300 3.94700 47.37400
H  51.45500 1.99900 48.36600
H  51.46400 0.49700 47.37600
H  50.09600 0.93600 48.44300
H  51.08000 5.15300 45.21600
H  50.92600 3.51400 44.32700
H  53.05100 3.67900 44.14900
H  53.13400 3.21300 45.88200
H  53.32800 4.88000 45.34600
H  47.65800 9.29000 46.96500
H  48.01500 9.04200 45.35300
H  49.06100 8.32800 46.57100
H  42.58600 7.52500 45.67400
H  39.81500 8.53200 48.05600
H  40.77500 9.75000 49.00700
H  40.77600 8.07300 49.49900

