158

Mg 41.18400 8.86900 29.39300
C  43.04200 10.03200 32.05900
C  38.89200 7.63400 31.70900
C  39.27100 7.69800 26.89600
C  43.71700 9.71100 27.12200
N  41.15800 8.70800 31.70400
C  41.91600 9.38000 32.56900
C  41.30500 9.41500 34.01300
C  40.17200 8.34300 33.83000
C  40.01000 8.24500 32.30800
C  40.44000 6.92400 34.39400
C  40.78300 10.81100 34.36700
C  39.86200 10.88300 35.67600
H  40.30300 11.82600 36.80800
N  39.32000 7.80900 29.37000
C  38.55400 7.45000 30.37400
C  37.33500 6.86600 29.89900
C  37.34800 7.05800 28.46400
C  38.65400 7.51800 28.24400
C  36.20200 6.34900 30.82000
C  36.28300 6.86900 27.45300
O  36.55500 6.99100 26.27200
C  34.86900 6.60600 27.92600
N  41.50600 8.69400 27.33700
C  40.51300 8.15600 26.49400
C  41.09600 8.05600 25.02600
C  42.33000 8.92300 25.08300
C  42.50700 9.17800 26.57900
C  41.28500 6.54300 24.58800
C  42.28100 10.17000 24.28100
C  41.65100 11.44700 24.87400
N  43.04000 9.69800 29.47800
C  43.96400 10.05400 28.50100
C  45.02200 10.83400 29.05000
C  44.67800 10.87000 30.44900
C  43.44800 10.10900 30.65200
C  46.13400 11.46100 28.31800
C  45.19500 11.25300 31.79000
O  46.23800 11.80300 32.01200
C  44.08400 10.80200 32.83500
C  44.80400 9.95900 33.84000
O  45.14800 8.81600 33.70000
O  44.82300 10.61100 34.99800
C  45.22900 9.89500 36.25000
H  38.24500 7.31700 32.53000
H  38.69800 7.58500 25.97300
H  44.50400 10.00700 26.42500
H  42.10400 9.01500 34.63700
H  39.24400 8.71900 34.26100
H  40.83600 6.34700 33.55900
H  39.64700 6.45700 34.97900
H  41.37200 7.05800 34.94400
H  40.27200 11.28300 33.52800
H  41.64900 11.43600 34.58400
H  39.68500 9.87800 36.05900
H  38.96500 11.42200 35.37100
H  36.56800 6.00800 31.78800
H  35.70900 5.45900 30.42600
H  35.38300 7.05300 30.96700
H  34.85500 5.56600 28.25100
H  34.13400 6.73200 27.13100
H  34.53000 7.36600 28.63000
H  40.32100 8.54500 24.43500
H  43.11600 8.35500 24.58400
H  40.78800 5.81700 25.23200
H  42.35900 6.36100 24.55700
H  40.85400 6.41100 23.59600
H  41.86200 10.10000 23.27700
H  43.30200 10.41800 23.99100
H  42.20300 11.76100 25.76000
H  40.60300 11.20500 25.05000
H  41.68000 12.22900 24.11500
H  45.74600 11.81000 27.36100
H  46.83300 10.66000 28.07500
H  46.61300 12.27500 28.86100
H  43.58200 11.68600 33.23000
H  44.46300 10.18300 36.97000
H  46.29800 10.02000 36.42200
H  45.04000 8.83600 36.07500
Mg 47.02700 25.08100 28.32000
C  47.98700 27.38000 30.81000
C  46.53500 22.73300 30.64100
C  46.57200 22.87800 25.75000
C  48.35600 27.35400 25.88000
N  47.37000 25.03500 30.55400
C  47.46700 26.20000 31.26700
C  47.16500 25.80000 32.72400
C  46.80600 24.22800 32.68300
C  46.95000 23.97400 31.19700
C  47.69700 23.25800 33.50200
C  45.98700 26.74400 33.36300
C  45.20100 26.40300 34.58000
H  45.37300 27.32600 35.82900
N  46.52200 23.04900 28.27000
C  46.33700 22.26000 29.34700
C  45.97300 20.96100 28.94900
C  45.96900 21.04100 27.51600
C  46.35100 22.35100 27.06700
C  45.64600 19.86100 29.90100
C  45.68000 19.98700 26.49100
O  45.79700 20.12300 25.27600
C  45.31900 18.68400 27.06000
N  47.53600 25.13300 26.16200
C  47.09300 24.11400 25.37300
C  47.03900 24.54000 23.86500
C  47.28300 26.12500 23.88200
C  47.76700 26.23000 25.39500
C  48.16900 23.79000 23.12800
C  45.95600 26.99300 23.63200
C  46.19600 28.32200 22.78800
N  48.02600 26.93200 28.31500
C  48.51500 27.67500 27.23600
C  49.06400 28.88900 27.81300
C  48.85900 28.84200 29.16800
C  48.14800 27.63800 29.43000
C  49.61900 30.02500 27.14400
C  49.07200 29.59200 30.35900
O  49.67400 30.63000 30.58700
C  48.43500 28.65000 31.54100
C  49.40500 28.51100 32.63300
O  50.25200 27.66600 32.82400
O  49.00500 29.41600 33.55400
C  49.47100 29.29600 34.87500
H  46.32900 22.05300 31.46900
H  46.24500 22.21900 24.94200
H  48.73400 28.09900 25.17700
H  48.12300 25.91000 33.23200
H  45.76600 24.05600 32.95900
H  48.52300 22.88800 32.89400
H  47.05600 22.45500 33.86500
H  48.18100 23.90200 34.23700
H  45.23500 26.87600 32.58500
H  46.62400 27.58700 33.62800
H  45.63100 25.42800 34.81100
H  44.13700 26.26800 34.38800
H  46.52300 19.21500 29.87100
H  44.68600 19.45400 29.58200
H  45.38400 20.12100 30.92700
H  45.04600 17.89500 26.36000
H  44.42800 18.92300 27.64100
H  46.09300 18.25400 27.69600
H  46.04300 24.32200 23.48000
H  48.06500 26.49500 23.21900
H  47.77200 22.78000 23.02200
H  49.06800 23.91300 23.73100
H  48.24800 24.26300 22.14900
H  45.58300 27.32700 24.60000
H  45.17000 26.33600 23.26100
H  45.94000 28.07600 21.75700
H  47.23100 28.65200 22.69800
H  45.61700 29.13000 23.23600
H  49.52900 30.02600 26.05800
H  50.70100 29.91400 27.21800
H  49.26700 30.95300 27.59500
H  47.49100 29.06900 31.89000
H  48.80000 28.75500 35.54300
H  49.49600 30.31000 35.27400
H  50.39700 28.74400 35.03800

