158

Mg 53.90500 23.60200 43.71300
C  51.31700 25.95600 43.28800
C  51.73400 21.08200 42.57700
C  56.46400 21.41800 43.76300
C  55.81300 26.16600 44.87400
N  51.82900 23.59700 42.77200
C  50.97800 24.64900 42.79500
C  49.60400 24.24300 42.10800
C  49.74400 22.68400 42.08400
C  51.21000 22.42100 42.41300
C  48.88700 22.00200 43.11700
C  49.40500 24.75900 40.61800
C  50.76900 24.98300 39.84200
H  50.50100 25.68200 38.50600
N  54.09200 21.49400 43.21200
C  53.04400 20.65900 42.85300
C  53.57100 19.31500 42.79400
C  54.96900 19.38200 43.11700
C  55.23900 20.75300 43.34500
C  52.65400 18.13800 42.43800
C  55.92800 18.14400 43.26300
O  55.48600 17.02800 43.02600
C  57.32200 18.30600 43.56800
N  55.89000 23.77900 44.18200
C  56.81700 22.79300 44.04600
C  58.21700 23.18300 44.58800
C  57.96900 24.70600 44.97900
C  56.47400 24.96800 44.62100
C  58.75200 22.33300 45.73100
C  58.89200 25.69500 44.22300
C  58.71900 26.02400 42.74500
N  53.70800 25.74100 43.96200
C  54.49100 26.63000 44.59900
C  53.86000 27.84300 45.04700
C  52.49900 27.55600 44.55900
C  52.54900 26.29700 43.87000
C  54.40600 28.93900 45.99700
C  51.16700 28.11500 44.46300
O  50.73900 29.20000 44.86700
C  50.37900 27.05400 43.53200
C  49.80300 27.62900 42.33800
O  50.42400 28.15400 41.42100
O  48.44500 27.66000 42.49300
C  47.69400 28.73700 41.82100
H  50.98600 20.32500 42.33100
H  57.30200 20.79500 44.08400
H  56.42400 26.96200 45.30400
H  48.75200 24.44900 42.75500
H  49.51300 22.26100 41.10700
H  47.82900 22.23600 42.99800
H  49.06900 22.30200 44.15000
H  48.81600 20.91600 43.05500
H  48.69700 25.56800 40.43800
H  48.99500 23.95600 40.00600
H  51.36500 24.09600 39.62300
H  51.43800 25.70400 40.31200
H  53.09500 17.19600 42.76400
H  52.41800 18.09100 41.37500
H  51.72600 18.25800 42.99800
H  57.76300 17.31000 43.59900
H  57.45600 18.86000 44.49700
H  57.83700 18.92800 42.83500
H  58.89100 23.09800 43.73500
H  58.12200 24.70000 46.05800
H  59.55200 21.62800 45.50200
H  57.97200 21.65700 46.08100
H  59.05200 22.89800 46.61300
H  59.91500 25.32300 44.15900
H  58.94100 26.61800 44.80300
H  59.51700 25.72500 42.06500
H  58.55000 27.09000 42.59400
H  57.90700 25.39300 42.38300
H  55.40600 28.73100 46.37800
H  53.86700 28.87000 46.94200
H  54.25700 29.91000 45.52500
H  49.62300 26.66800 44.21600
H  48.19400 29.69100 41.98200
H  46.70000 28.81200 42.26400
H  47.68600 28.49300 40.75900
Mg 42.95100 42.00300 26.64200
C  42.35100 44.24000 29.33500
C  43.96700 39.75700 29.03500
C  43.91500 40.14000 24.23300
C  42.44400 44.77700 24.46000
N  43.12000 42.03100 28.90000
C  42.76800 42.99700 29.83900
C  42.78400 42.49600 31.26800
C  43.64000 41.23000 31.07700
C  43.54200 40.91800 29.57300
C  45.12700 41.19300 31.57800
C  41.46400 42.30800 32.00400
C  41.25300 43.00700 33.36400
H  42.01800 42.40900 34.52000
N  43.81500 40.20500 26.58700
C  44.02900 39.36800 27.66000
C  44.50800 38.11400 27.17200
C  44.40800 38.11300 25.75300
C  44.05800 39.53500 25.45000
C  45.02700 36.95200 28.06400
C  44.59500 37.07100 24.68600
O  44.64900 37.28700 23.48900
C  44.86400 35.68000 24.97600
N  43.34000 42.50800 24.61200
C  43.71000 41.43800 23.76300
C  43.45400 41.82700 22.28400
C  42.97400 43.30500 22.38200
C  42.91900 43.59100 23.87100
C  44.56400 41.53300 21.24300
C  41.51600 43.52800 21.75300
C  40.35500 42.85000 22.54800
N  42.52900 44.07100 26.79100
C  42.23000 44.98600 25.83600
C  41.66700 46.08000 26.38300
C  41.68400 45.93500 27.77600
C  42.24500 44.64000 28.02900
C  41.33300 47.40000 25.71000
C  41.39900 46.56500 29.05500
O  41.04800 47.70600 29.39400
C  41.86700 45.48400 30.13400
C  42.84300 46.00600 31.09900
O  43.95000 46.27900 30.72300
O  42.35100 46.00900 32.38700
C  43.39600 46.51600 33.33600
H  44.26700 39.00100 29.76300
H  44.03500 39.50100 23.35600
H  42.15300 45.48700 23.68400
H  43.36600 43.17700 31.88800
H  43.17500 40.39400 31.60000
H  45.17600 40.48800 32.40700
H  45.57300 42.09400 32.00100
H  45.78200 40.82800 30.78700
H  41.27500 41.26000 32.23700
H  40.57200 42.50900 31.41200
H  40.19000 43.06700 33.59500
H  41.59000 44.04200 33.30400
H  44.26100 36.20200 28.26200
H  45.24200 37.28600 29.07900
H  45.91500 36.57900 27.55400
H  45.76100 35.73700 25.59200
H  45.07200 35.02800 24.12700
H  44.03500 35.30800 25.57700
H  42.64400 41.16200 21.98200
H  43.66700 44.03400 21.96200
H  44.10900 41.00500 20.40400
H  45.37800 40.99200 21.72600
H  45.02000 42.42200 20.80900
H  41.46000 43.25000 20.70000
H  41.29300 44.59100 21.83700
H  39.75700 43.53500 23.15000
H  40.73600 42.14100 23.28400
H  39.77100 42.19000 21.90600
H  40.86200 47.20800 24.74600
H  42.25400 47.93500 25.47800
H  40.70200 47.97100 26.39100
H  40.92600 45.32000 30.65900
H  42.99100 46.27100 34.31800
H  43.52100 47.59100 33.20200
H  44.34700 45.99600 33.22500

