158

Mg 48.14700 16.04600 28.71800
C  46.12400 16.08300 31.55700
C  50.40200 18.10500 30.53000
C  49.64200 17.01700 25.83100
C  45.54300 14.71200 26.98700
N  48.35000 16.83800 30.88700
C  47.35100 16.73200 31.80300
C  47.83800 17.29700 33.09900
C  48.94900 18.28600 32.59100
C  49.27600 17.72400 31.21600
C  48.64000 19.78500 32.62000
C  48.22800 16.07600 34.03300
C  47.74000 16.28300 35.45800
H  47.32700 17.65500 35.97600
N  49.81600 17.27200 28.31900
C  50.75000 17.82100 29.17800
C  51.87500 18.36900 28.45700
C  51.60700 18.18700 27.08200
C  50.25000 17.46000 27.02700
C  53.09800 19.02000 29.12000
C  52.40500 18.63400 25.81700
O  52.06500 18.35700 24.69300
C  53.66000 19.57600 25.95000
N  47.59300 16.05700 26.72100
C  48.40000 16.36600 25.72400
C  47.96800 15.90900 24.35800
C  46.81300 15.01100 24.71800
C  46.64800 15.19100 26.23300
C  47.49300 17.06300 23.45900
C  47.12200 13.46500 24.48900
C  45.95700 12.64700 23.94300
N  46.28700 15.19200 29.23200
C  45.34800 14.62900 28.39600
C  44.20700 14.15500 29.15500
C  44.45300 14.64400 30.46700
C  45.67500 15.40100 30.43500
C  42.93200 13.63300 28.52600
C  43.88500 14.90300 31.75600
O  42.86700 14.55300 32.30600
C  45.05000 15.72500 32.56200
C  44.39700 16.84500 33.33100
O  44.04900 17.93800 32.84300
O  44.25900 16.44900 34.61000
C  43.33700 17.34300 35.37900
H  51.14200 18.67500 31.09500
H  50.25600 17.16500 24.94000
H  44.71800 14.18700 26.50100
H  47.05100 17.92700 33.51300
H  49.84800 18.16200 33.19400
H  47.67800 20.07400 33.04200
H  48.77100 20.24800 31.64200
H  49.33800 20.29400 33.28500
H  49.31200 15.96000 34.01700
H  47.66500 15.23700 33.62300
H  48.54400 16.05400 36.15700
H  46.98200 15.51900 35.62900
H  53.21000 20.01000 28.67700
H  53.90300 18.32100 28.89000
H  52.85800 19.22100 30.16400
H  53.88400 19.86600 24.92300
H  54.49100 19.05500 26.42500
H  53.37300 20.50500 26.44300
H  48.80400 15.36000 23.92500
H  45.88600 15.12000 24.15500
H  46.53100 16.85400 22.99200
H  48.29600 17.11700 22.72400
H  47.39500 17.95200 24.08300
H  47.40700 13.11100 25.47900
H  47.97400 13.43300 23.80900
H  46.31100 12.07100 23.08800
H  45.01600 13.15900 23.74200
H  45.74100 12.00200 24.79400
H  42.09300 14.13500 29.00700
H  42.87700 12.56700 28.74800
H  42.86700 13.75400 27.44500
H  45.38400 15.05200 33.35200
H  42.56200 17.73900 34.72200
H  43.87900 18.10600 35.93700
H  42.82300 16.86900 36.21600
Mg 26.80300 49.81000 26.31600
C  24.71400 50.94100 28.93300
C  29.07400 48.78800 28.76100
C  28.85600 49.15800 23.88300
C  24.47700 51.24500 23.98600
N  26.85600 49.66400 28.56100
C  25.85200 50.17400 29.39600
C  26.13500 50.00800 30.80200
C  27.68900 49.55700 30.77400
C  27.88800 49.30600 29.30600
C  28.72100 50.64200 31.43200
C  25.05500 49.02300 31.36400
C  24.62500 49.24800 32.86700
H  25.57400 49.75300 33.94100
N  28.56400 48.90800 26.36100
C  29.35700 48.56600 27.40600
C  30.62500 47.97000 26.91400
C  30.58600 48.05000 25.46900
C  29.30700 48.72600 25.18700
C  31.60800 47.19000 27.78300
C  31.60500 47.52600 24.40000
O  31.46700 47.66200 23.20400
C  32.87600 46.77300 24.89100
N  26.71500 50.22400 24.26300
C  27.67400 49.87100 23.41300
C  27.41500 50.11800 21.97200
C  25.98400 50.50600 21.97100
C  25.62800 50.66800 23.48600
C  28.45400 50.93500 21.21500
C  25.05700 49.59300 21.09600
C  24.57000 48.29900 21.76400
N  25.02400 51.02200 26.41200
C  24.21800 51.46600 25.39200
C  23.06900 52.17400 25.99500
C  23.24200 51.90400 27.38300
C  24.41000 51.23800 27.57600
C  22.06500 52.98400 25.24300
C  22.68100 52.26200 28.64900
O  21.63900 52.92800 29.00600
C  23.57700 51.60800 29.80100
C  24.08400 52.67400 30.73300
O  24.94900 53.50000 30.48200
O  23.33100 52.56800 31.83500
C  23.74700 53.45800 32.94000
H  29.85000 48.61900 29.51000
H  29.48900 49.01200 23.00500
H  23.73300 51.69400 23.32500
H  26.08300 51.01000 31.22900
H  27.89200 48.60500 31.26600
H  28.35200 51.64000 31.66900
H  29.43200 50.83700 30.62900
H  29.30600 50.22800 32.25300
H  25.54300 48.04800 31.33400
H  24.15600 48.81600 30.78400
H  24.46400 48.24700 33.26700
H  23.64100 49.71400 32.82100
H  31.57400 46.15200 27.45500
H  31.33000 47.22100 28.83700
H  32.60400 47.63200 27.77600
H  33.67400 46.97900 24.17800
H  32.76500 45.70300 25.06600
H  33.22900 47.20900 25.82600
H  27.47800 49.16400 21.44800
H  25.92500 51.50200 21.53200
H  29.13800 50.31200 20.63800
H  29.04900 51.69900 21.71400
H  27.85000 51.45600 20.47300
H  25.64800 49.43100 20.19400
H  24.14300 50.06200 20.73100
H  23.48100 48.33900 21.74100
H  24.89400 48.13800 22.79200
H  24.89100 47.47700 21.12300
H  21.58300 53.73800 25.86600
H  21.22400 52.33500 24.99900
H  22.44700 53.37000 24.29800
H  23.00900 50.87800 30.37900
H  23.86600 54.48400 32.59200
H  24.66700 53.10100 33.40200
H  22.99900 53.52400 33.73100

