158

Mg 24.26500 -5.35500 45.46000
C  26.57600 -3.19100 43.85900
C  21.79500 -4.10200 43.53200
C  22.41900 -8.06500 46.31300
C  27.12100 -6.74500 47.23400
N  24.20600 -3.94200 43.77600
C  25.27800 -3.19600 43.32100
C  24.84300 -2.32300 42.18200
C  23.28400 -2.23900 42.43600
C  23.00700 -3.44100 43.37400
C  22.71900 -0.86500 42.96000
C  25.48500 -2.86600 40.82200
C  26.07100 -1.77900 39.88600
H  26.17100 -2.08800 38.33100
N  22.25900 -5.97400 45.06000
C  21.41200 -5.31100 44.22700
C  20.12100 -5.97300 44.29000
C  20.20800 -7.11300 45.14900
C  21.64200 -7.15300 45.52500
C  18.94900 -5.54600 43.46300
C  19.17600 -8.22100 45.43900
O  18.04800 -8.14700 44.93500
C  19.35500 -9.45100 46.27200
N  24.74900 -7.13600 46.58800
C  23.76800 -8.09100 46.72200
C  24.40800 -9.35500 47.34800
C  25.75300 -8.79500 47.86900
C  25.88800 -7.45300 47.22400
C  23.59700 -10.20300 48.40000
C  26.95100 -9.73800 47.72100
C  27.86200 -9.80600 48.98400
N  26.32000 -4.94200 45.75000
C  27.32300 -5.62600 46.47800
C  28.59900 -4.87800 46.21600
C  28.31000 -3.94300 45.17400
C  26.95300 -4.05700 44.93000
C  29.83100 -4.99800 46.93100
C  28.94000 -2.99800 44.26400
O  30.09000 -2.79400 44.06800
C  27.78600 -2.44800 43.40500
C  27.71300 -1.03400 43.66600
O  28.02500 -0.19300 42.88000
O  27.07900 -0.80600 44.85900
C  26.73100 0.58400 45.17900
H  20.99400 -3.68500 42.91800
H  21.76600 -8.88500 46.61900
H  28.02600 -7.19500 47.64800
H  25.30800 -1.36200 42.40200
H  22.89500 -2.30400 41.42000
H  23.42600 -0.03500 42.95800
H  22.40300 -0.90300 44.00300
H  21.83500 -0.56100 42.39900
H  24.74600 -3.41000 40.23300
H  26.29800 -3.55200 41.05700
H  27.10900 -1.61300 40.17600
H  25.53000 -0.84700 40.04500
H  18.91200 -6.29400 42.67100
H  19.15000 -4.61500 42.93300
H  18.08800 -5.44600 44.12400
H  20.07200 -10.16900 45.87300
H  18.37600 -9.92400 46.35400
H  19.61800 -9.19100 47.29800
H  24.59800 -9.99400 46.48600
H  25.54000 -8.54800 48.90900
H  23.23500 -11.03600 47.79800
H  22.74300 -9.68700 48.83700
H  24.14400 -10.74800 49.16900
H  27.60400 -9.38900 46.92000
H  26.53900 -10.72500 47.51100
H  27.55400 -9.12700 49.77900
H  28.88800 -9.54100 48.73300
H  27.83700 -10.76000 49.51100
H  30.17800 -5.99300 46.65200
H  29.61500 -4.96700 47.99800
H  30.51300 -4.21600 46.59500
H  28.09000 -2.53800 42.36200
H  27.44400 1.01300 45.88300
H  25.77000 0.64100 45.69000
H  26.65200 1.32100 44.38000
Mg 49.89000 44.22200 43.00500
C  46.55900 44.66200 41.85500
C  49.66700 40.88400 42.40800
C  53.21900 44.09600 43.30800
C  50.19800 47.84800 42.90400
N  48.31400 42.95800 42.13000
C  46.97200 43.28400 41.82400
C  46.17800 42.04400 41.36000
C  47.21000 40.85400 41.55200
C  48.45200 41.56000 42.19700
C  46.78800 39.59200 42.40200
C  45.84900 42.23400 39.82700
C  44.32500 42.33500 39.61100
H  44.01400 43.19700 38.37900
N  51.20300 42.71000 43.00700
C  50.95300 41.38700 42.73800
C  52.19800 40.59300 42.80700
C  53.24500 41.52600 43.07500
C  52.59800 42.83900 43.11700
C  52.33900 39.06300 42.49800
C  54.73200 41.12400 43.21000
O  55.01600 39.94900 43.25900
C  55.83700 42.15600 43.34100
N  51.44200 45.82600 42.99600
C  52.74200 45.44600 43.21600
C  53.67500 46.65500 43.42900
C  52.72500 47.83900 43.38700
C  51.38400 47.18200 42.98200
C  54.66100 46.57000 44.59600
C  53.15300 49.05700 42.51300
C  53.22600 50.34200 43.32500
N  48.66600 45.95300 42.58500
C  48.89500 47.28300 42.68400
C  47.71900 47.94600 42.39000
C  46.76200 46.99400 42.14500
C  47.38200 45.75600 42.23500
C  47.56000 49.45500 42.59300
C  45.34500 46.81800 41.76400
O  44.37900 47.57200 41.70500
C  45.18600 45.23200 41.60300
C  44.13800 44.73300 42.56100
O  44.33500 44.34000 43.71800
O  42.92800 45.12200 42.09000
C  41.86000 44.84200 43.01300
H  49.71400 39.84200 42.08400
H  54.29300 44.10400 43.50500
H  50.12900 48.89500 42.60100
H  45.32400 41.87900 42.01600
H  47.57400 40.51600 40.58200
H  45.70600 39.60000 42.53300
H  47.22500 39.59900 43.40100
H  47.14200 38.73100 41.83600
H  46.17300 41.37600 39.23700
H  46.30700 43.14900 39.45300
H  43.88600 42.72700 40.52800
H  43.90300 41.33100 39.55100
H  53.31500 38.68600 42.19100
H  51.61800 38.91300 41.69500
H  51.93500 38.55200 43.37200
H  55.64100 42.75800 42.45400
H  56.82900 41.71000 43.42200
H  55.59300 42.63000 44.29200
H  54.28200 46.67600 42.52400
H  52.52500 48.23500 44.38300
H  54.83000 45.53200 44.88100
H  54.44600 47.17300 45.47800
H  55.57400 46.93100 44.12200
H  52.54500 49.16400 41.61400
H  54.17400 48.87300 42.18200
H  54.22600 50.72800 43.12600
H  53.12400 50.24400 44.40600
H  52.43600 51.04800 43.07100
H  48.13000 49.91400 43.40100
H  46.51400 49.69500 42.78200
H  47.97600 49.99100 41.73900
H  44.88800 45.00600 40.57900
H  41.84800 43.76000 43.14400
H  40.95800 45.12100 42.46700
H  41.93800 45.52200 43.86100

