158

Mg 25.48400 -0.73000 29.49300
C  27.76000 -0.81200 32.26100
C  22.96400 -0.48600 31.65100
C  23.49400 -0.65400 26.81900
C  28.24300 -1.43300 27.48200
N  25.51700 -0.73500 31.74400
C  26.50900 -0.49600 32.61800
C  25.90700 -0.30700 34.02600
C  24.34600 -0.29800 33.75200
C  24.24700 -0.57300 32.27700
C  23.53600 -1.39500 34.58200
C  26.38600 1.01900 34.71100
C  26.14900 1.07800 36.23900
H  27.33100 1.02600 37.19800
N  23.48400 -0.55400 29.28900
C  22.59900 -0.50000 30.28000
C  21.26500 -0.31500 29.72000
C  21.45300 -0.35600 28.27700
C  22.90200 -0.61500 28.06700
C  20.07900 -0.21300 30.65300
C  20.41700 -0.35500 27.14700
O  20.67500 -0.43700 25.97800
C  18.96700 -0.28300 27.62400
N  25.79600 -1.23300 27.38700
C  24.83400 -0.98000 26.46600
C  25.42200 -0.97500 25.06600
C  26.89600 -1.15600 25.26000
C  27.04200 -1.24800 26.81300
C  24.72800 -2.03600 24.09300
C  27.82100 -0.03700 24.61700
C  29.06800 -0.43100 23.89900
N  27.57100 -1.20400 29.80600
C  28.56000 -1.49900 28.82900
C  29.83700 -1.65100 29.48500
C  29.56300 -1.43700 30.86100
C  28.17300 -1.11200 30.98000
C  31.11100 -1.90600 28.84700
C  30.10900 -1.37400 32.19800
O  31.22900 -1.60500 32.61300
C  28.97400 -0.94400 33.15400
C  28.79900 -1.94200 34.20400
O  28.12600 -3.01700 34.03000
O  29.28700 -1.46000 35.44700
C  28.82500 -2.36500 36.57900
H  22.12300 -0.35700 32.33600
H  22.91500 -0.42300 25.92200
H  28.99400 -1.55200 26.69800
H  26.13200 -1.11600 34.72000
H  23.91200 0.68100 33.95800
H  23.99900 -1.71900 35.51400
H  23.42800 -2.35200 34.07100
H  22.49800 -1.07100 34.66000
H  25.83800 1.89800 34.36900
H  27.43200 1.08900 34.41500
H  25.47000 0.27200 36.51800
H  25.44900 1.89600 36.40500
H  19.22600 0.34000 30.26000
H  20.33500 0.32200 31.56800
H  19.80600 -1.22600 30.94900
H  18.28500 -0.47000 26.79400
H  18.68900 0.61600 28.17400
H  18.93700 -1.08400 28.36300
H  25.24600 -0.02400 24.56200
H  27.17500 -2.16000 24.94200
H  25.49400 -2.77100 23.84400
H  24.24700 -1.66000 23.19000
H  23.93900 -2.69100 24.46300
H  28.18200 0.58100 25.44000
H  27.25700 0.55700 23.89800
H  29.00400 -1.41000 23.42400
H  29.88900 -0.35200 24.61100
H  29.26700 0.27700 23.09400
H  30.96200 -1.80700 27.77200
H  31.46700 -2.91800 29.04500
H  31.89700 -1.24900 29.21900
H  29.24700 -0.01100 33.64700
H  29.22400 -1.94100 37.50100
H  29.25500 -3.36300 36.49300
H  27.75800 -2.58600 36.62300
Mg 41.35800 7.96300 28.68500
C  42.87500 9.19500 31.72200
C  39.32200 5.95600 30.68100
C  40.28900 6.40100 25.85500
C  43.80400 9.69100 26.85900
N  41.09400 7.64800 31.00400
C  41.78700 8.32700 31.97200
C  41.23300 7.85300 33.34700
C  40.38800 6.58800 33.00700
C  40.20800 6.76200 31.49200
C  40.87500 5.21400 33.51000
C  40.45600 8.99700 34.14000
C  40.95200 9.34600 35.55500
H  41.34300 10.72400 35.78100
N  39.90100 6.46200 28.25300
C  39.12100 5.85900 29.22600
C  38.10500 5.05600 28.58600
C  38.40700 5.19700 27.17300
C  39.56000 6.02100 27.02600
C  37.07300 4.30800 29.41900
C  37.53700 4.68400 26.06300
O  37.71900 4.95700 24.90000
C  36.30400 3.85900 26.38300
N  41.97700 8.04300 26.59500
C  41.31300 7.34100 25.63000
C  41.89800 7.60400 24.25200
C  42.92800 8.84800 24.56400
C  42.83500 8.99000 26.11200
C  42.56700 6.34200 23.60000
C  42.47400 10.18900 23.90400
C  41.10500 10.75700 24.23000
N  42.95100 9.17200 29.07800
C  43.90000 9.73600 28.25100
C  44.91500 10.37700 29.04100
C  44.43700 10.22700 30.36900
C  43.29700 9.45800 30.34200
C  46.12500 11.12200 28.58200
C  44.81200 10.58500 31.76700
O  45.74400 11.29800 32.14800
C  43.81200 9.91000 32.67600
C  44.58300 8.95000 33.53800
O  44.72000 7.77600 33.25600
O  45.07300 9.60800 34.63800
C  45.69200 8.71500 35.60000
H  38.75800 5.29200 31.33900
H  39.85300 6.10300 24.89900
H  44.66100 10.13000 26.34300
H  42.04700 7.59300 34.02300
H  39.40700 6.75000 33.45500
H  41.67500 5.42800 34.21800
H  41.27500 4.51800 32.77300
H  40.07400 4.72900 34.06800
H  39.41700 8.69600 34.27100
H  40.52600 9.88900 33.51800
H  41.80600 8.72000 35.81500
H  40.10400 9.01000 36.15200
H  36.11600 4.53900 28.95200
H  37.10400 4.65700 30.45100
H  37.33200 3.25000 29.46000
H  36.61400 2.96700 26.92700
H  35.86200 3.44100 25.47800
H  35.53800 4.41100 26.92800
H  41.00100 7.81400 23.67000
H  43.95500 8.62000 24.27900
H  42.61300 5.53800 24.33400
H  43.44600 6.55500 22.99100
H  41.89100 5.85100 22.90100
H  42.50300 10.06800 22.82200
H  43.19100 10.89700 24.32000
H  40.59800 11.06400 23.31500
H  41.17500 11.62000 24.89300
H  40.43700 9.98700 24.61700
H  46.28700 10.92300 27.52300
H  46.98200 10.79100 29.16800
H  46.03300 12.18900 28.78800
H  43.27000 10.70600 33.18700
H  46.27000 7.91700 35.13500
H  44.84100 8.34000 36.16800
H  46.40500 9.30400 36.17700

