158

Mg -1.81900 17.55500 26.39300
C  -2.08000 15.00300 28.87100
C  -2.23800 19.84800 28.92400
C  -2.20400 19.90500 24.09000
C  -2.16900 15.07900 24.05600
N  -1.97500 17.42200 28.67700
C  -1.96900 16.27800 29.42500
C  -2.00800 16.55500 30.95200
C  -2.48700 18.03600 30.95300
C  -2.14400 18.50400 29.48000
C  -3.97700 18.46600 31.41200
C  -0.67600 16.17300 31.75200
C  -0.29000 17.00900 33.04800
H  -0.34800 16.32600 34.41300
N  -2.10600 19.59900 26.52300
C  -2.24100 20.38100 27.62400
C  -2.56300 21.68600 27.24900
C  -2.40600 21.77700 25.82200
C  -2.19400 20.37500 25.40900
C  -2.82600 22.89000 28.19700
C  -2.55400 22.98600 24.87300
O  -2.31600 22.94300 23.67000
C  -2.85000 24.43800 25.39500
N  -2.37500 17.45600 24.44900
C  -2.27900 18.55800 23.59300
C  -2.31900 18.19500 22.11600
C  -2.09200 16.68400 22.15700
C  -2.13800 16.38000 23.65500
C  -3.54000 18.71300 21.31800
C  -0.71700 16.23400 21.58600
C  0.64600 16.68700 22.23100
N  -1.99300 15.42100 26.40200
C  -2.18400 14.53100 25.32400
C  -2.32500 13.17100 25.84000
C  -2.30000 13.32700 27.23300
C  -2.08400 14.69300 27.51400
C  -2.48200 11.86800 25.13100
C  -2.29300 12.64500 28.48900
O  -2.26500 11.44500 28.77900
C  -2.40900 13.75700 29.52500
C  -1.57600 13.36700 30.67500
O  -0.37200 13.29800 30.71100
O  -2.37000 12.96500 31.68300
C  -1.73100 12.24100 32.78500
H  -2.51000 20.62000 29.64600
H  -2.21400 20.60700 23.25300
H  -2.14100 14.38500 23.21300
H  -2.77400 15.96900 31.46000
H  -1.76500 18.68400 31.45000
H  -4.55600 18.83900 30.56700
H  -3.76900 19.30200 32.08100
H  -4.40400 17.64000 31.98000
H  0.18100 16.08100 31.08500
H  -0.77500 15.16900 32.16300
H  -0.74000 18.00200 33.04500
H  0.75700 17.29300 32.93900
H  -1.93100 23.49600 28.05400
H  -2.91800 22.46500 29.19700
H  -3.76200 23.37300 27.91500
H  -3.79900 24.45900 25.93100
H  -2.96500 25.12000 24.55300
H  -2.02000 24.79600 26.00400
H  -1.46800 18.66100 21.61800
H  -2.90300 16.13600 21.67800
H  -4.15900 19.21200 22.06300
H  -4.03600 17.91300 20.76800
H  -3.31500 19.47000 20.56700
H  -0.69800 16.51100 20.53200
H  -0.66800 15.14500 21.56000
H  1.16600 17.33900 21.52800
H  1.31200 15.87400 22.51900
H  0.46000 17.35500 23.07200
H  -1.51000 11.38700 25.02100
H  -2.87700 12.13100 24.15000
H  -3.23600 11.29900 25.67600
H  -3.45300 13.87800 29.81700
H  -1.19900 13.02900 33.31700
H  -0.99100 11.50200 32.47800
H  -2.50800 11.85500 33.44600
Mg 40.93700 8.00700 29.05600
C  42.74800 9.36400 31.78400
C  38.97300 6.40600 31.29700
C  39.33200 6.89800 26.44900
C  43.31500 9.48800 26.91600
N  40.95800 7.77000 31.25700
C  41.64500 8.62300 32.17100
C  41.08300 8.57300 33.58500
C  39.96800 7.41000 33.41000
C  39.92300 7.18700 31.89300
C  40.14700 6.19800 34.35400
C  40.47600 9.95400 34.13200
C  40.14500 9.97000 35.63600
H  41.03500 10.82300 36.55100
N  39.43300 6.74900 28.92300
C  38.76200 6.08900 29.93100
C  37.76400 5.25700 29.41600
C  37.69500 5.45000 27.98100
C  38.84600 6.36600 27.71700
C  36.84900 4.49800 30.36500
C  36.70300 4.97100 27.03400
O  36.86600 5.17500 25.85900
C  35.45300 4.24600 27.40000
N  41.24000 8.18800 27.04200
C  40.41700 7.69500 26.16200
C  40.74600 7.99100 24.73500
C  41.93100 8.99600 24.89300
C  42.20000 8.88200 26.38600
C  40.98800 6.78300 23.82600
C  41.52400 10.45300 24.48200
C  40.72300 11.29800 25.53800
N  42.70900 9.12100 29.23700
C  43.60600 9.59700 28.27300
C  44.64300 10.32800 28.92100
C  44.33800 10.28400 30.30900
C  43.16400 9.53700 30.44200
C  45.88100 10.93200 28.22900
C  44.80300 10.64400 31.66400
O  45.91700 11.06200 32.02800
C  43.71400 10.09300 32.70600
C  44.36500 9.22500 33.71200
O  44.87500 8.10200 33.60200
O  44.08300 9.80900 34.89100
C  44.35100 9.06100 36.11800
H  38.32700 5.93100 32.03900
H  38.84000 6.57000 25.53100
H  43.86100 9.96100 26.09700
H  41.85500 8.08800 34.18300
H  39.00500 7.79800 33.74100
H  39.87500 5.22700 33.94000
H  39.46700 6.35700 35.19100
H  41.15600 6.17900 34.76600
H  39.53200 10.15300 33.62400
H  40.96400 10.85100 33.75300
H  40.32200 8.95000 35.97700
H  39.08800 10.21300 35.74100
H  37.22100 4.26100 31.36200
H  36.60700 3.56200 29.86000
H  35.91500 5.05400 30.28300
H  34.87900 4.72500 28.19300
H  35.85500 3.26600 27.65700
H  34.71200 4.13000 26.60900
H  39.87000 8.56600 24.43700
H  42.81000 8.77900 24.28500
H  40.12100 6.85100 23.16900
H  40.80700 5.82200 24.30900
H  41.85700 6.85000 23.17100
H  40.90400 10.35700 23.59100
H  42.44700 10.91800 24.13500
H  40.82600 10.90400 26.54900
H  39.68000 11.13300 25.26700
H  40.97100 12.35900 25.50100
H  45.77800 12.01700 28.23700
H  45.91200 10.61300 27.18800
H  46.70800 10.54400 28.82300
H  43.19400 10.88800 33.24100
H  43.49500 8.40500 36.27800
H  44.38800 9.76300 36.95100
H  45.28000 8.50400 35.99700

