158

Mg 27.19700 50.81600 25.86200
C  25.31300 51.94500 28.63000
C  29.42000 49.33800 28.19700
C  29.20400 49.98500 23.33900
C  25.20700 52.77000 23.86600
N  27.39100 50.70400 28.18400
C  26.42400 51.20400 29.09100
C  26.77300 50.72300 30.53300
C  28.11500 49.96300 30.32400
C  28.29400 49.95000 28.81700
C  29.30800 50.70600 30.97300
C  25.65200 50.00800 31.33500
C  25.23300 50.51800 32.79400
H  26.29000 50.77100 33.87100
N  29.04600 49.74500 25.78000
C  29.85300 49.30900 26.86400
C  30.99700 48.63900 26.27100
C  30.95600 48.88900 24.85900
C  29.70000 49.54700 24.62100
C  32.06100 47.80200 27.05900
C  32.00500 48.63300 23.77300
O  31.91400 48.84700 22.56800
C  33.29700 47.99700 24.25400
N  27.17800 51.31900 23.89300
C  28.07800 50.78400 22.99900
C  27.69000 51.09100 21.49400
C  26.32100 51.82900 21.61500
C  26.21800 52.01100 23.22600
C  28.73200 51.63400 20.52200
C  25.18800 51.05500 20.93500
C  24.20400 52.08100 20.33900
N  25.51900 52.10000 26.15400
C  24.84200 52.83600 25.21100
C  23.70100 53.54600 25.73900
C  23.85200 53.19300 27.11600
C  25.02700 52.37000 27.28300
C  22.69800 54.38100 25.05300
C  23.20200 53.28000 28.43300
O  22.02000 53.62100 28.70300
C  24.16000 52.52600 29.50900
C  24.62100 53.49600 30.55300
O  25.63600 54.17300 30.58500
O  23.67100 53.48100 31.58300
C  23.97000 54.25800 32.83600
H  30.00200 48.84700 28.98100
H  29.75500 49.63600 22.46300
H  24.50700 53.28100 23.20300
H  26.93100 51.71200 30.96400
H  28.06600 48.93800 30.69000
H  29.83900 51.33400 30.25900
H  30.00200 49.99200 31.41700
H  28.93800 51.33200 31.78500
H  26.00500 49.01200 31.60000
H  24.69600 49.80900 30.85100
H  24.57700 49.74400 33.19200
H  24.72400 51.47900 32.71900
H  32.63100 47.02800 26.54500
H  31.78100 47.32800 28.00000
H  32.89800 48.45700 27.30100
H  33.89300 48.07400 23.34400
H  33.18200 46.95900 24.56400
H  33.69900 48.71200 24.97200
H  27.45300 50.06800 21.20200
H  26.55400 52.82800 21.24700
H  29.68000 51.37100 20.99200
H  28.69100 52.72000 20.43300
H  28.79800 51.02600 19.62000
H  24.73000 50.56400 21.79300
H  25.62500 50.42700 20.15800
H  23.37400 51.46900 19.98600
H  24.55400 52.58700 19.44000
H  23.81400 52.85200 21.00300
H  21.74200 53.87800 24.90600
H  22.97900 54.66000 24.03800
H  22.55900 55.32300 25.58300
H  23.74500 51.67300 30.04600
H  25.04200 54.31700 33.02600
H  23.42000 53.95000 33.72500
H  23.61600 55.27500 32.67100
Mg -11.40000 38.31700 41.58500
C  -9.00600 35.75900 41.08300
C  -9.51400 40.41700 39.70100
C  -14.08500 40.32900 41.41100
C  -13.56500 35.72000 42.92900
N  -9.53900 38.06400 40.42800
C  -8.74400 36.93000 40.47900
C  -7.44700 37.22100 39.71500
C  -7.59300 38.74400 39.26900
C  -8.97100 39.11700 39.79400
C  -6.42900 39.74500 39.57800
C  -7.01900 36.21300 38.60600
C  -5.71700 35.48200 38.80600
H  -4.62600 35.60300 37.68300
N  -11.68900 40.23300 40.87400
C  -10.83500 40.92500 40.01300
C  -11.42600 42.12900 39.59300
C  -12.67000 42.20800 40.25500
C  -12.88500 40.90600 40.93400
C  -10.63600 43.05900 38.70400
C  -13.59000 43.44600 40.12800
O  -13.10700 44.48700 39.64900
C  -15.00300 43.45200 40.63200
N  -13.53400 38.05200 42.14900
C  -14.37100 39.06100 42.01300
C  -15.79700 38.69500 42.36100
C  -15.63900 37.25200 42.91100
C  -14.14900 36.97400 42.69400
C  -16.58500 39.66700 43.27300
C  -16.50500 36.33500 41.96200
C  -18.07300 36.66600 41.84700
N  -11.25900 36.23300 42.13100
C  -12.18600 35.36600 42.73700
C  -11.54500 34.10100 43.00500
C  -10.29400 34.19500 42.40900
C  -10.18100 35.49700 41.81900
C  -12.22100 32.98200 43.63500
C  -9.10800 33.57000 42.20500
O  -8.81800 32.44800 42.59800
C  -8.12600 34.57600 41.45500
C  -6.88400 34.81000 42.27600
O  -5.91800 34.08200 42.32400
O  -6.87200 36.07000 42.92300
C  -5.71800 36.44400 43.62900
H  -8.79200 41.07200 39.21000
H  -14.99800 40.92300 41.32400
H  -14.21000 34.97000 43.39200
H  -6.68000 37.17000 40.48800
H  -7.75900 38.64100 38.19600
H  -5.48100 39.25300 39.79500
H  -6.56000 40.54200 40.31100
H  -6.15000 40.28400 38.67200
H  -6.96500 36.63500 37.60200
H  -7.80400 35.45700 38.55900
H  -6.03300 34.44400 38.90500
H  -5.19900 35.80500 39.70900
H  -11.08200 43.96900 38.30500
H  -10.33700 42.43600 37.86100
H  -9.83500 43.34700 39.38600
H  -14.94800 43.17800 41.68500
H  -15.63700 42.90800 39.93200
H  -15.33200 44.48800 40.54200
H  -16.25300 38.70000 41.37100
H  -15.99500 37.12200 43.93300
H  -17.12700 39.02200 43.96400
H  -17.30100 40.25000 42.69300
H  -15.84800 40.32600 43.73300
H  -16.35300 35.30800 42.29500
H  -16.14100 36.46300 40.94300
H  -18.30500 37.53900 42.45700
H  -18.71600 35.85700 42.19200
H  -18.37200 36.99300 40.85200
H  -12.59700 33.24100 44.62500
H  -11.61700 32.07500 43.60700
H  -13.07300 32.74000 42.99900
H  -7.84600 34.00100 40.57200
H  -5.61600 37.52800 43.66100
H  -4.80400 36.06900 43.16900
H  -5.82200 36.14200 44.67200

