158

Mg 54.44600 24.52200 45.00200
C  51.85600 26.94300 44.09000
C  52.36500 22.01400 43.79500
C  57.07300 22.44900 44.93500
C  56.50400 27.23000 45.51100
N  52.40500 24.54600 43.92400
C  51.48900 25.60600 43.83400
C  50.08200 25.03900 43.33600
C  50.27300 23.44900 43.63000
C  51.77700 23.29300 43.82700
C  49.46500 22.85000 44.88100
C  49.78800 25.34400 41.83700
C  48.26800 25.15200 41.49900
H  47.97200 24.89900 40.03000
N  54.65800 22.48300 44.61400
C  53.72300 21.66200 44.04700
C  54.32100 20.37300 43.84000
C  55.67800 20.45800 44.34800
C  55.86200 21.86200 44.59700
C  53.56700 19.15400 43.45600
C  56.67100 19.22000 44.46800
O  56.31100 18.03300 44.28200
C  57.99900 19.35400 44.88100
N  56.54800 24.83300 45.01900
C  57.40900 23.74400 45.16100
C  58.79900 24.33700 45.43500
C  58.65200 25.88500 45.60300
C  57.13100 26.00500 45.40400
C  59.59300 23.64000 46.65000
C  59.48500 26.72900 44.59700
C  58.88000 27.11700 43.23100
N  54.18900 26.56700 45.08300
C  55.13200 27.52500 45.36100
C  54.53900 28.77100 45.45200
C  53.25700 28.63300 44.86200
C  53.13400 27.26500 44.58900
C  55.23800 30.06600 45.71600
C  52.14900 29.40900 44.38500
O  52.01100 30.64800 44.46100
C  51.12200 28.31700 43.85000
C  50.85000 28.64000 42.40900
O  51.67500 28.60900 41.45500
O  49.53300 28.84200 42.26000
C  48.86000 29.17900 40.96800
H  51.62600 21.22300 43.65500
H  57.97100 21.82800 44.93600
H  57.23300 27.98900 45.80200
H  49.39900 25.49700 44.05200
H  50.14200 22.94600 42.67200
H  50.05500 22.06600 45.35500
H  48.54100 22.33900 44.61000
H  49.35700 23.68300 45.57600
H  50.40700 24.69000 41.22300
H  50.10200 26.37300 41.66500
H  47.84100 26.09600 41.83800
H  48.02400 24.28300 42.11000
H  54.06300 18.72300 42.58600
H  52.55300 19.38000 43.12500
H  53.50300 18.32600 44.16300
H  58.42700 18.37500 45.09500
H  58.01300 19.77900 45.88500
H  58.63300 19.93600 44.21100
H  59.30000 24.09800 44.49800
H  58.96100 26.07200 46.63100
H  59.21800 24.08400 47.57200
H  60.68100 23.64300 46.59100
H  59.17600 22.63300 46.62900
H  60.13200 25.97000 44.15600
H  60.05900 27.45400 45.17400
H  58.38400 26.19800 42.92000
H  59.73000 27.39600 42.60900
H  58.17000 27.90700 43.47800
H  55.51000 30.68200 44.85900
H  56.10100 29.88600 46.35600
H  54.59100 30.69300 46.33000
H  50.17100 28.33800 44.38100
H  49.65300 29.80400 40.55800
H  47.99200 29.82600 41.09100
H  48.61900 28.41200 40.23100
Mg 27.03900 49.32700 26.11900
C  25.01900 50.52300 28.78700
C  29.28800 48.16800 28.41600
C  28.93700 48.44400 23.53600
C  24.78300 50.82600 23.87900
N  27.11000 49.33600 28.41500
C  26.14200 49.77100 29.24400
C  26.52600 49.52500 30.71800
C  27.97300 48.84500 30.57800
C  28.16000 48.74300 29.04300
C  29.14400 49.57300 31.27900
C  25.31400 48.75600 31.49200
C  25.00100 49.03400 33.00200
H  25.96800 49.73000 33.99000
N  28.86300 48.44200 26.01300
C  29.66200 47.99600 27.02300
C  30.88200 47.48300 26.47100
C  30.84700 47.65100 25.07100
C  29.49100 48.19500 24.80200
C  31.98500 46.89700 27.44500
C  31.92400 47.26900 24.07800
O  31.74100 47.41200 22.84800
C  33.31300 46.70800 24.55800
N  27.04200 49.81200 24.00700
C  27.82900 49.18700 23.14200
C  27.41400 49.33100 21.66400
C  26.17400 50.21700 21.75500
C  25.96200 50.24200 23.29700
C  28.52000 49.98500 20.74400
C  25.02200 49.65400 20.86000
C  23.95800 48.81800 21.59600
N  25.26600 50.34800 26.16000
C  24.49100 51.03700 25.21900
C  23.35500 51.74300 25.86700
C  23.64700 51.60200 27.22000
C  24.77000 50.72400 27.36200
C  22.35000 52.44000 25.15200
C  23.14000 52.05500 28.56100
O  22.23500 52.79400 28.83900
C  23.93500 51.19600 29.60100
C  24.26100 52.08900 30.70300
O  25.22800 52.84800 30.64300
O  23.25200 52.15000 31.66700
C  23.43400 53.03500 32.80200
H  29.94900 47.79500 29.20100
H  29.42400 47.93500 22.70100
H  23.97500 51.21200 23.25400
H  26.74200 50.52500 31.09300
H  27.88400 47.83800 30.98600
H  29.91500 49.92400 30.59400
H  29.64700 48.96400 32.03100
H  28.70100 50.40800 31.82200
H  25.38800 47.69200 31.27100
H  24.42400 49.02500 30.92300
H  24.68700 48.10900 33.48600
H  24.13500 49.68800 32.90600
H  31.58500 46.65500 28.43000
H  32.73500 47.68700 27.48700
H  32.32700 45.97400 26.97900
H  33.23800 45.65100 24.81400
H  33.60600 47.30600 25.42100
H  34.02000 46.70300 23.72800
H  27.22600 48.32600 21.28700
H  26.43300 51.22800 21.44200
H  29.34700 50.48200 21.25000
H  28.08700 50.67400 20.01900
H  28.76200 49.13600 20.10500
H  25.37700 49.07600 20.00700
H  24.55400 50.54400 20.44100
H  23.03100 49.37900 21.71900
H  24.17700 48.52400 22.62200
H  23.77500 47.86300 21.10300
H  22.50700 53.47300 25.46300
H  21.34200 52.10900 25.40300
H  22.47300 52.27600 24.08100
H  23.27500 50.43200 30.01000
H  24.40100 53.03500 33.30600
H  22.63900 52.82500 33.51700
H  23.16800 54.07100 32.59300

