158

Mg 52.45000 24.42700 45.67200
C  49.85500 26.59700 44.79700
C  50.78800 21.73000 44.62000
C  55.38900 22.62000 45.99500
C  54.48100 27.31300 46.26500
N  50.57000 24.20400 44.76100
C  49.60100 25.18300 44.51800
C  48.19600 24.54500 44.38100
C  48.52400 23.02000 44.50100
C  50.05700 22.97100 44.61100
C  47.91500 22.34800 45.80800
C  47.43800 24.87100 43.03500
C  48.14200 24.68500 41.70000
H  47.50400 23.73600 40.74300
N  52.95000 22.40500 45.44100
C  52.16000 21.46700 44.97700
C  52.86500 20.15500 45.04900
C  54.11200 20.32000 45.68700
C  54.19400 21.82800 45.77200
C  52.22700 18.85000 44.41600
C  55.05600 19.24300 46.06900
O  54.82600 18.08100 45.78600
C  56.30900 19.55200 46.92100
N  54.63300 24.87800 45.97700
C  55.64000 23.97300 46.05400
C  56.99200 24.55100 46.42500
C  56.72300 26.08600 46.29500
C  55.18100 26.13000 46.25000
C  57.53900 24.01400 47.73600
C  57.33200 26.70100 44.92500
C  57.96000 28.10800 45.18300
N  52.20700 26.55000 45.77500
C  53.07400 27.58100 46.04700
C  52.44300 28.85700 45.99800
C  51.15100 28.49500 45.49100
C  51.09500 27.05800 45.37900
C  53.03500 30.12100 46.34100
C  49.89800 29.09600 45.00300
O  49.45500 30.24600 44.97700
C  48.98800 27.85000 44.44500
C  48.74900 28.03400 43.03100
O  49.40800 27.56300 42.08200
O  47.58300 28.74800 42.88800
C  47.06700 28.95300 41.51800
H  50.20200 20.82500 44.44600
H  56.22800 21.94400 46.17400
H  55.02100 28.25400 46.38800
H  47.47500 24.89000 45.12100
H  48.26700 22.45900 43.60200
H  47.88300 21.26800 45.66300
H  46.92200 22.71100 46.07400
H  48.65800 22.41500 46.60300
H  47.06500 25.89500 43.02000
H  46.57800 24.20200 43.05500
H  49.17100 24.34000 41.80600
H  48.04200 25.65800 41.22000
H  51.37500 19.01000 43.75500
H  51.94700 18.16200 45.21300
H  53.01900 18.40300 43.81500
H  56.69700 18.59200 47.26200
H  55.87600 20.15200 47.72100
H  56.95500 20.07500 46.21500
H  57.71000 24.18600 45.69100
H  57.12700 26.70300 47.09900
H  57.36700 22.95200 47.91300
H  56.99700 24.51500 48.53800
H  58.59600 24.25400 47.84900
H  56.62000 26.85900 44.11500
H  58.09200 26.04500 44.50200
H  59.00400 28.19400 44.87900
H  57.82900 28.47000 46.20300
H  57.58700 28.78900 44.41800
H  52.53800 30.89600 45.75800
H  54.11400 30.18000 46.19600
H  52.96700 30.26400 47.42000
H  48.04000 27.75100 44.97300
H  46.94700 28.02200 40.96500
H  47.80500 29.58100 41.02000
H  46.18400 29.58100 41.63900
Mg 47.60900 44.77700 44.01600
C  44.11300 44.66700 43.75500
C  47.59100 41.37600 43.13700
C  50.75800 45.06300 43.56300
C  47.21400 48.41300 44.33200
N  46.05800 43.29800 43.36200
C  44.78900 43.49300 43.33100
C  44.03300 42.33700 42.61500
C  45.04800 41.22900 42.82000
C  46.35700 42.01100 43.16000
C  44.73600 40.20200 43.88700
C  43.78300 42.66000 41.15400
C  42.32900 42.53100 40.66500
H  42.11300 41.68800 39.35000
N  48.95900 43.40200 43.54000
C  48.78700 42.03800 43.18400
C  50.13600 41.51300 42.83900
C  51.05500 42.50400 43.20100
C  50.28400 43.70200 43.43100
C  50.42000 40.06800 42.48200
C  52.57800 42.30800 43.36400
O  53.08000 41.22900 43.04200
C  53.40300 43.47800 43.90700
N  48.82000 46.53900 43.87900
C  50.12000 46.30000 43.86900
C  50.94900 47.59000 44.01500
C  49.83500 48.68200 44.31700
C  48.51300 47.84700 44.11400
C  52.06200 47.48200 45.12200
C  49.86100 49.80800 43.27000
C  49.26600 51.16000 43.73400
N  45.95900 46.30600 44.08300
C  45.97800 47.68600 44.33400
C  44.61200 48.14800 44.32400
C  43.81000 47.02800 44.07500
C  44.69800 45.92200 43.96600
C  44.25300 49.58100 44.59500
C  42.41000 46.55500 43.86100
O  41.28000 47.05200 43.91900
C  42.59200 44.97800 43.63600
C  41.79900 44.14100 44.60900
O  40.84800 43.35100 44.26500
O  42.20900 44.30500 45.89800
C  41.51300 43.66100 46.96500
H  47.63000 40.31500 42.88200
H  51.82400 45.19300 43.36800
H  47.12100 49.49000 44.48700
H  43.14500 42.05900 43.18300
H  45.16500 40.64800 41.90500
H  44.04800 40.54800 44.65900
H  45.67300 39.88100 44.34300
H  44.27700 39.38700 43.32700
H  44.41500 42.08400 40.47800
H  44.05300 43.69900 40.96700
H  41.85200 43.50700 40.56500
H  41.78000 41.87800 41.34300
H  49.71900 39.69000 41.73800
H  50.41400 39.43900 43.37100
H  51.40000 40.01800 42.00600
H  53.49200 44.17900 43.07700
H  54.37200 43.04200 44.15200
H  53.06500 43.89700 44.85400
H  51.46400 47.72700 43.06400
H  49.68100 49.06600 45.32600
H  52.22800 46.47800 45.51300
H  51.68500 48.16400 45.88400
H  53.01500 47.79800 44.69600
H  49.36700 49.45100 42.36600
H  50.89800 50.01900 43.00800
H  48.42700 51.50300 43.12800
H  49.97000 51.98700 43.65200
H  48.86700 51.12800 44.74800
H  44.33500 49.71100 45.67400
H  43.33500 49.93400 44.12400
H  45.11400 50.04400 44.11300
H  42.22200 44.64600 42.66600
H  42.35200 43.35600 47.59000
H  40.86800 42.82700 46.68800
H  41.03400 44.37600 47.63300

