158

Mg 2.61100 -1.32000 43.59100
C  5.97400 -0.46100 43.19300
C  1.86400 1.59600 41.81300
C  -0.41400 -2.54100 43.05700
C  3.71600 -4.49700 44.73300
N  3.78700 0.34300 42.71100
C  5.10900 0.47400 42.67900
C  5.55000 1.67500 41.78200
C  4.26800 2.45200 41.52500
C  3.22300 1.39300 42.02600
C  4.17600 3.83000 42.16500
C  6.15700 1.14000 40.45500
C  6.88100 2.23500 39.63300
H  6.24700 2.73200 38.42000
N  0.94600 -0.47200 42.82600
C  0.82700 0.79100 42.25500
C  -0.51100 1.12600 42.10500
C  -1.24300 -0.01100 42.50100
C  -0.29300 -1.10800 42.79700
C  -1.01700 2.44400 41.62300
C  -2.77500 -0.21100 42.61900
O  -3.58600 0.64300 42.23300
C  -3.42700 -1.37400 43.21900
N  1.87200 -3.39000 43.56000
C  0.48100 -3.50200 43.45000
C  0.18000 -5.03700 43.72000
C  1.56300 -5.65600 44.29500
C  2.41100 -4.44100 44.21800
C  -1.06200 -5.36800 44.69200
C  2.19700 -6.80300 43.43800
C  2.81300 -7.93000 44.30800
N  4.40600 -2.21100 44.16400
C  4.66300 -3.47000 44.57000
C  6.09500 -3.53200 44.87000
C  6.67200 -2.38500 44.39700
C  5.61300 -1.62800 43.87000
C  6.82500 -4.64900 45.52400
C  7.93300 -1.57600 44.21800
O  9.09500 -1.70200 44.62900
C  7.44500 -0.28900 43.40200
C  7.80300 0.83600 44.25000
O  7.17700 1.15900 45.22500
O  8.92900 1.48600 43.81400
C  9.37000 2.73200 44.56400
H  1.63800 2.55300 41.33600
H  -1.42100 -2.96100 43.04200
H  4.16600 -5.44100 45.04500
H  6.29300 2.24100 42.34500
H  4.01000 2.65800 40.48600
H  5.04500 4.06800 42.77900
H  3.27900 3.91500 42.77800
H  4.04400 4.56200 41.36800
H  5.37000 0.75900 39.80400
H  6.83900 0.30300 40.59800
H  7.82600 1.76200 39.36800
H  7.14900 3.06900 40.28100
H  -0.62200 2.56500 40.61400
H  -0.62800 3.10300 42.39900
H  -2.10400 2.42800 41.69700
H  -4.49900 -1.20000 43.30600
H  -3.17100 -1.66400 44.23800
H  -3.19100 -2.18800 42.53500
H  -0.02800 -5.27800 42.67700
H  1.47700 -5.98200 45.33200
H  -1.33000 -4.61700 45.43600
H  -0.95700 -6.30100 45.24500
H  -1.84200 -5.53000 43.94800
H  3.00200 -6.50200 42.76800
H  1.37400 -7.20000 42.84500
H  3.84300 -8.20500 44.07900
H  2.14600 -8.78800 44.23200
H  2.70700 -7.69600 45.36800
H  6.99900 -5.49800 44.86400
H  6.34500 -5.03500 46.42400
H  7.85200 -4.30900 45.65900
H  7.96000 -0.23800 42.44200
H  10.41700 2.64200 44.85500
H  9.00300 2.78800 45.58800
H  9.29100 3.70000 44.07100
Mg 26.80200 50.34000 27.07400
C  24.73900 51.82200 29.69000
C  29.02400 49.66200 29.51300
C  28.72900 49.15600 24.65600
C  24.51400 51.69100 24.73700
N  26.90200 50.85600 29.37300
C  25.92100 51.29200 30.23000
C  26.27800 51.00900 31.69900
C  27.71900 50.33900 31.58800
C  27.91600 50.30700 30.06500
C  28.88500 51.06000 32.29900
C  25.20200 50.19100 32.56100
C  25.55000 49.23400 33.72800
H  24.91200 49.55100 35.16000
N  28.55900 49.44400 27.07400
C  29.36100 49.22300 28.20900
C  30.61400 48.59100 27.80300
C  30.54100 48.54000 26.39200
C  29.23600 49.01400 25.97800
C  31.76700 48.29800 28.74400
C  31.70600 48.07600 25.43800
O  31.56600 48.01000 24.21400
C  33.11100 47.89000 25.87900
N  26.67700 50.42800 24.98100
C  27.50500 49.73300 24.21600
C  26.93900 49.70900 22.77200
C  25.46400 50.30400 22.93800
C  25.58500 50.87800 24.25700
C  27.80500 50.52900 21.82900
C  24.33700 49.21000 22.77500
C  23.10700 49.58200 21.91800
N  25.07400 51.57000 27.10600
C  24.23600 51.97800 26.07100
C  23.13200 52.81900 26.63700
C  23.30400 52.70100 28.00900
C  24.47800 52.00300 28.31100
C  21.94300 53.49400 25.89900
C  22.63200 53.06800 29.29200
O  21.59800 53.67800 29.62200
C  23.59400 52.43200 30.46200
C  24.06900 53.65600 31.19900
O  25.15400 54.24500 31.05800
O  23.15400 53.83900 32.23000
C  23.54600 54.86400 33.19800
H  29.82200 49.29100 30.15900
H  29.24600 48.62200 23.85600
H  23.84900 52.04700 23.94700
H  26.36800 52.02500 32.08200
H  27.75800 49.27100 31.80200
H  28.48200 51.76100 33.03000
H  29.42800 51.58900 31.51500
H  29.47200 50.33700 32.86500
H  24.67400 49.59500 31.81600
H  24.43800 50.90100 32.87700
H  26.61100 49.36300 33.94500
H  25.29600 48.20100 33.49100
H  31.80000 47.25300 29.05100
H  31.84500 48.98700 29.58500
H  32.78200 48.34700 28.35200
H  33.34700 48.87000 26.29300
H  33.77800 47.69600 25.03900
H  33.15400 47.08000 26.60800
H  26.73100 48.72000 22.36400
H  25.22400 51.05400 22.18400
H  28.74500 50.58100 22.37800
H  27.44400 51.54300 21.66300
H  27.81700 50.05300 20.84800
H  23.96700 49.08300 23.79200
H  24.70700 48.23100 22.47000
H  23.09600 48.98600 21.00600
H  22.98700 50.60700 21.56700
H  22.26100 49.27000 22.53200
H  21.93700 53.40700 24.81200
H  21.64900 54.52500 26.09800
H  21.11100 52.89500 26.26800
H  23.15000 51.66400 31.09600
H  23.82800 55.81800 32.75200
H  24.30500 54.42300 33.84400
H  22.79000 55.00500 33.97100

