158

Mg 17.31100 -1.04700 27.46400
C  16.32600 0.65900 30.31200
C  19.51700 -2.82300 29.47200
C  18.88400 -2.36800 24.79700
C  15.79700 1.20600 25.53700
N  17.99000 -0.89300 29.71200
C  17.31700 -0.26500 30.69500
C  17.79100 -0.73500 32.03700
C  18.99000 -1.71800 31.76600
C  18.88800 -1.79700 30.20700
C  20.29500 -1.26000 32.40200
C  16.57900 -1.34500 32.87300
C  16.35100 -0.68300 34.23800
H  17.56500 -0.03000 34.96000
N  18.79700 -2.59800 27.17200
C  19.57700 -3.21300 28.11100
C  20.24800 -4.33900 27.56800
C  20.17100 -4.22900 26.18300
C  19.32400 -2.97400 25.97200
C  20.99200 -5.41200 28.37300
C  20.76200 -5.01200 25.04300
O  20.68800 -4.70900 23.84500
C  21.59600 -6.25700 25.44200
N  17.30900 -0.67900 25.51100
C  18.00800 -1.32300 24.54800
C  17.88400 -0.63700 23.15500
C  16.65700 0.21300 23.37100
C  16.59900 0.31100 24.87900
C  19.25100 0.17300 22.84000
C  15.32500 -0.04500 22.66700
C  14.19300 -0.63000 23.56200
N  16.18400 0.46800 27.82800
C  15.63700 1.34600 26.91200
C  14.78100 2.29600 27.54300
C  15.05800 2.02200 28.89700
C  15.95800 0.93900 29.01400
C  13.94400 3.43200 26.87500
C  14.77400 2.53400 30.18400
O  14.08800 3.48800 30.53900
C  15.56300 1.61000 31.18400
C  16.48600 2.42500 32.11300
O  17.67800 2.65900 32.01200
O  15.75200 2.84200 33.16800
C  16.42900 3.79700 33.95700
H  20.05100 -3.55700 30.07900
H  19.24000 -2.82900 23.87300
H  15.37600 2.00800 24.92700
H  18.08000 0.16600 32.57900
H  18.83900 -2.74500 32.09600
H  21.11200 -1.14900 31.69000
H  20.61500 -2.05500 33.07500
H  20.21300 -0.37400 33.03200
H  16.82600 -2.39300 33.04300
H  15.76200 -1.21700 32.16400
H  16.07800 -1.60300 34.75500
H  15.47400 -0.03500 34.25200
H  21.96500 -5.66000 27.94900
H  20.32500 -6.26800 28.26100
H  21.31500 -5.24500 29.40100
H  22.58500 -5.99500 25.81900
H  21.72100 -6.76900 24.48900
H  20.97300 -6.84500 26.11600
H  17.71800 -1.34100 22.33900
H  16.87300 1.21600 23.00200
H  19.50300 0.16000 21.77900
H  20.12900 -0.22500 23.35000
H  19.07200 1.20900 23.12500
H  15.49900 -0.79600 21.89700
H  15.01100 0.94700 22.34400
H  13.83400 0.12500 24.26100
H  14.61200 -1.48300 24.09500
H  13.28000 -0.78700 22.98700
H  13.55900 3.08600 25.91600
H  14.61600 4.23000 26.56100
H  13.09700 3.80400 27.45100
H  14.90600 1.09500 31.88600
H  16.97200 4.47800 33.30100
H  17.16100 3.38800 34.65200
H  15.80600 4.41100 34.60700
Mg -0.15900 44.03500 26.56900
C  1.98300 43.84900 29.24700
C  -2.92200 43.35500 28.89500
C  -2.50800 43.58400 24.02000
C  2.35300 44.17500 24.30300
N  -0.44100 43.59300 28.81900
C  0.63800 43.65900 29.71000
C  0.07400 43.42600 31.10500
C  -1.41100 43.05800 30.89900
C  -1.58700 43.43400 29.42200
C  -1.88500 41.60700 31.25200
C  0.31900 44.68600 31.95600
C  0.29300 44.55300 33.49400
H  -0.02600 43.22300 34.08500
N  -2.39500 43.55400 26.53300
C  -3.27400 43.32600 27.50900
C  -4.60500 42.98800 27.06500
C  -4.54800 43.34600 25.65400
C  -3.08400 43.50600 25.34000
C  -5.70900 42.56300 27.96100
C  -5.66400 43.52700 24.63300
O  -5.44300 43.59600 23.43900
C  -7.05700 43.57400 25.22800
N  -0.04200 43.76600 24.40600
C  -1.14100 43.74100 23.58600
C  -0.70900 43.73000 22.18100
C  0.72400 44.24300 22.22000
C  1.08300 44.04500 23.70400
C  -0.90900 42.30300 21.64800
C  0.99700 45.65100 21.82000
C  1.61900 45.72800 20.37500
N  1.74600 44.10000 26.69200
C  2.74400 44.23600 25.70100
C  4.01500 44.34600 26.30300
C  3.78400 44.15400 27.72000
C  2.37600 44.03300 27.88600
C  5.32600 44.31700 25.58600
C  4.48200 44.08000 29.01300
O  5.68300 44.08500 29.32400
C  3.29100 43.81300 30.01800
C  3.48300 42.58100 30.68300
O  3.65400 41.53900 30.07900
O  3.69900 42.76300 32.01300
C  4.24500 41.59500 32.73200
H  -3.67100 43.14900 29.66300
H  -3.11500 43.48800 23.11700
H  3.13300 44.39800 23.57200
H  0.61000 42.57900 31.53400
H  -2.00200 43.77900 31.46400
H  -2.08500 41.02700 30.35100
H  -2.86300 41.60500 31.73400
H  -1.07300 41.20900 31.86000
H  -0.49800 45.37900 31.75800
H  1.24500 45.16500 31.63800
H  -0.35100 45.30100 33.95500
H  1.28700 44.85300 33.82700
H  -5.39500 42.30400 28.97200
H  -6.34900 41.81900 27.48700
H  -6.37100 43.41900 28.09300
H  -7.30500 44.55200 25.64000
H  -7.32200 42.73200 25.86800
H  -7.74000 43.49000 24.38300
H  -1.40500 44.42800 21.71600
H  1.36400 43.54400 21.68100
H  -1.92900 42.14200 21.29800
H  -0.62400 41.56500 22.39700
H  -0.25500 42.24300 20.77800
H  1.59900 46.15600 22.57500
H  0.05000 46.19000 21.85700
H  1.24400 46.66600 19.96700
H  1.35200 44.87900 19.74600
H  2.66200 46.00000 20.53300
H  5.06100 44.67400 24.59100
H  5.68000 43.28700 25.57400
H  6.02800 44.96400 26.11200
H  3.24800 44.61600 30.75300
H  5.31800 41.70100 32.57300
H  3.93400 40.56800 32.54000
H  4.03800 41.90400 33.75700

