158

Mg 5.44500 54.39100 39.99500
C  5.99500 50.85200 40.01800
C  8.83100 54.70600 39.29000
C  4.92400 57.58700 39.27800
C  2.17800 53.87100 40.61900
N  7.17000 52.91100 39.68400
C  7.13600 51.55500 39.68600
C  8.49200 50.96600 39.48300
C  9.42000 52.23600 39.73200
C  8.44800 53.36500 39.51700
C  10.25700 52.22800 41.06900
C  8.74100 50.27400 38.06200
C  8.70800 51.17000 36.80300
H  7.63900 50.98100 35.73200
N  6.67000 55.89500 39.28200
C  8.03800 55.86800 39.15300
C  8.55000 57.16100 38.79600
C  7.41600 58.02100 38.73400
C  6.28200 57.18100 39.05100
C  9.97700 57.59100 38.60100
C  7.43500 59.50300 38.33000
O  8.51300 59.97600 37.97400
C  6.24100 60.38200 38.17000
N  3.70700 55.49800 39.57900
C  3.78100 56.83400 39.52100
C  2.42000 57.52100 39.86500
C  1.52700 56.22300 40.15600
C  2.55200 55.12200 40.14600
C  2.43000 58.54500 41.04300
C  0.47900 55.96600 39.05200
C  -0.95700 56.36900 39.29100
N  4.26800 52.75900 40.25000
C  2.93000 52.67100 40.57900
C  2.54800 51.29400 40.95000
C  3.69800 50.55500 40.71500
C  4.71900 51.45300 40.24800
C  1.24300 50.80400 41.60400
C  4.27500 49.19000 40.83800
O  3.80800 48.12600 41.21300
C  5.74000 49.33500 40.23500
C  5.72100 48.51100 38.98900
O  5.15100 48.79500 37.92700
O  6.37100 47.27900 39.22300
C  6.66400 46.46900 38.01100
H  9.90500 54.78000 39.10500
H  4.63600 58.64000 39.26600
H  1.16800 53.72000 41.00700
H  8.74200 50.14200 40.15000
H  10.20000 52.41400 38.99100
H  11.32400 52.43100 40.97600
H  10.21800 51.23900 41.52700
H  9.71000 52.94300 41.68300
H  7.98000 49.52600 37.83800
H  9.70600 49.77100 38.12100
H  9.72200 51.07000 36.41500
H  8.61600 52.21100 37.11000
H  10.72300 56.81100 38.75400
H  10.20700 58.30300 39.39300
H  10.04100 58.09000 37.63400
H  6.49400 61.26000 37.57400
H  5.97600 60.64300 39.19400
H  5.45100 59.86900 37.62200
H  1.98200 58.05200 39.02000
H  0.95900 56.21400 41.08600
H  2.93500 59.48500 40.82000
H  2.84300 58.02700 41.90800
H  1.39900 58.79300 41.29400
H  0.54200 54.93100 38.71700
H  0.79000 56.43700 38.11900
H  -1.51800 55.64700 38.69700
H  -1.11800 57.34800 38.84000
H  -1.20400 56.30600 40.35100
H  0.83900 51.67900 42.11300
H  1.37000 50.04000 42.37100
H  0.49100 50.49300 40.87900
H  6.42300 48.85400 40.93600
H  5.87700 46.33100 37.27000
H  7.10900 45.50300 38.25200
H  7.44800 47.02400 37.49500
Mg -4.88600 25.34200 27.57000
C  -3.52000 26.47500 30.50300
C  -6.85400 23.06100 29.49700
C  -5.76600 23.73800 24.80800
C  -2.72900 27.29300 25.78800
N  -5.23400 24.91100 29.72000
C  -4.55300 25.55700 30.70900
C  -5.05300 25.20900 32.10900
C  -5.95200 23.97100 31.91800
C  -6.05900 23.96000 30.31700
C  -5.34600 22.62300 32.48200
C  -5.79200 26.43200 32.77600
C  -5.58600 26.65100 34.25300
H  -5.07400 25.51600 35.12900
N  -6.22400 23.66100 27.14000
C  -6.94000 22.89000 28.05600
C  -7.85700 22.04600 27.28900
C  -7.62900 22.26200 25.92600
C  -6.54200 23.22400 25.88000
C  -8.95000 21.09700 27.98800
C  -8.20900 21.57100 24.68900
O  -7.76600 21.76100 23.57200
C  -9.43300 20.71300 24.75700
N  -4.40600 25.57300 25.54400
C  -4.77300 24.70700 24.60400
C  -4.21100 25.10000 23.24100
C  -3.30900 26.42500 23.56000
C  -3.49800 26.45400 25.02900
C  -3.32400 23.99300 22.56900
C  -3.75500 27.70000 22.82200
C  -2.77200 28.32700 21.87600
N  -3.46900 26.61800 28.00500
C  -2.65000 27.37300 27.18200
C  -1.81700 28.23200 27.94100
C  -2.04400 27.85300 29.21600
C  -3.06200 26.83400 29.22600
C  -0.89000 29.21400 27.38900
C  -1.78200 28.21700 30.66200
O  -0.98000 28.96900 31.19900
C  -2.71600 27.26200 31.44700
C  -1.86300 26.45000 32.33100
O  -0.99500 25.71800 31.95600
O  -2.11500 26.78500 33.61800
C  -1.08900 26.39600 34.57500
H  -7.37400 22.20000 29.92200
H  -5.95500 23.18400 23.88700
H  -1.98100 27.78200 25.16000
H  -4.11700 24.98000 32.61900
H  -6.97900 24.04400 32.27500
H  -4.61800 22.84000 33.26300
H  -4.88900 22.00800 31.70600
H  -6.20500 22.07500 32.87100
H  -6.85000 26.16900 32.78800
H  -5.82100 27.33200 32.16100
H  -6.52400 26.85200 34.77100
H  -4.88900 27.45400 34.49100
H  -9.04000 20.18400 27.40000
H  -9.91600 21.60100 27.97100
H  -8.69600 20.93000 29.03500
H  -10.23600 20.99100 25.43900
H  -8.98800 19.73700 24.95000
H  -9.80300 20.71000 23.73100
H  -5.05800 25.36300 22.60800
H  -2.28400 26.20000 23.26200
H  -2.41900 23.95900 23.17600
H  -3.31200 24.28700 21.52000
H  -3.75000 23.01700 22.80300
H  -4.03400 28.46500 23.54600
H  -4.73800 27.57200 22.36700
H  -1.85700 27.74600 21.76100
H  -2.51000 29.35300 22.13500
H  -3.25800 28.21700 20.90700
H  0.18100 29.05500 27.50900
H  -0.95900 30.13300 27.97100
H  -1.17700 29.56700 26.39800
H  -3.35400 27.90000 32.05800
H  -0.83700 25.33500 34.59500
H  -1.43400 26.79000 35.53100
H  -0.17300 26.96600 34.42000

