158

Mg 27.26200 50.46800 25.55400
C  25.25800 51.82700 28.13800
C  29.47500 49.41800 28.05600
C  28.92500 49.07300 23.22600
C  24.90300 51.72300 23.23200
N  27.28100 50.56600 27.85900
C  26.34400 51.16700 28.64900
C  26.75300 50.95400 30.15300
C  28.16700 50.39800 30.13500
C  28.32300 50.11800 28.60500
C  29.24500 51.46500 30.58000
C  25.79800 49.99400 30.99800
C  25.01400 50.67100 32.16300
H  25.80200 51.03000 33.52200
N  29.04100 49.49500 25.60100
C  29.79300 49.12300 26.69800
C  30.94700 48.39300 26.16200
C  30.75700 48.11300 24.78600
C  29.57000 48.94100 24.46300
C  32.02900 47.81300 27.03800
C  31.40600 47.07800 23.87600
O  31.05200 46.91900 22.70100
C  32.36000 46.11400 24.40500
N  27.01500 50.46100 23.52700
C  27.78700 49.84300 22.68200
C  27.35800 49.86500 21.24300
C  25.86800 50.30600 21.32700
C  25.89900 50.88500 22.79100
C  28.22400 50.93600 20.46200
C  24.74200 49.26900 21.22100
C  25.11900 47.77100 21.05200
N  25.48400 51.59000 25.59100
C  24.65700 52.06500 24.59700
C  23.65400 52.90300 25.12400
C  23.78700 52.81900 26.49300
C  24.91700 51.97700 26.78100
C  22.60900 53.67100 24.43300
C  23.19400 53.20400 27.73500
O  22.19800 53.79800 28.03600
C  24.17600 52.63300 28.88200
C  24.73000 53.77000 29.69100
O  25.66000 54.50300 29.28400
O  24.00800 53.92400 30.81200
C  24.42800 54.97900 31.73500
H  30.23500 49.20000 28.81000
H  29.45900 48.73100 22.33600
H  24.14600 51.92100 22.47100
H  26.63600 51.91400 30.65400
H  28.42500 49.50100 30.69700
H  28.82400 52.38900 30.97800
H  29.78400 51.83600 29.70800
H  29.93100 50.99500 31.28400
H  26.29600 49.13500 31.44900
H  25.14900 49.53300 30.25300
H  24.27400 49.91900 32.43700
H  24.44000 51.56400 31.91600
H  33.00800 47.88000 26.56400
H  31.99700 46.73500 27.19900
H  32.11400 48.21200 28.04800
H  32.71300 45.53600 23.55100
H  31.70300 45.50300 25.02500
H  33.28400 46.49700 24.83700
H  27.45400 48.92500 20.70000
H  25.62500 51.17400 20.71300
H  27.70200 51.32100 19.58600
H  29.21200 50.59600 20.15300
H  28.24800 51.77700 21.15600
H  24.05200 49.48400 20.40500
H  24.11700 49.38900 22.10600
H  25.57700 47.55300 22.01600
H  25.78900 47.41500 20.27000
H  24.16500 47.24300 21.05400
H  21.96500 53.14100 23.73100
H  23.04600 54.56200 23.98200
H  22.02700 54.06500 25.26700
H  23.62000 52.14300 29.68200
H  25.39900 54.66200 32.11500
H  23.70100 55.13900 32.53100
H  24.71600 55.89500 31.21800
Mg -10.01800 16.96600 40.44500
C  -6.60900 16.84400 40.54400
C  -9.76700 20.35800 39.57300
C  -13.40000 17.04400 39.95900
C  -10.05800 13.48900 40.44500
N  -8.35200 18.34600 39.96100
C  -7.07600 18.05000 40.10500
C  -6.26500 19.22300 39.53500
C  -7.17000 20.43900 39.74400
C  -8.50400 19.71300 39.75300
C  -6.95000 21.30900 40.98700
C  -5.79100 18.94200 38.07100
C  -4.37800 18.61500 37.66000
H  -4.14500 17.22900 37.01400
N  -11.38200 18.53400 39.92200
C  -11.08300 19.86600 39.54600
C  -12.30800 20.56900 39.28300
C  -13.37600 19.61400 39.44900
C  -12.72100 18.33200 39.82200
C  -12.27700 22.02200 38.99900
C  -14.79100 19.91200 39.36000
O  -15.10400 21.08400 39.13600
C  -15.87000 18.96200 39.59200
N  -11.47900 15.49300 40.18700
C  -12.85600 15.76700 40.06300
C  -13.68500 14.47500 39.98300
C  -12.51000 13.33500 39.95300
C  -11.25600 14.16500 40.19800
C  -14.67100 14.23600 41.10800
C  -12.33000 12.57000 38.58200
C  -12.39500 11.00400 38.63600
N  -8.67500 15.36900 40.57100
C  -8.82700 14.09400 40.64100
C  -7.46200 13.46200 40.98600
C  -6.58300 14.54100 41.06600
C  -7.37000 15.63200 40.70800
C  -7.30300 11.99400 41.20600
C  -5.20900 14.94900 41.25600
O  -4.25700 14.26300 41.66500
C  -5.10900 16.42700 40.82400
C  -4.62600 17.36500 41.93400
O  -5.30200 18.17500 42.53600
O  -3.32900 17.10800 42.24300
C  -2.73800 18.01100 43.24000
H  -9.60500 21.38900 39.25100
H  -14.44700 17.01300 39.65100
H  -10.18500 12.40500 40.47200
H  -5.38000 19.24900 40.17100
H  -7.25700 21.17200 38.94200
H  -6.04800 21.00600 41.51800
H  -7.80200 21.18000 41.65500
H  -6.75600 22.34300 40.70500
H  -6.02300 19.79500 37.43400
H  -6.41600 18.16000 37.64000
H  -3.75500 18.72000 38.54800
H  -4.14500 19.32500 36.86700
H  -12.25200 22.59300 39.92700
H  -13.03100 22.25300 38.24700
H  -11.32800 22.28300 38.52900
H  -15.70100 18.51800 40.57300
H  -15.86100 18.20200 38.81000
H  -16.84600 19.44500 39.56600
H  -14.27800 14.46100 39.06800
H  -12.67200 12.64200 40.77900
H  -14.47300 14.93900 41.91700
H  -14.55400 13.20300 41.43400
H  -15.71100 14.48300 40.89200
H  -11.34200 12.78700 38.17400
H  -13.00900 12.91400 37.80200
H  -12.00800 10.70800 39.61100
H  -11.63900 10.58200 37.97300
H  -13.39800 10.62300 38.44500
H  -6.47100 11.66100 41.82700
H  -7.15100 11.46600 40.26500
H  -8.12200 11.51300 41.74100
H  -4.53100 16.53800 39.90700
H  -2.80400 18.98600 42.75700
H  -1.69400 17.91700 43.54100
H  -3.36100 17.99200 44.13400

