158

Mg 25.60200 51.70900 26.55300
C  23.17100 52.53900 29.03500
C  27.72600 50.69500 29.14100
C  28.08400 51.24600 24.41100
C  23.53700 52.94400 24.03800
N  25.49100 51.77400 28.85900
C  24.35600 52.00500 29.56900
C  24.66200 51.60300 30.98500
C  26.13100 51.06500 31.02100
C  26.51800 51.18100 29.57400
C  27.10800 51.72200 32.10800
C  23.67000 50.60100 31.58000
C  22.98700 51.06500 32.83400
H  23.14200 50.25600 34.11600
N  27.63900 51.08300 26.74100
C  28.28300 50.68200 27.89400
C  29.66700 50.35900 27.55100
C  29.80400 50.38200 26.12600
C  28.47000 50.92800 25.72100
C  30.55000 49.66900 28.58700
C  31.01000 49.97900 25.26200
O  31.12100 50.06000 24.00800
C  32.32200 49.40200 25.93600
N  25.75300 52.00800 24.52000
C  26.87600 51.76500 23.94500
C  26.66000 51.89400 22.43500
C  25.23600 52.42600 22.29400
C  24.76100 52.41700 23.67700
C  27.70300 52.82100 21.66000
C  24.36500 51.55000 21.35800
C  23.36100 52.30100 20.48200
N  23.76000 52.53600 26.48800
C  23.06200 53.06700 25.37000
C  21.74300 53.51200 25.88800
C  21.79400 53.33500 27.29100
C  22.97100 52.71600 27.60600
C  20.63800 53.98400 25.06800
C  20.97200 53.42100 28.45000
O  19.80600 53.75200 28.51000
C  21.82400 52.90400 29.62100
C  22.10000 54.01700 30.53300
O  22.56200 55.10300 30.22200
O  21.51300 53.64900 31.71800
C  21.26500 54.87200 32.54900
H  28.40700 50.32700 29.91100
H  28.80400 51.18300 23.59200
H  22.91400 53.41000 23.27200
H  24.63700 52.53200 31.55500
H  26.24100 49.98500 30.92400
H  27.55500 50.93300 32.71300
H  26.51800 52.44100 32.67800
H  27.85500 52.27000 31.53400
H  24.18000 49.66500 31.81000
H  22.94500 50.47400 30.77600
H  21.91700 51.05900 32.62700
H  23.21500 52.11200 33.03100
H  30.59100 48.58600 28.47000
H  30.39500 49.91500 29.63700
H  31.54700 50.02500 28.33000
H  32.05300 48.55500 26.56600
H  32.81000 50.20500 26.48800
H  33.06700 49.05600 25.21800
H  26.73100 50.87600 22.05100
H  25.25500 53.45700 21.94100
H  27.13000 53.55100 21.08800
H  28.41300 52.28300 21.03300
H  28.31500 53.38200 22.36600
H  23.94200 50.77700 22.00000
H  25.01000 51.04300 20.64100
H  23.48400 52.07800 19.42200
H  23.37700 53.37200 20.68600
H  22.36900 51.95100 20.76700
H  19.78800 53.63100 25.65100
H  20.68000 53.55300 24.06800
H  20.44600 55.05300 24.97500
H  21.36100 52.03400 30.08600
H  21.45100 55.84900 32.10300
H  21.70300 54.84700 33.54600
H  20.21800 54.88600 32.84900
Mg -2.19000 34.18100 27.67100
C  -3.50400 32.48500 30.47500
C  -0.72800 36.43200 29.77900
C  -1.62400 36.13400 25.06700
C  -3.83700 31.94500 25.63700
N  -2.09200 34.43600 29.84300
C  -2.70000 33.57300 30.78600
C  -2.35900 34.01300 32.18200
C  -1.44100 35.24100 31.96600
C  -1.39400 35.40600 30.46000
C  -1.75900 36.58900 32.70200
C  -1.80500 32.97100 33.19900
C  -2.46900 32.74600 34.56500
H  -1.52900 32.66500 35.72100
N  -1.29800 36.08800 27.43500
C  -0.65900 36.79700 28.38800
C  -0.12000 38.02900 27.86500
C  -0.52000 38.01800 26.48700
C  -1.11500 36.67400 26.25300
C  0.66800 38.95000 28.69100
C  -0.35300 39.16900 25.49800
O  -0.81200 38.98400 24.36600
C  0.30000 40.53200 25.78000
N  -2.84300 34.10900 25.54100
C  -2.32700 34.95800 24.72000
C  -2.43200 34.49800 23.30000
C  -3.06500 33.05800 23.42200
C  -3.28300 33.01100 24.95000
C  -3.30500 35.39700 22.38200
C  -2.12000 31.85000 22.80500
C  -0.82200 31.57100 23.53800
N  -3.39300 32.50800 27.93800
C  -3.97400 31.67500 27.01400
C  -4.65200 30.61300 27.65800
C  -4.44600 30.86100 29.00200
C  -3.78400 32.08000 29.15600
C  -5.47400 29.56600 27.07900
C  -4.88100 30.46000 30.34400
O  -5.68200 29.57300 30.74100
C  -4.26200 31.50700 31.31100
C  -5.45500 32.14500 31.99800
O  -6.46600 32.52400 31.46700
O  -5.27700 32.10100 33.34100
C  -6.43100 32.54500 34.16400
H  -0.23900 37.15300 30.43800
H  -1.36100 36.73700 24.19500
H  -4.23800 31.16800 24.98300
H  -3.24800 34.33900 32.72200
H  -0.39800 35.04500 32.21600
H  -0.84600 36.84400 33.24000
H  -2.49200 36.33400 33.46800
H  -1.94800 37.48400 32.10900
H  -0.73100 33.12300 33.30500
H  -1.84900 32.00500 32.69600
H  -3.03400 31.81900 34.47700
H  -3.06200 33.62400 34.82100
H  1.60000 38.97000 28.12700
H  0.95700 38.67800 29.70600
H  0.23700 39.94700 28.78000
H  1.33800 40.43800 26.10100
H  -0.28100 40.96400 26.59400
H  0.29800 41.24800 24.95700
H  -1.47000 34.30400 22.82700
H  -4.08600 33.00600 23.04500
H  -3.92800 34.82600 21.69400
H  -2.72100 36.07200 21.75500
H  -3.86600 36.16600 22.91400
H  -1.87600 32.10500 21.77400
H  -2.70400 30.93300 22.73300
H  -0.60300 32.29700 24.32100
H  0.05600 31.64400 22.89700
H  -0.85600 30.56800 23.96400
H  -5.60700 28.78000 27.82200
H  -4.99400 29.21200 26.16700
H  -6.46800 29.97100 26.88600
H  -3.61900 31.00800 32.03600
H  -7.19800 31.77900 34.27100
H  -6.85700 33.47300 33.78200
H  -6.11300 32.78600 35.17900

