158

Mg 49.83200 44.66200 40.37900
C  46.47400 44.91100 39.22700
C  49.86400 41.44600 39.26200
C  53.15500 44.71900 40.58700
C  49.72800 48.24400 40.69100
N  48.31500 43.39000 39.33000
C  47.05000 43.69000 38.92900
C  46.45900 42.67000 38.06800
C  47.35600 41.37400 38.42700
C  48.60100 42.07400 39.11200
C  46.73100 40.23500 39.37200
C  46.32500 43.02300 36.63800
C  44.99600 42.84400 35.99500
H  44.72400 43.52000 34.57900
N  51.29000 43.22100 40.13200
C  51.09100 41.89100 39.72300
C  52.37300 41.17300 39.75100
C  53.35600 42.10500 40.27300
C  52.64700 43.45400 40.35200
C  52.53300 39.75800 39.39400
C  54.78900 41.84200 40.65900
O  55.20900 40.74300 40.50700
C  55.67700 42.93000 41.24700
N  51.28100 46.26200 40.48800
C  52.57300 45.98800 40.72900
C  53.41500 47.24500 41.03000
C  52.28100 48.35500 41.07800
C  50.99900 47.57800 40.73000
C  54.52700 47.26300 42.13600
C  52.49300 49.68100 40.17800
C  52.09200 51.06100 40.86500
N  48.37800 46.28300 40.23800
C  48.50400 47.65500 40.38700
C  47.20500 48.29300 40.20100
C  46.36800 47.24900 39.82100
C  47.09000 46.05400 39.83100
C  46.75700 49.76300 40.27900
C  45.01400 46.96900 39.32900
O  44.05800 47.64500 39.12700
C  45.10200 45.45200 38.85100
C  43.95900 44.71600 39.48100
O  43.10600 44.16500 38.82000
O  43.85000 45.08300 40.86500
C  42.48000 44.88400 41.51400
H  50.03300 40.38100 39.09000
H  54.24600 44.75000 40.55200
H  49.84100 49.32700 40.76900
H  45.47800 42.40700 38.46300
H  47.70900 40.81800 37.55800
H  46.53800 39.31000 38.83000
H  45.72100 40.51500 39.67400
H  47.29100 40.01600 40.28100
H  47.01800 42.37300 36.10400
H  46.68000 44.01000 36.34300
H  44.18800 43.19100 36.63800
H  45.05300 41.75900 35.90600
H  53.24100 39.52400 38.59800
H  51.62800 39.20600 39.14100
H  52.98600 39.35800 40.30100
H  55.23400 43.35100 42.15000
H  55.96500 43.65000 40.48200
H  56.65900 42.59800 41.58400
H  53.98400 47.37300 40.10900
H  52.07600 48.57700 42.12500
H  54.29400 47.99600 42.90800
H  55.56500 47.36500 41.82100
H  54.46200 46.26600 42.57200
H  51.85900 49.50500 39.30900
H  53.51400 49.89900 39.86400
H  51.49700 50.96400 41.77400
H  51.41200 51.56900 40.18100
H  52.96200 51.68700 41.06500
H  45.93600 49.77100 40.99600
H  46.51800 50.12700 39.28000
H  47.55400 50.40500 40.65400
H  44.91300 45.39500 37.78000
H  42.60600 43.90600 41.97800
H  41.65000 45.05200 40.82800
H  42.48200 45.62100 42.31600
Mg 17.10500 52.21900 26.55500
C  18.89400 50.86300 29.36000
C  14.60800 53.08500 28.81300
C  15.56700 53.34100 24.07500
C  19.64600 50.88300 24.51600
N  16.81800 52.12300 28.83900
C  17.64600 51.51900 29.72800
C  17.17900 51.79100 31.14300
C  15.69800 52.24400 30.95100
C  15.69700 52.51100 29.48500
C  14.53800 51.25600 31.31700
C  18.17400 52.88700 31.81700
C  18.22500 52.71100 33.38000
H  17.10900 51.99700 34.11900
N  15.34400 53.15100 26.44900
C  14.44000 53.40500 27.46700
C  13.25100 54.02900 26.87700
C  13.47400 54.15100 25.43800
C  14.83800 53.51400 25.23100
C  12.17900 54.59900 27.72400
C  12.60200 54.71400 24.31200
O  13.05700 54.78600 23.14800
C  11.24100 55.28700 24.59900
N  17.52800 51.99600 24.53600
C  16.74800 52.80400 23.72100
C  17.40000 53.00900 22.33900
C  18.79700 52.21300 22.50900
C  18.69600 51.67700 23.94900
C  16.51100 52.64700 21.09000
C  20.03700 53.02000 22.40800
C  21.29300 52.17800 21.92300
N  18.94100 51.00200 26.84200
C  19.81500 50.59500 25.90200
C  20.95200 49.95800 26.55000
C  20.60100 50.00300 27.94200
C  19.39200 50.68100 28.06200
C  22.16300 49.40600 25.78500
C  21.02700 49.63100 29.27500
O  22.08200 49.09600 29.72200
C  19.99300 50.29300 30.25200
C  19.45300 49.27600 31.16700
O  18.70800 48.36900 30.83400
O  19.90200 49.53400 32.44500
C  19.42700 48.63200 33.56600
H  13.70100 53.29600 29.38300
H  15.08500 53.84300 23.23300
H  20.53500 50.50600 24.00500
H  17.32800 50.84400 31.66200
H  15.55200 53.15400 31.53200
H  15.04200 50.38100 31.72900
H  14.05600 51.03200 30.36600
H  13.82400 51.65300 32.03900
H  17.64900 53.80700 31.56300
H  19.16900 52.84200 31.37300
H  18.31900 53.76300 33.65200
H  19.18700 52.23200 33.56300
H  11.41100 55.29500 27.38700
H  12.66500 55.02400 28.60200
H  11.68900 53.72500 28.15400
H  10.56700 54.53500 25.01000
H  10.82300 55.60200 23.64300
H  11.12000 56.14100 25.26600
H  17.53200 54.08700 22.25200
H  18.81800 51.32800 21.87400
H  16.91700 51.98400 20.32600
H  16.03600 53.53600 20.67500
H  15.65000 52.14600 21.53300
H  20.31100 53.33000 23.41700
H  19.97500 53.78600 21.63400
H  22.13900 52.45200 22.55200
H  21.35700 52.48400 20.87900
H  21.25300 51.09900 21.76800
H  22.29000 49.76000 24.76200
H  22.06700 48.32500 25.88800
H  23.05200 49.70700 26.33900
H  20.51600 51.02800 30.86500
H  20.13900 47.83500 33.78100
H  18.44500 48.21500 33.34200
H  19.24200 49.25000 34.44500

