158

Mg 24.55800 -7.20600 47.07900
C  26.61600 -4.69700 45.61700
C  22.17400 -6.36400 44.63500
C  23.14600 -10.14400 47.62500
C  27.54000 -8.29600 48.71800
N  24.49100 -5.63400 45.34300
C  25.41700 -4.83600 44.91900
C  24.94800 -4.04300 43.63600
C  23.40200 -4.34100 43.70100
C  23.32400 -5.53600 44.60300
C  22.56500 -3.11700 44.09500
C  25.64700 -4.17400 42.23400
C  26.19400 -2.85100 41.60200
H  25.65400 -2.58700 40.20600
N  22.80500 -7.98700 46.48300
C  22.00000 -7.53000 45.47100
C  20.83000 -8.49700 45.30900
C  21.06900 -9.52200 46.28800
C  22.39800 -9.24200 46.86400
C  19.70200 -8.42500 44.36200
C  20.20900 -10.70800 46.44900
O  19.21000 -10.78900 45.80900
C  20.43000 -11.73100 47.53400
N  25.24300 -8.93200 47.96500
C  24.44700 -10.03700 48.14100
C  25.22200 -11.13300 48.95000
C  26.61600 -10.59300 49.19600
C  26.43800 -9.16900 48.69700
C  24.51500 -11.71000 50.24200
C  27.76000 -11.45600 48.54800
C  28.87500 -12.01200 49.44200
N  26.60600 -6.56100 47.39000
C  27.58800 -7.10400 48.10600
C  28.76700 -6.21000 48.04500
C  28.41800 -5.28800 47.09700
C  27.11100 -5.55600 46.63900
C  30.10200 -6.36000 48.74800
C  28.90000 -4.17200 46.39500
O  30.04100 -3.67300 46.47100
C  27.76400 -3.68500 45.41800
C  27.23600 -2.30200 45.92400
O  26.86200 -2.06700 47.03000
O  27.47800 -1.39100 44.97400
C  27.34200 0.04400 45.35900
H  21.36300 -6.09700 43.95500
H  22.78800 -11.09200 48.03100
H  28.30900 -8.92000 49.17800
H  25.10200 -2.98400 43.84400
H  23.08700 -4.63400 42.70000
H  21.86900 -3.49500 44.84400
H  22.03900 -2.83400 43.18300
H  23.16200 -2.28800 44.47600
H  24.96500 -4.58600 41.49100
H  26.53700 -4.78100 42.40200
H  27.28000 -2.84800 41.69800
H  25.92400 -2.00300 42.23100
H  19.66700 -7.44100 43.89400
H  18.75900 -8.50100 44.90300
H  19.68200 -9.10300 43.50900
H  21.28300 -12.37800 47.32900
H  19.58600 -12.42000 47.51800
H  20.49600 -11.23400 48.50200
H  25.28500 -11.99900 48.29200
H  26.78100 -10.50500 50.27000
H  23.67600 -11.02900 50.38700
H  25.17700 -11.53300 51.08900
H  24.13800 -12.72700 50.13000
H  28.11700 -10.95200 47.65000
H  27.29500 -12.34000 48.11100
H  28.42800 -12.90600 49.87500
H  29.01200 -11.21700 50.17500
H  29.85200 -12.20300 48.99800
H  29.92700 -6.43000 49.82200
H  30.78400 -5.51800 48.63300
H  30.56900 -7.26900 48.36800
H  28.06400 -3.55900 44.37800
H  27.31100 0.65500 44.45700
H  28.19800 0.29500 45.98700
H  26.50600 0.20400 46.04000
Mg 41.87200 40.68700 27.06300
C  41.13200 43.27800 29.25800
C  42.45800 38.67000 29.72700
C  42.97200 38.46200 24.99100
C  41.71500 43.09400 24.38800
N  41.89300 40.98400 29.18100
C  41.54900 42.07700 29.93200
C  41.37600 41.88900 31.42700
C  41.85900 40.38000 31.56600
C  42.16600 39.99400 30.07100
C  43.09400 40.06000 32.43400
C  39.92700 42.14000 32.03700
C  39.61300 41.65700 33.45500
H  39.05300 42.71000 34.47600
N  42.50200 38.84400 27.32100
C  42.67200 38.09900 28.42900
C  43.08800 36.71900 28.10200
C  42.95800 36.62600 26.71800
C  42.82800 38.02700 26.31200
C  43.39800 35.73300 29.23900
C  42.92200 35.45400 25.81900
O  42.66800 35.68100 24.57100
C  43.10000 34.13300 26.41000
N  42.38100 40.85100 24.92500
C  42.81700 39.70400 24.36400
C  42.95500 39.88700 22.85500
C  42.38400 41.33700 22.63800
C  42.17400 41.80900 24.02400
C  44.30300 39.61600 22.14300
C  41.15100 41.49300 21.70900
C  39.81700 41.20600 22.40200
N  41.48100 42.72600 26.81200
C  41.40500 43.56600 25.69700
C  40.89700 44.88700 26.12300
C  40.81100 44.81900 27.53500
C  41.16000 43.51800 27.85700
C  40.59500 46.07400 25.24000
C  40.50400 45.57900 28.72300
O  40.23400 46.75800 28.85000
C  40.67300 44.60800 29.91700
C  41.74500 45.24600 30.71500
O  42.95400 44.92500 30.66800
O  41.16500 46.13900 31.55800
C  42.13700 46.70700 32.48600
H  42.42900 37.95200 30.54900
H  43.34300 37.77100 24.23200
H  41.44800 43.76700 23.57000
H  42.14400 42.42700 31.98400
H  41.05000 39.71900 31.87900
H  43.74800 40.92700 32.52800
H  43.76000 39.26400 32.10100
H  42.74100 39.77700 33.42600
H  39.07400 41.77700 31.46300
H  39.68200 43.20200 32.03500
H  40.60900 41.47400 33.85900
H  39.00500 40.75200 33.46500
H  43.41100 36.02900 30.28800
H  44.37600 35.30000 29.03200
H  42.74100 34.86600 29.30100
H  42.26900 33.84400 27.05400
H  44.08300 34.00100 26.86000
H  43.15200 33.38200 25.62200
H  42.32600 39.14100 22.37000
H  43.16300 41.96000 22.19900
H  44.57300 40.49900 21.56400
H  44.17700 38.73300 21.51600
H  45.09900 39.33600 22.83400
H  41.34600 40.78800 20.90100
H  41.20300 42.52500 21.36300
H  39.83100 40.54400 23.26800
H  39.15800 40.68900 21.70400
H  39.20400 42.10000 22.51800
H  39.55200 45.99600 24.93300
H  41.13900 46.08900 24.29600
H  40.90800 46.94300 25.82000
H  39.68100 44.64300 30.36700
H  42.99200 47.27100 32.11500
H  42.43100 45.83600 33.07100
H  41.63200 47.37900 33.18000

