158

Mg 26.24700 -0.68900 29.32000
C  28.30800 -1.19300 32.25700
C  23.61300 -0.17900 31.53600
C  24.16400 -0.60700 26.69600
C  28.83100 -1.89500 27.41000
N  26.03500 -0.58200 31.66300
C  26.99600 -0.68100 32.60400
C  26.48200 -0.31500 34.01200
C  24.91200 -0.01900 33.70600
C  24.81600 -0.34300 32.19800
C  23.92000 -0.72600 34.71700
C  27.17900 0.90800 34.74600
C  27.97600 0.57500 36.01800
H  27.37600 1.25000 37.30000
N  24.14600 -0.34100 29.13100
C  23.23900 -0.10900 30.14000
C  21.91400 -0.00900 29.54800
C  22.08200 -0.07700 28.12700
C  23.48600 -0.38300 27.94300
C  20.69900 0.28400 30.47200
C  21.04800 -0.04700 27.03600
O  21.27300 -0.11000 25.83200
C  19.61800 0.16900 27.46900
N  26.41800 -1.20900 27.36700
C  25.52800 -0.88200 26.40500
C  26.11000 -0.85300 25.08000
C  27.58200 -1.41000 25.26500
C  27.62000 -1.48100 26.76900
C  25.27200 -1.61000 23.98700
C  28.72200 -0.59200 24.58500
C  29.02900 0.77500 25.19800
N  28.16500 -1.40400 29.66300
C  29.13600 -1.90600 28.82800
C  30.34000 -2.28800 29.57300
C  30.05700 -1.87500 30.86300
C  28.74600 -1.38000 30.91400
C  31.63000 -2.60600 28.90400
C  30.72700 -1.77800 32.15000
O  31.85900 -2.16900 32.51500
C  29.54100 -1.40700 33.14100
C  29.43900 -2.46100 34.12800
O  28.71600 -3.48000 34.09000
O  30.27100 -2.20400 35.16400
C  30.04500 -3.08500 36.35000
H  22.80700 0.05100 32.23600
H  23.53200 -0.51500 25.81000
H  29.66900 -2.20000 26.78100
H  26.57500 -1.20700 34.63000
H  24.79800 1.05800 33.83200
H  23.65300 -1.75600 34.48300
H  22.94600 -0.23700 34.70500
H  24.45200 -0.74900 35.66900
H  26.49600 1.73000 34.96100
H  27.91300 1.44100 34.14100
H  29.04100 0.73700 35.85300
H  27.96700 -0.49600 36.22100
H  20.01600 -0.56200 30.54500
H  20.13900 1.18300 30.21300
H  20.96200 0.53700 31.50000
H  19.36300 -0.57900 28.21900
H  18.92900 0.16400 26.62400
H  19.46600 1.16500 27.88200
H  26.12600 0.15300 24.66000
H  27.71300 -2.41200 24.85800
H  24.76700 -0.93700 23.29400
H  24.56000 -2.15100 24.61000
H  25.89900 -2.31000 23.43600
H  28.54400 -0.43800 23.52100
H  29.68300 -1.10000 24.66200
H  30.04700 0.71100 25.58100
H  28.33900 0.97300 26.01800
H  28.86100 1.51100 24.41200
H  31.94600 -1.64000 28.51000
H  31.45300 -3.19900 28.00700
H  32.45200 -2.95600 29.53000
H  29.75300 -0.46000 33.63700
H  30.88100 -2.82100 36.99700
H  30.14600 -4.09700 35.95800
H  29.14400 -2.95900 36.95000
Mg 45.40200 3.46500 48.25400
C  43.14400 6.02200 47.16900
C  42.71300 1.18700 47.57400
C  47.56000 0.90600 48.54200
C  48.05900 5.77700 47.96600
N  43.28400 3.64200 47.32200
C  42.52200 4.76300 47.02600
C  41.03900 4.46700 46.65700
C  40.92900 2.92300 47.06900
C  42.44600 2.56900 47.34000
C  39.95400 2.77400 48.29000
C  40.59600 4.81000 45.21500
C  39.13800 5.33900 44.87800
H  38.59400 4.93700 43.52900
N  45.17100 1.28700 48.24900
C  44.01600 0.60800 47.95000
C  44.29100 -0.81800 48.19200
C  45.69900 -0.91400 48.47000
C  46.24100 0.47300 48.47300
C  43.29900 -1.93500 48.09100
C  46.42700 -2.20900 48.63200
O  45.82000 -3.27900 48.74000
C  47.89800 -2.26700 48.72900
N  47.49500 3.35700 48.04800
C  48.15300 2.17700 48.26900
C  49.60800 2.43000 48.70400
C  49.87700 3.94500 48.34200
C  48.42500 4.42800 48.18700
C  49.89500 1.99300 50.19100
C  50.68600 4.26200 47.03200
C  52.04800 4.97400 47.24900
N  45.61600 5.55500 47.78700
C  46.75900 6.31600 47.68200
C  46.34500 7.73600 47.41800
C  44.90200 7.64600 47.26600
C  44.52600 6.29400 47.46900
C  47.19400 8.93700 47.21000
C  43.73600 8.43100 46.92300
O  43.68200 9.61300 46.61800
C  42.50900 7.38700 46.84100
C  41.44100 7.77900 47.75600
O  41.27300 7.36300 48.93600
O  40.67600 8.79600 47.22100
C  39.75400 9.37900 48.19300
H  41.87700 0.48300 47.58200
H  48.34800 0.18800 48.77900
H  48.89700 6.47100 48.06400
H  40.43600 5.08800 47.32000
H  40.45000 2.37800 46.25600
H  38.93100 2.96400 47.96600
H  40.13700 3.51700 49.06500
H  40.01700 1.76700 48.70300
H  40.73300 3.87500 44.67100
H  41.38300 5.43400 44.79400
H  39.07600 6.42500 44.80400
H  38.43800 5.06400 45.66700
H  42.36500 -1.51600 47.71600
H  43.21000 -2.35000 49.09500
H  43.53700 -2.68600 47.33800
H  48.11900 -1.85600 47.74400
H  48.15100 -3.32700 48.73200
H  48.29100 -1.79900 49.63100
H  50.21800 1.83800 48.02200
H  50.36100 4.38500 49.21300
H  50.80400 1.41900 50.37300
H  49.06100 1.37500 50.52400
H  49.88500 2.78800 50.93700
H  50.10400 4.94900 46.41700
H  50.89000 3.36000 46.45500
H  52.83000 4.29500 46.90900
H  52.30900 5.19500 48.28400
H  52.26700 5.86700 46.66300
H  47.76200 8.83100 46.28500
H  47.92700 9.05300 48.00800
H  46.55600 9.81700 47.28900
H  42.04300 7.36500 45.85600
H  39.09300 8.66500 48.68600
H  39.00900 10.03300 47.73900
H  40.30500 10.00700 48.89200

