158

Mg 7.02900 53.33200 41.18300
C  5.82000 50.04100 40.97100
C  10.09200 52.18500 40.24300
C  7.97600 56.57100 40.46700
C  3.82100 54.48500 41.82600
N  7.78600 51.32800 40.54500
C  7.16000 50.13500 40.65400
C  8.15100 48.91900 40.62400
C  9.57100 49.70900 40.62700
C  9.10000 51.19300 40.48300
C  10.50000 49.55500 41.84100
C  8.02900 47.87000 39.53200
C  8.50800 48.22200 38.09800
H  7.63700 47.65700 36.93400
N  8.82400 54.24700 40.36900
C  10.00500 53.57900 40.10400
C  11.02400 54.54400 39.83100
C  10.41400 55.85500 39.82100
C  8.98600 55.60000 40.23700
C  12.46200 54.15600 39.56400
C  11.13700 57.18400 39.39600
O  12.33300 57.19800 39.00300
C  10.34400 58.40900 39.17300
N  6.06900 55.27300 41.21200
C  6.67800 56.43800 40.87900
C  5.83600 57.68500 41.30000
C  4.49700 56.98100 41.72700
C  4.76800 55.49100 41.53300
C  6.42600 58.64100 42.28300
C  3.16300 57.51700 41.00200
C  2.81300 59.03100 41.10100
N  5.17200 52.50100 41.37400
C  3.91300 53.08800 41.57200
C  2.91600 52.11500 41.55000
C  3.63200 50.90300 41.37400
C  4.99600 51.18600 41.25300
C  1.38100 52.24600 41.82500
C  3.43500 49.48700 41.30500
O  2.43000 48.81900 41.38200
C  4.87100 48.82800 40.99800
C  4.72300 47.93000 39.70700
O  4.57800 48.34200 38.55600
O  4.69800 46.58300 40.00900
C  4.82100 45.64000 38.86100
H  11.10500 51.83000 40.03700
H  8.36400 57.58200 40.32700
H  2.82600 54.74400 42.19400
H  8.06900 48.42900 41.59500
H  10.10100 49.48900 39.70100
H  10.44000 50.46500 42.43700
H  11.51000 49.39400 41.46300
H  10.36200 48.66000 42.44800
H  7.11500 47.28600 39.62900
H  8.67700 47.04100 39.81800
H  9.54700 47.99700 37.85600
H  8.41400 49.30000 37.96700
H  12.55300 53.19800 39.05300
H  13.03200 53.99200 40.47900
H  13.04100 54.88000 38.99100
H  9.48600 58.09900 38.57500
H  10.86100 59.10700 38.51500
H  10.14000 58.94600 40.09900
H  5.77900 58.30700 40.40700
H  4.52600 57.22400 42.79000
H  7.34500 58.19900 42.66800
H  5.73000 58.79700 43.10600
H  6.76800 59.51600 41.73000
H  2.29300 56.90200 41.23300
H  3.35500 57.25300 39.96200
H  3.60500 59.46600 41.71100
H  1.85300 59.20300 41.58700
H  2.72300 59.45300 40.10000
H  0.79300 51.46600 41.34300
H  1.10400 53.23900 41.47300
H  1.23100 52.14400 42.90000
H  5.24100 48.17900 41.79200
H  5.37400 46.07800 38.03000
H  3.85800 45.19100 38.61700
H  5.42600 44.82600 39.26100
Mg 1.32500 41.41800 26.14400
C  3.52300 41.73500 29.10400
C  -1.19500 40.81800 28.23000
C  -0.27600 41.01400 23.37400
C  4.25500 42.22500 24.21900
N  1.27100 41.29900 28.40100
C  2.17000 41.55700 29.44400
C  1.46500 41.62800 30.80700
C  0.12800 40.80000 30.47600
C  -0.00400 41.00800 28.95000
C  0.18100 39.36700 31.09400
C  1.29500 43.09300 31.34100
C  1.32900 43.17300 32.88400
H  1.22000 41.84800 33.66600
N  -0.51100 40.96000 25.82500
C  -1.46700 40.75000 26.81700
C  -2.68500 40.30400 26.12900
C  -2.44600 40.36300 24.74200
C  -1.04900 40.80200 24.55900
C  -4.02300 40.21900 26.89400
C  -3.22600 39.81300 23.54500
O  -2.84400 39.76000 22.39100
C  -4.60000 39.31300 23.70400
N  1.83900 41.87700 24.15000
C  1.01000 41.58800 23.16200
C  1.63400 41.70500 21.79200
C  2.95600 42.37500 22.09800
C  3.07800 42.08300 23.51200
C  1.72100 40.43500 20.86300
C  3.01500 43.91400 21.85600
C  2.31700 44.86300 22.79800
N  3.45900 41.83800 26.48900
C  4.47100 42.13700 25.60700
C  5.72000 42.37800 26.33300
C  5.37400 42.19800 27.66100
C  4.01100 41.90100 27.79000
C  7.06000 42.73100 25.78600
C  5.94300 42.13200 28.94500
O  7.14300 42.22300 29.11600
C  4.77500 42.06500 29.94500
C  5.09600 41.06600 30.96700
O  5.20900 39.83500 30.75400
O  5.00900 41.62400 32.17300
C  5.31100 40.74100 33.26800
H  -2.02200 40.58300 28.90300
H  -0.81700 40.73600 22.46800
H  5.13400 42.24800 23.57200
H  2.03500 40.96900 31.46200
H  -0.65800 41.27700 31.06200
H  0.76300 39.40900 32.01500
H  0.70300 38.74100 30.37000
H  -0.82000 39.01900 31.34700
H  0.27100 43.25500 31.00500
H  1.96300 43.86300 30.95300
H  0.64600 43.96800 33.18400
H  2.31300 43.54900 33.16400
H  -4.35100 39.18500 26.99700
H  -4.80300 40.77000 26.36900
H  -3.84100 40.57800 27.90800
H  -4.76700 38.60400 24.51500
H  -4.87500 38.75900 22.80600
H  -5.22000 40.18000 23.93300
H  0.94900 42.39800 21.30400
H  3.71200 41.81900 21.54300
H  2.66600 40.53100 20.32900
H  0.89200 40.53700 20.16200
H  1.60500 39.43000 21.26900
H  2.52000 44.08800 20.90000
H  4.05900 44.20500 21.74000
H  2.59400 45.87500 22.50100
H  2.61800 44.75800 23.84000
H  1.27200 44.55500 22.79000
H  6.90600 43.40500 24.94400
H  7.60100 41.87600 25.37900
H  7.75400 43.25500 26.44200
H  4.55400 42.99300 30.47300
H  5.45100 41.37500 34.14400
H  6.26300 40.38800 32.87200
H  4.59300 39.93600 33.42300

