158

Mg 48.65300 44.86400 43.14400
C  45.47400 44.89700 41.63000
C  48.61100 41.37800 42.47200
C  52.03300 44.86100 43.11200
C  48.64400 48.28600 43.46400
N  47.19600 43.36500 42.08700
C  45.92400 43.57900 41.72300
C  45.27600 42.29800 41.14100
C  46.11900 41.22100 41.85800
C  47.37700 41.99900 42.13200
C  45.44700 40.64200 43.12300
C  45.35800 42.30400 39.53300
C  44.37600 41.32500 38.85200
H  44.07100 41.37400 37.28800
N  50.07900 43.24500 42.97900
C  49.90400 41.94100 42.68700
C  51.10700 41.21100 42.81000
C  52.09000 42.21700 43.09300
C  51.43800 43.52200 43.05700
C  51.26700 39.76000 42.52500
C  53.49700 41.82100 43.39400
O  53.88000 40.60200 43.53000
C  54.55600 42.83400 43.78200
N  50.11900 46.34400 43.26400
C  51.47400 46.10600 43.28900
C  52.27100 47.38300 43.47400
C  51.17800 48.30100 44.06000
C  49.88100 47.64000 43.57700
C  53.58800 47.31400 44.23000
C  51.41100 49.84900 43.92900
C  51.44200 50.56100 45.32700
N  47.26200 46.34500 42.89500
C  47.36400 47.69000 43.08800
C  46.13400 48.32800 42.67800
C  45.36500 47.26500 42.05700
C  46.12000 46.05900 42.19000
C  45.89900 49.84100 42.78500
C  44.06000 46.97800 41.37300
O  43.16800 47.73800 40.97700
C  44.17500 45.41700 41.00700
C  43.04300 44.69500 41.51900
O  42.23200 44.18100 40.78500
O  42.89400 44.85800 42.86400
C  41.79600 44.14400 43.45200
H  48.34900 40.31900 42.45300
H  53.10100 44.84400 42.88300
H  48.51600 49.28900 43.87700
H  44.24400 42.16200 41.46300
H  46.31300 40.40400 41.16200
H  46.20700 40.52100 43.89500
H  45.15600 39.67400 42.71500
H  44.46400 41.00100 43.42800
H  46.38100 42.11300 39.20900
H  45.08400 43.30500 39.20100
H  43.38500 41.46100 39.28400
H  44.56700 40.29200 39.14300
H  51.15200 39.31100 43.51200
H  52.19500 39.52700 42.00300
H  50.44700 39.48900 41.86000
H  55.40800 42.33700 44.24600
H  54.23300 43.49600 44.58600
H  54.76600 43.40100 42.87500
H  52.58100 47.78500 42.51000
H  51.25700 47.94400 45.08700
H  53.62400 46.39200 44.81100
H  53.71600 48.16000 44.90500
H  54.45600 47.21800 43.57700
H  50.60400 50.20200 43.28700
H  52.32600 50.08500 43.38400
H  50.78000 51.42500 45.27200
H  52.42900 51.02200 45.36700
H  51.25600 49.87100 46.15000
H  46.45200 50.19900 43.65300
H  44.83500 50.00500 42.95500
H  46.30800 50.32700 41.89900
H  44.17800 45.40800 39.91700
H  40.81900 44.48500 43.11000
H  41.78000 44.34900 44.52200
H  41.83600 43.09200 43.16600
Mg 6.98100 53.63600 41.58400
C  6.74400 50.14600 41.52900
C  10.26700 53.19500 40.16700
C  7.15700 56.86200 40.61600
C  3.77800 53.85000 42.50100
N  8.32900 51.89100 41.12100
C  7.96500 50.61700 41.08200
C  9.15800 49.70000 40.74300
C  10.39700 50.71700 40.81100
C  9.64100 52.05700 40.73700
C  11.31200 50.44700 42.13400
C  9.17100 48.84700 39.44100
C  8.96500 49.66600 38.20400
H  7.76600 49.27600 37.24000
N  8.49700 54.82200 40.54700
C  9.73000 54.45200 40.02600
C  10.47700 55.65500 39.69400
C  9.66800 56.79600 39.92400
C  8.37500 56.18000 40.37800
C  11.93500 55.63200 39.28100
C  10.09300 58.24600 39.80900
O  11.15600 58.65300 39.36500
C  9.22600 59.33700 40.32900
N  5.64700 55.02900 41.55000
C  5.99000 56.28900 41.13500
C  4.72200 57.13100 41.17300
C  3.65200 56.27800 41.95500
C  4.41300 54.92400 42.03800
C  4.64100 58.56100 41.81200
C  2.30500 56.14800 41.29100
C  1.10800 56.07100 42.28200
N  5.52200 52.31200 42.12400
C  4.26900 52.52800 42.60800
C  3.68300 51.24800 42.93700
C  4.57800 50.25100 42.57100
C  5.68800 51.01100 41.99300
C  2.36000 50.98500 43.55000
C  4.75500 48.87900 42.52400
O  4.03700 47.94500 42.77700
C  6.18000 48.76500 41.68200
C  5.72800 48.14100 40.34300
O  4.97000 48.66500 39.49300
O  6.04800 46.79100 40.36500
C  5.43400 45.94700 39.38200
H  11.29200 52.99100 39.85200
H  7.05400 57.92800 40.40300
H  2.75300 53.85100 42.87800
H  9.19200 48.92000 41.50400
H  11.06800 50.59000 39.96100
H  12.36400 50.57500 41.87900
H  11.18900 49.41800 42.47400
H  11.13600 51.20200 42.90000
H  8.43600 48.04200 39.46400
H  10.18400 48.47500 39.28800
H  9.83800 49.48700 37.57600
H  8.88000 50.73400 38.40100
H  12.13600 54.66700 38.81600
H  12.63500 55.81500 40.09600
H  12.13100 56.39700 38.53000
H  8.45700 59.63200 39.61500
H  9.78800 60.25700 40.48800
H  8.88900 58.99600 41.30800
H  4.49800 57.25600 40.11400
H  3.59000 56.54000 43.01100
H  5.66500 58.81800 42.08700
H  3.96400 58.89200 42.60000
H  4.36900 59.15900 40.94200
H  2.37800 55.21000 40.74100
H  2.14700 56.88900 40.50700
H  0.54600 57.00400 42.26000
H  1.51600 55.95800 43.28700
H  0.40200 55.26500 42.08200
H  1.57200 51.72600 43.41000
H  2.39000 50.69200 44.60000
H  1.99200 50.13600 42.97500
H  6.85100 48.06400 42.18000
H  6.22000 45.54100 38.74500
H  4.66700 46.30700 38.69600
H  4.99300 45.03600 39.78600

