158

Mg 40.28200 9.71300 29.44400
C  42.17600 10.48400 32.08900
C  37.90100 8.27000 31.67400
C  38.24500 8.62000 26.80300
C  42.78400 10.38900 27.19200
N  40.05800 9.40500 31.67500
C  40.91200 10.08800 32.50200
C  40.39600 9.86000 33.89500
C  39.03100 9.13100 33.81400
C  39.01700 8.79100 32.31000
C  38.79900 8.00500 34.83400
C  40.36700 11.19900 34.74100
C  41.36100 11.37000 35.86400
H  40.87600 11.87100 37.22400
N  38.31000 8.65400 29.24400
C  37.58000 8.15800 30.30000
C  36.33400 7.71500 29.75000
C  36.41100 7.74600 28.35300
C  37.73100 8.39000 28.04700
C  35.29700 7.18400 30.65100
C  35.43700 7.19200 27.36500
O  35.66900 7.16600 26.12700
C  34.06400 6.73000 27.83500
N  40.51000 9.53000 27.21900
C  39.50100 9.06600 26.41000
C  39.94100 9.14200 24.90100
C  41.40500 9.68900 25.00900
C  41.62000 9.85100 26.55400
C  39.75000 7.68300 24.29600
C  41.63100 11.08000 24.32400
C  41.23500 12.30200 25.20400
N  42.08400 10.40600 29.57000
C  43.04400 10.59900 28.58400
C  44.28900 11.07100 29.22400
C  43.94900 11.09300 30.58300
C  42.63100 10.59200 30.72500
C  45.57500 11.29400 28.53200
C  44.48300 11.41400 31.89200
O  45.56400 11.93300 32.13700
C  43.29600 11.05100 32.94000
C  43.94600 10.07200 33.90500
O  43.86200 8.87300 33.77200
O  44.55000 10.72000 34.96300
C  44.98100 9.78800 35.96100
H  37.02800 8.11300 32.31100
H  37.66600 8.24300 25.95700
H  43.72900 10.32100 26.64900
H  41.14200 9.16400 34.27900
H  38.25100 9.81200 34.15400
H  37.91200 8.34100 35.37100
H  39.64100 8.03900 35.52500
H  38.76400 7.00700 34.39600
H  39.40900 11.35700 35.23700
H  40.55600 12.03800 34.07100
H  42.07600 12.12800 35.54500
H  41.85500 10.42100 36.07600
H  35.18800 6.10200 30.58500
H  34.29900 7.60900 30.55000
H  35.57100 7.18800 31.70700
H  33.98900 5.69600 28.16900
H  33.32000 6.81000 27.04300
H  33.68800 7.45900 28.55300
H  39.29800 9.80300 24.31900
H  42.14700 9.00800 24.59500
H  39.57100 6.91900 25.05300
H  40.66600 7.27500 23.86800
H  39.04700 7.65700 23.46400
H  41.06100 11.19000 23.40100
H  42.69100 11.09000 24.07100
H  40.33300 12.11800 25.78800
H  40.98300 13.09400 24.49900
H  42.10500 12.57400 25.80300
H  45.78900 10.49700 27.81900
H  46.44400 11.53700 29.14300
H  45.43300 12.23200 27.99500
H  42.93900 11.92100 33.49100
H  45.67400 10.31200 36.62000
H  45.35400 8.79900 35.69700
H  44.09600 9.58600 36.56500
Mg -12.73100 17.00700 41.31100
C  -9.63800 15.25500 41.20800
C  -11.36200 19.38000 39.20400
C  -15.86300 18.36500 40.90300
C  -14.23800 13.98200 42.04900
N  -10.74800 17.20900 40.26100
C  -9.56100 16.51500 40.58300
C  -8.41600 17.01800 39.64100
C  -9.00100 18.36500 39.11200
C  -10.50300 18.30200 39.54000
C  -8.20600 19.67600 39.60200
C  -7.97400 16.03900 38.49300
C  -6.44400 16.04100 38.25800
H  -5.96700 16.42000 36.90800
N  -13.43700 18.79000 40.44700
C  -12.72600 19.54200 39.54800
C  -13.56400 20.65000 39.19100
C  -14.88200 20.32700 39.60800
C  -14.75900 19.11800 40.33400
C  -13.14400 21.86100 38.32000
C  -16.07900 21.15400 39.39300
O  -16.09700 22.16800 38.69800
C  -17.33000 21.06100 40.21100
N  -14.76700 16.27900 41.40400
C  -15.89300 17.06400 41.37300
C  -17.17900 16.20000 41.67300
C  -16.59800 14.76500 41.79200
C  -15.08000 14.99900 41.78300
C  -17.86100 16.69600 43.01400
C  -17.09200 13.71900 40.68300
C  -17.18400 12.25500 41.00000
N  -12.04600 15.00200 41.67400
C  -12.81700 13.89500 41.93100
C  -12.00700 12.75900 42.15600
C  -10.68900 13.25700 41.96900
C  -10.78800 14.58200 41.69800
C  -12.45800 11.42100 42.57000
C  -9.29100 12.88200 41.92800
O  -8.73200 11.80300 42.12300
C  -8.51500 14.12500 41.40100
C  -7.49800 14.67500 42.31800
O  -7.60600 15.57800 43.14400
O  -6.32500 13.88400 42.09400
C  -5.13500 14.55500 42.64000
H  -10.76300 20.01300 38.54600
H  -16.82200 18.70400 40.50500
H  -14.81800 13.07400 42.22300
H  -7.54100 17.20200 40.26400
H  -8.87000 18.46700 38.03500
H  -8.10000 20.32600 38.73400
H  -7.23200 19.41600 40.01600
H  -8.77500 20.23500 40.34500
H  -8.38100 16.42200 37.55800
H  -8.37800 15.03200 38.59400
H  -6.12600 15.01800 38.45800
H  -5.92900 16.61000 39.03300
H  -13.93200 22.22700 37.66200
H  -12.28600 21.60100 37.70000
H  -12.83900 22.78600 38.81000
H  -17.08200 20.80800 41.24200
H  -18.00900 20.39900 39.67400
H  -17.89600 21.99000 40.28500
H  -17.85900 16.14800 40.82300
H  -16.70700 14.34800 42.79300
H  -17.32900 17.52600 43.47800
H  -17.91000 15.88000 43.73500
H  -18.85600 17.06000 42.75600
H  -16.38200 13.62300 39.86200
H  -17.94500 14.12100 40.13700
H  -16.49800 11.67300 40.38500
H  -18.14900 11.81300 40.75200
H  -16.86900 12.12500 42.03500
H  -13.36200 11.19000 42.00700
H  -12.61100 11.53700 43.64300
H  -11.59800 10.75800 42.47400
H  -7.98900 13.92500 40.46700
H  -4.27500 14.02500 42.23100
H  -5.17500 14.67000 43.72400
H  -5.09000 15.58300 42.27900

