158

Mg 17.57000 -1.23700 28.63900
C  16.27600 0.66300 31.13000
C  19.20800 -3.14300 30.79500
C  19.05500 -2.74000 26.01700
C  16.07800 1.08100 26.35300
N  17.84800 -1.10200 30.76500
C  17.11600 -0.39500 31.57800
C  17.40900 -0.80600 33.03600
C  18.46000 -1.89600 32.89400
C  18.59500 -2.04000 31.38900
C  19.77400 -1.54400 33.54200
C  16.10600 -1.16200 33.79300
C  15.99300 -0.77200 35.23200
H  17.31300 -0.29400 36.00300
N  18.86000 -2.79500 28.41400
C  19.38500 -3.48500 29.49500
C  20.15200 -4.61100 29.04800
C  20.15200 -4.52600 27.60400
C  19.31700 -3.27300 27.29400
C  20.65300 -5.69300 29.95000
C  20.78800 -5.48200 26.58300
O  20.68300 -5.27900 25.38200
C  21.47500 -6.73000 27.07900
N  17.38800 -1.05800 26.37400
C  18.15800 -1.79200 25.60100
C  18.06200 -1.26800 24.17300
C  17.01000 -0.08200 24.21700
C  16.72500 -0.00600 25.73100
C  19.43100 -0.89400 23.50700
C  15.66700 -0.26000 23.37900
C  14.34000 -0.84100 23.98800
N  16.33600 0.49300 28.64900
C  15.83000 1.36700 27.71600
C  15.01400 2.45000 28.30000
C  15.16300 2.18300 29.70900
C  15.96000 1.02300 29.82900
C  14.26300 3.46700 27.55300
C  14.82900 2.69000 31.01000
O  14.10900 3.55300 31.39700
C  15.58900 1.74600 31.91700
C  16.46100 2.60100 32.78600
O  17.57900 3.01100 32.41900
O  15.85400 2.91800 33.96300
C  16.52800 3.88800 34.73300
H  19.69800 -3.67400 31.61400
H  19.47700 -3.19900 25.12000
H  15.70200 1.74300 25.57100
H  17.79900 0.07900 33.53800
H  18.28100 -2.85500 33.38100
H  20.01100 -2.19300 34.38600
H  19.66700 -0.56200 34.00200
H  20.53900 -1.49400 32.76700
H  16.06800 -2.23800 33.62000
H  15.26900 -0.71200 33.26100
H  15.63800 -1.71200 35.65400
H  15.26300 0.02000 35.39800
H  20.25300 -6.66100 29.64800
H  20.51300 -5.46400 31.00600
H  21.74200 -5.73500 29.96800
H  22.21100 -6.33100 27.77800
H  21.94300 -7.16200 26.19300
H  20.68300 -7.36300 27.48000
H  17.53900 -2.06000 23.63600
H  17.42400 0.86300 23.86500
H  20.28700 -1.03000 24.16800
H  19.38800 0.11700 23.10100
H  19.56700 -1.63600 22.72000
H  15.91900 -1.01100 22.63000
H  15.44200 0.73200 22.98700
H  13.55700 -0.08400 23.95600
H  14.42100 -1.10900 25.04200
H  13.95000 -1.66800 23.39400
H  13.63100 3.90600 28.32500
H  13.67700 2.97300 26.77800
H  14.97400 4.17300 27.12400
H  14.81600 1.32200 32.55700
H  16.72700 4.72100 34.05800
H  17.51200 3.56100 35.06700
H  15.89000 4.40100 35.45300
Mg 35.31800 48.59900 25.50300
C  36.13200 46.78800 28.28800
C  34.13000 51.10100 27.69400
C  34.38700 50.37800 22.81600
C  36.03500 45.81800 23.40300
N  34.96700 48.77100 27.77800
C  35.57400 47.97300 28.68100
C  35.33100 48.47000 30.10800
C  34.50300 49.79800 29.86300
C  34.43600 49.91700 28.33500
C  33.16300 49.97000 30.50800
C  36.63600 48.65500 30.80400
C  36.71000 48.15300 32.24800
H  35.49300 48.21800 33.20600
N  34.46000 50.47900 25.27700
C  34.09700 51.37200 26.28000
C  33.79300 52.69700 25.70800
C  33.85500 52.51100 24.28400
C  34.23600 51.05400 24.06600
C  33.51000 53.96900 26.56100
C  33.59200 53.48700 23.18200
O  33.59600 53.17500 22.02600
C  33.42800 54.94600 23.52100
N  35.25600 48.12600 23.41900
C  34.84400 49.06300 22.51000
C  34.79700 48.52700 21.10700
C  35.47900 47.13000 21.24100
C  35.64400 47.01200 22.80300
C  33.33300 48.42700 20.53700
C  36.71000 46.97000 20.33600
C  37.96600 46.78200 21.14000
N  35.90200 46.71300 25.72300
C  36.20500 45.67600 24.77900
C  36.66700 44.55900 25.49700
C  36.71100 44.93500 26.90200
C  36.16600 46.24800 26.96000
C  37.07700 43.20000 25.10800
C  37.08300 44.55300 28.19200
O  37.52500 43.47300 28.65600
C  36.71900 45.66400 29.10800
C  35.77500 45.09800 30.18000
O  34.59600 44.93400 30.08900
O  36.48900 44.72000 31.24900
C  35.73000 44.52000 32.50000
H  33.94600 51.91500 28.39800
H  34.10100 51.00200 21.96600
H  36.33300 45.01900 22.72100
H  34.76400 47.67400 30.59000
H  35.03600 50.68900 30.19700
H  32.88700 49.00200 30.92600
H  32.47400 50.05100 29.66800
H  33.04200 50.88400 31.09000
H  36.94100 49.70100 30.77700
H  37.40800 48.16800 30.20800
H  37.45600 48.84100 32.64800
H  37.10000 47.14000 32.34300
H  32.71500 54.57900 26.13100
H  34.36700 54.63600 26.46600
H  33.27200 53.84300 27.61700
H  33.36800 55.51500 22.59300
H  34.36300 55.20300 24.01900
H  32.58200 55.25100 24.13600
H  35.35500 49.21400 20.47100
H  34.70900 46.42100 20.93700
H  33.01800 49.28500 19.94200
H  32.68000 48.12000 21.35300
H  33.35900 47.61100 19.81500
H  36.88900 47.80000 19.65300
H  36.63500 45.99600 19.85300
H  38.12700 47.37500 22.04100
H  38.75000 46.90500 20.39300
H  37.95100 45.77100 21.54700
H  36.90300 42.98000 24.05500
H  36.52000 42.47500 25.70200
H  38.12800 43.05800 25.36000
H  37.64700 46.02500 29.55100
H  34.80200 45.09100 32.46900
H  36.16800 44.83400 33.44800
H  35.41700 43.47700 32.53500

