158

Mg 16.46400 51.76900 26.58100
C  18.27300 50.30900 29.15300
C  14.18400 52.83200 28.82700
C  14.53100 52.75300 23.90200
C  18.80100 50.38400 24.22600
N  16.18200 51.42400 28.68600
C  17.07600 50.90800 29.56500
C  16.76100 51.26500 31.09800
C  15.30500 51.72600 30.95400
C  15.24000 52.07500 29.44400
C  14.09800 50.70300 31.39600
C  17.77300 52.37900 31.52600
C  18.34600 52.24300 32.87700
H  17.46200 51.50600 33.92000
N  14.67100 52.80200 26.38800
C  13.91500 53.17300 27.46500
C  12.81300 53.93900 26.96800
C  12.79600 53.85300 25.52400
C  14.02000 53.08600 25.19500
C  11.83700 54.58500 27.94200
C  11.76400 54.47800 24.53300
O  11.88500 54.25900 23.36100
C  10.63300 55.34800 24.95000
N  16.67300 51.63200 24.40700
C  15.73000 52.08800 23.52700
C  16.22200 51.82300 22.06900
C  17.63800 51.33100 22.24900
C  17.72300 51.06800 23.79200
C  15.26500 50.86700 21.33500
C  18.76600 52.23500 21.79000
C  19.87400 51.65700 20.84200
N  18.18000 50.51700 26.62200
C  19.10500 50.15800 25.61900
C  20.14400 49.38200 26.25800
C  19.81500 49.38900 27.64800
C  18.62900 50.10200 27.77400
C  21.34600 48.85600 25.60600
C  20.27200 48.91300 28.95400
O  21.13300 48.18000 29.38400
C  19.36600 49.66100 30.01700
C  18.82100 48.56700 30.87000
O  17.82900 47.80800 30.61600
O  19.54200 48.59900 32.03800
C  19.25800 47.61400 33.08600
H  13.54800 53.14300 29.65900
H  13.93000 53.04600 23.03900
H  19.49700 49.96900 23.49400
H  17.02300 50.40400 31.71200
H  15.12700 52.70500 31.39900
H  14.50400 49.79200 31.83700
H  13.51600 50.51400 30.49500
H  13.47000 51.17600 32.15100
H  17.30600 53.36300 31.48100
H  18.59000 52.37400 30.80400
H  18.57800 53.24700 33.23400
H  19.30900 51.73400 32.84100
H  10.86600 54.14700 27.71200
H  11.73400 55.66100 27.80500
H  11.99600 54.43600 29.01000
H  10.21600 54.79800 25.79300
H  9.93600 55.50100 24.12600
H  11.15700 56.23800 25.29900
H  16.31400 52.80700 21.61000
H  17.72800 50.35100 21.78000
H  15.48100 50.94900 20.27000
H  14.27900 51.22300 21.63300
H  15.26300 49.80500 21.58100
H  19.26100 52.60700 22.68600
H  18.48800 53.21000 21.39000
H  19.94600 52.31200 19.97400
H  19.71700 50.64000 20.48200
H  20.88400 51.71700 21.24700
H  22.12700 48.75200 26.35900
H  21.68100 49.49000 24.78500
H  21.28000 47.86600 25.15400
H  20.02300 50.36000 30.53500
H  19.79000 46.68600 32.88200
H  18.19800 47.36500 33.14800
H  19.45200 47.96200 34.10100
Mg -1.85200 34.77900 25.39400
C  -3.64500 33.34400 28.06500
C  -0.46300 36.81600 27.72200
C  -0.53900 36.59400 22.82900
C  -3.67400 32.84900 23.11900
N  -2.19400 35.15500 27.70300
C  -2.79800 34.32200 28.57400
C  -2.48500 34.56400 30.06700
C  -1.54800 35.82700 29.88400
C  -1.40600 35.98700 28.38000
C  -1.95600 37.15600 30.51100
C  -1.85900 33.34700 30.77700
C  -2.60200 32.76200 32.06800
H  -1.66900 32.61200 33.26900
N  -0.62300 36.38300 25.26400
C  -0.14100 37.07200 26.33600
C  0.84400 38.02300 25.85300
C  0.97100 37.91000 24.47000
C  -0.10900 36.95000 24.17200
C  1.64100 38.97000 26.80800
C  1.85300 38.66900 23.44500
O  1.61400 38.58000 22.22900
C  2.91500 39.69400 23.97500
N  -2.12200 34.75100 23.26200
C  -1.45500 35.55900 22.44100
C  -1.62700 35.13800 20.98200
C  -2.34700 33.71000 21.16700
C  -2.75300 33.75200 22.59000
C  -2.25400 36.17200 20.02600
C  -1.45900 32.35700 20.91500
C  -0.19800 32.26500 21.65400
N  -3.36400 33.45200 25.50300
C  -3.97200 32.67200 24.50600
C  -4.91800 31.81500 25.04300
C  -4.77200 31.97700 26.47800
C  -3.89200 33.03900 26.67400
C  -5.70000 30.66500 24.39900
C  -5.21800 31.51800 27.78900
O  -6.01000 30.66100 28.15500
C  -4.47700 32.35100 28.85600
C  -5.41300 33.03600 29.79700
O  -5.85800 34.15800 29.76500
O  -5.58500 32.14200 30.83600
C  -6.33300 32.70900 32.03700
H  0.27500 37.25600 28.39500
H  -0.13100 37.19300 22.01200
H  -4.20200 32.10100 22.52400
H  -3.41000 34.86900 30.55600
H  -0.62400 35.55900 30.39600
H  -2.27800 37.90400 29.78700
H  -1.15300 37.56300 31.12500
H  -2.77000 36.87300 31.17800
H  -0.85300 33.50300 31.16500
H  -1.80000 32.59000 29.99500
H  -3.20700 31.87300 31.88900
H  -3.30100 33.49100 32.47900
H  1.34900 39.99900 26.59800
H  2.70300 38.88600 26.57700
H  1.62300 38.83100 27.88900
H  3.26200 40.39000 23.21100
H  3.74100 39.20400 24.49100
H  2.32900 40.34600 24.62400
H  -0.64000 34.89500 20.58800
H  -3.30000 33.74900 20.64000
H  -3.13000 35.74900 19.53500
H  -1.57100 36.48600 19.23700
H  -2.66900 37.03000 20.55500
H  -1.19800 32.42300 19.85900
H  -2.12800 31.50900 21.06300
H  0.58400 32.25300 20.89500
H  -0.33200 31.36800 22.25800
H  -0.05300 33.11600 22.32000
H  -6.62400 31.00300 23.93000
H  -5.95600 29.91400 25.14600
H  -5.05000 30.20400 23.65400
H  -3.86800 31.61700 29.38300
H  -7.22200 33.32500 31.90400
H  -5.58900 33.30400 32.56900
H  -6.54700 31.85700 32.68200

