158

Mg 24.29100 -4.36100 46.24700
C  26.24300 -1.92500 44.79900
C  21.60400 -3.50000 44.09300
C  22.72800 -7.36100 47.03200
C  27.06600 -5.39500 48.25500
N  23.96300 -2.77700 44.74000
C  24.89200 -2.05200 44.18100
C  24.41200 -1.21800 43.02700
C  22.86500 -1.41500 43.11800
C  22.77600 -2.67200 44.11800
C  21.93700 -0.18900 43.57400
C  25.10500 -1.59300 41.63200
C  25.64000 -0.45000 40.74500
H  25.40200 -0.59300 39.26600
N  22.38300 -5.19100 45.82400
C  21.46300 -4.67700 44.86200
C  20.28700 -5.62200 44.81000
C  20.57500 -6.72200 45.67600
C  21.92000 -6.45700 46.27800
C  19.07600 -5.20000 43.93300
C  19.57900 -7.87200 45.99900
O  18.51500 -7.86700 45.41300
C  19.91700 -8.97600 46.91100
N  24.83300 -6.14300 47.49300
C  23.98000 -7.18000 47.65500
C  24.68200 -8.30700 48.46200
C  25.87400 -7.53900 49.19400
C  26.03800 -6.33000 48.22300
C  23.70700 -9.16000 49.44000
C  27.15800 -8.33700 49.45100
C  27.48700 -8.80000 50.90300
N  26.27300 -3.87400 46.44600
C  27.26600 -4.31800 47.36100
C  28.44900 -3.51300 47.18200
C  28.14800 -2.61000 46.14700
C  26.77500 -2.84100 45.78100
C  29.68500 -3.54600 47.99900
C  28.65300 -1.54200 45.36100
O  29.77700 -1.06000 45.34300
C  27.41500 -1.07700 44.43400
C  27.09700 0.42700 44.56600
O  26.92900 1.15500 45.51700
O  27.21300 0.97800 43.24300
C  27.34400 2.47400 43.10200
H  20.91400 -3.04200 43.38100
H  22.26900 -8.34000 47.18400
H  27.85100 -5.61400 48.98100
H  24.59800 -0.15000 43.13900
H  22.58800 -1.81800 42.14400
H  21.31500 0.18500 42.76100
H  22.58900 0.68300 43.59800
H  21.46500 -0.30100 44.55000
H  24.38300 -2.02900 40.94200
H  25.89300 -2.26300 41.97600
H  26.71600 -0.35000 40.89300
H  25.11000 0.42500 41.12100
H  19.01300 -4.11200 43.89800
H  18.20300 -5.69900 44.35300
H  19.24700 -5.54100 42.91200
H  20.69900 -9.48300 46.34600
H  19.08600 -9.67100 47.02800
H  20.33700 -8.83100 47.90600
H  25.07800 -9.01600 47.73500
H  25.49900 -7.10100 50.11900
H  22.70100 -8.74100 49.45500
H  23.96800 -9.08500 50.49600
H  23.66500 -10.20200 49.12300
H  27.97100 -7.75800 49.01400
H  27.09700 -9.18100 48.76400
H  27.42700 -9.88100 50.77700
H  26.65800 -8.43500 51.51000
H  28.49800 -8.57400 51.23900
H  29.51100 -3.99200 48.97800
H  29.94800 -2.49600 48.13400
H  30.44800 -4.08500 47.43800
H  27.71700 -1.19900 43.39400
H  27.74700 2.88700 44.02700
H  26.37900 2.90000 42.82600
H  28.03800 2.64600 42.27900
Mg -13.20400 16.09100 42.74500
C  -10.36400 14.20100 41.94700
C  -11.85200 18.65100 40.77600
C  -16.23200 17.61400 42.47900
C  -14.81300 13.04800 43.51800
N  -11.34000 16.36500 41.38000
C  -10.33100 15.46000 41.32300
C  -9.13100 16.04900 40.46200
C  -9.58300 17.55400 40.21200
C  -10.99700 17.53800 40.81800
C  -8.62200 18.60100 40.83300
C  -8.70300 15.30100 39.18600
C  -7.23000 15.03500 38.95200
H  -6.45100 15.85000 37.87800
N  -13.87600 17.96600 41.93600
C  -13.13000 18.87900 41.31200
C  -13.87400 20.12500 41.25100
C  -15.15100 19.83300 41.80500
C  -15.18000 18.41000 42.02500
C  -13.22600 21.39400 40.74300
C  -16.20600 20.82100 42.14200
O  -16.18700 22.02600 41.68900
C  -17.41200 20.56400 42.88900
N  -15.22900 15.38300 42.97300
C  -16.26300 16.31400 43.00100
C  -17.62700 15.59700 43.40100
C  -17.16100 14.19200 43.74400
C  -15.64300 14.15600 43.41600
C  -18.63000 16.35800 44.28300
C  -17.98000 12.96000 43.12300
C  -19.47800 13.09700 42.75800
N  -12.61900 14.07000 42.94800
C  -13.40200 12.95100 43.31900
C  -12.48900 11.84400 43.47300
C  -11.26100 12.29800 43.08400
C  -11.45800 13.59700 42.54900
C  -12.90900 10.44000 43.75100
C  -9.85800 11.96700 42.87300
O  -9.17400 10.97200 43.08300
C  -9.21600 13.22000 42.09700
C  -8.03000 13.75900 42.82700
O  -8.04200 14.54200 43.72500
O  -6.87400 13.17200 42.34900
C  -5.63800 13.70600 43.01300
H  -11.27900 19.46900 40.33400
H  -17.23200 18.05000 42.43900
H  -15.22300 12.12700 43.93700
H  -8.31400 15.92700 41.17300
H  -9.70400 17.84200 39.16800
H  -9.02400 19.02500 41.75300
H  -8.62700 19.39200 40.08300
H  -7.62700 18.18900 40.99900
H  -8.97200 15.96600 38.36600
H  -9.27900 14.37800 39.13000
H  -7.15200 13.97500 38.70900
H  -6.76400 15.20800 39.92200
H  -13.50700 21.55300 39.70200
H  -12.14000 21.32900 40.80900
H  -13.48000 22.20500 41.42600
H  -17.86300 21.43500 43.36500
H  -17.33500 19.84200 43.70100
H  -18.14000 20.21700 42.15500
H  -18.07900 15.54500 42.41000
H  -17.16900 14.15700 44.83300
H  -18.97000 15.76500 45.13100
H  -19.52100 16.50100 43.67200
H  -18.27600 17.32200 44.64900
H  -18.03900 12.15600 43.85600
H  -17.45400 12.61500 42.23300
H  -20.03700 12.20900 43.05500
H  -19.64600 13.31600 41.70300
H  -19.83200 13.97300 43.30200
H  -13.43100 10.40000 44.70700
H  -12.14000 9.68500 43.91400
H  -13.52400 10.09200 42.92200
H  -8.80800 12.97200 41.11700
H  -4.94700 14.13600 42.28800
H  -5.23100 12.90900 43.63500
H  -5.80300 14.60600 43.60500

