158

Mg -2.12200 17.30700 25.83800
C  -1.92500 15.12100 28.67500
C  -2.61500 19.90800 27.94300
C  -2.18800 19.17200 23.21500
C  -1.85000 14.41900 23.85600
N  -2.25300 17.44300 28.04900
C  -2.19100 16.47500 29.03800
C  -2.53100 17.08500 30.45500
C  -2.95300 18.56500 30.07200
C  -2.55300 18.65200 28.59200
C  -4.49800 18.80200 30.26400
C  -1.29300 17.04000 31.40100
C  -1.73900 16.46700 32.80000
H  -0.61100 16.68000 33.85100
N  -2.40200 19.25100 25.62900
C  -2.55400 20.18500 26.56400
C  -2.48800 21.54500 25.94400
C  -2.30200 21.36600 24.50600
C  -2.31700 19.87300 24.38200
C  -2.84900 22.82100 26.60900
C  -2.05900 22.43200 23.42400
O  -2.02700 22.16400 22.25000
C  -1.69600 23.89400 23.68800
N  -2.14700 16.82300 23.84700
C  -2.22400 17.84300 22.94900
C  -2.27000 17.21100 21.52200
C  -1.99400 15.73000 21.74700
C  -2.04300 15.66400 23.24300
C  -3.63000 17.57300 20.87300
C  -0.56100 15.37200 21.08700
C  0.81100 15.62200 21.74900
N  -1.92800 15.22900 26.11000
C  -1.83300 14.10200 25.22400
C  -1.75400 12.87300 25.92400
C  -1.75400 13.29400 27.23700
C  -1.84900 14.68100 27.34400
C  -1.98800 11.42500 25.38000
C  -1.80600 12.63200 28.59000
O  -1.67700 11.47300 28.89100
C  -1.99900 13.86000 29.59600
C  -0.88000 13.65700 30.59500
O  0.26700 14.13700 30.53200
O  -1.36100 12.85700 31.56700
C  -0.45400 12.73200 32.68500
H  -2.73500 20.79500 28.56900
H  -2.33800 19.81200 22.34300
H  -1.85200 13.51900 23.23800
H  -3.26700 16.47100 30.97400
H  -2.55700 19.34200 30.72600
H  -4.76300 19.50100 29.47000
H  -4.59500 19.20200 31.27300
H  -5.10600 17.91600 30.07900
H  -0.79500 18.00500 31.49200
H  -0.43900 16.43400 31.10100
H  -1.98100 15.40400 32.80400
H  -2.57400 17.07400 33.14900
H  -2.92700 22.69100 27.68800
H  -3.79700 23.18200 26.21000
H  -2.03500 23.52600 26.44200
H  -1.04000 23.66400 24.52700
H  -2.54700 24.51500 23.96600
H  -1.11100 24.36500 22.89800
H  -1.49500 17.70900 20.94000
H  -2.66400 14.94200 21.40400
H  -3.42400 17.99700 19.89000
H  -4.24700 18.28600 21.41900
H  -4.21700 16.69800 20.59200
H  -0.45600 15.97000 20.18200
H  -0.64500 14.30600 20.88000
H  1.12700 14.93500 22.53300
H  0.83500 16.60100 22.22800
H  1.51300 15.61300 20.91400
H  -1.94500 11.50000 24.29300
H  -3.00100 11.14400 25.66800
H  -1.18100 10.81100 25.77900
H  -2.93800 13.83300 30.15000
H  -0.41900 13.63900 33.28800
H  0.54400 12.49800 32.31400
H  -0.80700 11.92300 33.32500
Mg 46.82600 25.21900 28.29700
C  47.58900 27.47400 30.94300
C  46.01000 22.82700 30.63500
C  47.21300 22.81700 25.85800
C  48.02900 27.58300 26.17700
N  46.81000 25.14600 30.51300
C  47.01000 26.24100 31.37800
C  46.59400 25.92500 32.74100
C  46.31500 24.29800 32.68500
C  46.43000 24.02100 31.15800
C  47.16900 23.39300 33.60500
C  45.43500 26.79500 33.43800
C  45.77400 27.22300 34.90400
H  44.61200 27.28400 35.86300
N  46.50800 23.07200 28.24400
C  46.13300 22.36500 29.32800
C  45.75700 21.08200 28.79500
C  46.29900 20.94900 27.49000
C  46.69200 22.34200 27.13800
C  45.15800 19.95000 29.59200
C  46.29500 19.79800 26.52400
O  46.67400 19.93700 25.33000
C  45.73700 18.43000 26.95300
N  47.44600 25.17300 26.26500
C  47.52700 24.09300 25.44800
C  47.65500 24.50600 24.01500
C  47.72600 26.09300 24.05600
C  47.73100 26.34700 25.61700
C  48.78600 23.80900 23.15100
C  46.62000 26.83800 23.20900
C  45.16800 26.67800 23.59500
N  47.61400 27.19200 28.44000
C  47.99600 28.03500 27.50300
C  48.26400 29.30900 27.97200
C  48.17200 29.21900 29.41500
C  47.71200 27.84300 29.61900
C  48.65500 30.49300 27.13100
C  48.45500 29.79800 30.76600
O  49.00800 30.86400 31.09900
C  47.98400 28.70400 31.80300
C  49.09000 28.37900 32.74800
O  50.08100 27.66000 32.50200
O  48.90900 28.98100 33.99300
C  49.94900 28.68300 34.97600
H  45.57000 22.04200 31.25300
H  47.29900 22.03800 25.09800
H  48.31600 28.34600 25.45000
H  47.41700 26.14400 33.42200
H  45.28300 24.13400 32.99800
H  46.54700 22.88500 34.34200
H  47.71800 24.09200 34.23600
H  47.83300 22.67700 33.12200
H  44.53600 26.18300 33.51400
H  45.25000 27.64300 32.77900
H  46.05000 28.27600 34.86500
H  46.59000 26.61800 35.30000
H  44.50900 19.38300 28.92500
H  44.69100 20.38800 30.47400
H  45.94500 19.27700 29.93200
H  45.79800 17.66500 26.17900
H  44.64800 18.41200 27.00100
H  46.05900 18.14200 27.95400
H  46.69400 24.17300 23.62100
H  48.67500 26.51600 23.72800
H  49.48700 24.56700 22.80200
H  48.40200 23.18500 22.34400
H  49.32300 23.14200 23.82600
H  46.75100 26.47100 22.19100
H  46.97300 27.86900 23.23000
H  44.96200 25.64300 23.86600
H  44.48000 27.01200 22.81800
H  44.86700 27.23600 24.48200
H  49.05800 31.27000 27.78100
H  47.80300 30.87600 26.56900
H  49.43800 30.30500 26.39700
H  47.22200 29.25300 32.35700
H  50.94000 28.96100 34.61900
H  50.02900 27.61400 35.17600
H  49.76500 29.30100 35.85400

