158

Mg 0.20700 7.79300 26.34700
C  1.24500 9.51600 29.16700
C  0.13100 4.87900 28.03100
C  -0.16000 6.16800 23.40800
C  0.31000 10.85500 24.55300
N  0.73100 7.27800 28.32700
C  1.05200 8.13400 29.39800
C  0.99400 7.37600 30.66500
C  0.79200 5.83200 30.26800
C  0.47300 5.98800 28.77700
C  2.07600 4.96700 30.51500
C  -0.15900 7.99800 31.52900
C  0.19100 8.38600 32.98400
H  1.27200 7.58400 33.80500
N  0.08300 5.75700 25.79800
C  0.01100 4.74700 26.61700
C  -0.24200 3.51000 25.94100
C  -0.18300 3.84600 24.60000
C  -0.18100 5.31200 24.52500
C  -0.45100 2.19900 26.65800
C  -0.34900 2.94300 23.32600
O  -0.38700 3.36800 22.15400
C  -0.38600 1.50900 23.45600
N  0.02900 8.43300 24.37000
C  -0.08600 7.52000 23.35800
C  -0.12000 8.14800 22.03600
C  -0.36900 9.68400 22.38300
C  0.04100 9.67600 23.84800
C  1.09100 7.92300 21.08700
C  -1.82400 10.22400 22.18700
C  -2.03000 11.48100 21.28000
N  0.60300 9.83100 26.81600
C  0.70500 10.90000 25.88200
C  1.19100 12.06400 26.64100
C  1.50100 11.62100 27.94300
C  1.03500 10.22600 27.95300
C  1.57600 13.43300 26.03700
C  2.00400 11.94200 29.27000
O  2.47800 13.03400 29.69600
C  1.67000 10.61600 30.09100
C  2.78000 10.21800 30.97100
O  3.84700 9.69900 30.62900
O  2.54100 10.74000 32.25100
C  3.68500 10.78000 33.13600
H  -0.09100 4.01700 28.66300
H  -0.33100 5.55600 22.52000
H  0.25000 11.74900 23.92900
H  1.95100 7.42000 31.18400
H  -0.05500 5.35500 30.76100
H  2.75300 5.43700 31.22800
H  2.58900 4.73800 29.58100
H  1.63300 4.08800 30.98300
H  -0.99000 7.29800 31.44700
H  -0.42100 8.88300 30.95000
H  -0.74900 8.28800 33.52700
H  0.49100 9.43000 32.89500
H  -0.93500 1.52200 25.95500
H  -1.07000 2.38000 27.53600
H  0.48500 1.81300 27.06200
H  -1.35400 1.27300 23.89900
H  0.45100 1.14200 24.05000
H  -0.47200 1.20500 22.41300
H  -0.97800 7.68300 21.55000
H  0.26600 10.36000 21.81100
H  1.23000 6.87900 20.80800
H  2.00200 8.29300 21.55700
H  0.76500 8.43200 20.18000
H  -2.29800 10.25200 23.16800
H  -2.36100 9.40100 21.71600
H  -2.68100 11.20100 20.45200
H  -1.10500 11.82300 20.81700
H  -2.47900 12.35000 21.76000
H  2.47600 13.88400 26.45600
H  0.77500 14.09500 26.36400
H  1.51900 13.31900 24.95400
H  0.85100 10.87000 30.76400
H  4.67800 10.51500 32.77200
H  3.41000 10.08700 33.93000
H  3.80700 11.78900 33.53000
Mg -11.10400 38.40200 41.11300
C  -8.99500 35.73500 39.95800
C  -8.95900 40.52600 39.56200
C  -13.41300 40.64500 41.49600
C  -13.15800 35.85100 42.49400
N  -9.28300 38.03000 39.67300
C  -8.63500 36.92400 39.41900
C  -7.27900 37.34200 38.61700
C  -7.18500 38.85600 38.90800
C  -8.57900 39.20600 39.41700
C  -6.16300 39.19200 40.04800
C  -7.38800 36.97000 37.10500
C  -6.56500 35.78000 36.64000
H  -5.83800 36.05100 35.28600
N  -11.18400 40.34000 40.59600
C  -10.14600 41.12900 40.05800
C  -10.49900 42.49200 40.18900
C  -11.82400 42.53000 40.54800
C  -12.21600 41.16800 40.93400
C  -9.55200 43.61000 39.74200
C  -12.63000 43.82100 40.65800
O  -12.04000 44.92100 40.47100
C  -14.04600 43.87500 40.75100
N  -13.06600 38.20000 41.76000
C  -13.81100 39.33300 41.87800
C  -15.20000 39.09700 42.49400
C  -15.12800 37.57600 42.81600
C  -13.66300 37.20300 42.40900
C  -15.71900 40.04800 43.61700
C  -16.18200 36.61300 42.10400
C  -16.77300 35.44800 42.97700
N  -11.03700 36.25300 41.32600
C  -11.92300 35.43500 42.00000
C  -11.36800 34.16000 42.10000
C  -10.26100 34.22500 41.22100
C  -10.18700 35.50700 40.68800
C  -11.82100 33.10900 42.94900
C  -9.16500 33.47700 40.61000
O  -8.80500 32.31700 40.81300
C  -8.41300 34.37500 39.56900
C  -6.90700 34.25800 39.81400
O  -6.26500 34.89800 40.66500
O  -6.49400 33.28500 38.95000
C  -5.12200 32.82200 39.03100
H  -8.26900 41.24900 39.12200
H  -14.21000 41.33700 41.77800
H  -13.72200 35.12900 43.08800
H  -6.38900 36.81300 38.95500
H  -6.79700 39.39500 38.04400
H  -5.25700 39.67900 39.68600
H  -5.91200 38.31700 40.64700
H  -6.70600 39.86700 40.70900
H  -7.20000 37.85500 36.49800
H  -8.43300 36.72900 36.91200
H  -7.16200 34.87200 36.55100
H  -5.77500 35.54600 37.35300
H  -9.96000 43.88500 38.76900
H  -8.48500 43.41400 39.63100
H  -9.63500 44.38400 40.50500
H  -14.36300 43.02900 40.14000
H  -14.44200 44.80500 40.34400
H  -14.31500 43.55100 41.75600
H  -15.90900 39.22600 41.67600
H  -15.19900 37.39500 43.88900
H  -14.97300 40.80600 43.85600
H  -15.96900 39.43600 44.48400
H  -16.68800 40.45300 43.32500
H  -15.93300 36.21700 41.12000
H  -17.08700 37.20600 41.97000
H  -17.86000 35.38300 43.02100
H  -16.24600 35.45200 43.93100
H  -16.54100 34.43500 42.64600
H  -11.95100 32.24000 42.30400
H  -12.79300 33.25100 43.42000
H  -11.13700 32.93500 43.77900
H  -8.55400 34.09400 38.52600
H  -4.43900 33.34300 38.36000
H  -4.96800 31.74900 38.90900
H  -4.70300 33.04900 40.01100

