158

Mg -1.70800 16.96500 26.28600
C  -2.23200 15.01800 29.08000
C  -1.95700 19.76100 28.16200
C  -1.87400 18.78500 23.31200
C  -1.89700 14.07300 24.23500
N  -2.21000 17.26700 28.35200
C  -2.34900 16.36100 29.33300
C  -2.70800 17.05200 30.74200
C  -2.50400 18.61600 30.36500
C  -2.16000 18.53100 28.85700
C  -3.71600 19.54400 30.69300
C  -1.75300 16.50700 31.87200
C  -1.49400 17.39100 33.11600
H  -1.25500 16.58100 34.42500
N  -1.73500 18.97600 25.80300
C  -1.97800 19.98500 26.70000
C  -2.18600 21.24600 25.99600
C  -2.19000 20.95300 24.60100
C  -1.86300 19.54500 24.51700
C  -2.41900 22.55800 26.66400
C  -2.54600 21.87600 23.47900
O  -2.52800 21.53200 22.30500
C  -3.17900 23.18300 23.75700
N  -1.75000 16.43600 24.02700
C  -1.85100 17.42500 23.05200
C  -1.84300 16.75700 21.64900
C  -1.69900 15.21600 21.90100
C  -1.81600 15.17800 23.44800
C  -3.02300 17.21600 20.74000
C  -0.53500 14.36700 21.28800
C  0.89800 14.74000 21.79700
N  -1.99300 15.00200 26.53600
C  -2.03200 14.00400 25.63600
C  -2.07100 12.74800 26.36600
C  -2.15000 13.06900 27.68600
C  -2.10700 14.49700 27.77100
C  -2.06700 11.34300 25.80000
C  -2.19600 12.52900 28.99900
O  -2.20800 11.36200 29.37600
C  -2.32000 13.76600 30.02900
C  -1.25100 13.56800 31.01300
O  -0.05000 13.70300 30.81100
O  -1.77000 13.02300 32.15600
C  -0.79600 12.73100 33.13300
H  -1.96800 20.62700 28.82700
H  -1.94300 19.34200 22.37600
H  -1.86800 13.17300 23.61800
H  -3.75500 16.86500 30.97900
H  -1.58600 19.02800 30.78500
H  -3.26600 20.38600 31.21900
H  -4.37500 19.08500 31.43100
H  -4.30800 19.88000 29.84200
H  -0.83600 16.23700 31.34700
H  -2.18900 15.61200 32.31600
H  -2.31500 18.08100 33.30900
H  -0.61100 18.00200 32.92300
H  -1.53300 23.17300 26.50600
H  -2.60000 22.37700 27.72400
H  -3.32100 23.06700 26.32400
H  -4.11500 22.99900 24.28500
H  -3.30300 23.65900 22.78500
H  -2.58900 23.86900 24.36500
H  -0.85300 16.92300 21.22500
H  -2.55400 14.69800 21.46800
H  -3.52100 17.84000 21.48200
H  -3.73000 16.45700 20.40400
H  -2.76400 17.89100 19.92500
H  -0.54100 14.81600 20.29400
H  -0.72300 13.29300 21.28500
H  1.52200 15.22600 21.04700
H  1.39000 13.93000 22.33500
H  0.95000 15.51600 22.56100
H  -1.61900 10.74700 26.59500
H  -1.56500 11.31100 24.83300
H  -3.09600 11.03600 25.61600
H  -3.21000 13.82600 30.65500
H  -0.33000 13.68700 33.37400
H  -0.00700 12.06400 32.78400
H  -1.19300 12.28300 34.04400
Mg 35.98500 49.08100 24.38900
C  35.97800 47.47800 27.56300
C  34.33700 51.70600 26.14400
C  35.38900 50.46700 21.40600
C  37.06500 46.07600 23.08300
N  35.19300 49.55200 26.61400
C  35.48800 48.79400 27.69500
C  35.10700 49.59600 28.96900
C  34.40500 50.88100 28.52400
C  34.63400 50.72100 27.04800
C  32.91000 51.03500 28.84900
C  36.36700 49.83200 29.92700
C  36.05800 49.86200 31.41500
H  34.52900 49.80100 31.87500
N  35.19300 50.88500 23.83600
C  34.56300 51.82100 24.73500
C  34.13200 52.95200 23.89900
C  34.37300 52.66500 22.55400
C  35.01000 51.27900 22.49600
C  33.44400 54.25100 24.42900
C  34.06900 53.49700 21.29200
O  34.27700 52.97300 20.13400
C  33.83200 54.92000 21.32800
N  36.30400 48.48200 22.56200
C  35.98000 49.19700 21.43700
C  36.42500 48.45200 20.18100
C  37.21400 47.21600 20.72100
C  36.85800 47.19200 22.22100
C  35.34200 48.18100 19.06000
C  38.69900 46.99500 20.31500
C  39.70900 47.93000 21.06100
N  36.54100 47.13000 25.11300
C  36.99100 45.99700 24.50400
C  37.19200 44.93800 25.37300
C  36.87500 45.48100 26.61200
C  36.38800 46.76600 26.39600
C  37.65600 43.50900 25.03500
C  36.85300 45.16400 28.00200
O  37.12000 44.09400 28.58300
C  36.40200 46.45500 28.70400
C  35.27600 46.16000 29.59900
O  34.09200 46.01900 29.24900
O  35.72700 46.02500 30.94300
C  34.92900 45.13400 31.72300
H  33.71800 52.53100 26.50400
H  35.11300 50.60300 20.35800
H  37.59800 45.18100 22.75700
H  34.45400 48.95900 29.56500
H  34.99800 51.71700 28.89400
H  32.28800 51.01300 27.95400
H  32.72900 51.98100 29.36000
H  32.68900 50.25700 29.57900
H  36.85300 50.74700 29.58900
H  37.05500 49.06000 29.58000
H  36.51900 50.76200 31.82200
H  36.44900 49.01200 31.97300
H  34.22700 55.00800 24.47900
H  33.12700 54.17700 25.47000
H  32.49700 54.54500 23.97700
H  32.97000 55.16400 21.95000
H  33.75600 55.21400 20.28100
H  34.75800 55.34800 21.71200
H  37.20100 49.06000 19.71400
H  36.68000 46.32800 20.38100
H  34.54800 48.92700 19.11000
H  34.81800 47.25500 19.29600
H  35.86300 48.21800 18.10400
H  38.84000 47.16800 19.24800
H  39.09300 45.98000 20.36800
H  39.03800 48.69100 21.45800
H  40.48700 48.39700 20.45800
H  40.07200 47.34600 21.90700
H  37.62100 43.22400 23.98300
H  36.94700 42.80900 25.47700
H  38.64600 43.34800 25.46200
H  37.30900 46.61400 29.28600
H  34.92300 44.13100 31.29600
H  33.89300 45.47100 31.75900
H  35.24200 45.14500 32.76700

