158

Mg 46.86700 17.05000 28.46600
C  45.05200 16.95400 31.44700
C  49.30600 18.44400 30.21800
C  48.10400 17.98100 25.57600
C  43.96000 15.83400 26.71200
N  47.05600 17.68700 30.60900
C  46.25500 17.49700 31.70000
C  46.82300 17.86900 33.03400
C  48.12300 18.58400 32.48100
C  48.28900 18.04600 31.03400
C  48.22000 20.13000 32.74800
C  47.05400 16.61700 33.87200
C  46.60400 16.70600 35.38400
H  46.04900 17.97000 36.08500
N  48.59000 17.95100 27.93000
C  49.47400 18.44600 28.80800
C  50.54000 19.01800 28.09600
C  50.35200 18.80000 26.69800
C  48.98900 18.26000 26.62300
C  51.62500 19.81800 28.80800
C  51.27500 19.12200 25.53100
O  50.84900 18.91900 24.41400
C  52.76900 19.56600 25.66400
N  46.10600 16.81700 26.41800
C  46.87300 17.31800 25.40200
C  46.21400 17.18700 24.06800
C  45.06500 16.27100 24.40900
C  45.01100 16.18900 25.97200
C  45.72800 18.54100 23.48000
C  45.00700 14.95400 23.57900
C  45.57700 13.62800 24.17400
N  44.87500 16.31500 28.92200
C  43.86900 15.82800 28.14000
C  42.76300 15.47500 29.01800
C  43.16000 15.89500 30.32300
C  44.48800 16.41400 30.19700
C  41.32300 15.07300 28.69900
C  42.74200 15.97900 31.72600
O  41.69400 15.60000 32.27800
C  43.98600 16.63600 32.43800
C  43.40900 17.89200 32.95800
O  43.32900 18.96500 32.37700
O  42.77500 17.60800 34.18400
C  41.77900 18.61800 34.68300
H  50.12100 18.81200 30.84500
H  48.52500 18.54700 24.74300
H  43.10500 15.41500 26.17800
H  46.16800 18.56300 33.56200
H  48.95200 18.13900 33.03100
H  47.24600 20.55600 32.99100
H  48.65900 20.69600 31.92600
H  48.87800 20.35800 33.58600
H  48.13000 16.47000 33.96100
H  46.58600 15.75200 33.40100
H  47.44000 16.40100 36.01300
H  45.96200 15.82500 35.41800
H  52.57500 19.42700 28.44400
H  51.79800 19.61800 29.86500
H  51.56300 20.88500 28.59700
H  52.66200 20.65000 25.69700
H  53.25100 19.22600 24.74700
H  53.28700 19.13900 26.52300
H  46.94500 16.69400 23.42700
H  44.09800 16.71200 24.16600
H  45.68600 19.16900 24.37000
H  44.72600 18.48200 23.05500
H  46.48400 18.83700 22.75300
H  45.46600 15.13500 22.60700
H  43.95100 14.70900 23.46800
H  44.74200 12.95900 24.38000
H  46.16700 13.79000 25.07700
H  46.14400 13.02200 23.46800
H  41.06100 15.44300 27.70800
H  40.70500 15.64200 29.39400
H  41.15000 13.99700 28.69100
H  44.22600 16.12100 33.36800
H  40.86900 18.52900 34.08900
H  42.17800 19.62600 34.56600
H  41.65000 18.43000 35.74900
Mg 48.60500 36.02600 28.26500
C  46.73400 34.29600 30.60100
C  48.64400 38.73900 30.25300
C  49.94600 37.78700 25.77000
C  48.29500 33.30200 26.07100
N  47.67300 36.44800 30.17700
C  47.12500 35.54300 31.07200
C  46.88100 36.19200 32.45600
C  47.25200 37.69000 32.24300
C  47.86900 37.61900 30.80100
C  46.15300 38.83000 32.38500
C  47.78500 35.47900 33.62000
C  49.08800 36.01200 34.17400
H  49.11500 36.73200 35.54700
N  49.33900 37.95100 28.08200
C  49.29100 38.90900 29.00400
C  50.04400 40.14500 28.61100
C  50.47400 39.85500 27.26400
C  49.91800 38.52500 26.96200
C  50.25700 41.34000 29.41600
C  51.29800 40.65100 26.27000
O  51.71900 40.19300 25.25600
C  51.67400 42.03800 26.65600
N  48.93600 35.59900 26.25400
C  49.44600 36.55000 25.46800
C  49.65100 36.03100 24.02000
C  49.42900 34.44900 24.11100
C  48.81700 34.45600 25.51600
C  48.67600 36.68400 22.99800
C  50.81800 33.73600 23.96500
C  51.50500 33.82500 22.61600
N  47.72400 34.13800 28.25900
C  47.71800 33.14700 27.30900
C  46.98700 32.00200 27.82100
C  46.57500 32.42800 29.09100
C  46.97000 33.75600 29.27600
C  46.84300 30.71000 27.17700
C  45.81800 32.07900 30.26200
O  45.23200 31.01300 30.50000
C  45.77400 33.27500 31.25400
C  46.16500 32.75800 32.58800
O  47.08300 31.98100 32.80100
O  45.19300 33.16900 33.44400
C  45.25200 32.51000 34.79200
H  48.68600 39.58500 30.94200
H  50.41900 38.34400 24.95800
H  48.23600 32.46000 25.37900
H  45.87300 36.06000 32.84800
H  48.06300 37.95400 32.92200
H  46.54200 39.84800 32.34700
H  45.56600 38.66900 33.28900
H  45.50000 38.74000 31.51700
H  48.06600 34.50900 33.21000
H  47.02200 35.25900 34.36700
H  49.55000 36.64900 33.41800
H  49.78000 35.17400 34.09600
H  49.39500 41.99100 29.27200
H  51.22800 41.81600 29.28000
H  50.22200 41.05000 30.46700
H  52.00600 42.45800 25.70700
H  52.38400 42.05400 27.48300
H  50.75200 42.54500 26.94200
H  50.67700 36.29200 23.76000
H  48.62100 34.00100 23.53200
H  49.17900 37.50600 22.48800
H  47.86300 37.07900 23.60600
H  48.30500 35.92900 22.30500
H  50.57300 32.67900 23.85600
H  51.56100 33.73700 24.76300
H  51.66600 34.79700 22.15000
H  50.89600 33.25100 21.91700
H  52.47200 33.32400 22.64300
H  47.59700 30.11200 27.68900
H  47.00300 30.73100 26.09900
H  45.83900 30.36000 27.41700
H  44.71000 33.50600 31.30400
H  45.54700 31.48500 34.56600
H  44.23700 32.45000 35.18400
H  45.92100 32.86800 35.57500

