158

Mg 41.43100 8.64000 29.24300
C  43.18300 9.61000 32.15900
C  39.18900 6.86300 31.22400
C  40.01600 7.55300 26.44900
C  44.06500 9.95400 27.37700
N  41.18400 8.37800 31.37800
C  42.01300 8.89700 32.42000
C  41.39800 8.53700 33.73300
C  40.37500 7.37400 33.43500
C  40.28900 7.42100 31.89300
C  40.81000 5.93000 33.90100
C  40.77900 9.75300 34.53300
C  40.88200 9.69600 36.02800
H  41.58000 10.89000 36.66700
N  39.81200 7.30500 28.92700
C  38.97700 6.79100 29.83400
C  37.90200 6.17200 29.14000
C  38.07900 6.47100 27.74300
C  39.37600 7.08500 27.62700
C  36.75800 5.39200 29.85100
C  37.19300 6.00500 26.60900
O  37.66400 5.92200 25.49000
C  35.87300 5.45500 26.89500
N  42.12900 8.46800 27.31800
C  41.29500 8.07300 26.28500
C  41.95900 8.26900 24.90900
C  43.30200 8.94700 25.21100
C  43.21700 9.08100 26.73600
C  42.12200 6.88800 24.23800
C  43.51800 10.33000 24.48000
C  42.50100 11.47800 24.75800
N  43.22500 9.68900 29.62600
C  44.19600 10.19600 28.77800
C  45.18700 10.86600 29.51300
C  44.83200 10.66100 30.85400
C  43.67400 9.88300 30.88900
C  46.36300 11.58500 28.93600
C  45.27900 10.96600 32.19000
O  46.11700 11.71700 32.64500
C  44.21000 10.28200 33.08600
C  44.77800 9.25100 34.00200
O  45.22500 8.16700 33.72900
O  44.72800 9.76100 35.26900
C  45.18100 9.02800 36.43100
H  38.47900 6.25600 31.78900
H  39.35300 7.40600 25.59300
H  44.86400 10.45800 26.83000
H  42.19000 8.02300 34.27600
H  39.33300 7.51000 33.72500
H  41.06400 5.33100 33.02600
H  40.05600 5.51700 34.57100
H  41.68600 6.04300 34.54000
H  39.70200 9.80000 34.37800
H  41.20000 10.68500 34.15700
H  41.44500 8.78800 36.24600
H  39.94600 9.59000 36.57600
H  36.98200 5.32200 30.91500
H  36.49400 4.38900 29.51600
H  35.83100 5.96500 29.82500
H  35.17600 5.49800 26.05800
H  35.35900 6.06300 27.64000
H  36.10400 4.44500 27.23400
H  41.26000 8.95300 24.42800
H  44.11400 8.23600 25.06100
H  41.78400 6.03700 24.83000
H  43.13100 6.76100 23.84600
H  41.44400 6.88700 23.38400
H  43.49600 10.11600 23.41200
H  44.55700 10.59000 24.68500
H  42.02300 11.08700 25.65600
H  41.77300 11.40600 23.95000
H  42.94500 12.46800 24.85600
H  46.33700 11.99400 27.92600
H  47.10900 10.79200 28.97900
H  46.59000 12.40900 29.61200
H  43.62600 10.96300 33.70600
H  44.34000 8.73100 37.05800
H  45.85000 9.53900 37.12300
H  45.74200 8.16800 36.06500
Mg 48.72900 35.06700 26.19200
C  47.14100 33.51200 28.98200
C  49.23500 37.80800 28.02800
C  50.25200 36.25000 23.55000
C  48.17700 32.01600 24.44100
N  48.13500 35.60600 28.31500
C  47.70700 34.76900 29.30900
C  48.05200 35.32200 30.64700
C  48.38600 36.79700 30.29100
C  48.60800 36.80100 28.76800
C  47.28600 37.83400 30.58000
C  49.15800 34.58600 31.41100
C  49.20200 34.66900 32.94300
H  48.04000 35.34700 33.75800
N  49.56200 36.83800 25.81800
C  49.62700 37.88800 26.67500
C  50.31000 39.01000 25.89900
C  50.70200 38.53800 24.62000
C  50.20800 37.12700 24.63200
C  50.61000 40.33000 26.68400
C  51.46000 39.23100 23.52000
O  51.92100 38.68400 22.53300
C  51.65800 40.75700 23.52100
N  49.21500 34.16300 24.24000
C  49.89500 34.91200 23.35300
C  50.18300 34.05500 22.07200
C  49.46500 32.66100 22.31400
C  48.97800 32.89500 23.79500
C  49.71100 34.79000 20.77300
C  50.45900 31.47300 22.22200
C  51.52800 31.49900 21.08200
N  47.78800 33.22300 26.52000
C  47.66400 32.10400 25.72200
C  46.94400 31.07400 26.42600
C  46.70500 31.57500 27.72500
C  47.24300 32.87500 27.70600
C  46.63100 29.66100 25.91600
C  46.16500 31.27100 29.05300
O  45.78900 30.20600 29.49600
C  46.26800 32.57200 29.81000
C  46.89800 32.18700 31.15000
O  48.05500 31.87400 31.37000
O  45.94600 32.17800 32.15800
C  46.38700 31.83500 33.52000
H  49.38000 38.71400 28.62000
H  50.69700 36.77600 22.70300
H  48.15800 31.06300 23.90900
H  47.19400 35.26800 31.31600
H  49.32700 37.06100 30.77400
H  47.42900 38.40600 31.49700
H  46.35300 37.28600 30.70800
H  47.07500 38.52600 29.76400
H  50.06000 35.16600 31.21100
H  49.48800 33.64400 30.97300
H  50.17400 35.07500 33.22500
H  49.25700 33.60600 33.18000
H  51.65100 40.33300 27.00700
H  49.87600 40.36900 27.48800
H  50.55000 41.18800 26.01400
H  52.03400 41.20300 22.60100
H  52.41900 41.05700 24.24200
H  50.71600 41.24900 23.76500
H  51.25200 33.86800 21.97000
H  48.64000 32.52300 21.61600
H  49.41800 34.23600 19.88100
H  50.50300 35.36200 20.29000
H  48.79300 35.35500 20.93000
H  49.83000 30.58900 22.12100
H  51.01700 31.24700 23.13000
H  52.46000 31.77300 21.57600
H  51.18800 32.04400 20.20100
H  51.60900 30.50400 20.64500
H  45.60000 29.48400 25.60900
H  46.95500 28.94900 26.67500
H  47.33300 29.43000 25.11500
H  45.33300 33.06900 30.07000
H  47.43500 31.54600 33.44500
H  45.79200 31.05400 33.99400
H  46.21400 32.81100 33.97400

