158

Mg 0.25600 7.87900 26.21600
C  1.09300 9.91600 29.05900
C  0.25500 5.16500 28.33700
C  -0.33400 6.10500 23.54400
C  0.45600 10.82800 24.20300
N  0.73400 7.62900 28.51500
C  0.81900 8.60900 29.48100
C  0.75200 7.87500 30.90900
C  0.83200 6.31000 30.48600
C  0.59900 6.34100 29.00600
C  2.21300 5.58200 30.75900
C  -0.55200 8.25100 31.71700
C  -0.40000 9.03800 33.05900
H  0.85800 8.70100 33.86200
N  -0.20800 5.94200 26.02200
C  -0.03500 4.98300 26.96700
C  -0.39100 3.72700 26.35800
C  -0.76300 3.98500 25.03900
C  -0.50700 5.42400 24.79100
C  -0.39800 2.43000 27.09600
C  -1.38300 2.97400 24.00700
O  -1.94000 3.40100 23.01100
C  -1.45900 1.54100 24.22200
N  0.07000 8.46100 24.20000
C  -0.12600 7.46900 23.28200
C  -0.06000 8.04800 21.85600
C  -0.13000 9.57500 22.14100
C  0.16700 9.61800 23.59400
C  1.27100 7.50500 21.25200
C  -1.36200 10.39400 21.88600
C  -1.18100 11.73100 21.06800
N  0.76800 9.81000 26.43400
C  0.71400 10.98500 25.62800
C  1.13300 12.17400 26.30400
C  1.36700 11.69700 27.64200
C  0.99200 10.37100 27.73500
C  1.19900 13.56300 25.76500
C  1.64400 12.27000 28.84600
O  2.00300 13.40500 29.21000
C  1.45700 11.11100 29.83000
C  2.61700 10.95900 30.77200
O  3.62800 10.29800 30.54300
O  2.43600 11.83600 31.86300
C  3.67700 12.11300 32.59000
H  0.25400 4.33000 29.04100
H  -0.61700 5.60800 22.61400
H  0.60800 11.74300 23.62600
H  1.68100 8.13900 31.41500
H  0.07300 5.70700 30.98500
H  2.26400 5.15700 31.76200
H  3.09500 6.21300 30.64500
H  2.33100 4.72300 30.09900
H  -1.03200 7.31200 31.99400
H  -1.29100 8.81800 31.15200
H  -1.23300 8.76600 33.70700
H  -0.33300 10.09300 32.79300
H  -1.36900 1.93400 27.09200
H  0.01700 2.49200 28.10200
H  0.28100 1.85000 26.47200
H  -1.91400 1.10500 23.33300
H  -2.01900 1.43200 25.15100
H  -0.42500 1.19900 24.25200
H  -0.96100 7.78900 21.30100
H  0.69000 10.17100 21.73900
H  2.02900 8.23200 20.96100
H  1.02400 6.95400 20.34400
H  1.80400 6.86100 21.95100
H  -1.85900 10.76300 22.78300
H  -2.05000 9.72000 21.37500
H  -0.22500 12.25100 21.12100
H  -1.90900 12.45900 21.42500
H  -1.55700 11.52900 20.06500
H  0.45300 13.68500 24.98100
H  2.22400 13.71700 25.42600
H  0.86300 14.37200 26.41300
H  0.59500 11.45900 30.39700
H  3.58200 13.01000 33.20100
H  4.47900 12.23100 31.86100
H  4.01800 11.26000 33.17800
Mg 24.82900 1.24100 29.39300
C  27.04900 1.01300 32.08600
C  22.20600 1.53300 31.70800
C  22.66300 1.25000 26.87000
C  27.52500 0.48700 27.18900
N  24.69500 1.33600 31.64700
C  25.71200 1.22500 32.53800
C  25.23400 1.57000 33.96300
C  23.65900 1.54500 33.88800
C  23.48900 1.54900 32.35900
C  23.02400 0.27500 34.48300
C  25.95200 2.79600 34.73700
C  26.45100 2.43700 36.17500
H  26.38200 3.35400 37.33900
N  22.78000 1.49600 29.36200
C  21.81100 1.56400 30.36500
C  20.51500 1.68000 29.78500
C  20.63900 1.55900 28.40000
C  22.07100 1.46800 28.16000
C  19.32700 1.71000 30.70300
C  19.57200 1.55600 27.29000
O  19.87100 1.65000 26.10000
C  18.11200 1.50100 27.78400
N  25.01000 0.71400 27.38300
C  23.98700 0.99100 26.52900
C  24.46400 1.07700 25.06000
C  25.98300 0.77000 25.17700
C  26.20500 0.67800 26.66100
C  23.78100 0.08700 24.14100
C  26.84400 1.86500 24.46700
C  26.84800 3.21800 25.11100
N  26.77600 0.82300 29.54500
C  27.76000 0.43300 28.59600
C  29.12800 0.27700 29.21100
C  28.82700 0.47600 30.61800
C  27.41000 0.77100 30.75400
C  30.42700 -0.11100 28.49700
C  29.44100 0.50200 32.01100
O  30.64700 0.33200 32.26700
C  28.23200 0.72900 33.00700
C  28.07300 -0.44500 33.79200
O  27.16600 -1.20000 33.74400
O  28.90300 -0.29900 34.89200
C  28.50400 -0.92900 36.12000
H  21.37000 1.61600 32.40600
H  22.09300 1.41200 25.95300
H  28.35800 0.50400 26.48300
H  25.41900 0.63100 34.48500
H  23.22800 2.42000 34.37500
H  23.49100 -0.65500 34.15700
H  21.95600 0.16400 34.29500
H  23.04800 0.33000 35.57100
H  25.26600 3.64100 34.79200
H  26.80200 3.20400 34.19200
H  27.51900 2.32900 35.98400
H  26.11600 1.48000 36.57400
H  18.89000 0.72200 30.84400
H  18.67200 2.40400 30.17600
H  19.45900 2.15000 31.69100
H  18.14800 0.83300 28.64500
H  17.38200 1.07600 27.09500
H  17.89600 2.54000 28.03400
H  24.35000 2.09000 24.67400
H  26.34300 -0.16600 24.74900
H  22.80000 -0.19700 24.52300
H  24.36200 -0.83300 24.07400
H  23.57900 0.51500 23.15900
H  26.48200 2.09600 23.46500
H  27.86500 1.48500 24.44400
H  26.41300 3.93800 24.41700
H  27.83900 3.52500 25.44400
H  26.20900 3.26300 25.99300
H  31.37800 0.33000 28.79700
H  30.28700 0.00200 27.42200
H  30.45100 -1.18300 28.69200
H  28.52800 1.58600 33.61200
H  28.41700 -1.98200 35.85300
H  27.55200 -0.53000 36.46900
H  29.31700 -0.70300 36.80900

