158

Mg 41.48500 40.57300 26.54400
C  40.75700 42.95700 29.07400
C  42.46200 38.35200 28.90900
C  42.19400 38.44800 24.08000
C  40.60500 43.08600 24.26600
N  41.57300 40.65500 28.80100
C  41.15000 41.65500 29.62800
C  41.23900 41.11500 31.09100
C  42.00000 39.75600 30.97400
C  41.91600 39.52700 29.43500
C  43.50700 39.93700 31.35700
C  39.76100 40.99900 31.64900
C  39.44100 41.90700 32.80100
H  38.95500 41.26200 34.08300
N  42.29300 38.69900 26.45600
C  42.59500 37.94000 27.58300
C  43.15100 36.68000 27.15500
C  43.12400 36.70700 25.73700
C  42.57800 37.97700 25.37500
C  43.44500 35.54000 27.99200
C  43.50000 35.51900 24.78200
O  43.33600 35.60000 23.60800
C  43.93700 34.15400 25.21200
N  41.52700 40.81100 24.40100
C  41.70500 39.70600 23.65100
C  41.47600 39.94800 22.15700
C  40.78600 41.34100 22.22900
C  40.94100 41.84100 23.73100
C  42.76100 39.98000 21.34600
C  39.23600 41.29000 21.86100
C  38.26800 40.44800 22.76100
N  41.01300 42.56100 26.60700
C  40.71800 43.50400 25.58900
C  40.33200 44.75200 26.04000
C  40.31300 44.59800 27.38100
C  40.73800 43.24100 27.65700
C  39.99600 45.98700 25.30200
C  40.03700 45.22900 28.66800
O  39.60700 46.33400 28.97300
C  40.32100 44.14900 29.79300
C  41.33600 44.67700 30.83900
O  42.55500 44.70600 30.76300
O  40.61300 45.35300 31.82700
C  41.37200 45.89900 32.95500
H  42.76800 37.61100 29.65000
H  42.23600 37.70200 23.28300
H  40.28600 43.84100 23.54500
H  41.78600 41.91700 31.58700
H  41.47700 39.06000 31.63000
H  43.59900 39.81600 32.43700
H  43.77400 40.98000 31.19000
H  44.10800 39.22400 30.79300
H  39.49600 39.97600 31.91500
H  38.99500 41.35300 30.95800
H  38.61600 42.52500 32.44500
H  40.25500 42.62400 32.90300
H  43.12400 35.72500 29.01700
H  44.50200 35.27200 27.97700
H  42.81000 34.70900 27.68500
H  44.70600 34.33300 25.96400
H  44.28600 33.46800 24.44100
H  43.02200 33.67100 25.55700
H  40.77700 39.34300 21.57900
H  41.30300 42.09000 21.62900
H  43.25900 40.94900 21.35300
H  42.61100 39.58700 20.34000
H  43.51500 39.34200 21.80600
H  39.35500 40.75300 20.92000
H  38.95000 42.33800 21.77100
H  37.67600 39.77600 22.14100
H  37.64800 41.16000 23.30600
H  38.76500 39.80900 23.49100
H  40.73500 46.77200 25.46200
H  39.10500 46.41300 25.76300
H  39.77800 45.76700 24.25700
H  39.43300 43.75900 30.29100
H  41.18600 45.24700 33.80800
H  40.94400 46.85200 33.26900
H  42.42300 46.10800 32.75800
Mg -5.45600 26.01300 25.90900
C  -4.05100 27.44600 28.80900
C  -7.33200 24.01100 27.88500
C  -6.77000 24.68200 23.14800
C  -3.16200 27.95700 24.13600
N  -5.75900 25.92700 28.12200
C  -5.04000 26.49500 29.08100
C  -5.51500 26.05100 30.42000
C  -6.26100 24.70700 30.10400
C  -6.52300 24.93100 28.58200
C  -5.39500 23.41200 30.26500
C  -6.35000 27.12000 31.16400
C  -6.11900 27.28700 32.71300
H  -5.38100 26.25100 33.40500
N  -6.73600 24.43400 25.51600
C  -7.44100 23.75200 26.46800
C  -8.22600 22.76100 25.80900
C  -8.01900 22.96200 24.42600
C  -7.10800 24.07500 24.33200
C  -9.10000 21.80300 26.61900
C  -8.53700 22.12300 23.25400
O  -8.39900 22.42500 22.09000
C  -9.22600 20.78700 23.56500
N  -4.76700 26.05300 23.88200
C  -5.63600 25.49500 22.92400
C  -5.08200 25.83500 21.50900
C  -4.12100 27.05300 21.88700
C  -4.03600 27.09300 23.38900
C  -4.52600 24.52800 20.86800
C  -4.70800 28.36900 21.31600
C  -3.66800 29.29200 20.70200
N  -3.81100 27.35300 26.27500
C  -2.98600 28.11900 25.49400
C  -2.12700 28.97900 26.29400
C  -2.53500 28.72700 27.56400
C  -3.53900 27.77400 27.55700
C  -1.13900 29.97400 25.74200
C  -2.25400 29.19000 28.87600
O  -1.40700 29.95700 29.28500
C  -3.10300 28.22800 29.80200
C  -2.24300 27.43000 30.71400
O  -1.82400 26.28300 30.56500
O  -2.03100 28.14900 31.92100
C  -0.87900 27.72400 32.67300
H  -7.76600 23.27500 28.56600
H  -7.10900 24.29700 22.18400
H  -2.53900 28.51700 23.43600
H  -4.57700 25.87400 30.94500
H  -7.17100 24.76300 30.70200
H  -4.64700 23.47400 31.05500
H  -4.84700 23.24300 29.33700
H  -5.91200 22.50300 30.57200
H  -7.41200 26.98200 30.96300
H  -6.15900 28.05800 30.64200
H  -7.10100 27.42000 33.16800
H  -5.61400 28.24700 32.82400
H  -9.53100 20.94400 26.10500
H  -10.00600 22.32800 26.92100
H  -8.63200 21.52100 27.56300
H  -8.59600 20.29600 24.30600
H  -9.01400 20.28200 22.62300
H  -10.29900 20.77200 23.75500
H  -5.98500 26.20600 21.02500
H  -3.17600 26.85000 21.38300
H  -3.45300 24.42400 21.02800
H  -4.84200 24.34900 19.84000
H  -4.90500 23.61900 21.33600
H  -5.20300 28.86800 22.14900
H  -5.50800 28.29500 20.57900
H  -2.93900 28.72000 20.12700
H  -3.17600 29.90000 21.46100
H  -4.15800 30.02500 20.06100
H  -1.49500 30.64100 24.95600
H  -0.36200 29.34300 25.30900
H  -0.76600 30.61300 26.54300
H  -3.79700 28.79400 30.42300
H  -0.25200 28.57600 32.93500
H  -0.28400 27.05500 32.05200
H  -1.17900 27.12200 33.53100

