158

Mg 35.22700 49.01100 25.25800
C  35.58400 47.33200 28.36500
C  33.95300 51.69200 26.94900
C  34.89300 50.45700 22.27900
C  36.65700 46.19900 23.70200
N  34.71400 49.38000 27.43500
C  34.95000 48.58500 28.55600
C  34.52400 49.36400 29.79400
C  33.83000 50.66100 29.25500
C  34.17400 50.59700 27.79400
C  32.35900 50.99400 29.62400
C  35.74400 49.50400 30.85100
C  35.50000 49.82400 32.32900
H  34.05400 49.56500 32.89400
N  34.56400 50.79800 24.69300
C  34.13500 51.82500 25.52000
C  33.98700 53.04300 24.77500
C  34.09200 52.70200 23.42500
C  34.51700 51.24100 23.42300
C  33.83500 54.36600 25.39300
C  33.97700 53.58000 22.20000
O  34.38200 53.15700 21.12600
C  33.38200 54.98900 22.28100
N  35.79500 48.45000 23.21400
C  35.41300 49.17100 22.12500
C  35.98600 48.56500 20.79400
C  36.65200 47.27200 21.35800
C  36.36800 47.29600 22.83400
C  34.91500 48.30200 19.71200
C  38.17300 47.05900 20.93600
C  39.30100 47.63300 21.86700
N  35.91700 47.14100 25.83100
C  36.48700 46.09900 25.06400
C  36.68200 44.99400 25.94100
C  36.36400 45.45600 27.21900
C  35.95600 46.79100 27.13800
C  37.33000 43.66600 25.46800
C  36.31300 44.99300 28.59900
O  36.59200 43.91300 29.11900
C  35.86200 46.25500 29.43000
C  34.61000 45.88000 30.16200
O  33.49000 45.79700 29.64500
O  35.01000 45.45900 31.46200
C  33.81700 44.92500 32.14400
H  33.44700 52.43300 27.57100
H  34.84500 50.96900 21.31500
H  37.17500 45.35000 23.25100
H  33.73300 48.80000 30.28900
H  34.34500 51.52100 29.68400
H  31.86800 50.12700 30.06700
H  31.79000 51.10500 28.70100
H  32.30000 51.92300 30.19100
H  36.24300 50.41100 30.51000
H  36.39300 48.65200 30.64900
H  35.83200 50.82400 32.60500
H  36.10600 49.22800 33.01200
H  32.90900 54.89800 25.17400
H  34.68900 54.94800 25.04800
H  33.89800 54.21700 26.47100
H  33.93800 55.66500 22.93000
H  32.33000 54.87700 22.54300
H  33.41600 55.38200 21.26500
H  36.79300 49.23600 20.49800
H  36.19300 46.36100 20.97500
H  34.46400 47.32000 19.85700
H  35.43600 48.27200 18.75500
H  34.17500 49.10200 19.68900
H  38.38100 47.49300 19.95900
H  38.33300 45.98200 20.89200
H  39.80500 46.80700 22.37000
H  38.80600 48.30300 22.56900
H  39.96300 48.22200 21.23200
H  36.51800 43.22700 24.88800
H  37.43300 43.24100 26.46600
H  38.25300 43.84800 24.91700
H  36.66700 46.33600 30.16000
H  32.92900 45.55600 32.18500
H  34.09600 44.80800 33.19100
H  33.59000 43.91500 31.80200
Mg -2.08000 34.44000 26.90200
C  -3.73200 32.62600 29.41100
C  -0.67900 36.35300 29.44600
C  -0.60500 36.12900 24.56200
C  -3.67000 32.64200 24.47200
N  -2.19200 34.45300 29.13500
C  -2.86400 33.55800 29.96200
C  -2.62300 33.85700 31.45900
C  -1.85800 35.23200 31.37200
C  -1.59100 35.38500 29.88400
C  -2.56200 36.40500 32.05200
C  -1.89900 32.75100 32.26300
C  -2.58900 32.27600 33.57700
H  -1.62600 32.22700 34.78900
N  -0.81500 36.06500 27.04000
C  -0.30600 36.67000 28.12700
C  0.70000 37.62700 27.74200
C  0.64700 37.66100 26.33000
C  -0.28600 36.58100 25.92500
C  1.55200 38.46100 28.71100
C  1.41700 38.47900 25.30200
O  1.19400 38.51300 24.13300
C  2.53400 39.36100 25.80500
N  -2.23300 34.51200 24.70000
C  -1.46100 35.26900 23.97900
C  -1.73200 35.11400 22.48600
C  -2.77600 34.00000 22.46100
C  -2.88800 33.67900 23.96000
C  -2.16700 36.46600 21.83200
C  -2.37200 32.93800 21.43300
C  -1.58900 31.67600 21.98100
N  -3.38000 32.85500 26.82800
C  -3.97300 32.25400 25.75100
C  -4.84100 31.24500 26.21900
C  -4.83700 31.30100 27.58300
C  -3.94000 32.29600 27.98400
C  -5.57100 30.30500 25.40200
C  -5.30300 30.73400 28.87500
O  -6.10800 29.84400 29.05100
C  -4.64300 31.55300 30.03600
C  -5.72800 32.11000 30.91100
O  -6.67800 32.68400 30.47700
O  -5.50800 31.84400 32.20600
C  -6.73800 31.96500 33.05100
H  -0.10700 36.92000 30.18300
H  0.09600 36.51300 23.81800
H  -4.15400 32.11200 23.65000
H  -3.65900 33.98500 31.77400
H  -0.93400 35.14300 31.94200
H  -3.02000 36.90900 31.20100
H  -1.87200 37.11800 32.50200
H  -3.40300 36.06200 32.65600
H  -0.87800 33.05500 32.49000
H  -1.91300 31.85000 31.65000
H  -2.89600 31.23500 33.47600
H  -3.55200 32.72500 33.82300
H  2.61800 38.29600 28.55200
H  1.43500 38.27000 29.77700
H  1.21000 39.49400 28.64700
H  2.71600 40.11300 25.03700
H  3.40700 38.77300 26.08900
H  2.11600 39.90100 26.65500
H  -0.80800 34.72000 22.06000
H  -3.73600 34.39700 22.13200
H  -1.78200 37.30000 22.41900
H  -3.21800 36.60800 21.58200
H  -1.61600 36.59400 20.90100
H  -1.72900 33.36500 20.66300
H  -3.34100 32.67200 21.01000
H  -2.21900 30.78700 21.96000
H  -1.22400 31.95600 22.96900
H  -0.70000 31.53300 21.36800
H  -5.85400 30.71100 24.43100
H  -6.53600 30.17000 25.89100
H  -4.96000 29.41100 25.27600
H  -3.99800 30.88800 30.60900
H  -6.71000 32.49100 34.00600
H  -7.13300 30.96500 33.23300
H  -7.64600 32.37200 32.60700

