158

Mg 47.04600 34.21600 28.24800
C  45.55100 32.47600 30.97700
C  47.32800 36.98800 30.40600
C  47.94400 36.02600 25.57200
C  46.02800 31.69500 26.25700
N  46.59800 34.62600 30.47700
C  46.02300 33.74600 31.32100
C  46.07900 34.40800 32.75300
C  46.19400 35.90700 32.39400
C  46.76400 35.83800 30.97800
C  44.90000 36.77200 32.51100
C  47.22500 33.94600 33.75100
C  46.79500 33.61100 35.25200
H  46.96800 34.73600 36.24400
N  47.70300 36.19300 28.07200
C  47.70000 37.19500 29.06600
C  48.11500 38.40900 28.38000
C  48.29000 38.13900 26.97900
C  48.05600 36.72100 26.83400
C  48.13500 39.83100 29.03700
C  48.58700 39.06300 25.85100
O  48.63900 38.67200 24.68900
C  48.93300 40.52500 26.20900
N  46.98000 33.87600 26.20100
C  47.37300 34.78000 25.33600
C  47.27100 34.23700 23.84500
C  46.78400 32.82500 24.03000
C  46.63800 32.76200 25.58100
C  46.43200 35.08800 22.82100
C  47.66200 31.76600 23.45400
C  46.93700 30.53000 23.13200
N  45.94600 32.46900 28.50200
C  45.77400 31.42300 27.58000
C  45.03800 30.35100 28.19900
C  44.95000 30.76300 29.52600
C  45.56400 32.01500 29.65200
C  44.43700 29.15800 27.44200
C  44.46300 30.33200 30.82200
O  43.75100 29.39700 31.13100
C  44.99000 31.37000 31.83100
C  45.67500 30.84600 32.97400
O  46.87900 30.55600 32.92400
O  44.79000 30.67900 33.95200
C  45.39800 30.12200 35.19300
H  47.29200 37.90800 30.99400
H  48.24400 36.46400 24.61700
H  45.71800 30.84600 25.64400
H  45.15300 34.19300 33.28600
H  46.94400 36.43700 32.98100
H  45.08900 37.50000 33.30100
H  44.10500 36.15000 32.92100
H  44.66100 37.11800 31.50500
H  48.00100 34.70500 33.84700
H  47.68800 33.07300 33.29100
H  47.23900 32.69700 35.64600
H  45.75200 33.29500 35.22900
H  47.34300 40.47300 28.65000
H  49.09100 40.32900 28.87800
H  47.97700 39.80800 30.11500
H  49.10500 41.13100 25.32000
H  49.81700 40.50500 26.84700
H  48.11300 41.09200 26.65100
H  48.29800 34.15600 23.48900
H  45.76900 32.79400 23.63400
H  45.71100 34.51500 22.23700
H  47.10000 35.67300 22.18900
H  45.92300 35.93000 23.29200
H  48.42800 31.50600 24.18400
H  48.19400 32.04600 22.54500
H  46.96800 30.42600 22.04700
H  45.88500 30.55400 23.41600
H  47.47200 29.66700 23.52700
H  43.51800 29.59100 27.04700
H  44.19400 28.32600 28.10300
H  45.08900 28.72100 26.68600
H  44.04000 31.79300 32.15900
H  45.47500 30.94000 35.91000
H  46.41200 29.72600 35.14600
H  44.61200 29.43000 35.49600
Mg 30.20500 59.39600 39.73800
C  27.40900 57.64900 38.78800
C  32.19300 56.67300 38.68700
C  32.93700 61.34500 39.73900
C  28.26800 62.33500 39.81100
N  29.83400 57.36800 38.76200
C  28.60100 56.87500 38.56300
C  28.74300 55.54700 37.86000
C  30.21200 55.07300 38.07600
C  30.80100 56.46700 38.60400
C  30.35100 53.90800 39.09200
C  28.37400 55.67700 36.29600
C  27.45000 54.63600 35.76200
H  26.55600 55.07800 34.54300
N  32.29700 58.98800 39.56400
C  32.83600 57.80600 39.10900
C  34.27500 57.98400 39.19400
C  34.55900 59.27300 39.60800
C  33.20000 59.90700 39.69400
C  35.30200 56.98900 38.68100
C  35.91800 59.82300 39.83800
O  36.92100 59.17200 39.62200
C  36.13400 61.12100 40.59100
N  30.48900 61.53400 39.65600
C  31.74100 62.06200 39.74700
C  31.74700 63.55600 39.97700
C  30.20300 63.92500 40.01800
C  29.65400 62.48600 39.88400
C  32.54900 64.07900 41.18200
C  29.76800 64.76300 38.82100
C  28.81400 65.90400 39.09600
N  28.19000 59.86900 39.56400
C  27.50500 61.05600 39.61300
C  26.07200 60.87800 39.36900
C  26.02600 59.51600 39.07500
C  27.31900 58.97100 39.16600
C  24.92100 61.88700 39.20600
C  25.17700 58.49000 38.48100
O  24.00500 58.55100 38.14100
C  26.02200 57.18900 38.25500
C  25.45900 56.12200 39.06500
O  25.41100 56.09000 40.28800
O  24.89000 55.18100 38.19300
C  24.33900 54.02100 38.85000
H  32.90400 55.85400 38.56200
H  33.76900 62.05000 39.78500
H  27.63600 63.22400 39.86700
H  28.12700 54.81400 38.38100
H  30.71700 54.70300 37.18400
H  31.37400 53.64300 39.36000
H  29.93000 53.06200 38.54900
H  29.72200 54.17600 39.94100
H  29.28000 55.55300 35.70300
H  27.99500 56.69300 36.18600
H  26.76500 54.29000 36.53700
H  28.07200 53.79000 35.47100
H  35.78200 57.42000 37.80200
H  34.93900 55.98600 38.45800
H  36.06400 56.90400 39.45600
H  37.18200 61.17600 40.88500
H  35.37100 60.99500 41.36000
H  35.85700 61.93300 39.91900
H  32.12000 64.01400 39.06100
H  29.95900 64.40600 40.96500
H  33.55600 64.38900 40.90200
H  32.59300 63.26800 41.91000
H  31.96600 64.82500 41.72200
H  29.39100 64.10600 38.03800
H  30.57100 65.19100 38.22200
H  29.27200 66.87100 38.88800
H  28.40000 65.85600 40.10300
H  27.94400 65.81800 38.44500
H  24.20800 61.75600 40.01900
H  24.45800 61.67800 38.24200
H  25.13800 62.95500 39.21300
H  26.09300 56.74700 37.26100
H  23.78100 54.30500 39.74200
H  25.10900 53.32100 39.17300
H  23.68700 53.54900 38.11400

