158

Mg 0.14600 7.70800 26.93400
C  0.59900 9.74500 29.73700
C  0.22000 4.92200 28.97000
C  0.10800 5.85900 24.15200
C  0.76600 10.52800 24.96300
N  0.20800 7.37200 29.03800
C  0.37400 8.35800 30.01500
C  0.34800 7.77300 31.40800
C  0.40900 6.20800 31.17900
C  0.29600 6.16600 29.60400
C  1.66300 5.51800 31.67000
C  -0.86600 8.17100 32.18100
C  -0.67400 8.49700 33.63100
H  0.56800 7.93700 34.31100
N  0.02600 5.62000 26.60100
C  0.03200 4.65900 27.58800
C  -0.10900 3.33900 26.92800
C  -0.04700 3.56500 25.49100
C  -0.04300 5.08500 25.33100
C  -0.24200 2.05300 27.77600
C  -0.02600 2.59700 24.34600
O  0.08700 2.94200 23.20500
C  -0.04700 1.09800 24.65900
N  0.18600 8.16800 24.89200
C  0.10300 7.22200 23.97300
C  0.42500 7.79400 22.60000
C  0.27000 9.33100 22.82300
C  0.40600 9.40100 24.31500
C  1.74000 7.49100 22.03500
C  -1.17700 9.84800 22.28700
C  -1.16200 10.06700 20.80700
N  0.56800 9.82300 27.23500
C  0.85500 10.80000 26.35200
C  1.16700 12.04700 26.98200
C  1.11900 11.67900 28.39100
C  0.69100 10.31200 28.44300
C  1.53600 13.38100 26.31800
C  1.42700 12.12700 29.80500
O  1.93100 13.16700 30.24300
C  0.89900 10.90400 30.72300
C  2.11800 10.54800 31.60800
O  3.15700 9.96900 31.22600
O  1.91300 11.03100 32.81000
C  3.00300 11.06600 33.72500
H  0.25900 4.05900 29.63900
H  0.03700 5.22100 23.26900
H  0.80800 11.40600 24.31500
H  1.22200 8.14500 31.94300
H  -0.44300 5.66700 31.59000
H  1.42900 4.65200 32.28900
H  2.19100 6.22600 32.30800
H  2.29700 5.20100 30.84200
H  -1.61900 7.38900 32.09200
H  -1.27000 9.09800 31.77200
H  -1.51100 8.09700 34.20300
H  -0.56200 9.56200 33.83500
H  -0.96000 2.14700 28.59000
H  0.76500 1.73100 28.04100
H  -0.72900 1.26400 27.20300
H  0.82800 1.04500 25.30600
H  0.15500 0.57800 23.72200
H  -1.01900 0.80400 25.05300
H  -0.30800 7.58000 21.82200
H  1.02700 9.97800 22.37900
H  2.43600 8.27700 22.32700
H  1.57500 7.43500 20.95900
H  2.16900 6.54900 22.37500
H  -1.41600 10.77600 22.80500
H  -1.94700 9.09800 22.47000
H  -0.23300 9.70200 20.36800
H  -1.23200 11.13100 20.58500
H  -1.96600 9.41600 20.46300
H  2.31100 13.39200 25.55200
H  1.84200 14.21800 26.94500
H  0.62600 13.67900 25.79700
H  0.03100 11.21000 31.30600
H  3.11600 12.13300 33.92000
H  3.96500 10.62700 33.46200
H  2.60000 10.72300 34.67800
Mg 47.59700 25.85100 27.75700
C  48.54600 27.87900 30.30500
C  46.25700 23.67300 30.00100
C  46.86500 23.73100 25.11300
C  49.28300 27.94800 25.61600
N  47.53200 25.74800 29.93200
C  47.93100 26.76000 30.74000
C  47.59300 26.46900 32.20000
C  46.98400 25.05700 32.05400
C  46.87400 24.78400 30.58600
C  47.57000 23.87500 32.92200
C  46.67900 27.54000 32.93400
C  45.65500 27.08700 34.04200
H  45.50900 27.97700 35.27100
N  46.77300 23.89100 27.66600
C  46.25900 23.18400 28.70700
C  45.67000 22.02400 28.17700
C  45.79200 22.05500 26.76600
C  46.48700 23.25600 26.42300
C  45.03000 20.93000 29.00000
C  45.36200 20.97200 25.75900
O  45.43500 21.06300 24.55900
C  44.91200 19.61700 26.32600
N  48.01500 25.89800 25.67000
C  47.61100 24.91200 24.73100
C  47.90100 25.30400 23.26800
C  48.62200 26.73200 23.54600
C  48.68900 26.86300 25.05000
C  48.70900 24.24500 22.47500
C  48.03100 27.80600 22.62500
C  48.61400 27.76500 21.20800
N  48.67300 27.66500 27.87300
C  49.28500 28.42000 26.91200
C  49.80100 29.64700 27.45100
C  49.48000 29.52500 28.84000
C  48.85600 28.32600 29.02800
C  50.38900 30.67200 26.56800
C  49.55400 30.16800 30.16700
O  49.94900 31.27900 30.46900
C  48.98500 29.07500 31.16200
C  50.11500 28.65600 31.94400
O  51.04800 27.97400 31.55500
O  49.99200 29.09200 33.24900
C  50.99700 28.85000 34.22400
H  45.91700 22.97500 30.76900
H  46.62300 23.06600 24.28100
H  49.71500 28.55200 24.81600
H  48.52900 26.45100 32.75800
H  45.93200 25.05000 32.33800
H  46.99700 23.77700 33.84400
H  48.58900 24.00700 33.28700
H  47.54600 22.87000 32.50000
H  46.25600 28.07400 32.08300
H  47.32500 28.20200 33.51100
H  45.75800 26.08600 34.46200
H  44.66800 27.20500 33.59600
H  45.69700 20.07400 29.10200
H  44.05400 20.59800 28.64700
H  44.91500 21.30600 30.01700
H  45.44700 19.16500 27.16100
H  44.87500 18.91000 25.49800
H  43.84600 19.80800 26.44900
H  47.01400 25.34300 22.63600
H  49.66700 26.57500 23.27900
H  48.38900 23.24300 22.76100
H  49.76800 24.31000 22.72400
H  48.75400 24.38300 21.39500
H  48.05600 28.84300 22.96000
H  46.95600 27.63200 22.61000
H  49.31600 26.94300 21.07500
H  48.99900 28.72500 20.86200
H  47.75100 27.55100 20.57700
H  50.37300 31.50700 27.26800
H  49.79400 30.95200 25.69800
H  51.38500 30.34000 26.27400
H  48.21000 29.40100 31.85500
H  51.91500 28.41100 33.83300
H  50.57600 28.20200 34.99200
H  51.22300 29.76600 34.77100

