158

Mg 40.04600 8.49200 29.77200
C  42.04700 9.51700 32.29800
C  37.73000 7.27800 31.93800
C  38.46200 6.78500 27.09900
C  42.71700 9.02900 27.45200
N  39.94300 8.38100 31.88000
C  40.78800 9.10500 32.75100
C  40.17600 9.33000 34.08200
C  38.91900 8.36400 33.96900
C  38.79800 8.00900 32.49600
C  39.03900 7.14200 34.90900
C  39.83700 10.79500 34.48800
C  39.14400 10.95700 35.90600
H  39.84700 11.83300 36.95100
N  38.24200 7.39600 29.53900
C  37.46600 7.02800 30.59300
C  36.32500 6.33400 30.08900
C  36.44000 6.31800 28.59800
C  37.79500 6.82800 28.35500
C  35.21300 5.62200 30.98200
C  35.60400 5.63400 27.61300
O  35.95800 5.34300 26.49700
C  34.30000 5.18600 28.03400
N  40.57500 7.75800 27.55600
C  39.73800 7.17300 26.69100
C  40.20500 7.22900 25.24700
C  41.37500 8.23600 25.38900
C  41.56400 8.41500 26.89400
C  40.56200 5.86500 24.57500
C  41.13500 9.66700 24.79300
C  39.81400 10.31900 25.19100
N  42.02400 9.05700 29.84600
C  42.97500 9.29300 28.86500
C  44.10400 9.96400 29.44500
C  43.78900 10.14800 30.79200
C  42.55800 9.47200 30.99500
C  45.28000 10.50300 28.78100
C  44.18700 10.73400 32.03200
O  45.13300 11.54300 32.23900
C  43.03600 10.39200 33.03500
C  43.51900 9.49600 34.15500
O  43.93500 8.33200 34.16000
O  43.52600 10.30400 35.27200
C  44.33600 9.74700 36.32800
H  36.95100 7.03900 32.66500
H  37.94900 6.35900 26.23400
H  43.43000 9.40000 26.71300
H  41.00200 8.95800 34.68800
H  37.99800 8.89600 34.20500
H  38.76500 6.24500 34.35400
H  38.60700 7.13100 35.91000
H  40.09300 7.13300 35.18600
H  39.18700 11.31000 33.78100
H  40.77500 11.34900 34.49300
H  38.97900 10.01000 36.41900
H  38.17900 11.43500 35.73800
H  35.47400 4.57700 31.15000
H  34.20200 5.61900 30.57400
H  35.12900 6.16500 31.92300
H  33.78100 4.72700 27.19300
H  33.73900 6.06000 28.36400
H  34.42200 4.44300 28.82200
H  39.36700 7.56100 24.63400
H  42.26700 7.77500 24.96500
H  40.37800 5.08600 25.31500
H  41.62400 5.81100 24.33500
H  39.85500 5.60500 23.78800
H  41.23800 9.22800 23.80000
H  41.94600 10.32600 25.10300
H  39.21900 9.67700 25.84000
H  39.11400 10.39400 24.35900
H  40.00500 11.36200 25.44600
H  45.14500 10.83800 27.75200
H  46.14100 9.83500 28.79700
H  45.60800 11.42300 29.26400
H  42.50400 11.26100 33.42100
H  45.23900 9.24600 35.97800
H  43.87200 9.21400 37.15800
H  44.67600 10.68500 36.76900
Mg 0.24600 42.79100 26.06200
C  2.56800 42.20700 28.66000
C  -2.28500 41.88200 28.29200
C  -2.01900 42.42700 23.53500
C  2.77100 43.07900 23.80700
N  0.22400 42.10600 28.21300
C  1.24400 42.08900 29.14800
C  0.73000 41.88200 30.60800
C  -0.82000 41.85300 30.35000
C  -1.02100 42.03600 28.89000
C  -1.45400 40.52400 30.87900
C  1.25800 42.97700 31.54000
C  1.89300 42.50500 32.83900
H  1.28800 41.21400 33.46700
N  -1.84300 42.35400 25.94600
C  -2.69400 42.01700 26.99100
C  -4.04300 41.75700 26.52600
C  -3.95200 41.86800 25.11200
C  -2.54200 42.24200 24.80700
C  -5.24600 41.34700 27.51600
C  -5.10000 41.67700 24.12400
O  -4.96700 42.04700 22.97800
C  -6.56100 41.34700 24.57300
N  0.36800 42.77100 23.93200
C  -0.70000 42.67100 23.12700
C  -0.24000 42.67700 21.62100
C  1.26800 43.09400 21.77800
C  1.49900 43.09300 23.28900
C  -0.47200 41.33000 20.86000
C  1.81900 44.31900 21.06100
C  1.63200 45.71400 21.71000
N  2.27900 42.76100 26.16800
C  3.16500 42.83600 25.09200
C  4.51700 42.67500 25.64600
C  4.35100 42.49000 27.02000
C  2.93800 42.42600 27.32700
C  5.73300 42.71000 24.89700
C  5.04300 42.34700 28.26200
O  6.25300 42.29400 28.49000
C  3.91300 42.25900 29.38600
C  4.13700 40.93600 30.08100
O  3.62400 39.87300 29.80600
O  4.90400 41.18500 31.15300
C  5.13900 40.02900 32.02000
H  -2.97400 41.64500 29.10600
H  -2.71100 42.45000 22.69000
H  3.63800 43.26200 23.16900
H  1.20400 40.94100 30.88900
H  -1.34000 42.71700 30.76500
H  -0.76500 39.94900 31.49700
H  -1.58600 39.77700 30.09600
H  -2.31600 40.74000 31.51100
H  0.45800 43.60800 31.92700
H  1.94400 43.69700 31.09300
H  1.73400 43.22200 33.64500
H  2.92200 42.39800 32.49600
H  -5.46900 40.29000 27.37300
H  -6.11100 41.99400 27.37400
H  -5.01100 41.40200 28.57900
H  -6.62500 40.45700 25.20000
H  -7.23800 41.29300 23.72000
H  -6.87000 42.26700 25.06900
H  -0.85100 43.49600 21.24300
H  1.94600 42.26000 21.59800
H  -1.09000 40.64000 21.43600
H  0.35300 40.67300 20.58700
H  -1.05100 41.58500 19.97200
H  1.49700 44.36300 20.02100
H  2.89300 44.14600 20.99300
H  2.53700 45.99400 22.25000
H  0.81500 45.59600 22.42200
H  1.29700 46.44600 20.97500
H  6.55800 43.14200 25.46300
H  5.56300 43.35900 24.03800
H  5.88700 41.68200 24.56800
H  3.96900 43.13100 30.03700
H  5.85800 40.31200 32.78900
H  5.55600 39.16600 31.50000
H  4.18100 39.76600 32.46900

