158

Mg 16.99300 -1.23100 27.84200
C  15.78500 0.78300 30.51200
C  19.12500 -2.74600 30.01700
C  18.65100 -2.69000 25.29700
C  15.17500 0.69200 25.75700
N  17.50300 -0.83400 29.97400
C  16.84100 -0.11600 30.98400
C  17.38200 -0.38100 32.39700
C  18.54800 -1.42800 32.11500
C  18.41100 -1.75800 30.62500
C  19.95300 -1.00100 32.59800
C  16.24000 -0.96900 33.37600
C  16.10700 -0.28100 34.72900
H  17.35900 0.33500 35.29900
N  18.59300 -2.59700 27.65000
C  19.27500 -3.17800 28.69900
C  20.09300 -4.24200 28.16700
C  20.02900 -4.19500 26.76600
C  19.03200 -3.15000 26.53100
C  20.83200 -5.17900 28.96400
C  20.63800 -5.04800 25.76300
O  20.16800 -5.19300 24.60100
C  21.74400 -5.90900 26.08000
N  16.92700 -1.12100 25.87100
C  17.67900 -1.73100 24.92500
C  17.40600 -1.32300 23.52100
C  16.11500 -0.46000 23.70700
C  16.04100 -0.30100 25.23800
C  18.60100 -0.61700 22.80600
C  14.78800 -1.17100 23.24200
C  14.58400 -1.45700 21.72100
N  15.64300 0.34800 28.01100
C  14.92000 1.02200 27.11200
C  14.04100 2.02600 27.70200
C  14.32800 1.95600 29.07500
C  15.35100 0.97300 29.18900
C  13.04800 2.97900 27.04000
C  14.06800 2.55200 30.38300
O  13.39600 3.52900 30.68900
C  14.84300 1.69200 31.46600
C  15.64400 2.61500 32.33500
O  16.77700 3.02300 32.09500
O  14.91600 2.92700 33.43100
C  15.63700 3.81300 34.40900
H  19.78900 -3.23800 30.73100
H  19.22400 -3.06200 24.44500
H  14.58900 1.33000 25.09300
H  17.85200 0.54000 32.74300
H  18.48700 -2.43300 32.53300
H  20.50200 -1.90200 32.87100
H  19.87800 -0.40500 33.50800
H  20.54600 -0.52200 31.81800
H  16.28100 -2.04600 33.53600
H  15.31500 -0.78200 32.83000
H  15.59200 -0.92100 35.44500
H  15.36100 0.47900 34.49400
H  20.39200 -6.17400 28.91000
H  20.88500 -4.86400 30.00600
H  21.90400 -5.23800 28.77200
H  21.40800 -6.70600 26.74300
H  22.47400 -5.31400 26.63100
H  22.24700 -6.31000 25.20000
H  17.19200 -2.25900 23.00400
H  16.23500 0.48300 23.17300
H  19.11900 -1.31900 22.15300
H  19.37100 -0.28600 23.50400
H  18.32200 0.21100 22.15600
H  14.02000 -0.49300 23.61200
H  14.76700 -2.07400 23.85200
H  13.62000 -1.00000 21.49900
H  14.51000 -2.49200 21.38700
H  15.34700 -1.03000 21.07000
H  12.47200 2.46600 26.26900
H  13.55000 3.80500 26.53700
H  12.25600 3.34600 27.69300
H  14.06300 1.15700 32.00700
H  15.33200 4.85400 34.51500
H  16.72700 3.83800 34.41400
H  15.38200 3.30000 35.33600
Mg -12.25200 16.23400 41.96900
C  -9.09100 14.50900 41.38400
C  -10.80300 19.02400 40.69400
C  -15.22600 17.39800 41.71000
C  -13.51500 13.06900 42.84400
N  -10.15400 16.62700 40.91200
C  -9.09300 15.83400 40.93500
C  -7.92700 16.62800 40.54100
C  -8.42700 18.14400 40.36800
C  -9.90400 17.92900 40.66400
C  -7.62800 19.22500 41.23800
C  -7.24400 16.00600 39.26000
C  -5.74100 16.15900 39.21200
H  -5.11100 16.73400 37.98700
N  -12.92100 18.02400 41.31100
C  -12.18300 19.03100 40.83700
C  -13.09500 20.08000 40.53800
C  -14.38100 19.70700 40.94500
C  -14.22000 18.32600 41.31400
C  -12.60800 21.39100 39.94900
C  -15.61600 20.53600 40.80900
O  -15.56300 21.69800 40.29800
C  -17.02100 20.17400 41.31300
N  -14.13000 15.30300 42.15600
C  -15.21000 16.09100 42.12800
C  -16.48000 15.23300 42.17700
C  -16.02900 13.81300 42.69200
C  -14.45700 14.00300 42.50300
C  -17.62100 15.80400 43.06900
C  -16.63700 12.53800 42.00500
C  -17.04300 11.41300 43.02200
N  -11.47900 14.18400 42.22800
C  -12.08600 13.06800 42.71000
C  -11.12700 11.96400 42.87000
C  -9.90200 12.54400 42.41100
C  -10.20500 13.87800 41.97700
C  -11.38800 10.59300 43.42300
C  -8.44900 12.22200 42.23200
O  -7.73700 11.23900 42.43500
C  -7.85500 13.51700 41.53200
C  -6.75800 14.02700 42.39000
O  -6.86800 14.77700 43.33300
O  -5.56500 13.65800 41.84800
C  -4.40800 14.22100 42.50700
H  -10.43800 20.02400 40.45200
H  -16.23600 17.81100 41.68100
H  -13.99600 12.13000 43.12600
H  -7.28000 16.61600 41.41800
H  -8.25800 18.40300 39.32300
H  -8.33000 19.83800 41.80300
H  -6.99000 19.93700 40.71600
H  -6.96800 18.71900 41.94300
H  -7.69500 16.42200 38.35900
H  -7.37700 14.92600 39.18800
H  -5.27300 15.18900 39.38400
H  -5.44600 16.70800 40.10600
H  -12.73800 22.26700 40.58400
H  -13.27600 21.39600 39.08800
H  -11.61600 21.43400 39.49800
H  -17.36200 19.38600 40.64200
H  -17.68000 21.01700 41.10500
H  -17.07600 19.95600 42.38000
H  -16.88400 15.18100 41.16600
H  -16.18800 13.58300 43.74500
H  -17.19400 16.53200 43.75900
H  -18.12000 15.00500 43.61900
H  -18.18800 16.30200 42.28300
H  -15.96100 12.13000 41.25400
H  -17.55300 12.92800 41.56100
H  -18.01300 11.74800 43.39100
H  -16.23600 11.21300 43.72700
H  -17.10000 10.59900 42.30000
H  -11.59000 10.67900 44.49100
H  -10.59000 9.86000 43.29900
H  -12.28900 10.13100 43.02100
H  -7.41500 13.18900 40.59000
H  -4.34200 15.30800 42.47400
H  -3.49300 13.87900 42.02400
H  -4.40700 13.94100 43.56000

