158

Mg 46.72700 25.01600 28.71300
C  47.31200 27.45900 31.21200
C  45.67000 22.85200 31.12500
C  46.36500 22.77500 26.37500
C  48.40300 27.16800 26.43700
N  46.30300 25.22000 30.89100
C  46.54600 26.34700 31.68300
C  46.19100 26.09600 33.09600
C  45.96000 24.50700 33.10900
C  45.94000 24.13100 31.59400
C  46.96700 23.69900 33.85800
C  44.84400 26.83000 33.48500
C  44.52900 27.29000 34.96100
H  45.26100 26.52200 36.15800
N  45.99700 23.18000 28.72500
C  45.58400 22.43400 29.77200
C  45.05000 21.15300 29.34800
C  45.14300 21.11200 27.95700
C  45.84700 22.42900 27.63200
C  44.53200 20.17800 30.30200
C  44.68900 20.08400 26.88100
O  44.72000 20.27200 25.69100
C  44.13100 18.80900 27.34100
N  47.23000 25.01400 26.55900
C  47.06400 23.88200 25.89500
C  47.39300 24.09200 24.42300
C  47.99800 25.58100 24.45000
C  47.94800 25.98700 25.89700
C  48.30600 23.07300 23.76600
C  47.28600 26.52500 23.46900
C  45.84100 26.93200 23.88300
N  47.79000 26.81200 28.75500
C  48.32600 27.54000 27.78000
C  48.71700 28.78600 28.23600
C  48.43200 28.76400 29.58100
C  47.80100 27.55600 29.86000
C  49.08100 30.02400 27.46100
C  48.28000 29.64500 30.78400
O  48.64700 30.80400 30.90400
C  47.71700 28.72200 31.90000
C  48.70700 28.50700 32.89400
O  49.63900 27.70900 32.84300
O  48.46800 29.36800 34.02200
C  49.37900 29.21700 35.19000
H  45.40500 22.14000 31.90900
H  46.34500 22.11900 25.50300
H  48.84200 27.83000 25.68700
H  47.00400 26.37500 33.76700
H  44.95600 24.32200 33.49100
H  47.76800 24.42200 34.01100
H  47.20800 22.67700 33.56400
H  46.58600 23.46600 34.85200
H  43.99400 26.25900 33.11000
H  44.79500 27.80600 33.00300
H  43.50600 26.95800 35.13900
H  44.56300 28.37900 34.95900
H  44.27300 19.21100 29.87200
H  43.68200 20.60800 30.83200
H  45.32400 20.02800 31.03500
H  44.83300 18.16800 27.87300
H  43.81500 18.17800 26.51000
H  43.31300 19.02800 28.02800
H  46.45900 24.07400 23.86200
H  49.07100 25.62000 24.26300
H  48.72700 22.36700 24.48200
H  49.14300 23.51100 23.22200
H  47.73900 22.46800 23.05900
H  47.18100 25.92100 22.56800
H  47.96600 27.34200 23.22900
H  45.13800 26.73900 23.07200
H  45.75400 28.01300 23.99300
H  45.49100 26.43800 24.78900
H  48.47400 29.85200 26.57200
H  50.12400 29.95600 27.15000
H  48.91600 30.95500 28.00200
H  46.84100 29.14800 32.38900
H  48.76800 28.77100 35.97600
H  49.73500 30.20200 35.49300
H  50.22400 28.54200 35.05400
Mg -1.91000 34.13100 26.58900
C  -3.28600 31.83900 28.87900
C  -0.69500 35.93500 29.14500
C  -0.91900 36.29700 24.37700
C  -3.65700 32.27700 24.08900
N  -1.89700 33.80200 28.80800
C  -2.50000 32.84500 29.50900
C  -2.31600 33.14700 30.99300
C  -1.75300 34.59700 31.07100
C  -1.40200 34.80800 29.60000
C  -2.62700 35.70800 31.66700
C  -1.55200 32.04100 31.77100
C  -2.19600 31.63900 33.13200
H  -1.21800 31.71000 34.28500
N  -0.86300 35.90800 26.74500
C  -0.42900 36.46000 27.86500
C  0.34700 37.68400 27.46800
C  0.31500 37.76400 26.03200
C  -0.55900 36.65000 25.67000
C  1.01800 38.53600 28.52000
C  0.91100 38.84300 25.12600
O  0.71100 38.76400 23.89500
C  1.69600 39.95400 25.73200
N  -2.36300 34.31700 24.57400
C  -1.69400 35.26600 23.87100
C  -1.62300 34.93200 22.35200
C  -2.51700 33.64200 22.26100
C  -2.85600 33.33100 23.69200
C  -2.36900 36.09700 21.53900
C  -1.83000 32.50000 21.41500
C  -0.42600 32.15500 21.71300
N  -3.30400 32.49300 26.43100
C  -3.85100 31.85700 25.33700
C  -4.68500 30.72000 25.81800
C  -4.52600 30.78000 27.20400
C  -3.60100 31.74100 27.48800
C  -5.57100 29.86300 24.97500
C  -4.86100 30.06400 28.42800
O  -5.57200 29.06200 28.58600
C  -3.96000 30.63500 29.53900
C  -4.91900 31.07700 30.59300
O  -5.40600 32.22400 30.67100
O  -5.11300 30.12900 31.50400
C  -5.75700 30.58900 32.74300
H  -0.32700 36.50400 30.00200
H  -0.52300 36.94300 23.59100
H  -4.01600 31.66500 23.25900
H  -3.32600 33.17400 31.40100
H  -0.86500 34.46000 31.68900
H  -2.34300 36.10000 32.64400
H  -3.60800 35.24000 31.75500
H  -2.65500 36.51400 30.93300
H  -0.54900 32.45400 31.88100
H  -1.33800 31.15100 31.17800
H  -2.42200 30.57800 33.02100
H  -3.08500 32.24700 33.29700
H  0.93000 38.14000 29.53200
H  0.54000 39.51500 28.53500
H  2.05900 38.73800 28.26800
H  1.02600 40.33900 26.50100
H  1.89000 40.73300 24.99500
H  2.64100 39.58900 26.13600
H  -0.61800 34.79400 21.95400
H  -3.53100 33.76800 21.88300
H  -3.11500 35.76000 20.82100
H  -1.61300 36.77600 21.14500
H  -2.95100 36.64900 22.27700
H  -1.85600 32.86000 20.38700
H  -2.39500 31.56800 21.44200
H  -0.17600 32.39200 22.74700
H  0.35600 32.49100 21.03100
H  -0.32700 31.07400 21.61200
H  -5.84200 30.48400 24.12100
H  -6.48400 29.56500 25.49100
H  -5.02600 28.96800 24.67600
H  -3.19300 30.02400 30.01600
H  -6.67900 31.16700 32.69100
H  -5.01700 31.19700 33.26400
H  -6.05700 29.67300 33.25200

