158

Mg 24.99800 1.13100 28.61000
C  27.14500 0.54000 31.39400
C  22.29800 0.88000 30.79300
C  22.85600 0.96800 25.93600
C  27.68900 0.45600 26.52500
N  24.79700 0.72000 30.77100
C  25.77700 0.64900 31.70700
C  25.26300 0.92900 33.12700
C  23.67700 0.90100 32.86900
C  23.55300 0.79700 31.36400
C  23.04900 -0.31400 33.55600
C  25.76500 2.31700 33.66500
C  25.26100 2.71600 35.06000
H  26.22200 2.72400 36.29700
N  22.83700 1.14600 28.41100
C  21.90100 1.02500 29.41300
C  20.61900 1.13200 28.82300
C  20.76100 1.19200 27.42500
C  22.22300 1.03700 27.18000
C  19.31000 1.19300 29.56800
C  19.63000 1.27500 26.32700
O  19.85800 1.76600 25.18700
C  18.25800 0.89500 26.67800
N  25.22000 0.82700 26.49400
C  24.19000 0.88900 25.61400
C  24.69000 0.99700 24.16500
C  26.30900 0.85100 24.33600
C  26.42500 0.72000 25.89400
C  23.95200 0.08200 23.19300
C  27.03100 2.09700 23.79500
C  26.74700 3.44900 24.50700
N  27.07700 0.68400 28.81600
C  28.02000 0.34900 27.88000
C  29.25600 0.04300 28.55200
C  29.01300 0.17200 29.96000
C  27.61800 0.50000 30.04900
C  30.51000 -0.30300 27.82400
C  29.55300 -0.01600 31.33000
O  30.68100 -0.36300 31.74200
C  28.34000 0.42900 32.22800
C  28.19400 -0.50400 33.33900
O  27.31000 -1.38300 33.43600
O  29.22000 -0.19500 34.29100
C  29.16700 -0.96200 35.50400
H  21.52800 0.97300 31.56200
H  22.23500 0.99000 25.03800
H  28.50200 0.27400 25.81900
H  25.55400 0.13500 33.81400
H  23.21500 1.80800 33.26000
H  22.47500 -0.92300 32.85700
H  22.34000 -0.00100 34.32200
H  23.73700 -1.06900 33.93500
H  25.63900 3.14700 32.97000
H  26.83500 2.52500 33.64700
H  24.57200 1.91700 35.33300
H  24.88000 3.72700 34.91100
H  18.59800 0.40100 29.33300
H  18.99000 2.20000 29.30000
H  19.28000 1.12000 30.65500
H  18.39000 -0.07400 27.15900
H  17.72100 0.68200 25.75400
H  17.92600 1.70100 27.33300
H  24.56100 2.00200 23.76400
H  26.67400 -0.05200 23.84800
H  23.62900 0.67600 22.33800
H  23.24600 -0.57300 23.70300
H  24.70900 -0.54300 22.71900
H  26.77300 2.21200 22.74200
H  28.11100 2.01700 23.92100
H  25.94500 3.37100 25.24000
H  26.29300 4.10300 23.76300
H  27.67000 3.80000 24.96900
H  30.46900 -0.07900 26.75800
H  30.62600 -1.38500 27.88500
H  31.40200 0.02200 28.35800
H  28.65200 1.37400 32.67200
H  28.54500 -0.41100 36.20900
H  30.19100 -1.10400 35.84800
H  28.83800 -1.99700 35.40300
Mg -11.84200 16.66800 43.58200
C  -9.12300 14.71200 42.66600
C  -10.37200 19.36100 41.89500
C  -14.86200 18.07400 43.29500
C  -13.40700 13.62700 44.56300
N  -10.00500 16.94700 42.28500
C  -9.04600 16.03300 42.16400
C  -7.79400 16.64800 41.56600
C  -8.06900 18.20800 41.66600
C  -9.55900 18.24400 42.04500
C  -7.20400 18.98100 42.69800
C  -7.54400 16.14300 40.06900
C  -6.29600 15.34600 39.74100
H  -5.29500 16.08000 38.85300
N  -12.47600 18.60500 42.90900
C  -11.76400 19.50400 42.17700
C  -12.62800 20.53500 41.71700
C  -13.95400 20.22000 42.08200
C  -13.84500 18.92500 42.80200
C  -12.09500 21.74000 41.04900
C  -15.21300 21.08700 41.76900
O  -15.14200 22.15000 41.18500
C  -16.58900 20.62700 42.23100
N  -13.79700 15.99300 43.87100
C  -14.91500 16.73800 43.66600
C  -16.19600 16.08000 44.09300
C  -15.64900 14.83400 44.85500
C  -14.17700 14.79600 44.43500
C  -17.18200 16.85300 44.95800
C  -16.39000 13.48700 44.72800
C  -16.42800 12.70200 46.07300
N  -11.37200 14.58200 43.75400
C  -12.06100 13.49300 44.25100
C  -11.19100 12.34400 44.45600
C  -9.98800 12.79200 43.82700
C  -10.23500 14.11700 43.35800
C  -11.52100 11.04300 44.97800
C  -8.58700 12.40300 43.52100
O  -7.90000 11.47500 43.91600
C  -8.01400 13.58100 42.69000
C  -6.75200 14.03800 43.36600
O  -6.72200 14.68700 44.38900
O  -5.65900 13.59800 42.64500
C  -4.33300 13.98500 43.25000
H  -9.85500 20.21600 41.45400
H  -15.87200 18.48900 43.30600
H  -13.82700 12.73700 45.03600
H  -6.95700 16.32300 42.18400
H  -8.04900 18.58900 40.64500
H  -6.74400 19.77100 42.10500
H  -6.56400 18.31500 43.27600
H  -7.74500 19.53700 43.46300
H  -7.56200 16.95600 39.34400
H  -8.32000 15.41500 39.83400
H  -6.57500 14.42500 39.22900
H  -5.74100 15.02800 40.62400
H  -12.44000 21.72400 40.01500
H  -11.00800 21.73600 40.97000
H  -12.27900 22.55400 41.75100
H  -16.81400 20.64200 43.29800
H  -16.62900 19.66700 41.71600
H  -17.25000 21.28900 41.67300
H  -16.68800 15.67100 43.21000
H  -15.56900 15.01200 45.92800
H  -18.14500 16.97400 44.46200
H  -16.82700 17.88200 45.01300
H  -17.26500 16.37900 45.93500
H  -15.93200 12.75700 44.06200
H  -17.39600 13.72300 44.38300
H  -16.20300 11.64200 45.96400
H  -17.35500 12.87400 46.62100
H  -15.67500 13.09700 46.75600
H  -10.69400 10.59400 45.52800
H  -11.72700 10.44000 44.09300
H  -12.46200 11.01600 45.52800
H  -7.77300 13.42700 41.63800
H  -4.04200 14.96500 42.87100
H  -3.58000 13.27700 42.90500
H  -4.23600 13.92800 44.33400

