158

Mg 25.71200 1.81800 29.36300
C  27.52300 1.42300 32.36000
C  22.89600 2.23300 31.22100
C  24.07600 2.12500 26.54100
C  28.60800 1.09600 27.67500
N  25.32000 1.79500 31.55200
C  26.14900 1.70900 32.57100
C  25.45100 1.89100 33.96600
C  23.92800 2.04500 33.53700
C  24.05500 2.01500 32.01600
C  23.09300 0.81400 33.98500
C  26.05800 3.12500 34.58300
C  26.82100 2.97500 35.97200
H  26.55700 4.06200 37.07300
N  23.80100 2.24600 29.01100
C  22.73800 2.19800 29.84700
C  21.46200 2.47000 29.14900
C  21.76100 2.42800 27.76000
C  23.26000 2.23000 27.72600
C  20.13000 2.69000 29.88800
C  20.81900 2.76200 26.61800
O  21.12500 2.77200 25.42100
C  19.35300 2.95800 26.96300
N  26.22500 1.40300 27.39400
C  25.41300 1.74700 26.35200
C  26.09000 1.59400 24.96500
C  27.57600 1.45200 25.37600
C  27.48000 1.33100 26.90800
C  25.46400 0.48600 24.04500
C  28.52100 2.63900 24.90700
C  29.67000 2.23700 23.99400
N  27.66500 1.25900 29.81700
C  28.75500 0.98400 29.06400
C  29.95500 0.71700 29.85200
C  29.42700 0.76400 31.16900
C  28.10100 1.14600 31.04100
C  31.34200 0.48400 29.35700
C  29.79200 0.62300 32.63000
O  30.78900 0.26300 33.19900
C  28.50900 0.99200 33.38700
C  28.13700 -0.11100 34.35200
O  27.36300 -1.00700 34.05800
O  28.87200 -0.00700 35.54600
C  28.41300 -0.86100 36.67800
H  22.01700 2.36700 31.85600
H  23.59100 2.27500 25.57400
H  29.49400 0.77100 27.12500
H  25.55000 0.92700 34.46500
H  23.45300 2.93300 33.95300
H  23.17500 -0.08500 33.37500
H  22.05500 1.14700 33.97800
H  23.22800 0.44300 35.00100
H  25.27000 3.79200 34.93200
H  26.63100 3.66100 33.82700
H  27.88500 2.93000 35.73900
H  26.59300 1.96800 36.32100
H  19.74800 3.70300 29.76100
H  20.18400 2.34600 30.92100
H  19.48800 2.04400 29.28900
H  18.81700 3.46200 26.15900
H  19.15100 3.64900 27.78200
H  18.86000 1.98900 27.04700
H  25.94200 2.51300 24.39800
H  27.86100 0.50100 24.92500
H  24.57200 0.06600 24.50900
H  26.19600 -0.25000 23.71200
H  25.04900 1.02800 23.19500
H  28.98200 3.10400 25.77900
H  27.89500 3.30300 24.31100
H  29.56500 2.82800 23.08400
H  29.61800 1.20300 23.65300
H  30.63100 2.36000 24.49300
H  32.05500 0.91200 30.06200
H  31.42400 0.89200 28.34900
H  31.56400 -0.58100 29.29700
H  28.78100 1.83900 34.01800
H  28.67500 -1.89200 36.44300
H  27.36300 -0.69000 36.91200
H  29.01500 -0.62900 37.55700
Mg 6.00900 54.03200 40.49700
C  5.35700 50.48200 39.80100
C  9.23400 53.40500 39.51000
C  6.46100 57.30500 40.55100
C  2.52900 54.42600 40.82300
N  7.12000 52.12700 39.66200
C  6.66300 50.86700 39.50800
C  7.87300 49.87300 39.27000
C  9.08300 50.83000 39.61600
C  8.43900 52.20900 39.62700
C  9.79000 50.54900 40.92400
C  8.04800 49.13200 37.88600
C  8.01200 50.00400 36.54200
H  6.87600 49.77000 35.57900
N  7.74000 55.21800 40.10300
C  8.91100 54.80500 39.66200
C  9.72900 55.95700 39.49500
C  8.99200 57.08400 40.01600
C  7.67200 56.61500 40.26000
C  11.18600 55.78100 39.07900
C  9.53200 58.47200 40.21100
O  10.71800 58.74100 39.94600
C  8.72300 59.63700 40.67800
N  4.65400 55.61800 40.48100
C  5.12800 56.89100 40.66500
C  3.90800 57.84300 40.86500
C  2.68400 56.90800 40.94600
C  3.30500 55.55800 40.74300
C  4.03200 58.79700 42.13800
C  1.48200 57.22300 40.00900
C  0.28700 57.93000 40.59800
N  4.36100 52.77000 40.50000
C  3.01100 53.07200 40.76100
C  2.18300 51.89100 40.72400
C  3.12400 50.85700 40.45300
C  4.39100 51.39700 40.29800
C  0.70100 51.72400 40.88100
C  3.26600 49.49000 40.29800
O  2.45700 48.62000 40.45300
C  4.71700 49.14200 39.80600
C  4.50300 48.56500 38.42100
O  3.87500 49.09000 37.51300
O  4.87700 47.25100 38.49100
C  4.49900 46.45300 37.29600
H  10.20100 53.05800 39.14100
H  6.59000 58.38300 40.67200
H  1.48900 54.63300 41.08600
H  7.68400 49.17000 40.08100
H  9.73400 50.79300 38.74200
H  9.56100 51.30300 41.67700
H  10.87100 50.54100 40.78200
H  9.60000 49.53500 41.27500
H  7.33200 48.31200 37.93800
H  9.06100 48.73400 37.81300
H  8.95800 49.90700 36.00800
H  7.84600 51.01400 36.91800
H  11.49100 54.79500 39.43100
H  11.82100 56.34400 39.76300
H  11.40600 56.06900 38.05100
H  9.44000 60.45800 40.65800
H  8.40000 59.32700 41.67200
H  8.01000 59.69000 39.85500
H  3.70000 58.41400 39.96000
H  2.31000 56.88000 41.96900
H  3.04900 58.92800 42.59000
H  4.56700 59.65100 41.72100
H  4.65200 58.31600 42.89400
H  1.13600 56.28600 39.57400
H  1.74200 57.78700 39.11400
H  0.28600 58.88700 40.07600
H  0.48100 58.13100 41.65200
H  -0.70400 57.49300 40.48000
H  0.52800 50.94200 41.62000
H  0.24300 51.36600 39.95900
H  0.24600 52.65300 41.22500
H  5.15400 48.37500 40.44600
H  5.14400 45.57400 37.26500
H  4.56500 47.05500 36.38900
H  3.47800 46.09200 37.42200

