158

Mg 40.92500 7.66100 28.74900
C  42.59100 8.94200 31.55300
C  38.45700 6.15000 30.80100
C  39.23100 6.60100 26.00100
C  43.62700 8.60100 26.74300
N  40.65300 7.50100 30.92700
C  41.38500 8.22000 31.84600
C  40.73700 8.05000 33.17400
C  39.55400 6.96300 32.97400
C  39.55800 6.79700 31.45300
C  39.92100 5.50000 33.56400
C  40.19000 9.39800 33.81000
C  40.89300 9.85400 35.12700
H  40.27600 10.71900 36.17700
N  39.12600 6.56000 28.42400
C  38.23800 6.06200 29.44200
C  37.02900 5.41000 28.76800
C  37.19200 5.74500 27.39700
C  38.52200 6.37700 27.21700
C  36.01700 4.60800 29.53500
C  36.23500 5.40900 26.36500
O  36.36100 5.71300 25.19800
C  34.90300 4.86800 26.75000
N  41.29500 7.71200 26.69700
C  40.46700 7.14800 25.71300
C  41.17700 7.02600 24.30700
C  42.56600 7.70900 24.55700
C  42.53700 8.01600 26.09400
C  41.22400 5.53500 23.76300
C  42.87600 8.96400 23.66100
C  42.00100 10.17500 24.09200
N  42.71300 8.58300 29.05900
C  43.69500 8.89100 28.18100
C  44.82000 9.50000 28.89800
C  44.33200 9.59200 30.18400
C  43.10000 8.98300 30.24000
C  46.11800 9.96600 28.34200
C  44.68800 10.07300 31.54200
O  45.67200 10.62600 31.89200
C  43.50300 9.69100 32.53600
C  44.04900 8.95700 33.63600
O  44.00100 7.74300 33.69500
O  44.41800 9.89300 34.57100
C  44.82200 9.22100 35.80000
H  37.68600 5.82700 31.50400
H  38.68100 6.25100 25.12400
H  44.48800 8.85600 26.12200
H  41.42200 7.42500 33.74700
H  38.61800 7.26100 33.44600
H  40.20300 4.89600 32.70100
H  39.03900 5.10500 34.06900
H  40.61700 5.60400 34.39500
H  39.12500 9.25100 33.98500
H  40.33100 10.22200 33.11000
H  41.76700 10.43500 34.83500
H  41.29700 8.95700 35.59600
H  36.42900 4.56700 30.54400
H  35.84800 3.67500 28.99900
H  35.05100 5.10800 29.59600
H  34.35300 5.62800 27.30400
H  34.97400 3.92800 27.29700
H  34.30600 4.68300 25.85700
H  40.60700 7.51400 23.51600
H  43.26400 6.89100 24.37600
H  42.20100 5.07500 23.91400
H  41.01600 5.39000 22.70300
H  40.43400 4.94600 24.22900
H  42.73200 8.73100 22.60700
H  43.91900 9.21500 23.85800
H  42.62800 11.03100 24.34100
H  41.21900 9.92400 24.80900
H  41.59100 10.43900 23.11700
H  46.04600 10.91700 27.81400
H  46.58000 9.20000 27.71800
H  46.76900 10.01400 29.21500
H  42.91400 10.58900 32.72200
H  43.93700 8.75000 36.22800
H  45.13500 9.93500 36.56100
H  45.54700 8.40800 35.74400
Mg -5.75500 24.90000 27.33800
C  -4.09800 26.83900 29.76400
C  -6.54500 22.74500 29.82900
C  -7.23700 22.97100 24.96900
C  -4.54700 26.99400 24.77400
N  -5.34900 24.96000 29.56400
C  -4.71000 25.80400 30.34100
C  -4.75800 25.41500 31.84800
C  -5.56600 24.06200 31.79000
C  -5.88800 23.94600 30.28900
C  -4.99000 22.76300 32.35300
C  -5.27900 26.51400 32.84700
C  -6.43400 26.26800 33.69300
H  -6.19000 25.35400 34.85700
N  -6.72000 23.10000 27.34100
C  -6.90500 22.35600 28.49300
C  -7.54600 21.09900 28.13200
C  -7.74300 21.14600 26.66400
C  -7.28600 22.45100 26.20100
C  -7.90700 19.97800 29.20000
C  -8.33700 20.10100 25.72200
O  -8.52000 20.24900 24.52500
C  -8.50800 18.69900 26.27000
N  -5.80200 24.99800 25.11700
C  -6.59600 24.09100 24.44300
C  -6.87400 24.63100 23.02600
C  -5.89400 25.88900 22.90100
C  -5.34600 25.95500 24.32000
C  -6.58700 23.64100 21.92400
C  -6.64200 27.24000 22.41700
C  -6.22400 27.77300 21.04400
N  -4.47200 26.54600 27.17200
C  -4.01700 27.25000 26.13200
C  -3.13500 28.25600 26.56800
C  -3.13400 28.14800 27.98800
C  -3.91200 27.06400 28.34400
C  -2.44300 29.25900 25.65200
C  -2.68600 28.72100 29.23600
O  -2.09300 29.72400 29.43500
C  -3.22200 27.86700 30.41200
C  -2.15200 27.22700 31.14700
O  -1.46300 26.25400 30.86200
O  -2.00600 27.87000 32.39300
C  -0.80400 27.48800 33.18100
H  -6.84900 22.06500 30.62800
H  -7.75900 22.37200 24.21900
H  -4.25700 27.54800 23.87800
H  -3.73700 25.15600 32.12600
H  -6.57700 24.15000 32.19000
H  -5.78200 22.26400 32.91200
H  -4.12700 22.93100 32.99900
H  -4.57600 22.08300 31.60900
H  -5.39900 27.46100 32.32200
H  -4.48700 26.63200 33.58700
H  -7.27000 25.81500 33.15900
H  -6.83000 27.24000 33.98700
H  -8.90700 19.62600 28.94700
H  -8.04400 20.38800 30.20100
H  -7.18600 19.16200 29.16600
H  -7.53400 18.35600 26.61800
H  -8.88500 18.07800 25.45800
H  -9.37800 18.64700 26.92400
H  -7.91100 24.96600 23.03600
H  -5.11000 25.64300 22.18500
H  -6.49400 22.62300 22.30200
H  -5.89900 23.89300 21.11700
H  -7.52400 23.55000 21.37400
H  -6.32400 28.02800 23.10000
H  -7.73100 27.20900 22.40500
H  -5.79900 26.94800 20.47300
H  -5.39800 28.46200 21.21900
H  -7.09600 28.07800 20.46500
H  -2.89800 29.11100 24.67200
H  -1.40600 29.00800 25.43200
H  -2.57000 30.30700 25.92300
H  -3.78100 28.49100 31.11000
H  -0.82700 28.14400 34.05100
H  0.08200 27.68500 32.57600
H  -0.83900 26.41200 33.35200

