158

Mg 45.05500 4.10700 46.18700
C  43.15300 7.02800 46.12800
C  42.11900 2.27200 45.65600
C  46.95400 1.38600 45.71900
C  47.86800 6.11100 46.25900
N  42.86600 4.57500 46.04200
C  42.37400 5.81600 46.03100
C  40.81300 5.75500 45.76500
C  40.58400 4.22700 45.70100
C  41.95100 3.60600 45.77900
C  39.47300 3.74100 46.65000
C  40.22100 6.52700 44.56400
C  41.17800 6.90700 43.45700
H  40.57200 7.13400 42.10000
N  44.57500 2.10000 45.76100
C  43.31600 1.56600 45.59500
C  43.50900 0.23700 45.16300
C  44.87700 -0.11100 45.09700
C  45.56300 1.10200 45.52600
C  42.34100 -0.58400 44.66300
C  45.46400 -1.50800 44.74700
O  44.74700 -2.49600 44.47900
C  46.90000 -1.73800 44.79500
N  47.10800 3.78800 45.70800
C  47.64100 2.52700 45.84700
C  49.20700 2.58600 45.79900
C  49.47200 4.10200 46.03000
C  48.02700 4.73200 45.90800
C  50.02700 1.76700 46.78400
C  50.62200 4.87200 45.14300
C  52.01800 5.22600 45.88700
N  45.45100 6.18600 46.27600
C  46.66500 6.82800 46.35700
C  46.53200 8.26800 46.50400
C  45.11200 8.43900 46.47000
C  44.54800 7.11000 46.34600
C  47.61200 9.29400 46.70500
C  44.00500 9.33200 46.55700
O  43.94600 10.52600 46.69600
C  42.75000 8.44600 46.32500
C  41.84800 8.62500 47.50800
O  41.81300 7.78600 48.41400
O  40.97300 9.69700 47.39500
C  39.76400 9.71200 48.28800
H  41.18600 1.71500 45.55000
H  47.66900 0.56500 45.63000
H  48.73400 6.72400 46.51500
H  40.30900 6.12000 46.66000
H  40.28600 4.01700 44.67400
H  38.84700 4.58600 46.93500
H  39.87300 3.30600 47.56600
H  38.91700 2.98900 46.08900
H  39.80400 7.49700 44.83800
H  39.37000 5.97800 44.16100
H  42.06700 6.29100 43.32300
H  41.63000 7.85200 43.75900
H  41.57100 -0.70100 45.42600
H  42.63100 -1.61800 44.47600
H  41.89500 -0.23500 43.73100
H  47.18800 -2.72900 44.44500
H  47.08200 -1.59900 45.86100
H  47.50500 -0.96900 44.31300
H  49.60100 2.39500 44.80100
H  49.76700 4.29200 47.06200
H  50.90100 2.32200 47.12600
H  50.23900 0.76300 46.41500
H  49.38200 1.45100 47.60400
H  50.04700 5.75100 44.85400
H  50.64800 4.26700 44.23700
H  52.04700 4.69000 46.83600
H  52.27900 6.27100 46.05300
H  52.90000 4.85700 45.36300
H  47.91800 9.74500 45.76200
H  48.47500 8.85100 47.20200
H  47.24400 10.08600 47.35700
H  42.19600 8.81800 45.46300
H  39.82600 9.74200 49.37600
H  39.10000 8.89800 47.99700
H  39.20300 10.62300 48.08400
Mg 34.53400 2.06900 29.29000
C  32.42000 3.02200 31.86100
C  37.12200 1.87600 31.65100
C  36.76400 1.94200 26.77000
C  32.12700 3.06600 26.85600
N  34.72600 2.57000 31.48800
C  33.71400 2.71800 32.36700
C  34.18400 2.67000 33.83300
C  35.69100 2.38400 33.63700
C  35.89100 2.32400 32.12400
C  36.63300 3.31100 34.43900
C  33.38900 1.67500 34.67600
C  32.89100 1.98500 36.13800
H  33.61600 3.10700 36.87400
N  36.62000 1.75000 29.16700
C  37.44200 1.74700 30.23400
C  38.78300 1.53700 29.74700
C  38.81400 1.41100 28.34200
C  37.37300 1.73900 28.01500
C  40.09400 1.30600 30.61700
C  39.95800 1.15500 27.39500
O  39.75800 1.16200 26.18000
C  41.41700 0.99500 27.67400
N  34.38200 2.27600 27.13400
C  35.46600 2.14900 26.31600
C  35.10600 2.41300 24.83900
C  33.60800 2.60900 24.81900
C  33.36300 2.73700 26.35300
C  35.84700 3.57600 24.03600
C  32.78800 1.44700 24.07700
C  32.64700 -0.02500 24.71300
N  32.65400 2.81900 29.29600
C  31.77000 3.08300 28.24500
C  30.56300 3.57900 28.83800
C  30.68500 3.56000 30.25400
C  32.01700 3.11700 30.45900
C  29.30400 3.86100 28.09800
C  30.05200 3.77800 31.49500
O  28.95000 4.14600 31.79300
C  31.17800 3.51600 32.57000
C  31.29800 4.83400 33.27900
O  31.71400 5.88100 32.80500
O  30.83000 4.68500 34.59500
C  30.94100 5.89500 35.46700
H  37.99800 1.76800 32.29500
H  37.50000 2.00000 25.96500
H  31.39400 3.34100 26.09600
H  33.97900 3.56400 34.42200
H  35.89700 1.36000 33.94900
H  36.06600 4.14700 34.85000
H  37.26500 3.87700 33.75500
H  37.22500 2.85000 35.22900
H  34.03200 0.80500 34.81400
H  32.62000 1.26100 34.02300
H  32.86300 1.12000 36.80000
H  31.88200 2.36800 35.98500
H  40.91100 1.79100 30.08300
H  40.20400 0.22200 30.63100
H  40.07700 1.74300 31.61500
H  41.82000 1.98000 27.91300
H  41.89000 0.70300 26.73600
H  41.58600 0.26400 28.46400
H  35.34800 1.49400 24.30500
H  33.29900 3.54100 24.34300
H  35.12100 4.29500 23.65900
H  36.50600 3.13900 23.28500
H  36.52400 4.17100 24.64900
H  33.26300 1.42500 23.09600
H  31.77100 1.73400 23.81100
H  33.64400 -0.38200 24.97200
H  32.35200 -0.78700 23.99200
H  32.00300 0.03100 25.59100
H  29.35900 4.17200 27.05500
H  28.71400 4.70300 28.46200
H  28.71700 2.94500 28.16400
H  30.81100 2.73700 33.23900
H  31.44300 6.74500 35.00500
H  31.43200 5.62300 36.40100
H  29.93200 6.26800 35.64000

