158

Mg 7.33500 3.21300 28.27100
C  8.81100 1.46400 30.80400
C  5.39700 4.87800 30.51300
C  5.86600 4.78200 25.70000
C  9.23200 1.28100 25.98100
N  6.99100 3.01400 30.38600
C  7.87000 2.37300 31.25600
C  7.59900 2.79600 32.74500
C  6.43100 3.82800 32.55500
C  6.23800 3.89600 31.07800
C  5.19800 3.48200 33.47300
C  8.89000 3.32900 33.49600
C  8.61600 4.31700 34.73100
H  9.48500 4.03800 35.89900
N  5.84000 4.59700 28.10000
C  5.16600 5.16100 29.14400
C  4.26500 6.22100 28.66200
C  4.34800 6.18400 27.23400
C  5.36100 5.14000 26.91200
C  3.24500 6.92500 29.54800
C  3.51500 6.93400 26.23700
O  3.65500 6.88600 24.96900
C  2.39800 7.87800 26.73400
N  7.38800 2.98200 26.07600
C  6.80600 3.81200 25.29500
C  7.25800 3.52300 23.86000
C  8.45800 2.62100 23.96200
C  8.30900 2.18400 25.45900
C  6.09800 3.08100 22.94500
C  9.87300 3.32000 23.63500
C  10.54800 4.13900 24.72700
N  8.62100 1.56400 28.29200
C  9.35600 0.93500 27.33500
C  10.35000 0.07500 27.95000
C  10.21400 0.30600 29.31200
C  9.10400 1.10900 29.46000
C  11.15000 -0.91600 27.13000
C  10.62100 -0.14600 30.60400
O  11.49800 -0.93800 30.94100
C  9.85100 0.78300 31.60500
C  9.25300 -0.03600 32.65000
O  8.34700 -0.82500 32.52000
O  9.88400 0.19200 33.86100
C  9.35000 -0.46700 35.11600
H  5.02600 5.59500 31.24800
H  5.51400 5.32500 24.82000
H  9.89300 0.74200 25.29900
H  7.36600 1.89300 33.30900
H  6.83900 4.79400 32.85400
H  5.48300 2.81000 34.28300
H  4.40900 2.92400 32.97000
H  4.74900 4.35600 33.94500
H  9.37000 3.99000 32.77400
H  9.66300 2.60000 33.73800
H  7.57100 4.30100 35.03900
H  8.69300 5.32700 34.32900
H  2.23000 6.74200 29.19700
H  3.36400 8.00100 29.42400
H  3.21400 6.52900 30.56300
H  1.62700 7.44000 27.36800
H  1.78200 8.08400 25.85800
H  2.75900 8.86300 27.03000
H  7.68100 4.43800 23.44700
H  8.24900 1.68100 23.45100
H  5.33400 2.60600 23.56100
H  6.49400 2.28400 22.31500
H  5.73100 3.83400 22.24800
H  9.75700 3.84400 22.68600
H  10.57200 2.52400 23.37900
H  10.65500 5.14300 24.31700
H  11.54500 3.69700 24.73600
H  10.05000 4.05800 25.69300
H  10.52500 -1.31100 26.32900
H  11.36700 -1.69600 27.86000
H  11.95800 -0.24300 26.84100
H  10.54900 1.48800 32.05700
H  9.23300 -1.53900 34.95200
H  8.53400 0.04300 35.62800
H  10.16700 -0.34900 35.82700
Mg 16.55500 -1.33800 27.93200
C  15.27700 0.54300 30.73600
C  18.61900 -3.02800 29.95400
C  17.60100 -2.81000 25.17500
C  14.53000 0.83800 25.95000
N  16.98100 -1.10100 30.10700
C  16.31200 -0.41100 31.04500
C  16.85100 -0.68900 32.45300
C  17.94100 -1.76800 32.21700
C  17.88500 -1.99900 30.67000
C  19.37900 -1.33800 32.63800
C  15.62000 -1.28500 33.36500
C  15.30900 -0.70400 34.75000
H  16.32500 0.15600 35.46400
N  17.75400 -2.77000 27.64300
C  18.57600 -3.36700 28.56400
C  19.38800 -4.42500 27.97800
C  19.13500 -4.35700 26.60200
C  18.14500 -3.27600 26.42100
C  20.24100 -5.37800 28.83200
C  19.94700 -5.01200 25.46500
O  19.68400 -4.80200 24.29400
C  20.93100 -6.06000 25.85700
N  16.16300 -0.88000 25.84400
C  16.71000 -1.75500 24.95700
C  16.37000 -1.24800 23.53100
C  15.06500 -0.34100 23.79400
C  15.26300 -0.07800 25.26500
C  17.50900 -0.48700 22.79300
C  13.71700 -1.09200 23.51100
C  12.67400 -0.11500 22.91200
N  15.33100 0.45800 28.21400
C  14.55800 1.14500 27.31900
C  13.64000 2.02800 27.98600
C  13.87700 1.86900 29.33500
C  14.92800 0.90300 29.44700
C  12.69400 3.06900 27.40500
C  13.55500 2.30400 30.67400
O  12.82800 3.17500 31.03400
C  14.45400 1.41800 31.63800
C  15.32800 2.42000 32.23700
O  16.43900 2.80900 31.82800
O  14.80300 2.90200 33.39700
C  15.66600 3.88800 34.02900
H  19.22100 -3.65500 30.61500
H  17.86800 -3.42300 24.31100
H  13.84100 1.49500 25.41600
H  17.23100 0.21900 32.92100
H  17.74700 -2.74900 32.65000
H  19.98600 -1.45400 31.74100
H  19.66600 -1.92700 33.50900
H  19.52300 -0.28300 32.87200
H  15.62500 -2.36900 33.48300
H  14.76000 -1.32200 32.69600
H  15.08100 -1.60300 35.32200
H  14.38900 -0.12100 34.80400
H  19.85100 -6.39600 28.84400
H  20.34100 -5.23500 29.90800
H  21.28600 -5.37700 28.52100
H  21.78200 -5.60800 26.36800
H  21.30900 -6.38900 24.88900
H  20.44900 -6.86600 26.41000
H  16.17300 -2.15000 22.95200
H  15.21200 0.54800 23.18100
H  17.06900 0.45100 22.45300
H  17.77100 -1.14200 21.96200
H  18.38700 -0.32100 23.41700
H  13.32200 -1.77600 24.26100
H  13.87300 -1.81400 22.70900
H  11.91400 -0.84900 22.64600
H  12.97400 0.54700 22.09900
H  12.26800 0.47400 23.73500
H  11.86600 2.93300 28.10100
H  12.30400 2.73300 26.44500
H  13.19900 4.03500 27.37000
H  13.82600 0.95500 32.39800
H  16.13400 4.57400 33.32200
H  16.45800 3.39800 34.59400
H  15.05300 4.35300 34.80100

