158

Mg -1.72100 17.69900 26.82400
C  -2.34400 15.63800 29.48200
C  -2.46900 20.41200 28.88000
C  -1.26300 19.80700 24.21800
C  -1.45800 14.97900 24.67000
N  -2.68200 17.95400 28.89000
C  -2.52200 16.96000 29.83800
C  -3.04000 17.49100 31.22600
C  -3.09700 19.01900 30.95300
C  -2.64300 19.15300 29.43900
C  -4.46800 19.73800 31.45400
C  -2.07700 16.96500 32.40500
C  -1.81300 17.72200 33.70800
H  -1.95900 16.88200 34.99000
N  -1.78300 19.83900 26.56800
C  -2.03600 20.74100 27.55800
C  -1.96400 22.08600 27.07100
C  -1.43500 21.93900 25.70400
C  -1.54300 20.49100 25.40800
C  -2.31900 23.37800 27.81600
C  -1.00100 22.90200 24.73700
O  -0.70600 22.67400 23.54400
C  -0.80800 24.35000 25.33400
N  -1.54200 17.43000 24.68800
C  -1.27900 18.48600 23.87300
C  -1.02800 17.95300 22.43500
C  -1.00700 16.40000 22.61400
C  -1.25100 16.24400 24.05500
C  -2.21500 18.44400 21.48400
C  0.32900 15.72900 22.13400
C  1.50200 15.74300 23.20600
N  -1.91100 15.72600 26.94200
C  -1.75000 14.73000 25.98000
C  -1.83500 13.48000 26.66300
C  -1.97200 13.75900 28.04300
C  -2.07600 15.17900 28.15500
C  -1.69100 12.20000 25.92600
C  -2.09400 13.16100 29.34000
O  -2.08400 11.99700 29.73200
C  -2.32200 14.31000 30.36500
C  -1.16500 14.23000 31.29900
O  -0.03000 14.65600 31.19800
O  -1.61400 13.35700 32.24000
C  -0.72500 13.20200 33.35900
H  -2.51800 21.24700 29.58200
H  -1.10200 20.49200 23.38200
H  -1.33700 14.12500 24.00000
H  -3.97600 16.97000 31.42600
H  -2.25600 19.51500 31.43600
H  -5.07700 18.90600 31.80700
H  -4.92200 20.12200 30.54000
H  -4.33700 20.36600 32.33500
H  -1.14900 16.69100 31.90300
H  -2.58100 16.04200 32.68800
H  -2.54500 18.51000 33.88200
H  -0.78600 18.07700 33.79300
H  -2.75000 23.29800 28.81400
H  -3.06400 23.83300 27.16400
H  -1.43600 23.99300 27.98900
H  -1.81900 24.75400 25.38700
H  -0.37800 24.84200 24.46200
H  -0.15700 24.42500 26.20500
H  -0.02800 18.31500 22.19600
H  -1.93100 15.98600 22.20800
H  -2.87800 19.14600 21.99000
H  -2.91900 17.64000 21.26800
H  -1.85100 18.88000 20.55300
H  0.64800 16.14200 21.17700
H  0.10600 14.68000 21.94100
H  1.22800 16.03700 24.21900
H  2.24800 16.40300 22.76400
H  1.85600 14.71500 23.27600
H  -2.53800 11.53900 26.10800
H  -0.76900 11.65700 26.13700
H  -1.83500 12.35000 24.85700
H  -3.31400 14.20200 30.80500
H  0.27300 12.91500 33.02900
H  -1.10000 12.34700 33.92100
H  -0.65700 14.13500 33.91900
Mg 44.00900 5.18300 47.03000
C  42.07300 7.92900 46.47500
C  41.20200 3.27100 46.06400
C  45.93900 2.38000 46.67300
C  46.83500 7.08300 46.94400
N  41.82800 5.53100 46.24600
C  41.27800 6.80000 46.18000
C  39.72500 6.77700 45.96100
C  39.42800 5.23900 46.13900
C  40.88200 4.58800 46.15900
C  38.70900 4.95300 47.46600
C  39.11800 7.34700 44.59300
C  40.12500 7.66200 43.43900
H  39.56300 7.86100 42.04800
N  43.63600 3.11100 46.50900
C  42.38300 2.55400 46.12600
C  42.56200 1.14100 45.79700
C  43.96700 0.87700 45.84200
C  44.58700 2.15400 46.33500
C  41.46200 0.28300 45.21600
C  44.58100 -0.46800 45.43700
O  43.89800 -1.39900 45.09900
C  46.08800 -0.55500 45.34800
N  46.09400 4.74700 46.85100
C  46.69600 3.57400 46.85400
C  48.24900 3.61700 46.85200
C  48.44300 5.18800 46.98700
C  47.01300 5.72900 46.92100
C  49.02700 2.75200 47.91800
C  49.33900 5.83700 45.91400
C  50.33900 6.85900 46.46700
N  44.33000 7.09100 46.88900
C  45.57300 7.77800 46.89800
C  45.34700 9.16900 46.73600
C  43.97900 9.27500 46.65800
C  43.40700 7.97400 46.71200
C  46.36700 10.16600 46.66700
C  42.90300 10.21100 46.50100
O  42.91500 11.43900 46.51300
C  41.55200 9.37100 46.40300
C  40.65200 9.65600 47.56100
O  40.86200 9.20500 48.67400
O  39.53100 10.36300 47.17500
C  38.39000 10.46600 48.22600
H  40.31100 2.70100 45.79500
H  46.64700 1.55000 46.70000
H  47.75300 7.67500 46.92900
H  39.25100 7.34800 46.76000
H  38.91900 4.88000 45.24500
H  37.81500 5.56000 47.60600
H  39.47300 5.03900 48.23900
H  38.44100 3.89600 47.47800
H  38.77000 8.32400 44.92600
H  38.37000 6.65600 44.20500
H  40.88300 6.88000 43.37400
H  40.51900 8.62500 43.76300
H  41.80800 -0.01400 44.22600
H  40.55100 0.86500 45.07700
H  41.21100 -0.66400 45.69200
H  46.31500 -1.51400 44.88200
H  46.42000 -0.55200 46.38600
H  46.51600 0.29400 44.81500
H  48.59800 3.33000 45.86000
H  48.75800 5.44200 47.99900
H  49.68800 2.03500 47.43100
H  48.25100 2.21100 48.45900
H  49.71600 3.37600 48.48600
H  48.84300 6.27800 45.04900
H  49.88900 5.04000 45.41400
H  51.32700 6.43200 46.29600
H  50.21800 6.98900 47.54200
H  50.02800 7.84200 46.11300
H  47.20500 9.78300 47.25000
H  45.93200 11.07600 47.07900
H  46.53600 10.31800 45.60100
H  41.01600 9.69500 45.51200
H  37.74500 9.59700 48.09600
H  37.75700 11.30900 47.94900
H  38.82800 10.63100 49.21000

