158

Mg 9.51300 47.03500 26.24900
C  7.21800 46.82800 28.83700
C  11.78400 48.02800 28.34300
C  11.53600 47.62400 23.61100
C  6.80600 46.73200 24.01500
N  9.48700 47.45000 28.44100
C  8.49200 47.17000 29.31500
C  8.94300 47.39500 30.77500
C  10.37000 47.97400 30.60000
C  10.60600 47.88400 29.04300
C  10.52700 49.41600 31.20300
C  8.75700 46.12300 31.75300
C  9.76100 45.97500 32.91100
H  9.16200 45.46500 34.24900
N  11.43900 47.47700 26.05400
C  12.27700 47.86500 27.04200
C  13.60200 47.94700 26.51700
C  13.54900 47.73600 25.08000
C  12.11200 47.64500 24.86700
C  14.79200 47.96700 27.43800
C  14.64300 47.65600 24.03100
O  14.40600 47.49000 22.82600
C  16.07200 47.45900 24.53200
N  9.20300 47.13000 24.10600
C  10.22500 47.44700 23.23800
C  9.77300 47.36700 21.75900
C  8.24200 47.15100 21.88200
C  8.06300 47.02600 23.41700
C  10.11900 48.71700 21.07300
C  7.68400 45.89900 21.04600
C  6.44500 46.27000 20.21200
N  7.43000 46.93200 26.35200
C  6.47500 46.67300 25.39000
C  5.22900 46.47900 25.95300
C  5.44400 46.50200 27.30900
C  6.83500 46.78200 27.53900
C  3.90700 46.37900 25.32200
C  4.78900 46.32100 28.61200
O  3.69600 45.98600 29.00300
C  6.00500 46.56700 29.68300
C  6.01100 45.37100 30.46800
O  6.76200 44.40900 30.37100
O  5.27700 45.51800 31.58400
C  5.16900 44.44900 32.63900
H  12.61300 47.95900 29.05100
H  12.15700 47.75300 22.72300
H  5.92200 46.52800 23.40800
H  8.19300 48.11700 31.09700
H  11.11400 47.31500 31.04900
H  10.99700 49.29300 32.17900
H  9.55100 49.79300 31.50800
H  10.98100 50.19500 30.59100
H  8.85400 45.23000 31.13600
H  7.77600 46.13300 32.22900
H  10.39500 46.82600 33.16000
H  10.42700 45.17300 32.59200
H  15.30800 48.91300 27.26900
H  15.61000 47.30500 27.15500
H  14.56600 47.92900 28.50400
H  16.78000 47.29500 23.72000
H  16.11800 46.61700 25.22200
H  16.38500 48.36500 25.05200
H  10.26300 46.63300 21.11900
H  7.65700 48.04200 21.65400
H  9.19500 49.23600 20.82000
H  10.67800 48.57000 20.14900
H  10.71200 49.30400 21.77500
H  7.29600 45.16800 21.75600
H  8.40200 45.53000 20.31400
H  6.41100 45.64400 19.32000
H  6.41500 47.34200 20.02000
H  5.49200 46.04800 20.69200
H  4.06900 45.78000 24.42600
H  3.62100 47.38400 25.01100
H  3.11000 45.96300 25.93700
H  5.71300 47.38500 30.34100
H  5.23700 43.48700 32.12900
H  4.16400 44.48700 33.05800
H  5.97700 44.50500 33.36800
Mg -5.00600 24.49900 26.25500
C  -3.13600 26.04800 28.72200
C  -6.34400 22.43100 28.63800
C  -6.97700 23.22000 23.81100
C  -3.31700 26.37500 23.82100
N  -4.76000 24.35400 28.41800
C  -4.12300 25.20400 29.25400
C  -4.47200 24.91500 30.74600
C  -5.08900 23.42800 30.59900
C  -5.41800 23.37600 29.12300
C  -4.16700 22.28300 31.01500
C  -5.27600 26.15700 31.21200
C  -5.39000 26.52300 32.68600
H  -5.02900 25.37500 33.59400
N  -6.38000 23.05800 26.19400
C  -6.80400 22.30600 27.28700
C  -7.79600 21.40600 26.88700
C  -8.08300 21.65300 25.51500
C  -7.09000 22.70300 25.13100
C  -8.38600 20.31400 27.80700
C  -9.13000 20.98900 24.57700
O  -9.25000 21.26100 23.40500
C  -10.02200 19.98500 25.11700
N  -5.16200 24.78500 24.00700
C  -5.96200 24.07800 23.26300
C  -5.90200 24.39700 21.81100
C  -4.72700 25.35600 21.78100
C  -4.36700 25.59800 23.32100
C  -5.79500 23.22700 20.77900
C  -5.13700 26.64700 21.08700
C  -4.05800 27.15200 20.12700
N  -3.42300 25.73000 26.17500
C  -2.95400 26.58200 25.16800
C  -1.88400 27.46500 25.69900
C  -1.88900 27.22300 27.08300
C  -2.82800 26.18600 27.32300
C  -1.19200 28.59300 24.94900
C  -1.32900 27.67800 28.39100
O  -0.46000 28.55400 28.53800
C  -2.27400 27.03000 29.49600
C  -1.40100 26.42400 30.57600
O  -0.66300 25.43900 30.49400
O  -1.58100 27.11500 31.74400
C  -0.86600 26.63700 32.94200
H  -6.92900 21.86500 29.36600
H  -7.70200 22.91900 23.05300
H  -2.81900 27.13600 23.21700
H  -3.54800 24.88100 31.32200
H  -6.05700 23.39200 31.09900
H  -4.30900 22.08400 32.07700
H  -3.11100 22.55300 30.99000
H  -4.31900 21.40500 30.38800
H  -6.33000 26.17500 30.93500
H  -4.82700 26.96700 30.63800
H  -6.41400 26.84100 32.88000
H  -4.71600 27.37200 32.80500
H  -9.37200 20.64300 28.13300
H  -7.73300 20.08400 28.64900
H  -8.40700 19.45100 27.14100
H  -9.35400 19.12700 25.03700
H  -10.77900 19.86000 24.34200
H  -10.55300 20.27300 26.02400
H  -6.80700 24.91000 21.48300
H  -3.84600 24.89500 21.33500
H  -5.91200 22.27500 21.29700
H  -4.81000 23.17800 20.31600
H  -6.64500 23.33700 20.10500
H  -5.26700 27.44100 21.82200
H  -6.07700 26.59100 20.53800
H  -4.51600 27.07700 19.14000
H  -3.11000 26.61500 20.14300
H  -3.75800 28.12900 20.50300
H  -1.67900 29.55600 25.10100
H  -1.21100 28.25300 23.91300
H  -0.15400 28.65800 25.27500
H  -2.86500 27.84100 29.92300
H  0.17200 26.42200 32.68800
H  -1.42800 25.80200 33.35900
H  -0.79100 27.50600 33.59600

