158

Mg 41.93400 41.45500 26.59300
C  41.02400 43.84300 29.02000
C  43.05600 39.42600 28.98000
C  42.66700 39.18800 24.09500
C  41.10200 43.75200 24.21200
N  42.18300 41.68700 28.77300
C  41.50600 42.60000 29.54300
C  41.55600 42.21700 31.06300
C  42.46900 40.90000 30.92800
C  42.58000 40.60600 29.47700
C  43.90300 41.16300 31.50000
C  40.18000 42.17000 31.67100
C  39.92700 41.10600 32.82500
H  39.25300 41.81800 34.01600
N  42.81200 39.61700 26.51800
C  43.13200 38.91300 27.62300
C  43.77400 37.64700 27.25900
C  43.50400 37.50600 25.81900
C  43.00400 38.82000 25.42300
C  44.30900 36.66100 28.25100
C  43.63100 36.32500 24.92100
O  43.35800 36.35200 23.71400
C  44.07600 34.91100 25.50100
N  42.01600 41.43300 24.50200
C  42.19700 40.36900 23.67300
C  42.06300 40.69400 22.16800
C  41.31900 42.10000 22.31500
C  41.49600 42.49300 23.80600
C  43.35400 40.65200 21.36400
C  39.86100 42.14600 21.79500
C  38.85200 41.18000 22.40100
N  41.16800 43.40100 26.55300
C  41.03400 44.28300 25.48000
C  40.55300 45.50500 26.02600
C  40.54800 45.44100 27.36400
C  40.98800 44.15100 27.65700
C  40.02200 46.72300 25.26400
C  40.20600 46.10500 28.62600
O  39.72900 47.22500 28.80400
C  40.49300 45.02200 29.77700
C  41.41200 45.44000 30.88900
O  42.55900 45.75300 30.77700
O  40.68700 45.52700 32.06600
C  41.50100 45.47100 33.32600
H  43.50800 38.82800 29.77400
H  42.91100 38.47500 23.30500
H  40.62600 44.49300 23.56600
H  41.97300 43.00200 31.69300
H  42.08000 40.05900 31.50200
H  44.20600 40.19600 31.90200
H  43.88000 41.90400 32.29900
H  44.66500 41.45800 30.77900
H  39.57500 41.77700 30.85300
H  39.74900 43.14500 31.89800
H  40.86700 40.64000 33.11900
H  39.28000 40.35900 32.36500
H  45.19700 36.25200 27.77000
H  43.66500 35.80000 28.42900
H  44.66800 37.25100 29.09500
H  45.15400 34.78000 25.41500
H  43.73700 34.06900 24.89700
H  43.68500 34.56800 26.45900
H  41.47000 39.86400 21.78400
H  41.89800 42.83600 21.75600
H  43.53200 41.63300 20.92300
H  43.43600 39.83600 20.64600
H  44.17300 40.53200 22.07400
H  39.86400 41.99700 20.71600
H  39.51300 43.11700 22.14800
H  38.07400 41.69800 22.96300
H  39.32200 40.51600 23.12700
H  38.45000 40.57100 21.59100
H  39.25000 47.17900 25.88300
H  39.61500 46.24400 24.37300
H  40.85100 47.40200 25.06500
H  39.49000 44.81600 30.15200
H  41.48900 44.46300 33.74100
H  41.11100 46.23600 33.99700
H  42.52900 45.67100 33.02300
Mg 10.07500 48.17000 26.21900
C  7.91200 47.78700 29.10400
C  12.35500 49.62600 28.13100
C  12.08600 48.05800 23.56200
C  7.38100 47.06400 24.30300
N  10.08800 48.70500 28.32800
C  9.17600 48.44200 29.36400
C  9.78400 48.88500 30.68200
C  10.95800 49.76300 30.28000
C  11.21400 49.31200 28.87400
C  10.80500 51.26500 30.54200
C  10.15400 47.69600 31.62000
C  9.55300 47.63300 32.98000
H  9.81900 46.37800 33.86600
N  11.94000 48.93100 25.86900
C  12.77300 49.37400 26.82100
C  14.09200 49.56600 26.22700
C  13.95200 49.15200 24.87500
C  12.59300 48.74200 24.67200
C  15.22800 50.03400 27.02900
C  14.98700 49.13500 23.89900
O  14.80800 48.92800 22.67800
C  16.39300 49.34800 24.29900
N  9.68200 48.00400 24.14700
C  10.75700 47.84700 23.27800
C  10.42100 47.02500 22.03100
C  8.96900 46.48400 22.30800
C  8.60300 47.29300 23.67600
C  10.75500 47.74900 20.69700
C  8.90200 44.91600 22.46300
C  8.77800 43.88800 21.26100
N  8.00800 47.58500 26.56100
C  7.07000 47.10100 25.67200
C  5.83300 46.85100 26.40200
C  6.15500 47.08300 27.79100
C  7.49200 47.44300 27.76900
C  4.56800 46.41300 25.82000
C  5.56600 47.22400 29.11200
O  4.39700 47.14900 29.47200
C  6.79500 47.32900 30.02800
C  6.99600 46.05800 30.81200
O  7.92500 45.22800 30.74300
O  6.00200 45.97500 31.82300
C  6.21500 44.85800 32.74400
H  13.03200 50.28800 28.67500
H  12.84100 47.63800 22.89400
H  6.69100 46.63600 23.57300
H  9.11100 49.49000 31.29100
H  11.85900 49.60500 30.87200
H  11.73400 51.67800 30.93600
H  10.00000 51.51100 31.23400
H  10.50700 51.73300 29.60400
H  11.23700 47.75700 31.72000
H  9.81300 46.79600 31.10800
H  8.49200 47.56700 32.74000
H  9.80400 48.55600 33.50300
H  14.86000 50.41300 27.98200
H  15.80400 50.82200 26.54300
H  15.81400 49.15900 27.31300
H  16.56700 50.33200 24.73300
H  17.03100 49.28400 23.41800
H  16.65800 48.62200 25.06800
H  11.09000 46.16500 22.05300
H  8.29100 46.89000 21.55700
H  11.65500 47.37200 20.21200
H  11.05400 48.75900 20.97900
H  10.11500 47.80000 19.81600
H  8.07300 44.79700 23.16000
H  9.84200 44.64800 22.94500
H  9.68600 43.36500 20.96200
H  8.37600 44.57900 20.52000
H  8.03800 43.11000 21.44800
H  4.33700 47.04200 24.96000
H  3.94300 46.54400 26.70400
H  4.58500 45.36600 25.51800
H  6.56300 48.11000 30.75300
H  7.13300 45.04200 33.30200
H  6.23400 43.88000 32.26300
H  5.37200 44.74600 33.42600

