158

Mg -10.64700 17.75300 43.42400
C  -7.14300 17.20000 43.26000
C  -9.92400 21.07900 42.47500
C  -13.86200 18.31500 43.05800
C  -11.13800 14.37600 43.77200
N  -8.71900 18.97500 42.91900
C  -7.42100 18.53900 43.03000
C  -6.40500 19.63400 42.64800
C  -7.37000 20.93900 42.62400
C  -8.79700 20.29600 42.65500
C  -7.12000 22.00500 43.79400
C  -5.41700 19.34200 41.42900
C  -5.78300 18.29600 40.37600
H  -5.65100 18.71700 38.88300
N  -11.77000 19.51000 42.72500
C  -11.31200 20.77200 42.45400
C  -12.41700 21.58200 42.14900
C  -13.56200 20.81600 42.37800
C  -13.07300 19.47700 42.70400
C  -12.23400 23.06400 41.75500
C  -15.03200 21.28100 42.27200
O  -15.33400 22.47300 42.03800
C  -16.18600 20.44400 42.60200
N  -12.33800 16.50300 43.28700
C  -13.57800 17.00600 43.37200
C  -14.58400 15.97300 43.85100
C  -13.71600 14.67400 43.72200
C  -12.30000 15.16000 43.47900
C  -15.22400 16.26600 45.20500
C  -14.11300 13.69000 42.54900
C  -15.22900 12.69300 42.75500
N  -9.51500 16.09600 43.53300
C  -9.80900 14.80100 43.68200
C  -8.61300 13.98200 43.72500
C  -7.58300 14.90300 43.58100
C  -8.16100 16.17300 43.42200
C  -8.56900 12.41600 43.83800
C  -6.13400 15.02500 43.58600
O  -5.28100 14.15600 43.67700
C  -5.82700 16.52300 43.42700
C  -4.91600 17.00400 44.55700
O  -3.90200 17.70300 44.44100
O  -5.35900 16.48500 45.77600
C  -4.71400 16.99900 46.96400
H  -9.72700 22.12800 42.24400
H  -14.94900 18.36600 42.96500
H  -11.41100 13.33600 43.96200
H  -5.68800 19.69700 43.46600
H  -7.28100 21.38600 41.63400
H  -6.96000 22.96900 43.31000
H  -6.27300 21.79700 44.44900
H  -8.03100 21.97900 44.39100
H  -4.46300 19.10200 41.89800
H  -5.28600 20.27900 40.88700
H  -6.82600 18.07300 40.60200
H  -5.19200 17.38300 40.46000
H  -13.06500 23.46000 41.17300
H  -11.39700 23.11400 41.05800
H  -12.03800 23.70600 42.61400
H  -16.20100 20.29400 43.68200
H  -16.22900 19.55600 41.97200
H  -17.05800 20.99600 42.25200
H  -15.41300 15.93100 43.14400
H  -13.72400 14.15700 44.68200
H  -14.51800 16.65600 45.93900
H  -15.73900 15.40600 45.63300
H  -15.94300 17.07200 45.05900
H  -13.24300 13.09800 42.26300
H  -14.42400 14.25700 41.67100
H  -16.17000 12.98600 42.28800
H  -15.27700 12.78700 43.84000
H  -14.82300 11.72800 42.45300
H  -9.17100 12.05000 43.00600
H  -9.02300 12.02300 44.74700
H  -7.53800 12.07700 43.73300
H  -5.26800 16.61800 42.49600
H  -4.35000 18.01300 46.80200
H  -3.89800 16.37800 47.33400
H  -5.46600 17.12000 47.74400
Mg -6.40000 24.72400 26.71300
C  -4.65600 26.33700 29.38900
C  -7.82000 22.68500 29.23200
C  -7.96100 23.14400 24.23700
C  -4.59600 26.59000 24.43600
N  -6.20600 24.46700 29.12300
C  -5.49100 25.34100 29.91100
C  -5.80400 25.09200 31.39300
C  -6.52100 23.69500 31.29200
C  -7.01600 23.65300 29.82700
C  -5.85600 22.36000 31.81000
C  -6.73500 26.23500 32.03400
C  -6.27600 26.77500 33.33000
H  -5.84700 25.81100 34.40800
N  -7.68600 23.10600 26.75000
C  -8.17500 22.46700 27.88000
C  -9.28600 21.55900 27.47500
C  -9.34400 21.66000 26.03700
C  -8.30700 22.63400 25.61000
C  -10.12800 20.63400 28.40800
C  -10.09000 20.84400 25.01000
O  -10.06200 21.06300 23.78900
C  -10.87400 19.66200 25.52400
N  -6.38100 24.85100 24.56400
C  -7.20200 24.18700 23.79000
C  -6.75100 24.45000 22.27600
C  -5.70500 25.54200 22.42100
C  -5.55200 25.67800 23.91200
C  -6.35600 23.21000 21.49600
C  -6.07300 26.92100 21.85100
C  -5.55900 27.20900 20.44300
N  -4.93700 26.13000 26.79200
C  -4.29700 26.86100 25.79700
C  -3.38100 27.84500 26.41500
C  -3.55300 27.69500 27.74200
C  -4.47000 26.65800 27.98200
C  -2.48900 28.81800 25.72600
C  -3.05500 28.25300 29.00100
O  -2.19400 29.06500 29.22500
C  -3.84200 27.38900 30.09600
C  -2.82000 26.85600 31.06900
O  -1.94900 26.02700 30.78800
O  -3.10800 27.16500 32.35700
C  -2.16800 26.50900 33.34100
H  -8.29800 22.22600 30.10000
H  -8.39500 22.60400 23.39300
H  -4.22200 27.15600 23.58000
H  -4.81100 24.86400 31.78000
H  -7.35500 23.88400 31.96700
H  -5.16500 22.47100 32.64600
H  -5.22800 22.00400 30.99300
H  -6.47600 21.49800 32.05500
H  -7.76600 25.89200 32.12800
H  -6.82900 27.11600 31.40000
H  -7.14900 27.32100 33.68600
H  -5.44700 27.46200 33.16400
H  -11.17600 20.65700 28.11100
H  -10.30100 21.09300 29.38200
H  -9.82400 19.58900 28.46800
H  -10.27900 19.11000 26.25200
H  -11.18100 19.02500 24.69500
H  -11.71300 20.15300 26.01600
H  -7.68100 24.81700 21.84300
H  -4.78800 25.18300 21.95300
H  -7.00200 23.02700 20.63700
H  -6.12000 22.28400 22.02200
H  -5.39100 23.43600 21.04100
H  -5.74800 27.76500 22.46100
H  -7.16100 26.89400 21.79700
H  -6.35000 27.29000 19.69700
H  -4.84900 26.45900 20.09300
H  -5.12400 28.20900 20.44100
H  -1.54600 28.78600 26.27200
H  -2.87300 29.82700 25.87400
H  -2.33000 28.56900 24.67700
H  -4.51400 28.06300 30.62600
H  -2.44900 25.45600 33.31600
H  -2.28600 26.84600 34.37100
H  -1.16000 26.70700 32.97500

