158

Mg 15.94700 -1.27100 27.49400
C  14.80800 0.58100 30.40700
C  18.08500 -3.02000 29.46200
C  17.15700 -2.61500 24.71100
C  13.91700 1.00400 25.55400
N  16.50200 -1.15400 29.70900
C  15.80900 -0.39500 30.62200
C  16.24400 -0.87700 32.04200
C  17.36000 -1.94700 31.74600
C  17.37900 -2.00200 30.21300
C  18.74000 -1.70300 32.40900
C  15.12400 -1.39900 32.82000
C  15.24700 -1.20100 34.36500
H  16.40600 -0.52800 35.01100
N  17.42100 -2.57700 27.15100
C  18.15800 -3.18500 28.10900
C  18.99500 -4.24000 27.42900
C  18.69300 -4.20900 25.99200
C  17.76700 -3.07200 25.89500
C  19.85400 -5.09800 28.17000
C  19.14800 -5.17100 24.90300
O  18.80600 -4.95700 23.73000
C  19.99700 -6.35200 25.25700
N  15.57000 -0.92500 25.46000
C  16.17800 -1.65300 24.47000
C  15.54800 -1.35300 23.07500
C  14.68600 -0.09300 23.34500
C  14.68100 -0.00000 24.91100
C  16.51300 -1.28000 21.83900
C  13.28200 -0.10200 22.71700
C  13.26600 -0.15100 21.21400
N  14.60500 0.44100 27.85700
C  13.92700 1.26900 26.99700
C  13.17700 2.25700 27.72200
C  13.43400 2.02700 29.08700
C  14.27700 0.94900 29.11500
C  12.46700 3.31500 27.03400
C  13.24900 2.49400 30.46200
O  12.62500 3.49500 30.91600
C  14.13700 1.47400 31.36600
C  15.07800 2.28800 32.28000
O  16.24100 2.58800 32.05900
O  14.36600 2.63600 33.41800
C  14.94500 3.64500 34.36500
H  18.61800 -3.68000 30.15000
H  17.39800 -3.12000 23.77300
H  13.32300 1.64100 24.89600
H  16.61000 -0.00800 32.58800
H  17.04100 -2.84600 32.27400
H  19.08700 -2.51200 33.05200
H  18.54200 -0.85600 33.06500
H  19.45400 -1.33000 31.67400
H  14.88200 -2.38300 32.41800
H  14.19200 -0.85600 32.66200
H  15.14900 -2.17700 34.84100
H  14.37000 -0.63800 34.68300
H  20.67600 -5.63300 27.69400
H  19.32900 -5.93000 28.63900
H  20.28500 -4.54500 29.00500
H  21.04500 -6.08300 25.39400
H  19.95000 -6.99900 24.38100
H  19.58100 -6.90800 26.09700
H  14.84100 -2.16500 22.90700
H  15.19300 0.81500 23.01900
H  17.44900 -1.79400 22.05800
H  16.70700 -0.37800 21.25800
H  15.98500 -1.92000 21.13200
H  12.71600 0.78700 22.99700
H  12.79700 -1.00000 23.09800
H  12.81000 0.70000 20.70800
H  12.74200 -1.05200 20.89700
H  14.27100 -0.21800 20.79700
H  13.12700 3.75200 26.28600
H  12.40400 4.05000 27.83600
H  11.47900 3.03200 26.67100
H  13.31700 0.95500 31.86300
H  14.52100 3.49500 35.35700
H  14.70500 4.66400 34.05900
H  16.00800 3.42600 34.46300
Mg 54.09600 24.76900 44.61200
C  51.45600 27.08100 43.81400
C  51.88000 22.41200 43.55200
C  56.71800 22.79400 44.44600
C  56.18000 27.51200 45.37300
N  51.90300 24.82400 43.53900
C  50.96900 25.85700 43.48000
C  49.60100 25.33700 42.89200
C  49.72100 23.81800 43.30500
C  51.27200 23.62100 43.48400
C  48.86900 23.42100 44.49600
C  49.41400 25.50700 41.31900
C  47.96200 25.39500 40.91300
H  47.65600 25.31200 39.48200
N  54.24400 22.80600 44.07900
C  53.20600 21.97000 43.78900
C  53.75200 20.68100 43.53400
C  55.16400 20.78200 43.78700
C  55.45100 22.20700 44.05600
C  52.89000 19.31700 43.35000
C  56.07300 19.60200 43.82200
O  55.76100 18.45500 43.58600
C  57.52700 19.76300 44.08500
N  56.23300 25.11700 44.90900
C  57.06100 24.09900 44.85700
C  58.44100 24.59400 45.32300
C  58.21800 26.09000 45.80000
C  56.79800 26.24500 45.27000
C  59.08100 23.71600 46.41100
C  59.35300 26.97900 45.38500
C  59.15700 27.83900 44.11300
N  53.93600 26.85900 44.59100
C  54.79600 27.79200 45.12100
C  54.06100 29.03200 45.32400
C  52.78200 28.76400 44.76900
C  52.74600 27.45700 44.34200
C  54.55500 30.34500 45.88200
C  51.46500 29.36800 44.62700
O  51.08800 30.52200 44.91500
C  50.62700 28.32500 43.83900
C  50.36200 28.92400 42.52300
O  51.22400 29.49600 41.85500
O  49.02600 28.96800 42.25700
C  48.68900 29.58300 40.96200
H  51.26300 21.52400 43.40200
H  57.57600 22.11900 44.46100
H  56.72600 28.40700 45.67800
H  48.89100 25.94600 43.45200
H  49.51500 23.07500 42.53500
H  48.25900 22.53000 44.34500
H  48.17700 24.18100 44.85900
H  49.49100 22.99700 45.28400
H  50.02900 24.75900 40.81800
H  49.85500 26.45700 41.01500
H  47.48400 26.26600 41.36100
H  47.59500 24.55800 41.50800
H  53.36600 18.48700 43.87100
H  52.82900 19.02900 42.30100
H  51.95700 19.53700 43.86800
H  57.81600 20.51100 43.34600
H  58.08300 18.85600 43.85000
H  57.72600 20.02400 45.12400
H  59.24300 24.56800 44.58500
H  58.23000 25.97200 46.88400
H  58.50000 22.79500 46.44000
H  59.12500 24.22200 47.37500
H  60.11700 23.48100 46.16600
H  60.26600 26.38700 45.32000
H  59.51300 27.69100 46.19500
H  58.38400 27.40600 43.47700
H  60.08700 28.11300 43.61600
H  58.94200 28.78700 44.60600
H  55.59200 30.38600 46.21200
H  53.93800 30.54500 46.75800
H  54.44000 31.15100 45.15700
H  49.67000 28.12100 44.31900
H  47.99200 28.89600 40.48200
H  49.57000 29.81600 40.36300
H  48.08200 30.48800 40.95200

