158

Mg 25.46300 1.83000 29.58800
C  27.90000 1.40000 32.39400
C  23.15700 1.95900 32.00000
C  23.29100 2.04100 27.15800
C  28.14800 1.16700 27.44300
N  25.51500 1.60000 31.96300
C  26.58600 1.57900 32.86500
C  26.04400 1.79200 34.32600
C  24.48300 1.70900 34.14700
C  24.34200 1.74000 32.60400
C  23.98000 0.39800 34.90600
C  26.62700 3.07400 35.07700
C  26.91300 2.96500 36.52000
H  26.26900 4.15500 37.43000
N  23.51200 2.06500 29.50000
C  22.75300 2.19100 30.64800
C  21.37300 2.50200 30.24700
C  21.34000 2.44900 28.82700
C  22.71100 2.13500 28.44000
C  20.21500 2.68200 31.21000
C  20.04800 2.44500 27.91700
O  20.15100 2.38200 26.70100
C  18.81300 2.69400 28.44000
N  25.68600 1.43800 27.59400
C  24.66100 1.81800 26.72900
C  25.15300 1.80100 25.29300
C  26.73900 1.71400 25.44400
C  26.89000 1.37900 26.90100
C  24.44400 0.65300 24.40900
C  27.61600 2.96000 24.98800
C  27.23300 4.30100 25.64400
N  27.52900 1.24500 29.78800
C  28.42700 0.99700 28.79700
C  29.72000 0.82800 29.34800
C  29.54100 0.86800 30.71000
C  28.18300 1.21300 30.93900
C  30.98300 0.56300 28.56000
C  30.24000 0.80100 31.99600
O  31.35200 0.53200 32.23200
C  29.19300 1.17900 33.10900
C  29.05600 0.15800 34.17100
O  28.27900 -0.79900 34.19100
O  29.93200 0.42300 35.22300
C  29.79600 -0.52700 36.35700
H  22.30700 2.08600 32.67300
H  22.69100 2.37200 26.30700
H  28.93200 1.15800 26.68300
H  26.44700 0.89100 34.78900
H  24.00900 2.60000 34.55800
H  24.61400 0.29700 35.78700
H  23.85200 -0.43200 34.21200
H  22.97100 0.72400 35.15700
H  25.90200 3.87100 34.91200
H  27.47200 3.51200 34.54600
H  27.98400 2.77400 36.59900
H  26.42900 2.08500 36.94300
H  19.82300 3.66800 30.96100
H  20.44200 2.63700 32.27600
H  19.54600 1.87300 30.91600
H  18.26400 1.87400 28.90200
H  18.16400 2.97900 27.61100
H  18.86700 3.49600 29.17600
H  25.04900 2.77600 24.81500
H  27.06700 0.89900 24.79900
H  23.58100 0.24600 24.93600
H  25.24200 -0.02100 24.09900
H  24.06500 1.06800 23.47500
H  27.54400 3.08600 23.90700
H  28.65800 2.73400 25.21400
H  28.02100 4.70700 26.27900
H  26.37500 4.26600 26.31600
H  27.01500 5.04400 24.87600
H  31.79400 0.83700 29.23500
H  31.06900 1.14900 27.64400
H  31.07300 -0.51300 28.40900
H  29.67200 2.01600 33.61700
H  28.90600 -0.15500 36.86500
H  30.68400 -0.51500 36.98800
H  29.55900 -1.54900 36.06000
Mg 48.00300 16.35100 28.03100
C  46.30700 16.11000 30.98500
C  50.45000 18.13400 29.67200
C  49.45700 16.95300 25.02500
C  45.27300 15.00600 26.37100
N  48.35200 17.03100 30.13400
C  47.48700 16.73800 31.25200
C  48.19800 17.14000 32.56100
C  49.32100 18.11800 32.06700
C  49.36300 17.83100 30.52500
C  49.10000 19.64200 32.32100
C  48.71000 16.06500 33.56900
C  48.73800 16.43400 35.05100
H  48.09100 17.75600 35.51200
N  49.78300 17.35200 27.48100
C  50.72000 17.93100 28.31100
C  51.91600 18.13000 27.48700
C  51.63200 17.78400 26.12900
C  50.24500 17.34200 26.20300
C  53.17000 18.65100 28.02300
C  52.52700 17.97900 24.85800
O  52.08700 17.84100 23.73700
C  53.89500 18.66400 24.96600
N  47.57000 15.86600 25.96300
C  48.29900 16.29900 24.89800
C  47.61500 15.97500 23.49900
C  46.31800 15.22600 24.03200
C  46.40900 15.25800 25.55500
C  47.32700 17.28100 22.73400
C  45.98900 13.80500 23.59400
C  45.68200 13.56100 22.14900
N  46.12200 15.71800 28.50400
C  45.15300 15.14500 27.75300
C  44.02500 14.83000 28.52900
C  44.45400 15.14700 29.85800
C  45.74300 15.65000 29.75900
C  42.67000 14.23200 28.09400
C  43.95400 15.25200 31.17300
O  42.90500 15.00200 31.69600
C  45.17700 15.84400 32.03300
C  44.65800 16.98000 32.84800
O  44.71300 18.22100 32.64100
O  43.94500 16.42900 33.90100
C  43.63000 17.39200 34.98100
H  51.25900 18.49200 30.31300
H  49.85000 17.13700 24.02300
H  44.51000 14.42800 25.84600
H  47.43100 17.74000 33.05100
H  50.27300 17.82500 32.51000
H  49.78200 19.89000 33.13400
H  48.03100 19.77100 32.49400
H  49.42000 20.23600 31.46500
H  49.71200 15.71400 33.32500
H  47.98200 15.28400 33.35200
H  49.77900 16.49700 35.36500
H  48.33100 15.55400 35.55000
H  53.67100 19.40400 27.41500
H  53.90000 17.89200 28.30400
H  52.94400 19.14400 28.96800
H  53.79300 19.69900 25.29000
H  54.33000 18.74900 23.97000
H  54.59900 18.09500 25.57200
H  48.28200 15.32500 22.93300
H  45.35100 15.68100 23.81700
H  46.31400 17.29100 22.33100
H  48.08800 17.39800 21.96300
H  47.38900 18.22300 23.27700
H  45.21200 13.27400 24.14500
H  46.87700 13.20700 23.79800
H  45.99600 12.53300 21.97300
H  46.26900 14.29500 21.59700
H  44.64900 13.72100 21.84100
H  42.82600 13.25600 27.63500
H  42.08900 14.91800 27.47800
H  42.02800 14.06000 28.95800
H  45.66300 15.16100 32.72900
H  43.24700 16.86300 35.85400
H  42.81500 18.09100 34.79300
H  44.48100 18.02800 35.22700

