158

Mg 16.85700 52.71500 26.83400
C  18.74300 51.31900 29.14100
C  14.51900 53.79200 29.25500
C  15.08000 54.28400 24.40200
C  18.94400 51.45600 24.33900
N  16.60600 52.55200 29.00200
C  17.55000 51.97700 29.70600
C  17.29600 52.20700 31.24500
C  15.80200 52.59300 31.17700
C  15.60100 53.07300 29.72000
C  14.90900 51.36000 31.52400
C  18.23800 53.27700 31.87800
C  18.60200 52.93100 33.31600
H  17.63900 52.11900 34.14800
N  15.04500 53.80800 26.88400
C  14.28000 54.23900 27.95400
C  13.07300 54.94800 27.42500
C  13.26400 55.14300 26.01300
C  14.51900 54.35600 25.73100
C  12.04000 55.44900 28.31300
C  12.35600 55.86400 24.98500
O  12.51800 55.83400 23.74200
C  11.15400 56.67800 25.47600
N  16.95100 52.74600 24.61300
C  16.18600 53.54500 23.90300
C  16.61300 53.48100 22.42000
C  17.68400 52.48300 22.35400
C  17.86900 52.15600 23.88300
C  15.43300 53.31300 21.37300
C  18.94000 53.02500 21.56300
C  19.91100 53.98500 22.28000
N  18.53500 51.52900 26.68700
C  19.31100 51.14300 25.70300
C  20.45600 50.43300 26.17600
C  20.24900 50.43500 27.55300
C  19.09600 51.09300 27.81400
C  21.49600 49.82600 25.34100
C  20.77800 49.97300 28.78500
O  21.61500 49.07600 29.00600
C  19.85500 50.67000 29.91100
C  19.46800 49.58700 30.81600
O  18.48800 48.81400 30.68700
O  20.24700 49.59400 31.90300
C  20.10400 48.59400 32.92300
H  13.80400 53.91700 30.07000
H  14.68200 54.89500 23.58900
H  19.69000 51.18500 23.58900
H  17.40700 51.26400 31.78000
H  15.44300 53.50100 31.66200
H  15.56000 50.49300 31.63700
H  14.10700 51.20500 30.80200
H  14.38000 51.52400 32.46300
H  17.85100 54.29500 31.83400
H  19.12200 53.26900 31.24100
H  18.60600 53.89400 33.82600
H  19.60700 52.50900 33.28800
H  11.13800 55.07900 27.82500
H  11.99200 56.53700 28.30300
H  11.97900 55.06300 29.33000
H  10.38800 55.94000 25.71500
H  10.60900 57.11800 24.64100
H  11.38400 57.42100 26.24000
H  16.99800 54.49500 22.30900
H  17.37700 51.56400 21.85500
H  15.53700 52.49200 20.66300
H  15.22100 54.22400 20.81500
H  14.53600 53.11400 21.95900
H  18.45900 53.66300 20.82200
H  19.47700 52.20400 21.08800
H  20.86700 53.46700 22.35600
H  19.49600 54.05900 23.28500
H  20.07300 54.93000 21.76200
H  22.29000 49.52100 26.02200
H  21.75500 50.34500 24.41800
H  21.12200 48.87900 24.95100
H  20.49700 51.36100 30.45700
H  19.81000 47.64900 32.46600
H  19.32300 48.84700 33.64000
H  21.10300 48.61200 33.35800
Mg -11.55400 38.12700 41.73900
C  -9.42000 35.56300 40.78900
C  -9.42800 40.50600 40.32700
C  -14.05100 40.42400 41.89400
C  -13.92300 35.55900 42.78200
N  -9.74100 38.07400 40.48500
C  -8.97900 36.88500 40.39100
C  -7.56300 37.22700 39.79900
C  -7.49300 38.76800 39.90600
C  -8.91300 39.19200 40.25600
C  -6.41600 39.32500 40.82200
C  -7.40200 36.59100 38.44400
C  -6.28400 35.58800 38.19400
H  -5.23800 35.98000 37.24000
N  -11.72100 40.16000 41.18000
C  -10.75400 40.96500 40.69200
C  -11.24200 42.36700 40.69800
C  -12.62400 42.37900 40.94400
C  -12.90700 40.88500 41.29600
C  -10.44600 43.66200 40.38500
C  -13.65600 43.54400 40.79100
O  -13.17600 44.66600 40.73000
C  -15.13200 43.33500 40.63500
N  -13.76200 37.95100 42.16900
C  -14.44900 39.08100 42.36100
C  -15.83200 38.87700 42.98200
C  -15.86200 37.31200 43.09400
C  -14.50300 36.83500 42.57200
C  -15.92900 39.55400 44.35800
C  -17.05700 36.56200 42.30400
C  -18.32300 36.10700 43.12600
N  -11.69800 36.02300 41.84500
C  -12.62200 35.12400 42.36000
C  -12.00300 33.81300 42.42100
C  -10.85800 33.94600 41.73500
C  -10.63500 35.32900 41.43300
C  -12.71100 32.62600 42.99000
C  -9.66000 33.15600 41.34400
O  -9.47400 31.95800 41.46600
C  -8.74700 34.23300 40.64400
C  -7.42100 34.19400 41.32400
O  -7.08600 34.89300 42.20600
O  -6.53400 33.41800 40.62000
C  -5.15100 33.37800 41.08400
H  -8.72400 41.28000 40.01400
H  -14.81200 41.20500 41.96700
H  -14.53500 34.79400 43.26500
H  -6.77700 36.79000 40.41500
H  -7.29900 39.22600 38.93600
H  -5.92100 38.48300 41.30600
H  -6.82000 40.03000 41.54800
H  -5.67200 39.77700 40.16700
H  -7.38200 37.45800 37.78400
H  -8.27300 35.96100 38.26200
H  -6.75500 34.67500 37.82900
H  -5.74200 35.59000 39.14000
H  -10.32400 44.24500 41.29900
H  -10.99300 44.30800 39.69700
H  -9.47000 43.34100 40.02400
H  -15.43000 42.36800 40.23000
H  -15.35200 44.21400 40.02900
H  -15.60900 43.50900 41.60000
H  -16.53000 39.21100 42.21500
H  -15.86700 37.05400 44.15300
H  -16.70700 40.30600 44.22600
H  -15.01700 40.05100 44.68900
H  -16.24500 38.79800 45.07700
H  -16.77100 35.67100 41.74400
H  -17.47400 37.23500 41.55500
H  -18.40300 35.02100 43.07600
H  -19.25900 36.55700 42.79400
H  -18.32000 36.25300 44.20600
H  -13.58500 32.35400 42.39800
H  -12.98800 32.78400 44.03200
H  -12.10100 31.72300 42.98400
H  -8.72500 33.89300 39.60900
H  -4.90800 34.34900 41.51600
H  -4.40500 33.22100 40.30500
H  -5.11200 32.66100 41.90400

