158

Mg -0.15200 43.43400 25.74500
C  2.09800 42.82800 28.37600
C  -2.75100 42.63100 28.01500
C  -2.25600 43.11400 23.18000
C  2.50300 43.64400 23.54200
N  -0.30600 42.78800 27.99600
C  0.76900 42.67400 28.88200
C  0.29500 42.67800 30.37900
C  -1.22000 42.40700 30.18200
C  -1.50500 42.58800 28.64600
C  -1.78100 41.05700 30.70300
C  0.68500 44.05900 31.01500
C  1.06000 44.06400 32.50400
H  0.75800 42.87800 33.35200
N  -2.14600 43.10800 25.65200
C  -3.01200 42.80300 26.67100
C  -4.38500 42.58400 26.10900
C  -4.26900 42.84500 24.73500
C  -2.84200 43.00400 24.49400
C  -5.62000 42.29200 26.86400
C  -5.36900 42.88800 23.68200
O  -5.09900 43.29500 22.52800
C  -6.83600 42.44500 23.88900
N  0.07700 43.80400 23.56800
C  -0.89000 43.35000 22.72200
C  -0.36000 43.31500 21.23100
C  1.16800 43.65600 21.43000
C  1.24200 43.66600 22.99600
C  -0.50900 41.90000 20.45900
C  1.53400 44.98700 20.72200
C  1.44500 46.28500 21.52100
N  1.92400 43.22400 25.81900
C  2.92500 43.39700 24.87600
C  4.19800 43.23800 25.46900
C  3.92500 43.05300 26.81000
C  2.48100 42.98700 26.97200
C  5.59100 43.28900 24.84100
C  4.56000 42.90400 28.05400
O  5.74800 42.82600 28.35300
C  3.41400 42.74800 29.14600
C  3.65600 41.53800 29.97800
O  3.49400 40.39300 29.65500
O  4.30900 41.94500 31.10400
C  4.81900 40.93300 31.96100
H  -3.55500 42.48000 28.73800
H  -2.94800 42.87700 22.37000
H  3.33600 43.66900 22.83500
H  0.85000 41.89800 30.89900
H  -1.85600 43.16000 30.64700
H  -1.09600 40.24400 30.46200
H  -2.79400 40.81900 30.37800
H  -1.87000 41.17200 31.78400
H  -0.15600 44.72000 30.80500
H  1.55300 44.45400 30.48700
H  0.47400 44.86100 32.96100
H  2.09500 44.38700 32.61200
H  -6.38800 43.06500 26.83500
H  -5.41200 42.19500 27.93000
H  -6.11400 41.40000 26.47900
H  -7.30000 43.28200 24.41000
H  -6.88700 41.47500 24.38300
H  -7.44100 42.33400 22.98900
H  -0.77900 44.09800 20.59900
H  1.86200 42.86800 21.13600
H  -0.86600 41.05300 21.04500
H  0.46500 41.67200 20.02700
H  -1.25500 42.12100 19.69500
H  1.09200 45.16300 19.74100
H  2.60100 44.84500 20.55100
H  0.58900 46.46800 22.17100
H  1.34900 47.02600 20.72700
H  2.37200 46.52500 22.04100
H  5.57400 42.79700 23.86800
H  6.43000 42.86800 25.39600
H  5.95900 44.29500 24.64000
H  3.45900 43.71300 29.65000
H  5.82400 41.29400 32.18000
H  4.79000 39.95700 31.47700
H  4.24700 40.80000 32.88000
Mg -2.01900 34.13800 26.35800
C  -3.31100 32.49300 29.21100
C  -0.78100 36.55200 28.42600
C  -1.43400 36.10700 23.55700
C  -4.02900 32.01700 24.36700
N  -1.94200 34.43700 28.67100
C  -2.50200 33.60200 29.59700
C  -2.14900 34.11300 31.01400
C  -1.46900 35.47400 30.66700
C  -1.34200 35.42300 29.15200
C  -1.99500 36.75700 31.29900
C  -1.26700 32.98100 31.66800
C  -1.89500 32.38100 32.89600
H  -1.17700 32.54300 34.18700
N  -1.11600 36.00200 26.06800
C  -0.65700 36.83300 27.03700
C  -0.08100 38.00200 26.46200
C  -0.14800 37.89800 25.05400
C  -0.89700 36.59800 24.81800
C  0.62500 39.08600 27.30300
C  0.35700 38.83100 23.94500
O  0.14800 38.60400 22.75500
C  1.10300 40.06100 24.24600
N  -2.65800 34.04900 24.27700
C  -2.25300 34.96100 23.34500
C  -2.85200 34.58900 21.94800
C  -3.65300 33.29000 22.22600
C  -3.41800 33.07900 23.72000
C  -3.75200 35.67000 21.31400
C  -3.13900 32.15200 21.30500
C  -2.17400 31.13500 21.84000
N  -3.27000 32.50000 26.64600
C  -3.98300 31.68800 25.78500
C  -4.55100 30.61900 26.50600
C  -4.37300 30.92500 27.84600
C  -3.62100 32.10300 27.87300
C  -5.29100 29.45300 25.99500
C  -4.83100 30.58600 29.19900
O  -5.55700 29.73300 29.65900
C  -4.03500 31.53600 30.13500
C  -5.07000 32.29700 30.97600
O  -5.72500 33.25700 30.66900
O  -5.19000 31.51600 32.10100
C  -5.87500 32.21000 33.17700
H  -0.33700 37.36100 29.00800
H  -1.30700 36.60200 22.59300
H  -4.58900 31.31700 23.74300
H  -3.08500 34.25300 31.55600
H  -0.44800 35.40100 31.04200
H  -2.90900 36.51000 31.84000
H  -2.34200 37.43900 30.52200
H  -1.27100 37.25200 31.94500
H  -0.25300 33.33500 31.85600
H  -1.25000 32.10600 31.01900
H  -1.94100 31.29500 32.81500
H  -2.92300 32.70000 33.06900
H  1.69400 38.92300 27.16200
H  0.29000 39.16400 28.33800
H  0.41400 39.98100 26.71800
H  1.55700 40.43000 23.32600
H  1.95300 39.88300 24.90400
H  0.45600 40.84600 24.63600
H  -1.94600 34.38700 21.37700
H  -4.73500 33.40200 22.17100
H  -3.09200 36.12500 20.57400
H  -3.96400 36.44900 22.04600
H  -4.62900 35.20500 20.86500
H  -2.66600 32.72900 20.51000
H  -4.00100 31.65600 20.85800
H  -2.58300 30.12900 21.94000
H  -1.85700 31.36600 22.85700
H  -1.19900 31.05700 21.36000
H  -4.79000 28.52200 25.73100
H  -5.85300 29.87300 25.16000
H  -6.06800 29.12900 26.68800
H  -3.44300 30.94200 30.83100
H  -6.74400 32.74500 32.79300
H  -5.23700 32.81400 33.82100
H  -6.29300 31.42200 33.80500

