158

Mg -1.63200 17.73700 26.68600
C  -2.15700 15.66200 29.36300
C  -2.40300 20.35400 28.68800
C  -1.55500 19.87300 23.92700
C  -1.37000 15.01900 24.59200
N  -2.30900 17.92000 28.80000
C  -2.35600 16.94100 29.75700
C  -2.83400 17.43300 31.12800
C  -3.13000 19.00400 30.78300
C  -2.52100 19.12200 29.36400
C  -4.57500 19.54300 30.97200
C  -1.70700 17.27900 32.21000
C  -2.04700 16.48800 33.42100
H  -1.13100 16.54600 34.63600
N  -1.95100 19.78900 26.37000
C  -2.19300 20.67800 27.34500
C  -2.08900 22.00300 26.85700
C  -1.79800 21.92700 25.45200
C  -1.77100 20.50400 25.19600
C  -2.36100 23.22800 27.67000
C  -1.63300 23.01100 24.45900
O  -1.44700 22.85900 23.28300
C  -1.58600 24.39100 24.79900
N  -1.53600 17.46400 24.57500
C  -1.53100 18.49000 23.63400
C  -1.47300 17.89600 22.21200
C  -1.08100 16.41100 22.47300
C  -1.27300 16.22100 23.99300
C  -2.78700 18.06300 21.45000
C  0.31200 15.94300 21.90200
C  1.55700 16.49000 22.69600
N  -1.59300 15.71400 26.94300
C  -1.49000 14.73200 26.01000
C  -1.65500 13.43800 26.60400
C  -1.89300 13.74000 27.95100
C  -1.85300 15.15500 28.09700
C  -1.77100 12.16000 25.76800
C  -2.14900 13.15800 29.27400
O  -2.26600 11.96800 29.61200
C  -2.20200 14.40600 30.23800
C  -1.04400 14.20500 31.15900
O  0.10200 14.56300 30.97000
O  -1.39200 13.43600 32.25100
C  -0.42300 13.24900 33.29500
H  -2.53500 21.20300 29.36100
H  -1.46000 20.61400 23.13100
H  -1.25100 14.21600 23.86100
H  -3.74300 16.89200 31.39000
H  -2.57200 19.70000 31.40900
H  -4.85500 19.76100 29.94100
H  -4.45400 20.51100 31.45900
H  -5.37900 18.94100 31.39500
H  -1.35700 18.25400 32.54700
H  -0.90900 16.82300 31.62300
H  -2.27800 15.44600 33.20100
H  -2.92900 16.89100 33.92000
H  -3.36700 23.57600 27.43700
H  -1.51900 23.89100 27.47300
H  -2.23000 23.14100 28.74900
H  -1.49500 25.02800 23.92000
H  -0.77800 24.49100 25.52400
H  -2.58100 24.44200 25.24200
H  -0.69900 18.48700 21.72200
H  -1.80000 15.71700 22.03800
H  -3.41600 18.82500 21.91100
H  -3.29500 17.10200 21.36700
H  -2.57700 18.54100 20.49300
H  0.27800 16.31500 20.87800
H  0.36500 14.86000 21.78700
H  1.33200 17.01600 23.62400
H  2.17400 17.13200 22.06800
H  2.28400 15.72800 22.97700
H  -2.81700 12.02800 25.48700
H  -1.62700 11.23300 26.32400
H  -1.05000 12.15600 24.95100
H  -3.14600 14.38500 30.78300
H  0.28300 14.07900 33.31400
H  0.08800 12.28700 33.23700
H  -1.08900 13.12300 34.14900
Mg 41.24000 40.53300 26.64700
C  40.54900 42.99300 29.06100
C  42.46100 38.47400 29.14000
C  42.23300 38.47200 24.15400
C  40.44600 42.86900 24.20000
N  41.37100 40.70000 28.86800
C  40.99800 41.75900 29.60700
C  41.09200 41.44300 31.09200
C  41.90700 40.07400 31.10600
C  41.92200 39.70700 29.58700
C  43.32100 40.22000 31.77400
C  39.67100 41.45200 31.76700
C  39.49300 42.37400 32.98500
H  38.85000 41.68700 34.19700
N  42.13200 38.72000 26.66800
C  42.62500 38.03400 27.78200
C  43.19000 36.74700 27.27800
C  43.29100 36.74700 25.84400
C  42.53000 38.02500 25.47700
C  43.82300 35.79700 28.27400
C  43.94200 35.86900 24.91700
O  44.21200 36.16600 23.71400
C  44.46600 34.54700 25.44800
N  41.43100 40.72300 24.45800
C  41.71100 39.68400 23.68200
C  41.36300 39.90200 22.18100
C  40.81200 41.39400 22.20800
C  40.87700 41.70400 23.69400
C  42.67200 39.81800 21.32000
C  39.47400 41.66700 21.54400
C  39.36100 43.02600 20.79900
N  40.62600 42.52900 26.55500
C  40.25700 43.32200 25.51300
C  39.90900 44.62600 26.00900
C  39.97300 44.53500 27.37900
C  40.41300 43.18700 27.66200
C  39.58500 45.80600 25.13200
C  39.78700 45.25300 28.59000
O  39.38200 46.38200 28.79500
C  40.10500 44.18700 29.78100
C  41.24600 44.81300 30.54100
O  42.37100 44.93500 30.03500
O  40.79100 45.23400 31.78000
C  41.92900 45.36500 32.68800
H  42.89300 37.81900 29.89900
H  42.51300 37.84600 23.30500
H  40.23600 43.60900 23.42400
H  41.70700 42.21300 31.55700
H  41.25700 39.37200 31.62900
H  43.42800 41.22200 32.18800
H  44.16700 40.19300 31.08700
H  43.44800 39.54900 32.62300
H  39.56300 40.42700 32.12300
H  38.84900 41.56300 31.06000
H  38.76500 43.09500 32.61400
H  40.46000 42.86800 33.09000
H  44.88800 36.00800 28.18300
H  43.72900 34.76000 27.95100
H  43.40200 35.81500 29.27900
H  43.63800 34.07900 25.98200
H  45.34300 34.68700 26.08100
H  44.67800 33.89100 24.60500
H  40.65500 39.17500 21.78300
H  41.54700 42.04600 21.73600
H  43.60000 39.62100 21.85600
H  42.88400 40.61500 20.60800
H  42.64200 38.85300 20.81600
H  38.75500 41.69000 22.36300
H  39.23700 40.86200 20.84800
H  38.69600 42.91400 19.94300
H  40.38700 43.37700 20.69000
H  38.99400 43.79700 21.47700
H  38.96300 45.56700 24.27000
H  40.54900 46.22600 24.84500
H  39.02400 46.49700 25.76200
H  39.20500 43.92600 30.33900
H  41.56800 45.91900 33.55400
H  42.66400 45.98800 32.17900
H  42.32200 44.45500 33.14200

