158

Mg 30.26200 57.52300 40.21200
C  27.44000 55.73000 39.26400
C  32.14000 54.67000 39.41900
C  33.05300 59.26300 40.35600
C  28.36900 60.39800 40.27100
N  29.82700 55.34900 39.53300
C  28.57800 54.89100 39.26900
C  28.62100 53.38500 38.83500
C  30.14800 53.00100 38.93100
C  30.78000 54.36700 39.34200
C  30.50300 51.88200 39.91800
C  28.05300 52.99800 37.44900
C  28.57900 53.80200 36.29900
H  27.64300 54.11800 35.12200
N  32.33300 57.01300 40.03900
C  32.91400 55.75900 39.75500
C  34.40000 55.88800 39.80000
C  34.64700 57.27600 40.09800
C  33.30600 57.93400 40.24700
C  35.29300 54.75100 39.56900
C  36.03700 57.96500 40.27800
O  36.97500 57.17400 40.05800
C  36.29700 59.41800 40.59200
N  30.59900 59.55400 40.25600
C  31.93700 60.04500 40.33700
C  31.88400 61.61000 40.35900
C  30.35300 62.00300 40.38700
C  29.72500 60.61600 40.33800
C  32.75700 62.18400 41.47000
C  29.94900 62.96800 39.28600
C  29.75400 64.39600 39.68600
N  28.31300 58.02200 39.82000
C  27.64300 59.24900 40.08900
C  26.21200 59.02300 39.84600
C  26.12100 57.63500 39.54500
C  27.44400 57.08500 39.53700
C  25.09900 60.02700 39.94200
C  25.14900 56.62700 39.16500
O  23.96200 56.77500 39.01800
C  25.96600 55.34000 38.85000
C  25.36200 54.32300 39.76100
O  25.48200 54.29200 40.99500
O  24.62400 53.45000 38.94700
C  23.84900 52.35700 39.57300
H  32.66700 53.74400 39.17600
H  33.90400 59.93800 40.46800
H  27.72100 61.27200 40.36700
H  27.96600 52.87300 39.54100
H  30.50200 52.73700 37.93400
H  31.06600 52.25300 40.77500
H  31.17000 51.19200 39.40100
H  29.55900 51.43900 40.23400
H  26.97300 53.11900 37.53000
H  28.14500 51.96000 37.13000
H  29.40000 53.18300 35.93600
H  29.01200 54.73200 36.66700
H  35.73300 54.76100 38.57200
H  34.63700 53.88100 39.59300
H  35.97800 54.57000 40.39700
H  35.92400 60.05000 39.78600
H  37.37400 59.52700 40.46400
H  35.99800 59.67600 41.60800
H  32.34700 61.90200 39.41700
H  30.06300 62.45300 41.33700
H  33.42600 62.96400 41.10500
H  33.37800 61.46200 42.00000
H  32.21700 62.63500 42.30300
H  29.01800 62.58600 38.86600
H  30.68700 63.08600 38.49300
H  29.77400 64.47300 40.77300
H  28.78300 64.77600 39.36600
H  30.42400 65.05700 39.13600
H  25.10700 60.53600 40.90600
H  24.16000 59.50600 39.75900
H  25.14800 60.72000 39.10200
H  25.81400 55.01800 37.82000
H  23.03800 52.68400 40.22500
H  24.44400 51.66900 40.17300
H  23.47800 51.69800 38.78800
Mg 9.10200 48.21100 26.28000
C  6.80000 48.78500 29.06700
C  11.59300 49.02400 28.40500
C  11.07600 48.25200 23.58900
C  6.20900 47.73000 24.25600
N  9.11600 48.77500 28.54600
C  8.11100 48.90300 29.46800
C  8.68700 49.06100 30.89200
C  10.18200 49.21400 30.59800
C  10.38500 49.07900 29.08100
C  10.83500 50.57400 31.05700
C  8.31800 47.91000 31.86700
C  9.06200 48.01300 33.20200
H  8.37300 47.45100 34.46900
N  11.11400 48.44300 25.97600
C  11.96100 48.85400 27.02900
C  13.30300 48.93200 26.46600
C  13.12400 48.73600 25.05900
C  11.75200 48.41600 24.79000
C  14.51100 49.31500 27.29100
C  14.26700 48.65700 23.93400
O  13.95600 48.38800 22.80400
C  15.72000 48.77000 24.19600
N  8.66100 48.00000 24.18000
C  9.71700 48.01000 23.31200
C  9.27000 47.67200 21.90500
C  7.69300 47.68300 22.09300
C  7.47000 47.72400 23.64100
C  9.72000 48.61000 20.74000
C  7.06300 46.45300 21.36600
C  7.05000 46.53200 19.85600
N  6.99000 48.34800 26.51300
C  5.94400 48.15400 25.58700
C  4.69300 48.30800 26.23800
C  4.91700 48.68100 27.53000
C  6.40100 48.63000 27.71000
C  3.35800 48.15400 25.58400
C  4.32400 49.19900 28.73300
O  3.19100 49.59000 28.92100
C  5.46800 49.08700 29.81000
C  5.16800 47.84800 30.60100
O  5.45700 46.71600 30.22700
O  4.52800 48.09200 31.82200
C  4.33500 46.90200 32.68000
H  12.47100 49.08800 29.05100
H  11.77800 48.18400 22.75600
H  5.32100 47.48700 23.66900
H  8.19500 49.98800 31.18500
H  10.90600 48.57400 31.10100
H  10.09100 51.18600 31.56700
H  11.24400 51.07900 30.18200
H  11.79900 50.43500 31.54700
H  8.68100 46.99900 31.39100
H  7.26000 47.80400 32.10800
H  9.25100 49.02800 33.55100
H  10.05900 47.59000 33.08400
H  15.28400 48.59600 27.02100
H  14.24700 49.36500 28.34800
H  14.87100 50.29500 26.98000
H  15.92700 49.55300 24.92500
H  16.15900 49.10400 23.25600
H  16.09600 47.76100 24.36600
H  9.52700 46.63500 21.68700
H  7.31400 48.66800 21.82100
H  8.91200 49.27100 20.42800
H  10.05600 48.02300 19.88500
H  10.34400 49.41700 21.12400
H  6.12500 46.23500 21.87700
H  7.60700 45.55300 21.65600
H  7.93000 47.06300 19.49300
H  6.13700 47.06500 19.59100
H  7.07200 45.51600 19.45900
H  2.56600 48.67800 26.11900
H  3.10900 47.09300 25.60400
H  3.37500 48.33900 24.51000
H  5.72600 49.99200 30.36000
H  3.58300 46.23000 32.26800
H  3.73500 47.15800 33.55300
H  5.23800 46.32100 32.86500

