158

Mg 17.05000 -0.63800 28.13500
C  16.01900 1.35200 30.83000
C  19.15700 -2.49100 30.15000
C  18.40000 -2.05800 25.40000
C  15.30300 1.62600 25.99800
N  17.48300 -0.62500 30.20000
C  16.95700 0.32200 31.13900
C  17.47400 -0.08500 32.56500
C  18.48300 -1.22300 32.29200
C  18.39200 -1.47100 30.78000
C  19.90000 -0.99300 32.82800
C  16.25900 -0.54500 33.42300
C  16.14500 -0.07100 34.86400
H  17.44300 0.43900 35.54800
N  18.37300 -2.21100 27.85900
C  19.20400 -2.86600 28.80300
C  19.92700 -3.98300 28.17500
C  19.74100 -3.87200 26.81400
C  18.80900 -2.65600 26.64300
C  20.69900 -4.99200 28.94000
C  20.32900 -4.70600 25.79900
O  19.96600 -4.57800 24.59100
C  21.28200 -5.88300 26.05300
N  16.87400 -0.29900 25.96700
C  17.63800 -0.97500 25.09900
C  17.26900 -0.67400 23.65000
C  16.18600 0.44100 23.83400
C  16.08900 0.61100 25.32500
C  18.43200 -0.18600 22.82600
C  14.76400 0.20100 23.15000
C  13.62500 -0.44800 23.92900
N  15.77700 1.02100 28.29200
C  15.23100 1.91500 27.39800
C  14.52100 2.94800 28.04100
C  14.78700 2.74900 29.41100
C  15.60800 1.63100 29.47600
C  13.84700 4.15800 27.37100
C  14.57500 3.34300 30.77900
O  13.96400 4.38400 31.10400
C  15.38000 2.43400 31.74600
C  16.37900 3.27200 32.35900
O  17.48900 3.49200 31.90900
O  15.98300 3.58700 33.66100
C  17.04800 4.22300 34.54000
H  19.90800 -2.91700 30.81800
H  18.84400 -2.58400 24.55200
H  14.83300 2.28400 25.26400
H  17.95500 0.81300 32.95200
H  18.09500 -2.12100 32.77200
H  20.73600 -1.19700 32.16000
H  20.09100 -1.75700 33.58100
H  20.03400 -0.04700 33.35300
H  16.17200 -1.63000 33.36700
H  15.38900 -0.14900 32.89900
H  15.77300 -0.78200 35.60100
H  15.42300 0.74600 34.88700
H  20.64400 -4.79600 30.01100
H  21.72200 -5.10400 28.58300
H  20.24900 -5.97000 28.77000
H  20.79800 -6.55300 26.76300
H  22.15500 -5.46900 26.55700
H  21.54900 -6.41900 25.14300
H  16.86400 -1.57300 23.18600
H  16.62300 1.41100 23.59800
H  18.11500 0.72800 22.32400
H  18.67300 -1.00600 22.14900
H  19.34200 0.08500 23.36100
H  15.04300 -0.31700 22.23300
H  14.43800 1.22100 22.94600
H  13.85100 -1.40500 24.40000
H  12.79100 -0.62000 23.24900
H  13.25400 0.22600 24.70100
H  14.31000 4.34900 26.40200
H  13.92300 4.99700 28.06300
H  12.79800 4.00400 27.12100
H  14.70400 1.93800 32.44100
H  16.65100 4.03400 35.53700
H  17.06700 5.29700 34.35200
H  18.02700 3.75800 34.42200
Mg 48.07500 15.31500 28.70400
C  46.02600 15.51000 31.46900
C  50.44700 16.97500 30.42100
C  49.75500 15.63700 25.77700
C  45.36800 13.90800 26.89100
N  48.03100 16.35000 30.55300
C  47.22100 16.10700 31.61800
C  47.86500 16.40900 33.00400
C  49.17300 17.23200 32.59600
C  49.23600 16.80800 31.09100
C  49.23100 18.77400 32.76700
C  48.10000 15.13100 33.87500
C  47.80800 15.40400 35.33700
H  47.94700 16.88900 35.83800
N  49.91500 16.06700 28.20300
C  50.75000 16.76400 29.07100
C  51.98900 17.06200 28.41400
C  51.81800 16.55200 27.06400
C  50.45900 16.07300 26.96000
C  53.20900 17.81300 29.09400
C  52.81200 16.64600 25.85800
O  52.52600 16.19600 24.73800
C  54.07700 17.37700 26.00800
N  47.57200 14.88300 26.60200
C  48.43900 15.12100 25.61500
C  47.86400 14.73600 24.32400
C  46.49600 14.01500 24.71700
C  46.48600 14.21600 26.16200
C  47.73900 15.79300 23.13200
C  46.28100 12.54200 24.17700
C  47.39000 11.54400 24.65200
N  46.16400 14.61700 29.15600
C  45.17900 14.09900 28.26100
C  43.97100 13.85300 29.09100
C  44.27500 14.48600 30.35000
C  45.64100 14.83100 30.37800
C  42.76200 13.19500 28.65700
C  43.65600 14.85400 31.67300
O  42.51500 14.65300 32.18400
C  44.83600 15.46200 32.46900
C  44.26800 16.74900 33.00500
O  43.96200 17.78700 32.44800
O  44.13300 16.56600 34.36400
C  43.80900 17.67300 35.28100
H  51.17600 17.49800 31.04200
H  50.41700 15.70900 24.91100
H  44.53900 13.45600 26.34200
H  47.14200 17.06900 33.48400
H  50.02400 16.80400 33.12600
H  48.27700 19.10500 33.17700
H  49.18000 19.25800 31.79100
H  50.05400 19.15000 33.37400
H  49.14500 14.83000 33.95600
H  47.49800 14.31800 33.46900
H  48.44500 14.82100 36.00300
H  46.75500 15.16200 35.47600
H  52.90300 18.78600 29.48100
H  54.11400 17.80500 28.48700
H  53.40500 17.35600 30.06400
H  54.61100 17.62000 25.08800
H  54.76900 16.83500 26.65200
H  53.80700 18.36900 26.37100
H  48.60500 14.03700 23.93500
H  45.69100 14.64500 24.33800
H  46.72900 15.59000 22.77400
H  48.57700 15.63400 22.45300
H  47.79800 16.79500 23.55600
H  46.19000 12.59200 23.09200
H  45.35700 12.14000 24.59400
H  47.21300 11.40500 25.71900
H  48.39900 11.87800 24.40600
H  47.17000 10.66700 24.04500
H  41.86700 13.81100 28.57500
H  42.52500 12.46500 29.43000
H  42.91100 12.88100 27.62400
H  45.03100 14.82900 33.33500
H  44.63600 18.38000 35.23400
H  43.87500 17.30100 36.30300
H  42.86300 18.19500 35.13600

