158

Mg 45.70400 3.50500 48.53600
C  43.76700 6.24300 47.39500
C  42.85600 1.55700 47.85200
C  47.54800 0.74200 48.88400
C  48.42700 5.53500 48.80600
N  43.47200 3.89500 47.66600
C  42.97200 5.06600 47.35100
C  41.53100 4.92800 46.84800
C  41.31800 3.43100 46.98400
C  42.62700 2.88700 47.59100
C  40.07300 3.03800 47.84600
C  41.17900 5.53100 45.43400
C  39.85100 6.26000 45.29600
H  39.07400 6.01300 43.98700
N  45.29000 1.37900 48.34400
C  44.04900 0.83000 48.12200
C  44.21000 -0.64100 48.13000
C  45.59600 -0.89800 48.43700
C  46.23200 0.42200 48.62600
C  43.06500 -1.64600 47.89100
C  46.18100 -2.28800 48.57000
O  45.54300 -3.33800 48.32100
C  47.54300 -2.55300 49.00700
N  47.75300 3.16200 48.65000
C  48.26000 1.92700 48.87100
C  49.74400 2.04900 49.24400
C  50.03800 3.65400 49.26400
C  48.72700 4.16100 48.88600
C  50.21700 1.28500 50.53400
C  51.04600 4.17400 48.22700
C  52.31200 4.96200 48.68900
N  46.11800 5.46300 48.22500
C  47.28500 6.22600 48.41500
C  47.07500 7.54800 48.27000
C  45.67900 7.58200 47.89300
C  45.10600 6.31000 47.88600
C  47.96500 8.68500 48.26300
C  44.59600 8.55400 47.53700
O  44.60900 9.79000 47.42100
C  43.36200 7.68500 47.31800
C  42.22500 8.01300 48.23000
O  41.79900 7.34700 49.17600
O  41.57600 9.23300 47.86500
C  40.44100 9.82900 48.59100
H  42.01500 0.93200 47.54500
H  48.21200 -0.12000 48.96700
H  49.22500 6.25200 49.00600
H  40.97000 5.50000 47.58600
H  41.28200 2.83700 46.07000
H  39.41400 3.90200 47.76100
H  40.45700 2.86200 48.85000
H  39.57900 2.18300 47.38300
H  41.14600 4.75000 44.67400
H  41.98800 6.16200 45.06500
H  40.08100 7.30400 45.50600
H  39.27500 6.09700 46.20700
H  42.50000 -1.36900 47.00100
H  42.34900 -1.63700 48.71300
H  43.40400 -2.67800 47.80000
H  48.27100 -2.19100 48.28100
H  47.59800 -3.63700 49.10400
H  47.76900 -2.04500 49.94500
H  50.30300 1.67200 48.38700
H  50.16300 3.98300 50.29600
H  50.67200 2.01200 51.20700
H  50.96500 0.51100 50.36200
H  49.28200 0.99800 51.01700
H  50.53700 4.73700 47.44500
H  51.60300 3.40100 47.69700
H  52.45200 5.03600 49.76800
H  52.15400 5.96000 48.28000
H  53.25200 4.58000 48.29000
H  47.56300 9.41200 47.55800
H  48.96700 8.38300 47.95800
H  47.97000 9.12400 49.26100
H  43.07300 7.78900 46.27200
H  40.28600 9.21700 49.48100
H  39.49700 9.79100 48.04600
H  40.69900 10.85100 48.86700
Mg -6.46500 25.56600 27.37300
C  -5.14100 27.35500 29.98400
C  -8.07800 23.55200 29.57600
C  -7.66900 24.13900 24.71300
C  -4.23700 27.40500 25.22800
N  -6.38300 25.40500 29.46200
C  -5.93000 26.29500 30.37900
C  -6.39800 25.96500 31.83200
C  -6.85700 24.48000 31.69000
C  -7.14200 24.43000 30.12000
C  -5.82000 23.40000 32.07900
C  -7.33500 26.96900 32.48100
C  -7.23200 27.05600 34.04400
H  -6.75600 25.81300 34.85900
N  -7.81400 24.06100 27.17200
C  -8.43200 23.40900 28.22000
C  -9.32800 22.36300 27.64300
C  -9.24000 22.47000 26.18500
C  -8.28700 23.64900 25.91100
C  -10.24200 21.49700 28.53300
C  -9.93500 21.68400 25.09300
O  -9.60500 21.76600 23.98400
C  -10.90800 20.50900 25.44900
N  -5.89200 25.67000 25.27500
C  -6.68200 25.04100 24.40500
C  -6.21700 25.22100 22.94600
C  -5.18900 26.39400 23.13200
C  -5.10300 26.51000 24.60300
C  -5.54200 23.97700 22.29800
C  -5.65400 27.68100 22.38500
C  -5.29600 27.79900 20.90500
N  -4.92900 27.05600 27.47300
C  -4.11900 27.68300 26.57800
C  -3.34500 28.73000 27.22700
C  -3.69300 28.61800 28.58800
C  -4.66400 27.64200 28.68400
C  -2.42300 29.70200 26.47800
C  -3.55300 29.18100 29.85600
O  -2.83900 30.09700 30.23900
C  -4.42800 28.37600 30.83800
C  -3.49000 27.60700 31.73200
O  -2.72000 26.70100 31.45100
O  -3.66300 28.21600 33.00300
C  -2.83300 27.63300 34.01600
H  -8.49000 22.82600 30.27900
H  -7.95400 23.65900 23.77400
H  -3.49500 27.77900 24.51900
H  -5.55500 25.92900 32.52300
H  -7.73600 24.27800 32.30300
H  -6.36400 22.70300 32.71600
H  -5.03800 23.90100 32.65100
H  -5.43000 22.91500 31.18500
H  -8.37200 26.69600 32.28100
H  -6.98700 27.96300 32.20000
H  -8.22200 27.44600 34.27800
H  -6.56400 27.89900 34.22300
H  -11.30600 21.73400 28.53300
H  -10.01700 21.57300 29.59700
H  -10.14000 20.43400 28.31800
H  -10.21700 19.73900 25.79200
H  -11.41800 20.05600 24.59900
H  -11.58000 20.81100 26.25300
H  -7.08200 25.54300 22.36700
H  -4.20500 26.12000 22.75200
H  -4.45700 24.01400 22.39400
H  -5.80500 23.86900 21.24600
H  -5.84000 23.00500 22.69100
H  -5.37400 28.58200 22.93100
H  -6.73800 27.58900 22.32300
H  -4.88600 26.85400 20.55000
H  -4.64900 28.66600 20.77400
H  -6.19100 28.12200 20.37400
H  -2.52500 30.64500 27.01500
H  -2.82000 29.89800 25.48200
H  -1.40500 29.32400 26.38500
H  -4.95600 29.09900 31.46000
H  -2.78200 28.32500 34.85700
H  -1.77300 27.56200 33.77100
H  -3.27700 26.65200 34.18200

