158

Mg 2.03600 -1.26600 44.64600
C  5.24000 0.48000 43.99300
C  0.73300 1.46600 42.57000
C  -0.73800 -2.75800 44.51000
C  3.85700 -3.87300 45.89300
N  2.91100 0.79000 43.52500
C  4.18600 1.25100 43.55600
C  4.39200 2.53600 42.70600
C  2.87400 2.93900 42.54200
C  2.09500 1.62200 42.85700
C  2.46700 4.16000 43.41400
C  5.22600 2.33500 41.31700
C  6.40100 3.31600 40.98600
H  6.10700 4.37400 39.91200
N  0.24800 -0.69800 43.83800
C  -0.06300 0.36000 42.97400
C  -1.47500 0.22300 42.62100
C  -1.98600 -0.95900 43.35200
C  -0.83200 -1.49600 43.98400
C  -2.25100 1.20600 41.69200
C  -3.48700 -1.39300 43.35700
O  -4.29100 -0.68900 42.78200
C  -3.98400 -2.54000 44.31700
N  1.61800 -3.12400 45.05400
C  0.36100 -3.55100 45.03700
C  0.23800 -4.91000 45.73000
C  1.68500 -5.29000 46.02600
C  2.44200 -4.00400 45.71500
C  -0.67800 -4.73900 46.98300
C  2.33500 -6.50300 45.30300
C  1.56500 -7.80000 45.68800
N  4.05500 -1.62400 45.03200
C  4.62700 -2.74400 45.62500
C  6.05800 -2.56300 45.66400
C  6.28600 -1.31100 45.04500
C  5.05500 -0.78200 44.66500
C  7.01600 -3.52800 46.23500
C  7.33600 -0.34200 44.71600
O  8.54800 -0.35300 44.99300
C  6.60900 0.87500 44.04800
C  6.86000 2.11600 44.79900
O  6.13900 2.43400 45.73500
O  7.83600 2.90700 44.23500
C  8.01300 4.21200 44.95500
H  0.30400 2.23100 41.92000
H  -1.56100 -3.47500 44.47800
H  4.38700 -4.74200 46.28800
H  5.04200 3.21600 43.25600
H  2.67800 3.29900 41.53200
H  2.37600 5.11800 42.90300
H  3.21400 4.16900 44.20800
H  1.47800 4.00100 43.84200
H  4.47000 2.34200 40.53200
H  5.73500 1.37100 41.29100
H  7.28100 2.81900 40.57900
H  6.77100 3.90500 41.82500
H  -2.94000 0.65500 41.05200
H  -1.51800 1.79200 41.13700
H  -2.76100 1.92900 42.32800
H  -5.06100 -2.45900 44.46700
H  -3.40300 -2.51800 45.23900
H  -3.71400 -3.46800 43.81300
H  -0.18700 -5.66900 45.07500
H  1.90100 -5.51800 47.07000
H  -1.32900 -5.61300 46.95200
H  -1.16300 -3.76400 47.00200
H  -0.27200 -4.72700 47.99500
H  3.38600 -6.68400 45.53000
H  2.23700 -6.28500 44.24000
H  2.25200 -8.62500 45.87800
H  0.95100 -8.14900 44.85900
H  0.83000 -7.63200 46.47500
H  7.54100 -4.06500 45.44500
H  6.46900 -4.33800 46.71800
H  7.62800 -3.18600 47.06900
H  6.93600 1.15700 43.04700
H  7.26000 4.90700 44.58200
H  8.94100 4.71400 44.68100
H  8.02400 3.98600 46.02100
Mg 8.57300 48.11000 26.26700
C  7.01600 48.06600 29.23100
C  11.42000 49.54800 27.82200
C  10.33600 48.06200 23.27700
C  5.68900 47.45600 24.56700
N  9.20700 48.69300 28.32800
C  8.37900 48.31400 29.37000
C  9.07400 48.75400 30.70800
C  10.29300 49.69000 30.15100
C  10.38500 49.32200 28.74200
C  10.03500 51.20800 30.27700
C  9.48900 47.64300 31.67900
C  9.04900 47.94600 33.15800
H  8.85200 46.74900 34.10300
N  10.58900 48.58100 25.61200
C  11.58200 49.11100 26.46700
C  12.80800 49.12800 25.64900
C  12.50800 48.71600 24.37600
C  11.05400 48.43900 24.35800
C  14.15500 49.50300 26.26100
C  13.50400 48.58200 23.21100
O  13.14400 48.21900 22.03100
C  14.96700 48.77700 23.50800
N  8.13300 47.99600 24.21900
C  9.01200 47.82600 23.19700
C  8.28100 47.54900 21.89000
C  6.79200 47.30600 22.29200
C  6.88000 47.60500 23.78300
C  8.42700 48.66000 20.73600
C  6.31000 45.85700 21.92200
C  6.80000 44.66300 22.72400
N  6.64400 47.97500 26.73700
C  5.57700 47.69600 25.96500
C  4.35400 47.75600 26.77800
C  4.93000 47.84800 28.09000
C  6.31600 47.99600 28.01600
C  2.95400 47.49600 26.32000
C  4.58400 47.86000 29.50800
O  3.49500 47.86400 30.08800
C  5.97300 48.01500 30.29300
C  6.06800 46.81200 31.18600
O  6.80800 45.88100 31.00300
O  5.35000 47.08100 32.34700
C  5.22600 45.92000 33.24100
H  12.24100 50.09400 28.29200
H  10.83800 48.06500 22.30700
H  4.82300 47.00200 24.08000
H  8.37000 49.42800 31.19600
H  11.29600 49.47600 30.52200
H  9.70100 51.58300 29.31000
H  10.91900 51.80700 30.49400
H  9.27600 51.57500 30.96800
H  10.57500 47.72200 31.63300
H  9.19700 46.66100 31.30600
H  8.17100 48.58900 33.21100
H  9.88500 48.50000 33.58400
H  14.92300 48.74800 26.42500
H  13.90400 49.73900 27.29600
H  14.56200 50.42700 25.85000
H  15.55300 48.32000 22.71000
H  15.30300 48.30100 24.42900
H  14.93700 49.86500 23.56200
H  8.71900 46.71700 21.34000
H  6.04700 47.98400 21.87400
H  9.15700 49.37000 21.12600
H  7.47200 49.11300 20.47100
H  8.76800 48.12800 19.84800
H  6.70200 45.68300 20.92000
H  5.22600 45.96300 21.97900
H  7.56000 44.16400 22.12200
H  6.05200 43.89500 22.92300
H  7.20700 44.98800 23.68100
H  2.57900 48.28600 25.66900
H  2.36700 47.29000 27.21500
H  2.89300 46.59700 25.70700
H  5.94400 48.92800 30.88700
H  4.18600 45.63300 33.08500
H  5.43000 46.29300 34.24400
H  5.86200 45.06800 32.99800

