158

Mg -2.76200 16.88200 27.01200
C  -2.78200 14.88700 29.80500
C  -3.07400 19.63300 29.22500
C  -2.65300 19.03800 24.36200
C  -2.94700 14.18500 24.95000
N  -3.03500 17.23900 29.23700
C  -2.98200 16.21100 30.17300
C  -3.11800 16.76100 31.59500
C  -3.22000 18.33000 31.32600
C  -3.16100 18.41300 29.86200
C  -4.44100 19.02900 31.96500
C  -1.94200 16.23600 32.54800
C  -1.58600 17.17400 33.65400
H  -0.85700 16.47400 34.79000
N  -2.69600 19.02300 26.85000
C  -2.90500 19.93700 27.85500
C  -2.73900 21.27800 27.28800
C  -2.38500 21.12900 25.88500
C  -2.66200 19.71200 25.59500
C  -2.91200 22.58300 28.12800
C  -1.87900 22.16300 24.87500
O  -1.79500 21.94200 23.65400
C  -1.55500 23.56200 25.42800
N  -2.93100 16.69700 24.98000
C  -2.82900 17.68200 24.06400
C  -2.94000 17.09900 22.58900
C  -2.67300 15.52700 22.88000
C  -2.88400 15.42500 24.42800
C  -4.29900 17.41300 21.89000
C  -1.26100 15.13900 22.44900
C  -0.10500 16.09300 22.99500
N  -2.88500 14.92700 27.18900
C  -2.99700 13.94500 26.33200
C  -3.11100 12.63400 26.97400
C  -2.95700 12.97500 28.35900
C  -2.76500 14.37700 28.39500
C  -3.17400 11.21700 26.37400
C  -2.86400 12.39400 29.65300
O  -2.93600 11.24100 30.04200
C  -2.73400 13.62800 30.65800
C  -1.46800 13.42100 31.51700
O  -0.33400 13.56900 31.13400
O  -1.87900 12.82300 32.71900
C  -0.79900 12.70700 33.69300
H  -3.05900 20.44400 29.95600
H  -2.33900 19.58100 23.46900
H  -2.91100 13.27300 24.35100
H  -4.12300 16.47700 31.90600
H  -2.30400 18.88200 31.53600
H  -3.92400 19.86400 32.43800
H  -4.88500 18.39600 32.73400
H  -5.11000 19.36400 31.17300
H  -0.99200 16.00600 32.06600
H  -2.27700 15.35800 33.10000
H  -2.40800 17.71300 34.12500
H  -0.91500 17.98200 33.36500
H  -3.41000 22.29400 29.05400
H  -3.48000 23.38400 27.65500
H  -1.91900 22.87600 28.46800
H  -1.39200 24.24800 24.59700
H  -0.65600 23.35700 26.00900
H  -2.36800 23.97000 26.02800
H  -2.04300 17.44500 22.07700
H  -3.36000 15.02000 22.20200
H  -4.86600 18.18300 22.41300
H  -4.91600 16.51500 21.90100
H  -4.15500 17.67600 20.84200
H  -1.26800 15.11100 21.36000
H  -0.96900 14.14200 22.78200
H  0.44400 16.45400 22.12500
H  0.51500 15.47200 23.64000
H  -0.41500 17.00700 23.50100
H  -2.19600 11.13500 25.90100
H  -4.00700 11.08800 25.68400
H  -3.41100 10.53000 27.18700
H  -3.57600 13.46600 31.33000
H  -1.19000 13.21900 34.57200
H  0.14500 13.24900 33.63600
H  -0.53200 11.65600 33.80700
Mg -12.30200 15.86400 42.07300
C  -9.17500 14.27000 41.65600
C  -11.21700 18.47200 40.07900
C  -15.34800 17.08800 42.10600
C  -13.35300 12.91200 43.76200
N  -10.37500 16.32200 41.00300
C  -9.23100 15.58200 40.98300
C  -8.10400 16.29700 40.26400
C  -8.86800 17.54400 39.62400
C  -10.25300 17.46500 40.28600
C  -8.09000 18.90900 39.95900
C  -7.28500 15.46000 39.20600
C  -5.79300 15.55800 39.34600
H  -4.95600 14.80200 38.38000
N  -13.14600 17.62700 41.34000
C  -12.51000 18.57400 40.57000
C  -13.41100 19.68600 40.33400
C  -14.70500 19.27200 40.81700
C  -14.45400 17.94800 41.45800
C  -12.91100 20.99000 39.66900
C  -15.94400 20.06500 40.68100
O  -15.91000 21.11400 40.02300
C  -17.18500 19.66500 41.16000
N  -14.19400 14.96800 42.66400
C  -15.25600 15.80500 42.70700
C  -16.42800 14.99900 43.27900
C  -15.74800 13.82400 44.01800
C  -14.34500 13.89200 43.47300
C  -17.39600 15.88400 44.08300
C  -16.55700 12.51500 43.74100
C  -17.11400 11.89800 45.07400
N  -11.51200 13.93200 42.60400
C  -12.07000 12.85600 43.24800
C  -11.03100 11.83500 43.49300
C  -9.90800 12.35900 42.97200
C  -10.23300 13.60000 42.31400
C  -11.30100 10.59700 44.30800
C  -8.50300 12.07900 42.64400
O  -7.75700 11.10200 42.94200
C  -7.98900 13.30100 41.75600
C  -6.93000 13.94400 42.48100
O  -7.13800 14.88200 43.26300
O  -5.73900 13.38200 42.10900
C  -4.53900 14.06100 42.62500
H  -10.92600 19.22600 39.34500
H  -16.38200 17.41700 42.22200
H  -13.66400 12.06500 44.37700
H  -7.51500 16.73100 41.07200
H  -9.00400 17.58800 38.54400
H  -8.51500 19.40900 40.82900
H  -8.13200 19.48500 39.03400
H  -7.03600 18.66700 40.09400
H  -7.62200 15.81400 38.23200
H  -7.66800 14.44000 39.15700
H  -5.53300 15.15100 40.32300
H  -5.48700 16.59000 39.51600
H  -11.84500 21.13600 39.84000
H  -13.37500 21.84400 40.16300
H  -13.19700 20.98400 38.61700
H  -17.50400 18.74100 40.67800
H  -17.84500 20.50300 40.93500
H  -17.11300 19.53200 42.23900
H  -16.99000 14.62400 42.42400
H  -15.71900 14.05700 45.08300
H  -17.59600 15.41200 45.04500
H  -18.28900 16.08400 43.49100
H  -17.05100 16.89000 44.32300
H  -15.81900 11.82400 43.33300
H  -17.36100 12.70700 43.03100
H  -18.16700 11.73700 44.84100
H  -17.01000 12.50000 45.97600
H  -16.67800 10.91800 45.26700
H  -11.80800 10.85900 45.23700
H  -10.34100 10.16600 44.59300
H  -11.94100 9.93000 43.73000
H  -7.50200 12.98900 40.83200
H  -3.74600 13.93200 41.88700
H  -4.22500 13.55900 43.54000
H  -4.49100 15.13600 42.79200

