158

Mg 35.73200 1.44600 30.54200
C  33.37200 2.59800 32.93400
C  38.15400 1.55200 33.00700
C  37.83500 0.71300 28.20200
C  33.03900 1.71600 28.18200
N  35.80400 2.17100 32.68400
C  34.70500 2.50600 33.45400
C  35.14700 2.68400 34.96200
C  36.69300 2.80600 34.78000
C  36.90700 2.06800 33.44200
C  37.24200 4.29200 34.91300
C  34.61800 1.51200 35.85500
C  33.84600 2.01700 37.12000
H  34.33400 3.40400 37.69800
N  37.68500 0.96800 30.66400
C  38.50300 0.98700 31.77600
C  39.71600 0.38800 31.38000
C  39.56100 0.01800 30.03300
C  38.32400 0.57800 29.56100
C  40.82900 0.17700 32.42000
C  40.47600 -0.79500 29.17400
O  40.24800 -0.98000 28.02400
C  41.87400 -1.33300 29.66300
N  35.47800 1.31900 28.49800
C  36.57800 1.10000 27.71900
C  36.27800 1.29300 26.20600
C  34.72600 1.28300 26.17400
C  34.36700 1.45500 27.71200
C  36.92200 2.53200 25.44500
C  34.05000 -0.02400 25.66500
C  32.70800 0.27500 25.01200
N  33.57700 1.94900 30.50300
C  32.68500 2.00300 29.46800
C  31.38000 2.45100 29.93100
C  31.61400 2.62200 31.34300
C  32.95600 2.37900 31.55500
C  30.08300 2.64400 29.23500
C  30.99000 3.00400 32.62700
O  29.80200 3.20900 32.89300
C  32.10000 2.92000 33.76200
C  31.91600 4.25400 34.46600
O  32.34600 5.34400 34.15100
O  31.23200 4.09500 35.61400
C  31.00100 5.29500 36.35200
H  38.89200 1.76500 33.78300
H  38.57100 0.51200 27.42000
H  32.19300 1.77000 27.49400
H  34.73000 3.65400 35.23400
H  37.12100 2.19800 35.57700
H  37.79800 4.57900 34.02100
H  37.95600 4.31900 35.73600
H  36.57900 5.11200 35.18900
H  35.44200 0.92000 36.25200
H  33.96200 0.91900 35.21800
H  33.75900 1.27200 37.91100
H  32.85200 2.14500 36.69100
H  40.79500 -0.80400 32.89500
H  40.79100 1.00700 33.12500
H  41.75200 0.20000 31.84100
H  41.75200 -2.00900 30.51000
H  42.61100 -0.54000 29.78900
H  42.29800 -1.97500 28.89100
H  36.66500 0.47700 25.59600
H  34.26600 2.16600 25.73100
H  36.22400 3.11400 24.84300
H  37.82000 2.16100 24.95100
H  37.29500 3.19600 26.22400
H  34.02100 -0.76200 26.46600
H  34.70400 -0.48100 24.92200
H  32.27100 1.23600 25.28500
H  31.99600 -0.49900 25.29900
H  32.86300 0.07700 23.95200
H  30.31200 2.87700 28.19400
H  29.55900 3.51600 29.62800
H  29.54800 1.69700 29.17500
H  31.92800 2.14900 34.51200
H  30.81000 5.03200 37.39200
H  30.21900 5.96000 35.98500
H  31.94000 5.84900 36.33300
Mg 40.76300 7.95300 30.08100
C  42.77000 9.29500 32.65700
C  38.41200 7.22200 32.43700
C  39.18300 6.25300 27.75500
C  43.42900 8.46500 27.91000
N  40.78300 8.05200 32.36700
C  41.55300 8.85200 33.11200
C  40.98100 9.15900 34.53700
C  39.64800 8.25500 34.53500
C  39.57000 7.71300 33.04200
C  39.53600 7.09200 35.57800
C  40.73900 10.68800 34.83100
C  39.99200 10.87400 36.15100
H  40.48200 11.91100 37.14100
N  38.98000 6.88100 30.11300
C  38.10400 6.75200 31.12400
C  36.88400 6.12600 30.63700
C  37.04700 5.99300 29.20600
C  38.40000 6.40600 28.94300
C  35.74400 5.79600 31.56500
C  36.09500 5.48000 28.14400
O  36.32700 5.55100 26.94000
C  34.77100 4.88100 28.58200
N  41.25800 7.36000 28.15800
C  40.40300 6.68800 27.36000
C  40.93800 6.46900 25.93700
C  42.21900 7.34200 25.94300
C  42.34100 7.74000 27.44900
C  41.17700 5.03100 25.40300
C  42.07800 8.51000 24.93200
C  41.28700 9.76500 25.40100
N  42.61800 8.88100 30.18000
C  43.62500 9.08900 29.22000
C  44.81100 9.63800 29.79900
C  44.49300 9.85400 31.10500
C  43.17000 9.34000 31.30800
C  46.14200 9.82700 29.16500
C  44.94300 10.46000 32.32300
O  45.95900 11.07900 32.62900
C  43.78300 10.15400 33.33000
C  44.36600 9.50200 34.61400
O  44.94200 8.41100 34.69500
O  44.15400 10.29800 35.65100
C  44.58000 9.76200 36.97900
H  37.56200 7.29700 33.11800
H  38.61500 5.85700 26.91100
H  44.25000 8.38100 27.19500
H  41.73700 8.80500 35.23700
H  38.79900 8.88100 34.80600
H  39.70600 6.18600 34.99600
H  38.54500 7.12300 36.03100
H  40.36200 7.24000 36.27300
H  40.26000 11.23400 34.01800
H  41.67300 11.11200 35.20000
H  39.77900 9.92200 36.63700
H  39.02800 11.34900 35.97000
H  36.10400 5.82500 32.59300
H  35.51500 4.75600 31.33100
H  34.92400 6.49400 31.39400
H  34.21100 4.55200 27.70600
H  34.14800 5.63400 29.06400
H  34.88000 3.99300 29.20400
H  40.26400 6.95300 25.23000
H  43.10400 6.71900 25.81400
H  40.63800 4.29200 25.99700
H  42.23300 4.83200 25.22400
H  40.82000 4.94700 24.37600
H  41.60300 8.12000 24.03100
H  43.12600 8.63600 24.66100
H  41.81700 10.68600 25.15900
H  41.15900 9.75600 26.48400
H  40.26100 9.81000 25.03700
H  46.27000 10.78300 28.65700
H  46.26300 9.09200 28.36800
H  46.91600 9.75500 29.92900
H  43.31900 11.11200 33.56300
H  43.94500 8.90400 37.19800
H  44.32400 10.50300 37.73700
H  45.63600 9.53400 37.12300

