158

Mg 54.46500 24.50700 44.64800
C  52.04300 26.77500 43.91400
C  52.57300 21.91100 43.66100
C  57.26400 22.50600 44.73000
C  56.54700 27.22000 45.77600
N  52.62700 24.48200 43.54000
C  51.76700 25.46600 43.43100
C  50.42100 24.89800 42.86500
C  50.51000 23.41900 43.45500
C  52.00400 23.22500 43.56100
C  49.78400 23.09800 44.83700
C  50.55000 24.84700 41.30600
C  49.30800 25.16400 40.55500
H  48.85300 24.34300 39.37200
N  54.87300 22.47000 44.05400
C  53.90800 21.51200 43.77100
C  54.48800 20.23000 43.63300
C  55.88500 20.45700 43.89500
C  56.07400 21.85500 44.23200
C  53.72200 18.98100 43.29400
C  56.99300 19.38500 43.88800
O  56.69000 18.23600 43.49300
C  58.42100 19.57800 44.16200
N  56.60300 24.79400 44.97500
C  57.50500 23.79500 45.11600
C  58.88200 24.21500 45.59200
C  58.70800 25.74900 45.81100
C  57.22000 25.94500 45.42000
C  59.50700 23.49400 46.81000
C  59.65900 26.66100 44.92800
C  60.06100 28.08300 45.42100
N  54.33000 26.59000 44.89800
C  55.22300 27.53300 45.46100
C  54.43900 28.80000 45.54200
C  53.24500 28.61600 44.90600
C  53.21800 27.21200 44.61400
C  55.05300 30.09400 46.09500
C  51.92100 29.12900 44.47800
O  51.50700 30.25200 44.56500
C  51.13800 28.01100 43.74000
C  50.92900 28.44900 42.36600
O  51.65800 28.29900 41.41200
O  49.63000 28.92400 42.25100
C  48.90400 29.09600 40.93900
H  51.83300 21.13800 43.44500
H  58.15700 21.91800 44.95400
H  57.23900 27.95200 46.19900
H  49.58600 25.45200 43.29400
H  50.05300 22.67700 42.80000
H  50.54300 22.52900 45.37500
H  48.97200 22.42500 44.56000
H  49.33200 23.98300 45.28500
H  50.86500 23.85100 40.99500
H  51.29400 25.54500 40.92400
H  49.21600 26.18600 40.18800
H  48.49200 25.22300 41.27600
H  53.89100 18.21200 44.04800
H  53.92300 18.68800 42.26400
H  52.67100 19.26600 43.34600
H  58.82400 20.25100 43.40500
H  58.84300 18.57400 44.12600
H  58.50100 20.00600 45.16100
H  59.43600 23.95300 44.69000
H  58.74900 25.99700 46.87100
H  58.86900 22.65900 47.09800
H  59.37400 24.06600 47.72900
H  60.55000 23.22800 46.63900
H  59.10200 26.78400 44.00000
H  60.58400 26.14300 44.67300
H  59.75500 28.82200 44.68000
H  61.12800 28.07400 45.64700
H  59.41500 28.25500 46.28100
H  54.81800 29.99200 47.15400
H  54.43200 30.87900 45.66200
H  56.09300 30.36800 45.91600
H  50.15100 27.82400 44.16400
H  48.13900 28.32600 40.83700
H  49.50100 29.07100 40.02700
H  48.46200 30.09200 40.90200
Mg 47.50800 24.95600 27.91600
C  48.32700 27.05200 30.78700
C  46.71800 22.48000 30.20000
C  46.94200 23.02600 25.41100
C  48.78300 27.46200 25.85600
N  47.60100 24.74100 30.27900
C  47.86800 25.76500 31.21900
C  47.69500 25.29400 32.68100
C  47.09500 23.82100 32.50700
C  47.15800 23.65800 30.93600
C  47.97500 22.67200 33.12300
C  46.68000 26.17500 33.47600
C  46.16800 25.60600 34.82800
H  45.93200 26.56600 35.95700
N  46.86200 22.98000 27.82500
C  46.59500 22.14400 28.84600
C  46.11200 20.88400 28.27700
C  46.03400 21.05900 26.85100
C  46.55900 22.43900 26.61300
C  45.84200 19.59600 29.04700
C  45.51900 20.10100 25.79100
O  45.49000 20.30800 24.57700
C  44.87000 18.80800 26.24300
N  47.69800 25.29200 25.91500
C  47.45400 24.25200 25.08400
C  47.65200 24.67400 23.64800
C  47.96700 26.20800 23.78400
C  48.27600 26.32300 25.23400
C  48.75400 23.93800 22.86500
C  46.71800 27.06200 23.41300
C  46.91700 28.24500 22.50300
N  48.48000 26.82000 28.22800
C  48.80700 27.73300 27.24600
C  49.24400 28.95000 27.91500
C  49.02300 28.74700 29.25600
C  48.49300 27.42800 29.45300
C  49.71400 30.14300 27.09200
C  49.07500 29.39100 30.53900
O  49.55000 30.43700 30.89800
C  48.52400 28.40300 31.65500
C  49.46000 28.28500 32.79100
O  50.44400 27.60200 32.84500
O  49.11600 29.25300 33.70200
C  49.63000 28.98500 35.08000
H  46.42400 21.71600 30.92300
H  46.81200 22.41000 24.51900
H  49.18200 28.21300 25.17100
H  48.63000 25.24500 33.24000
H  46.05100 23.80100 32.82200
H  48.68800 23.02700 33.86600
H  48.62500 22.28600 32.33800
H  47.33100 21.96600 33.64700
H  45.83000 26.33600 32.81300
H  47.25500 27.08700 33.63900
H  46.82100 24.80000 35.16400
H  45.19000 25.16400 34.63900
H  44.77300 19.41400 29.15400
H  46.33100 19.58400 30.02100
H  46.39300 18.78100 28.57700
H  45.47200 18.08900 26.80000
H  44.58100 18.21100 25.37900
H  43.99900 18.97900 26.87600
H  46.74700 24.47700 23.07400
H  48.82600 26.53200 23.19700
H  49.58400 24.54800 22.50800
H  48.24700 23.46700 22.02400
H  49.13300 23.10300 23.45400
H  46.31600 27.40300 24.36700
H  45.99000 26.40800 22.93300
H  46.51400 28.08600 21.50300
H  47.99200 28.41500 22.43800
H  46.39400 29.15300 22.80400
H  50.65000 29.83300 26.62700
H  49.85400 30.96500 27.79400
H  49.00100 30.41200 26.31200
H  47.56100 28.77200 32.00800
H  50.07200 29.92300 35.41600
H  50.43700 28.25400 35.08900
H  48.89900 28.62200 35.80300

