158

Mg 17.78700 -1.88800 27.91000
C  16.65900 0.11400 30.59100
C  19.90400 -3.51600 29.88800
C  19.19800 -3.17000 25.07100
C  16.18500 0.60500 25.72600
N  18.20200 -1.67200 29.94000
C  17.65600 -0.87800 30.92300
C  18.20400 -1.23600 32.31800
C  19.39900 -2.15800 31.98600
C  19.12400 -2.53800 30.49900
C  20.85700 -1.62200 32.31400
C  17.11800 -2.03000 33.20100
C  17.24200 -1.71700 34.73300
H  18.46200 -0.94800 35.37800
N  19.18500 -3.32600 27.61600
C  19.93900 -3.94300 28.54200
C  20.74700 -4.99600 27.97700
C  20.45200 -4.95800 26.59600
C  19.57900 -3.80000 26.35600
C  21.49800 -5.98100 28.77800
C  21.01500 -5.91300 25.55300
O  20.64000 -5.95800 24.35900
C  22.07100 -6.93300 25.82700
N  17.75600 -1.34100 25.76900
C  18.42000 -2.03600 24.81600
C  18.25300 -1.42400 23.44000
C  17.17700 -0.40500 23.67100
C  16.97500 -0.35500 25.12900
C  19.57600 -0.95000 22.75100
C  15.80200 -0.59600 23.03300
C  15.82300 -0.38000 21.52500
N  16.53300 -0.09900 28.05900
C  15.93700 0.70600 27.11300
C  15.11000 1.73000 27.78700
C  15.35900 1.55400 29.12500
C  16.25300 0.43500 29.27800
C  14.18600 2.79100 27.09900
C  15.14900 2.06100 30.43500
O  14.48500 3.00700 30.79000
C  15.88600 1.11900 31.43100
C  16.84900 1.95100 32.23300
O  17.98700 2.34200 31.96700
O  16.13400 2.28100 33.38700
C  16.83800 3.15300 34.34600
H  20.70600 -3.95100 30.48800
H  19.68200 -3.62000 24.20100
H  15.63600 1.38800 25.19900
H  18.63000 -0.33500 32.75900
H  19.30100 -3.03900 32.62100
H  20.97400 -0.62900 32.74800
H  21.50400 -1.67400 31.43800
H  21.31700 -2.22700 33.09500
H  17.30500 -3.08300 32.99200
H  16.16000 -1.78900 32.74000
H  17.02000 -2.62100 35.30100
H  16.34200 -1.12900 34.91500
H  21.41700 -7.02800 28.48500
H  21.21800 -6.12300 29.82100
H  22.52900 -5.62800 28.79800
H  22.58000 -7.25600 24.91900
H  21.62400 -7.88600 26.11100
H  22.67300 -6.52000 26.63600
H  17.92800 -2.29600 22.87200
H  17.53000 0.55100 23.28500
H  19.63400 0.13700 22.81800
H  19.64500 -1.20500 21.69400
H  20.46700 -1.27700 23.28700
H  15.05700 0.13000 23.35800
H  15.42600 -1.58100 23.30700
H  16.81000 -0.01500 21.24100
H  15.06200 0.34200 21.23000
H  15.69800 -1.32700 20.99900
H  14.26500 2.88100 26.01500
H  14.56000 3.71900 27.52900
H  13.12900 2.78100 27.36700
H  15.16200 0.59900 32.05800
H  16.62000 3.02800 35.40700
H  16.55100 4.19100 34.18100
H  17.91200 3.17800 34.16300
Mg -4.89400 26.31900 26.32000
C  -3.70000 27.75100 29.37800
C  -6.80700 24.23200 28.31500
C  -5.65600 24.65300 23.54500
C  -2.52900 28.19900 24.54700
N  -5.07000 25.93600 28.64500
C  -4.60900 26.75800 29.66400
C  -5.03700 26.22400 31.05600
C  -5.89700 24.97400 30.67400
C  -5.98700 25.04700 29.13000
C  -5.28400 23.62300 31.19500
C  -5.85900 27.35200 31.77000
C  -5.88400 27.33600 33.29300
H  -5.50400 26.13100 34.06700
N  -6.08300 24.64500 26.01300
C  -6.90100 24.04500 26.89500
C  -7.68200 23.12000 26.17000
C  -7.40200 23.17100 24.73600
C  -6.35300 24.20700 24.72900
C  -8.77500 22.40900 26.78200
C  -7.98400 22.45800 23.48600
O  -7.41200 22.51700 22.39500
C  -9.21000 21.58700 23.66700
N  -4.29000 26.48400 24.34700
C  -4.82500 25.74300 23.35900
C  -4.35200 26.24600 21.95200
C  -3.36700 27.40300 22.30000
C  -3.45000 27.41100 23.85700
C  -3.63100 25.18300 21.06400
C  -3.69600 28.80600 21.70100
C  -2.87000 29.31800 20.50000
N  -3.40700 27.72800 26.80100
C  -2.49500 28.33300 25.96500
C  -1.58100 29.20700 26.79500
C  -2.09200 29.04100 28.15000
C  -3.15200 28.12000 28.08000
C  -0.40200 29.98100 26.29200
C  -1.81100 29.40200 29.55200
O  -1.03200 30.15800 30.04600
C  -2.85700 28.53900 30.42200
C  -2.00300 27.73200 31.25400
O  -1.39900 26.72500 30.78600
O  -2.02000 28.11000 32.55800
C  -0.96000 27.53300 33.39900
H  -7.55300 23.64600 28.85500
H  -5.88500 24.14500 22.60600
H  -1.82900 28.74700 23.91300
H  -4.21000 25.83800 31.65200
H  -6.94900 25.02900 30.95300
H  -4.82500 23.12800 30.33900
H  -6.08700 22.98400 31.56000
H  -4.57900 23.69900 32.02300
H  -6.92000 27.39000 31.52100
H  -5.42000 28.30100 31.46200
H  -6.94500 27.53000 33.45000
H  -5.31100 28.16400 33.71100
H  -8.79700 22.32400 27.86800
H  -8.78600 21.37100 26.44900
H  -9.67300 22.88300 26.38700
H  -9.89600 22.01400 24.39800
H  -8.79600 20.63200 23.98900
H  -9.82600 21.53400 22.77000
H  -5.17700 26.65400 21.36700
H  -2.39300 27.08300 21.92800
H  -4.19700 25.07000 20.13900
H  -3.64200 24.23800 21.60700
H  -2.58700 25.38300 20.82600
H  -3.70000 29.56800 22.48000
H  -4.72300 28.89700 21.34900
H  -3.47500 29.35800 19.59400
H  -1.89400 28.84200 20.40500
H  -2.71300 30.35500 20.79600
H  -0.74300 30.92800 25.87300
H  0.13500 29.37900 25.55900
H  0.16300 30.20900 27.19600
H  -3.38000 29.27400 31.03500
H  -0.06800 27.48400 32.77400
H  -1.18400 26.48800 33.61400
H  -0.75000 28.18200 34.24800

