158

Mg 47.47200 24.88700 27.85100
C  47.89100 27.31400 30.34900
C  46.87100 22.59100 30.29200
C  46.81700 22.74300 25.43200
C  48.11500 27.54500 25.44400
N  47.13000 25.02200 30.02500
C  47.40900 26.08600 30.81600
C  47.07600 25.74800 32.30200
C  46.88000 24.17900 32.28000
C  47.03900 23.87100 30.71900
C  47.83100 23.20900 33.11200
C  45.95400 26.67600 32.92400
C  45.28500 26.26200 34.18500
H  45.39900 27.18300 35.40100
N  46.97400 22.87500 27.88400
C  46.83200 22.11600 28.99300
C  46.49000 20.72400 28.48400
C  46.36100 20.76000 27.03500
C  46.66500 22.17600 26.70400
C  46.09300 19.54800 29.41800
C  45.90500 19.61800 26.09700
O  45.95100 19.77200 24.89200
C  45.63800 18.13300 26.65800
N  47.44600 25.09200 25.74900
C  47.20200 24.00900 24.98300
C  47.32700 24.42100 23.45100
C  47.55200 25.99500 23.49600
C  47.69900 26.27000 24.99500
C  48.43200 23.66400 22.70400
C  46.40800 26.87700 22.89100
C  46.20200 26.61300 21.42200
N  48.07100 26.93900 27.86900
C  48.37700 27.83600 26.80100
C  48.57900 29.18600 27.36400
C  48.49900 28.96800 28.80300
C  48.18100 27.62100 29.00500
C  48.92800 30.41400 26.51000
C  48.51400 29.63700 30.05300
O  48.82600 30.79100 30.32600
C  48.08300 28.65300 31.14300
C  48.94700 28.62500 32.33100
O  50.06900 28.17100 32.38100
O  48.24800 29.16700 33.36100
C  48.96900 29.03900 34.63100
H  46.67800 21.81300 31.03300
H  46.47000 21.99000 24.72100
H  48.17700 28.34200 24.70000
H  47.95800 25.85700 32.93500
H  45.83300 23.91800 32.43200
H  48.40500 22.55100 32.45900
H  47.14500 22.67100 33.76600
H  48.39800 23.83200 33.80400
H  45.10700 26.80800 32.25100
H  46.46600 27.60000 33.19200
H  45.69500 25.26700 34.35500
H  44.22900 26.15800 33.93900
H  46.84500 18.76200 29.34900
H  45.11100 19.14900 29.16700
H  46.06300 19.80400 30.47700
H  44.57500 18.12800 26.90000
H  46.31600 17.85000 27.46300
H  45.89400 17.54800 25.77400
H  46.40100 24.27200 22.89600
H  48.47500 26.36500 23.04900
H  49.10800 24.37000 22.22000
H  48.01700 23.09500 21.87200
H  49.02000 23.02900 23.36700
H  46.65000 27.91600 23.11600
H  45.38400 26.79700 23.25500
H  45.37800 25.93400 21.20700
H  47.14500 26.22500 21.03600
H  45.99100 27.55500 20.91500
H  47.99300 30.95100 26.34400
H  49.17700 30.19800 25.47100
H  49.59200 31.06500 27.07900
H  47.15200 29.09300 31.50200
H  48.41200 29.74200 35.25100
H  49.89100 29.61400 34.53500
H  49.04700 28.09500 35.17000
Mg 35.56400 49.56500 26.71700
C  35.53100 47.05700 29.09900
C  34.69600 51.88600 29.13600
C  35.12000 51.73700 24.25000
C  36.13800 46.94800 24.36300
N  35.13100 49.46300 28.85500
C  35.24200 48.33800 29.59400
C  35.29300 48.69000 31.09300
C  34.58200 50.09100 31.16900
C  34.90300 50.55700 29.65500
C  33.04000 50.06300 31.36800
C  36.75500 48.62200 31.68200
C  36.89900 47.92900 33.07700
H  36.92100 48.91900 34.33900
N  35.15300 51.62600 26.70100
C  34.77200 52.38000 27.78800
C  34.55000 53.70500 27.28600
C  34.64100 53.73300 25.86500
C  34.98400 52.33100 25.51200
C  34.09300 54.79700 28.20700
C  34.51700 54.88100 24.85300
O  34.75500 54.66400 23.62100
C  34.03600 56.21000 25.26100
N  35.52100 49.39200 24.64400
C  35.30600 50.42900 23.83500
C  35.45500 49.99100 22.35900
C  35.79300 48.48000 22.35700
C  35.85700 48.27100 23.88900
C  34.24200 50.42400 21.39900
C  37.00600 47.95600 21.54300
C  36.81000 46.72900 20.68000
N  35.80300 47.46000 26.67300
C  36.06100 46.53100 25.66900
C  36.11900 45.14900 26.20800
C  35.93600 45.36300 27.56500
C  35.69600 46.73400 27.77700
C  36.45000 43.87400 25.42700
C  35.83700 44.66100 28.74400
O  35.93100 43.45300 28.91100
C  35.60600 45.75500 29.86100
C  34.43800 45.40900 30.63100
O  33.26100 45.57000 30.35600
O  34.82300 44.94000 31.82900
C  34.01400 45.00100 33.00400
H  34.35500 52.50000 29.97100
H  34.90600 52.35000 23.37200
H  36.35500 46.25000 23.55100
H  34.59700 48.03000 31.61000
H  35.14600 50.84000 31.72600
H  32.61500 50.90900 30.82900
H  32.69000 50.26400 32.38000
H  32.60500 49.15500 30.94800
H  37.07200 49.64500 31.88500
H  37.44300 48.14900 30.98100
H  37.81300 47.33500 33.11100
H  36.07600 47.23800 33.25800
H  34.60900 55.74200 28.03800
H  34.20300 54.56400 29.26600
H  33.00700 54.81800 28.11700
H  33.84600 56.78600 24.35500
H  34.79200 56.83400 25.73800
H  33.19300 56.12000 25.94600
H  36.22200 50.58900 21.86600
H  34.88900 47.92300 22.11000
H  34.64200 51.08200 20.62700
H  33.50500 51.04400 21.91100
H  33.70100 49.57700 20.97800
H  37.70300 47.70800 22.34400
H  37.31900 48.83100 20.97400
H  37.11000 46.92300 19.65000
H  35.80400 46.31100 20.68600
H  37.47000 46.00900 21.16500
H  37.39500 43.50500 25.82600
H  36.59100 44.21600 24.40200
H  35.61500 43.17300 25.43600
H  36.44000 45.80300 30.56200
H  33.13500 45.61500 32.80600
H  34.49900 45.48100 33.85400
H  33.65000 44.04300 33.37700

