158

Mg -2.38000 16.99700 27.56400
C  -2.76200 14.96400 30.34300
C  -2.85300 19.76200 29.60600
C  -2.53800 19.03900 24.69900
C  -2.71500 14.24800 25.41700
N  -2.96600 17.30500 29.76900
C  -2.84200 16.33500 30.74100
C  -2.88000 16.98700 32.14900
C  -3.15600 18.44600 31.88600
C  -2.97900 18.56800 30.36400
C  -4.49300 19.02400 32.33000
C  -1.61400 16.65200 32.99600
C  -1.21100 17.61200 34.16700
H  -0.83400 16.78400 35.47200
N  -2.47900 19.13200 27.23400
C  -2.67400 20.05300 28.19100
C  -2.69700 21.37700 27.54300
C  -2.33400 21.16000 26.16100
C  -2.44900 19.69900 25.96000
C  -3.01500 22.58000 28.37900
C  -2.11400 22.14000 25.02100
O  -2.01300 21.85500 23.86700
C  -1.99100 23.60000 25.45200
N  -2.59200 16.65700 25.37500
C  -2.65100 17.61700 24.39800
C  -2.77900 17.00000 23.01000
C  -2.62100 15.47100 23.23100
C  -2.62600 15.45500 24.72400
C  -4.03500 17.44200 22.26100
C  -1.41900 14.99900 22.40300
C  -0.09400 14.68900 23.17900
N  -2.67400 15.01000 27.79300
C  -2.70400 13.97500 26.90500
C  -2.80700 12.69600 27.50400
C  -2.63000 13.03400 28.81900
C  -2.66300 14.44500 28.99400
C  -3.03000 11.38600 26.95400
C  -2.59300 12.47800 30.16400
O  -2.54800 11.30400 30.56000
C  -2.66200 13.67900 31.24500
C  -1.68000 13.51000 32.23600
O  -0.51600 13.82300 32.14500
O  -2.23700 13.05900 33.46500
C  -1.39400 12.88700 34.67700
H  -2.98200 20.58700 30.30900
H  -2.48100 19.64100 23.79000
H  -2.72500 13.35900 24.78200
H  -3.68600 16.64200 32.79700
H  -2.48200 19.14800 32.37700
H  -5.23400 18.32300 32.71400
H  -4.98700 19.58400 31.53500
H  -4.39300 19.73100 33.15300
H  -0.71100 16.47900 32.41000
H  -1.78100 15.70700 33.51300
H  -2.12800 18.08100 34.52300
H  -0.42600 18.34600 33.98400
H  -2.14700 23.22300 28.53000
H  -3.45600 22.32100 29.34200
H  -3.77200 23.08900 27.78300
H  -2.05100 24.13200 24.50300
H  -1.19500 23.85800 26.15100
H  -2.94300 23.79800 25.94500
H  -1.91000 17.35300 22.45500
H  -3.53900 14.95400 22.95100
H  -4.74800 17.90100 22.94600
H  -4.39000 16.59900 21.66800
H  -3.88500 18.19200 21.48400
H  -1.12600 15.59500 21.53900
H  -1.74900 14.03300 22.02200
H  -0.11500 14.95600 24.23500
H  0.64100 15.27500 22.62700
H  0.24100 13.65600 23.08100
H  -2.36400 10.66600 27.43000
H  -2.88900 11.27800 25.87800
H  -4.02400 11.10300 27.30100
H  -3.57500 13.71700 31.83900
H  -1.79700 13.47500 35.50200
H  -0.33600 13.13900 34.59500
H  -1.41900 11.82700 34.92900
Mg 1.15600 41.02500 26.20900
C  2.32800 41.85800 29.44000
C  -1.60800 39.84900 27.74900
C  0.04200 40.58400 23.10900
C  4.19400 42.47400 24.94300
N  0.37300 41.09300 28.36000
C  0.99500 41.52000 29.46700
C  0.14400 41.36700 30.67400
C  -1.16200 40.58100 30.15000
C  -0.81500 40.43000 28.66000
C  -1.50600 39.30600 30.97600
C  -0.10900 42.74400 31.29500
C  0.58700 42.92300 32.65300
H  -0.38100 43.06100 33.87400
N  -0.40000 40.12000 25.51300
C  -1.48600 39.61800 26.28900
C  -2.33700 38.91200 25.40500
C  -1.96000 39.19800 24.07200
C  -0.72500 39.95300 24.16600
C  -3.62000 38.29700 25.98300
C  -2.71800 38.92500 22.75200
O  -2.29600 39.30400 21.65600
C  -4.07100 38.24900 22.73700
N  2.12500 41.36300 24.31600
C  1.29600 41.17800 23.17800
C  2.09200 41.59900 21.91000
C  3.21300 42.47800 22.60600
C  3.23300 42.09500 24.01000
C  2.68900 40.50600 21.00200
C  2.99300 44.10100 22.38400
C  4.13400 44.94100 21.83100
N  2.96700 41.90700 27.03300
C  4.09300 42.36800 26.38600
C  5.05600 42.70400 27.40400
C  4.38600 42.53900 28.60500
C  3.11400 42.08700 28.32600
C  6.39800 43.16900 27.15900
C  4.58800 42.53700 30.01900
O  5.55600 42.89400 30.71100
C  3.23700 42.08300 30.64600
C  3.51300 40.77100 31.53100
O  3.34300 39.60400 31.18600
O  3.77300 41.20800 32.81900
C  3.40000 40.35700 33.92200
H  -2.56800 39.57200 28.18900
H  -0.36500 40.48400 22.10000
H  5.11900 42.96500 24.63400
H  0.75400 40.73600 31.32000
H  -1.99100 41.28700 30.18200
H  -2.00700 38.53600 30.38800
H  -2.21100 39.55300 31.77000
H  -0.68200 38.75300 31.42700
H  -1.17800 42.91300 31.42300
H  0.23400 43.45900 30.54700
H  1.07800 43.89600 32.61200
H  1.31900 42.15200 32.89400
H  -4.44500 38.96600 25.73900
H  -3.63500 38.26600 27.07200
H  -3.90800 37.27900 25.71900
H  -4.78500 38.99100 23.09200
H  -3.94300 37.42900 23.44400
H  -4.38900 37.95400 21.73700
H  1.47800 42.22900 21.26600
H  4.15500 42.09500 22.21500
H  2.80700 39.56200 21.53400
H  3.68300 40.74100 20.62000
H  2.04200 40.33900 20.14200
H  2.79500 44.44500 23.39900
H  2.13600 44.36200 21.76300
H  4.65200 45.55700 22.56700
H  3.68000 45.51900 21.02600
H  4.88400 44.29200 21.37800
H  7.01700 42.27200 27.15200
H  6.68300 43.92100 27.89500
H  6.46200 43.72500 26.22400
H  3.07400 42.85800 31.39500
H  3.49500 40.95200 34.83000
H  4.24000 39.67800 34.06300
H  2.43300 39.89000 33.73500

