158

Mg 0.70700 7.87600 25.23100
C  1.55900 9.86600 28.17600
C  1.04800 5.07900 27.17700
C  0.00000 6.32000 22.56900
C  0.88000 10.97100 23.41200
N  1.14200 7.51200 27.44000
C  1.54100 8.51200 28.42800
C  1.71400 7.77300 29.82200
C  1.76700 6.24300 29.37200
C  1.36300 6.28500 27.89100
C  3.22900 5.56800 29.60100
C  0.39600 8.07400 30.74000
C  0.65800 8.46900 32.18000
H  1.80000 7.74700 32.88100
N  0.61600 5.99100 24.85300
C  0.70600 4.91600 25.77700
C  0.36000 3.73000 25.08000
C  0.04600 4.01900 23.71600
C  0.15200 5.52200 23.62200
C  0.28400 2.39800 25.92500
C  -0.24500 3.04100 22.57900
O  -0.44700 3.34900 21.44200
C  -0.02900 1.61600 22.84800
N  0.35300 8.56800 23.32400
C  0.06000 7.74200 22.36000
C  -0.37100 8.46800 21.05100
C  -0.19700 9.97700 21.42600
C  0.39600 9.83400 22.78700
C  0.42500 8.05600 19.76100
C  -1.61100 10.74300 21.45300
C  -1.71600 12.08900 20.79500
N  1.07200 10.02100 25.64100
C  1.08800 11.10000 24.77800
C  1.38800 12.32000 25.51500
C  1.52800 11.86900 26.86000
C  1.31700 10.43300 26.88200
C  1.42200 13.61100 24.86900
C  1.81700 12.25000 28.17300
O  2.02000 13.34500 28.62200
C  1.81800 11.01600 29.12000
C  3.16500 10.86600 29.62400
O  4.27200 10.90100 29.07500
O  2.97700 10.93900 30.97200
C  4.17900 11.19700 31.86400
H  0.92900 4.15100 27.73900
H  -0.34600 5.75200 21.70200
H  0.78100 11.87100 22.80200
H  2.68900 7.96300 30.27000
H  1.05000 5.54300 29.80100
H  3.84500 6.21100 30.23000
H  3.74700 5.27400 28.68800
H  3.05100 4.61900 30.10700
H  -0.33600 7.28100 30.58800
H  -0.05400 8.93300 30.24100
H  -0.28400 8.32200 32.70800
H  0.85000 9.53900 32.25700
H  1.04200 1.67600 25.62500
H  -0.63200 1.82400 25.78800
H  0.47400 2.62400 26.97400
H  -0.13300 1.14500 21.87000
H  -0.76200 1.28400 23.58300
H  1.00200 1.34600 23.07700
H  -1.38500 8.29900 20.68600
H  0.48500 10.53600 20.78500
H  1.09400 7.25200 20.06700
H  0.96300 8.90700 19.34400
H  -0.18300 7.66700 18.94500
H  -1.96900 10.87200 22.47500
H  -2.41400 10.13800 21.03200
H  -2.56300 12.13700 20.11100
H  -0.78000 12.13800 20.23900
H  -1.65900 12.97000 21.43400
H  1.17300 14.33200 25.64800
H  0.73600 13.71600 24.02800
H  2.45100 13.79700 24.56300
H  1.03800 11.21100 29.85600
H  4.59500 12.20400 31.83700
H  4.96600 10.47200 31.65700
H  3.85200 10.95200 32.87400
Mg 43.28400 3.54500 46.77400
C  41.60700 6.63300 47.14900
C  40.23400 2.06300 46.69400
C  44.81800 0.71600 45.72600
C  46.27400 5.22200 46.64900
N  41.17500 4.25300 46.92100
C  40.72100 5.52100 47.19500
C  39.19800 5.55400 47.32500
C  38.88400 4.08000 47.48400
C  40.17500 3.37300 46.99700
C  38.38100 3.68300 48.87100
C  38.40600 6.16600 46.14600
C  39.05000 6.12300 44.73300
H  38.20000 5.85400 43.47400
N  42.66700 1.64900 46.40600
C  41.30300 1.25200 46.39300
C  41.22700 -0.13200 46.07200
C  42.55000 -0.59100 45.74600
C  43.41500 0.61800 45.99300
C  39.93000 -0.80500 45.94100
C  42.84000 -1.97500 45.30000
O  42.04300 -2.91000 45.14700
C  44.29000 -2.24500 44.88900
N  45.33400 3.03000 46.40300
C  45.71100 1.74200 46.01700
C  47.24300 1.65300 45.82200
C  47.73800 3.07500 46.23800
C  46.39900 3.84800 46.45500
C  47.89400 0.40500 46.63600
C  48.68900 3.67300 45.21200
C  50.00100 4.06800 45.93000
N  43.85900 5.52000 46.77000
C  45.15700 6.00300 46.76400
C  45.02100 7.50500 46.88200
C  43.69000 7.75800 46.97600
C  42.99000 6.52800 46.93800
C  46.20000 8.40600 47.00000
C  42.70400 8.81300 47.09700
O  42.81600 10.08600 47.13000
C  41.37100 8.10600 47.24900
C  40.67600 8.56800 48.53100
O  40.98000 8.16300 49.65500
O  39.57700 9.36500 48.20700
C  38.63000 9.48400 49.33000
H  39.30200 1.49500 46.64200
H  45.32400 -0.22000 45.48000
H  47.19100 5.81500 46.62300
H  38.98000 6.05800 48.26600
H  38.10100 3.73800 46.80700
H  38.03300 4.49100 49.51300
H  39.23400 3.30100 49.43200
H  37.51500 3.02900 48.77100
H  38.29100 7.21300 46.42400
H  37.40700 5.76300 45.97900
H  39.78000 5.32900 44.57600
H  39.56200 7.08500 44.70400
H  40.10700 -1.85300 46.18300
H  39.52400 -0.49900 44.97700
H  39.31200 -0.59000 46.81300
H  44.88300 -2.42300 45.78600
H  44.71000 -1.50800 44.20300
H  44.21200 -3.09800 44.21500
H  47.36300 1.46300 44.75600
H  48.23900 2.93800 47.19600
H  47.50400 0.19800 47.63200
H  48.96200 0.28400 46.81600
H  47.62900 -0.51100 46.10800
H  48.39300 4.53700 44.61700
H  48.91600 2.93600 44.44100
H  49.84100 5.14300 46.01400
H  50.78300 3.84500 45.20500
H  50.20400 3.70400 46.93700
H  46.78500 8.36300 46.08100
H  46.84800 8.04200 47.79700
H  45.93900 9.46300 47.03800
H  40.75300 8.44600 46.41800
H  39.02400 10.12800 50.11600
H  38.16600 8.58000 49.72200
H  37.86500 10.16400 48.95600

