158

Mg 1.82000 -2.12200 44.63000
C  5.18600 -1.67200 44.46600
C  1.41300 0.42100 42.33200
C  -1.41600 -2.77800 44.65700
C  2.50600 -5.12100 46.49400
N  3.17100 -0.69600 43.58800
C  4.49100 -0.72800 43.73800
C  5.17000 0.16400 42.70900
C  3.95700 0.99300 42.04000
C  2.76600 0.23400 42.71700
C  3.89300 2.50600 42.36700
C  5.92400 -0.68400 41.56900
C  7.37000 -0.20600 41.37900
H  7.87200 0.23300 39.98200
N  0.19900 -1.19500 43.70500
C  0.19800 -0.20500 42.80600
C  -1.15400 0.13600 42.42800
C  -2.00700 -0.74500 43.13900
C  -1.06100 -1.66500 43.89200
C  -1.57200 1.27900 41.52700
C  -3.48600 -0.79600 42.98700
O  -4.09600 -0.06300 42.16400
C  -4.35900 -1.64800 43.92600
N  0.68300 -3.70600 45.42400
C  -0.72500 -3.69800 45.38200
C  -1.30300 -4.96700 46.16100
C  0.03100 -5.57100 46.77700
C  1.15200 -4.75900 46.24800
C  -2.32300 -4.46600 47.20600
C  0.15200 -7.03400 46.51000
C  0.55400 -7.84200 47.74300
N  3.47200 -3.18500 45.40300
C  3.61800 -4.36000 46.11700
C  4.97600 -4.62900 46.35000
C  5.71000 -3.56800 45.75400
C  4.73600 -2.77600 45.19000
C  5.56000 -5.81900 47.10100
C  6.96800 -2.95500 45.54500
O  8.12800 -3.31900 45.82100
C  6.67600 -1.70800 44.67300
C  7.15600 -0.45900 45.39500
O  6.63000 -0.01500 46.39100
O  8.22600 0.07500 44.81500
C  8.59700 1.46000 45.17800
H  1.23400 1.15900 41.54800
H  -2.48300 -3.00700 44.61200
H  2.72100 -6.00200 47.10200
H  5.76000 0.92700 43.21800
H  3.99300 0.94900 40.95200
H  4.47300 2.75700 43.25500
H  2.88600 2.73700 42.71600
H  4.23300 3.09700 41.51700
H  5.41000 -0.52300 40.62100
H  5.88300 -1.76200 41.72200
H  7.87300 -1.10600 41.73100
H  7.54300 0.60500 42.08600
H  -2.13700 0.87400 40.68900
H  -0.70300 1.79700 41.12000
H  -2.31400 1.90100 42.02800
H  -3.94200 -1.57400 44.93000
H  -4.37700 -2.68100 43.57800
H  -5.38300 -1.28100 43.99100
H  -1.79400 -5.68600 45.50500
H  -0.00500 -5.25100 47.81900
H  -2.79600 -3.52800 46.91700
H  -1.90000 -4.48400 48.21100
H  -3.08800 -5.22500 47.04000
H  0.86200 -7.27800 45.71900
H  -0.74400 -7.52900 46.13500
H  -0.02000 -8.76800 47.79100
H  0.53400 -7.22900 48.64500
H  1.57100 -8.21800 47.63300
H  6.57500 -5.59900 47.43100
H  5.46900 -6.69300 46.45700
H  5.07000 -6.00600 48.05700
H  7.22400 -1.97600 43.76900
H  8.06200 2.13700 44.51300
H  9.65000 1.69600 45.03000
H  8.36800 1.67100 46.22300
Mg 1.80800 41.43800 26.80200
C  3.36600 42.25200 29.92200
C  -0.79000 40.14800 28.54900
C  0.48400 40.62300 23.87100
C  4.83700 42.22400 25.28500
N  1.34700 41.25400 29.03300
C  2.07300 41.71700 30.10300
C  1.21400 41.71300 31.37200
C  -0.07600 40.84200 30.91300
C  0.14500 40.77300 29.41100
C  -0.14500 39.44400 31.63600
C  0.95600 43.15600 31.93700
C  1.31700 43.41400 33.38100
H  1.18800 42.35300 34.45200
N  0.05800 40.57300 26.21700
C  -0.85300 40.05800 27.08900
C  -1.98300 39.52500 26.22600
C  -1.53500 39.54500 24.88800
C  -0.27500 40.28500 24.97300
C  -3.18600 38.76200 26.81900
C  -2.20600 38.95100 23.64500
O  -1.63300 39.05200 22.57800
C  -3.56100 38.15200 23.76200
N  2.63000 41.32800 24.96100
C  1.84700 40.99200 23.88100
C  2.60800 41.24500 22.51100
C  3.99000 41.74800 22.95100
C  3.85900 41.68600 24.50200
C  2.63100 39.99700 21.61800
C  4.36700 43.19600 22.34900
C  3.75300 44.35200 23.05000
N  3.71000 42.12200 27.41000
C  4.81100 42.46800 26.66400
C  5.91300 42.85700 27.56300
C  5.30500 42.76800 28.82600
C  4.02000 42.35900 28.73100
C  7.33000 43.18200 27.32500
C  5.65400 42.80000 30.20500
O  6.73600 42.99500 30.66700
C  4.37600 42.57300 31.02600
C  4.75100 41.39400 31.82100
O  4.89100 40.25900 31.37200
O  4.71400 41.75800 33.11600
C  4.86700 40.69500 34.10300
H  -1.68500 39.79700 29.06800
H  0.04300 40.54200 22.87600
H  5.78200 42.53400 24.83300
H  1.69800 41.19200 32.19900
H  -1.03400 41.29200 31.17200
H  0.56100 39.35300 32.46200
H  -0.18000 38.62600 30.91700
H  -1.13400 39.19000 32.01500
H  -0.12600 43.28900 31.94500
H  1.39100 43.89500 31.26500
H  0.66200 44.24600 33.63900
H  2.37100 43.67900 33.46800
H  -3.34400 38.86300 27.89300
H  -3.13000 37.67400 26.83000
H  -4.15600 39.16500 26.52700
H  -3.57100 37.36100 24.51200
H  -3.70700 37.77600 22.74900
H  -4.43500 38.78600 23.90900
H  2.12100 42.04700 21.95600
H  4.82900 41.12500 22.64100
H  2.24100 39.17900 22.22300
H  3.67300 39.80900 21.35700
H  2.09400 40.17600 20.68600
H  3.84100 43.31700 21.40200
H  5.41300 43.36700 22.09500
H  3.05100 43.89400 23.74600
H  3.19400 45.10100 22.49000
H  4.57400 44.88200 23.53200
H  7.63600 42.84900 26.33300
H  7.82700 42.56800 28.07600
H  7.45000 44.24900 27.50800
H  4.11400 43.51900 31.50100
H  4.53000 39.76800 33.63900
H  4.40800 40.93800 35.06200
H  5.89400 40.66800 34.46700

