158

Mg 53.46500 24.98300 43.92900
C  50.86700 27.19400 43.33500
C  51.34500 22.46500 42.77300
C  56.05100 22.89000 43.90000
C  55.56400 27.75400 44.10300
N  51.45600 24.87600 42.90300
C  50.53100 25.87400 42.96700
C  49.15500 25.37800 42.49300
C  49.26900 23.82200 42.51700
C  50.79700 23.74700 42.70400
C  48.48200 23.06900 43.63100
C  48.65100 25.93600 41.12600
C  49.58200 26.21300 39.95500
H  49.42000 25.49100 38.66500
N  53.64900 22.97100 43.58300
C  52.65400 22.08400 43.14600
C  53.23700 20.74400 42.91500
C  54.60200 20.75500 43.22000
C  54.84000 22.22000 43.58200
C  52.48400 19.46600 42.43900
C  55.51700 19.60700 43.23400
O  55.18700 18.45700 42.78400
C  56.88300 19.68200 43.97500
N  55.45600 25.28700 43.89400
C  56.38300 24.26900 43.91800
C  57.80200 24.89100 43.94900
C  57.60400 26.41200 43.78600
C  56.11800 26.48000 43.90800
C  58.65000 24.42300 45.17400
C  58.15300 27.03800 42.47600
C  59.01400 28.30500 42.69700
N  53.34100 27.07500 43.83200
C  54.22600 28.09700 44.10400
C  53.55900 29.39600 44.29800
C  52.20700 29.06700 44.05700
C  52.18000 27.63200 43.66700
C  54.15900 30.70300 44.52800
C  50.88800 29.59700 44.01700
O  50.47500 30.69000 44.33300
C  50.02700 28.45300 43.38100
C  49.64200 28.96700 41.97700
O  50.42300 29.18800 41.04300
O  48.31500 29.30600 41.96500
C  47.90100 30.05500 40.71300
H  50.68800 21.63000 42.51900
H  56.92500 22.23600 43.94500
H  56.21100 28.63400 44.09200
H  48.43400 25.74800 43.22200
H  48.96200 23.41100 41.55400
H  47.78200 23.73000 44.14100
H  49.14400 22.63400 44.37900
H  47.90400 22.31200 43.10000
H  48.01500 26.76900 41.42300
H  47.92200 25.21600 40.75200
H  50.47800 25.67000 40.25800
H  49.71700 27.25500 39.66700
H  53.05700 18.79800 41.79500
H  51.46600 19.59200 42.06900
H  52.49900 18.94200 43.39400
H  57.39400 18.71900 44.00900
H  56.75100 20.07500 44.98300
H  57.48000 20.34700 43.35200
H  58.30200 24.42600 43.09900
H  58.00500 26.92800 44.65800
H  58.08400 23.66200 45.71000
H  58.99600 25.30200 45.71900
H  59.49000 23.86300 44.76400
H  57.33900 27.36400 41.82900
H  58.81300 26.30700 42.00900
H  59.18300 28.46800 43.76100
H  58.57500 29.10700 42.10300
H  59.95100 28.09900 42.17900
H  53.99600 31.19900 43.57100
H  55.23300 30.75400 44.70500
H  53.64400 31.28600 45.29200
H  49.10600 28.28400 43.93900
H  46.93100 30.52700 40.87100
H  47.82100 29.32700 39.90600
H  48.55600 30.80600 40.27000
Mg 43.28400 42.24800 27.24900
C  42.02800 44.23500 29.64800
C  44.07800 39.84400 29.72300
C  45.26500 40.61400 24.93300
C  42.84700 44.82900 24.87900
N  43.00400 41.99200 29.49800
C  42.36400 42.97500 30.20000
C  42.27300 42.52200 31.74900
C  42.89000 41.04900 31.73900
C  43.42200 40.94400 30.27200
C  44.03500 40.85800 32.77300
C  40.90800 42.61200 32.44500
C  40.58300 43.66700 33.46300
H  39.91400 43.21900 34.76300
N  44.41000 40.42800 27.27500
C  44.60700 39.55100 28.40100
C  45.58200 38.48700 28.03900
C  46.00500 38.78700 26.68500
C  45.28400 39.98300 26.22100
C  46.11200 37.44400 28.98000
C  47.00100 38.07600 25.82900
O  47.37200 38.41700 24.71600
C  47.66600 36.88400 26.34300
N  43.94400 42.72200 25.13800
C  44.67900 41.79200 24.43800
C  45.02500 42.39200 23.06400
C  44.18300 43.73400 23.00300
C  43.56700 43.74800 24.42900
C  46.57600 42.59100 22.91000
C  43.11000 43.70400 21.94100
C  41.64800 43.22200 22.29300
N  42.38700 44.04100 27.20200
C  42.25300 44.95600 26.17900
C  41.53900 46.09400 26.69600
C  41.38000 45.93000 28.12600
C  41.98900 44.65500 28.31700
C  41.03700 47.32200 25.93600
C  40.91400 46.44200 29.39500
O  40.35200 47.48800 29.63200
C  41.42400 45.36600 30.38600
C  42.38300 46.06300 31.28400
O  43.54000 46.24900 31.07400
O  41.77100 46.61300 32.42700
C  42.70800 47.25700 33.31100
H  44.41000 39.09600 30.44600
H  45.65400 39.96800 24.14300
H  42.76800 45.67800 24.19800
H  42.98500 43.12900 32.30700
H  42.17900 40.25100 31.95500
H  43.72800 40.03800 33.42200
H  44.35700 41.71500 33.36600
H  44.82200 40.30300 32.26400
H  40.76900 41.67700 32.98800
H  40.26600 42.54400 31.56700
H  40.05300 44.59200 33.23400
H  41.55500 44.02900 33.80000
H  45.72500 36.49300 28.61400
H  45.84000 37.55000 30.03000
H  47.20200 37.42000 28.97000
H  46.85400 36.23300 26.66900
H  48.37000 37.00500 27.16600
H  48.17600 36.50500 25.45800
H  44.72300 41.73700 22.24700
H  44.79000 44.63300 22.89800
H  47.12900 42.47400 23.84200
H  46.68500 43.63300 22.61000
H  47.00400 41.85400 22.23100
H  43.44600 43.09800 21.09900
H  43.01800 44.68800 21.48000
H  41.13800 44.03900 22.80200
H  41.56600 42.34200 22.93100
H  41.12000 42.89800 21.39600
H  40.63100 47.07400 24.95600
H  41.76900 48.11500 25.78900
H  40.06700 47.56200 26.37300
H  40.51500 44.89700 30.76200
H  43.01200 48.19000 32.83700
H  43.63400 46.73100 33.54400
H  42.17000 47.55900 34.21000

