158

Mg 30.80900 58.06800 40.44100
C  28.34500 55.92100 38.91500
C  33.21900 56.06300 39.20500
C  33.06300 60.58400 41.17200
C  28.19900 60.46200 40.83400
N  30.78700 56.03800 39.38000
C  29.65200 55.50000 38.67500
C  30.14900 54.35300 37.79600
C  31.67400 54.26600 38.22000
C  31.95200 55.54000 38.95500
C  31.93100 52.98900 39.06400
C  29.86200 54.69800 36.39400
C  29.63000 53.55400 35.37700
H  28.61000 53.85700 34.29100
N  32.92400 58.20600 40.30400
C  33.70400 57.27900 39.82300
C  35.09100 57.68100 39.97200
C  35.03800 58.95000 40.59500
C  33.65100 59.31300 40.66800
C  36.26200 56.80300 39.47000
C  36.28400 59.72900 40.96400
O  37.38500 59.17900 40.77600
C  36.35200 61.10800 41.50700
N  30.65800 60.24600 40.84900
C  31.73600 60.97900 41.26100
C  31.41400 62.34300 41.75200
C  29.81000 62.41700 41.52800
C  29.51900 60.98400 40.95100
C  31.73200 62.52600 43.19500
C  29.26800 63.57500 40.68400
C  28.79600 64.88500 41.51000
N  28.70500 58.16700 40.09500
C  27.83800 59.26900 40.23000
C  26.49200 58.85200 39.89800
C  26.63200 57.48700 39.45600
C  27.99400 57.14700 39.57700
C  25.30400 59.72700 40.04700
C  25.94600 56.35400 38.85300
O  24.71300 56.24500 38.63600
C  27.04000 55.34600 38.46600
C  26.81500 53.94200 38.95800
O  27.05900 53.57900 40.12700
O  26.48800 53.14800 37.93800
C  26.03700 51.77900 38.29800
H  34.01000 55.55500 38.65000
H  33.70100 61.38400 41.55300
H  27.48000 61.20600 41.18300
H  29.58700 53.46400 38.08200
H  32.35900 54.31400 37.37300
H  32.86800 52.55600 38.71400
H  31.14200 52.24200 38.98800
H  32.02900 53.22300 40.12400
H  30.72800 55.23400 36.00700
H  29.04300 55.41500 36.33800
H  29.46500 52.60300 35.88300
H  30.58700 53.46500 34.86300
H  37.09300 57.45200 39.19200
H  35.94900 56.23200 38.59600
H  36.63600 56.16400 40.27000
H  37.41300 61.23200 41.72200
H  35.79500 61.14000 42.44400
H  36.08100 61.86100 40.76700
H  31.85100 63.09800 41.09900
H  29.27700 62.40500 42.47900
H  32.64200 61.98400 43.45300
H  31.02200 62.10100 43.90500
H  31.79000 63.55100 43.56300
H  28.31100 63.39400 40.19400
H  30.13300 63.67400 40.02900
H  29.01300 64.70100 42.56200
H  27.75600 65.07200 41.24100
H  29.32000 65.70700 41.02400
H  25.48200 60.72600 39.64900
H  25.14000 59.70500 41.12400
H  24.47100 59.25800 39.52300
H  26.97800 55.35800 37.37800
H  26.80900 51.13800 38.72200
H  25.59200 51.33200 37.40900
H  25.20400 51.87700 38.99400
Mg -5.70900 25.13900 26.34500
C  -4.39300 26.63000 29.28300
C  -7.52600 22.99300 28.17400
C  -7.07400 23.90500 23.56500
C  -3.71000 27.32500 24.53200
N  -5.90800 24.93700 28.49400
C  -5.34200 25.61400 29.53000
C  -5.95100 25.10300 30.93300
C  -6.51800 23.73400 30.49700
C  -6.64900 23.86600 28.96100
C  -5.53100 22.59700 30.92000
C  -7.06200 26.04600 31.49300
C  -7.56000 25.78400 32.89800
H  -6.68200 24.81700 33.83000
N  -7.20400 23.69800 25.86600
C  -7.78900 22.87600 26.79700
C  -8.75500 22.00100 26.12300
C  -8.56500 22.21000 24.72400
C  -7.57300 23.28400 24.62400
C  -9.74800 21.10600 26.87000
C  -9.26800 21.50700 23.57500
O  -8.93000 21.73900 22.41000
C  -10.42600 20.45300 23.79300
N  -5.42300 25.56700 24.37500
C  -6.13500 24.91600 23.33900
C  -5.62400 25.44200 21.95900
C  -4.72200 26.64200 22.33500
C  -4.63800 26.53800 23.84500
C  -4.93900 24.28900 21.09400
C  -5.24500 27.91300 21.78100
C  -5.16000 28.13700 20.20700
N  -4.18200 26.63700 26.77800
C  -3.43300 27.40100 25.89900
C  -2.37500 28.13200 26.68200
C  -2.79000 27.88100 28.03300
C  -3.89400 26.98700 28.04700
C  -1.40400 29.17000 26.17700
C  -2.61700 28.30400 29.43600
O  -1.88900 29.15400 29.89800
C  -3.64300 27.47100 30.26900
C  -2.88300 26.68700 31.29300
O  -2.46600 25.54700 31.20500
O  -2.87100 27.42400 32.52600
C  -2.06200 26.80200 33.53200
H  -8.06400 22.41700 28.93000
H  -7.50800 23.57500 22.61900
H  -3.00500 27.84700 23.88000
H  -5.15900 24.92900 31.66100
H  -7.42700 23.58400 31.07900
H  -4.47100 22.85100 30.90400
H  -5.68600 21.77800 30.21800
H  -5.75500 22.40500 31.96900
H  -7.83800 26.04400 30.72800
H  -6.66700 27.05800 31.41000
H  -8.55700 25.34400 32.88800
H  -7.57800 26.71600 33.46200
H  -9.56800 20.03400 26.78700
H  -10.80000 21.11100 26.58200
H  -9.71100 21.50700 27.88200
H  -10.75600 19.94700 22.88600
H  -11.31000 20.96700 24.17000
H  -10.11900 19.69600 24.51500
H  -6.52500 25.80000 21.46100
H  -3.72000 26.44000 21.95400
H  -5.39600 24.13500 20.11700
H  -5.24100 23.36600 21.58800
H  -3.86300 24.34900 20.93100
H  -4.60600 28.73700 22.09800
H  -6.25800 28.12200 22.12400
H  -4.90600 27.20500 19.70200
H  -4.52300 28.99500 19.99400
H  -6.15600 28.47200 19.91500
H  -1.97700 29.95700 25.68900
H  -0.57400 28.80000 25.57500
H  -0.78700 29.67800 26.91800
H  -4.42200 28.05800 30.75700
H  -2.50300 25.84300 33.80500
H  -2.04900 27.47600 34.38900
H  -1.03400 26.69000 33.19000

