158

Mg 2.20800 -1.00300 44.72800
C  5.64400 -0.20000 43.96800
C  1.36600 1.57600 42.76500
C  -0.80200 -2.33800 44.56100
C  3.56500 -4.07200 46.09900
N  3.43500 0.49500 43.47600
C  4.76700 0.69000 43.39700
C  5.12400 2.00800 42.76900
C  3.70300 2.70400 42.71900
C  2.76400 1.54200 43.04700
C  3.41900 3.85700 43.70300
C  5.79500 1.78700 41.35000
C  6.93900 2.68400 40.91800
H  6.79600 3.34600 39.51100
N  0.48200 -0.36800 43.97900
C  0.32500 0.69100 43.13500
C  -1.04500 0.85400 42.69500
C  -1.72500 -0.27800 43.17400
C  -0.66500 -1.04300 43.92000
C  -1.63300 1.96600 41.80400
C  -3.11500 -0.55000 43.05500
O  -3.87300 0.12300 42.40300
C  -3.80600 -1.57300 43.82800
N  1.53500 -3.01500 45.08100
C  0.16300 -3.16600 45.27500
C  -0.24800 -4.44800 45.98600
C  1.19600 -5.08300 46.16600
C  2.20700 -3.96400 45.86400
C  -1.12700 -4.27700 47.29900
C  1.59900 -6.27800 45.25900
C  1.81500 -7.61200 46.04800
N  4.20700 -1.92200 45.14400
C  4.56800 -3.06800 45.87400
C  5.98500 -3.14900 46.00200
C  6.42900 -1.99900 45.28000
C  5.31500 -1.34400 44.77000
C  6.75400 -4.27800 46.70200
C  7.61900 -1.34100 44.85900
O  8.81500 -1.68500 44.84800
C  7.18500 -0.01300 44.10200
C  7.47100 1.10100 45.04400
O  6.69200 1.61100 45.77800
O  8.76200 1.54700 44.93100
C  9.36400 2.79600 45.53700
H  1.13200 2.48100 42.20100
H  -1.73200 -2.90900 44.58400
H  3.81200 -5.00500 46.60800
H  5.78000 2.62300 43.38500
H  3.63700 3.03100 41.68200
H  3.23700 3.43700 44.69300
H  2.63700 4.52800 43.34800
H  4.22600 4.54200 43.96400
H  5.03900 1.84400 40.56800
H  6.27500 0.80900 41.33100
H  7.82100 2.06000 40.77400
H  7.12500 3.52800 41.58200
H  -2.07000 1.72000 40.83600
H  -0.86900 2.73700 41.70400
H  -2.42900 2.34300 42.44600
H  -4.88500 -1.42100 43.80800
H  -3.36400 -1.52800 44.82400
H  -3.64500 -2.56100 43.39500
H  -0.83200 -5.02400 45.26800
H  1.37700 -5.30300 47.21800
H  -2.00500 -3.63200 47.31500
H  -0.55000 -3.96700 48.17100
H  -1.66400 -5.21800 47.41500
H  2.58100 -6.16800 44.80000
H  0.96500 -6.40600 44.38200
H  2.79600 -8.02200 45.80600
H  0.91600 -8.18000 45.80700
H  1.80300 -7.51300 47.13300
H  6.11500 -5.13900 46.50800
H  6.92900 -4.15300 47.77000
H  7.73400 -4.46800 46.26300
H  7.62800 0.13200 43.11700
H  8.57100 3.49000 45.81500
H  10.21000 3.31500 45.08500
H  9.85500 2.51600 46.46900
Mg -10.52500 17.45900 40.99800
C  -6.93500 16.81700 41.05000
C  -10.00500 20.58700 40.14900
C  -13.74700 17.51500 40.14300
C  -10.82400 13.91400 41.54300
N  -8.66600 18.53900 40.55800
C  -7.34900 18.20300 40.75800
C  -6.40700 19.41800 40.42400
C  -7.43900 20.57300 40.58400
C  -8.77500 19.87900 40.39800
C  -7.22600 21.36600 41.95700
C  -5.76800 19.32400 39.02000
C  -4.17900 19.06600 38.99800
H  -3.71300 18.08400 37.90200
N  -11.79900 18.94000 40.49800
C  -11.42100 20.24100 40.25100
C  -12.55900 21.01100 40.00500
C  -13.67300 20.09600 39.91100
C  -13.09600 18.77700 40.10200
C  -12.48000 22.48300 39.82500
C  -15.08900 20.49200 39.79300
O  -15.38200 21.64000 39.68900
C  -16.23800 19.50100 39.85800
N  -12.10700 15.83700 40.56400
C  -13.37200 16.20200 40.48100
C  -14.27900 15.01800 40.61900
C  -13.36700 13.91600 41.28800
C  -11.99600 14.53000 41.10900
C  -15.60100 15.38000 41.35900
C  -13.55400 12.47500 40.73700
C  -12.56400 11.91300 39.67800
N  -9.24500 15.75200 41.28100
C  -9.55600 14.38700 41.57400
C  -8.36400 13.66700 41.73300
C  -7.31700 14.60900 41.70500
C  -7.85800 15.81900 41.25000
C  -8.24000 12.13200 41.92500
C  -5.87700 14.67800 41.84200
O  -5.08400 13.80300 42.19500
C  -5.56900 16.14200 41.32000
C  -4.66200 16.97900 42.26000
O  -3.43500 17.09500 42.20000
O  -5.42600 17.56200 43.11900
C  -4.70200 18.33600 44.14300
H  -9.94100 21.67000 40.02600
H  -14.82500 17.48600 39.97300
H  -10.92500 12.93400 42.01500
H  -5.70500 19.40000 41.25700
H  -7.25000 21.25100 39.75200
H  -6.66300 22.28900 41.81800
H  -6.67800 20.66900 42.59000
H  -8.12900 21.65500 42.49500
H  -5.94500 20.13800 38.31700
H  -6.29500 18.49000 38.55600
H  -3.79600 18.68400 39.94400
H  -3.62900 20.00300 38.92300
H  -12.51400 22.66600 38.75200
H  -11.64600 23.01900 40.27700
H  -13.31900 22.98100 40.31100
H  -16.03300 19.04600 38.88900
H  -17.25000 19.89600 39.95200
H  -16.19400 18.72900 40.62700
H  -14.54800 14.64500 39.63100
H  -13.50000 14.05100 42.36200
H  -15.34900 16.20300 42.02700
H  -16.04800 14.59300 41.96700
H  -16.34300 15.61400 40.59500
H  -14.55700 12.37500 40.32100
H  -13.54600 11.83900 41.62200
H  -12.04000 12.67600 39.10100
H  -13.06600 11.32400 38.91100
H  -11.87500 11.27900 40.23500
H  -8.95400 11.82200 42.68700
H  -7.24500 11.86600 42.28200
H  -8.43000 11.54700 41.02400
H  -4.96800 15.92100 40.43800
H  -5.52000 18.85300 44.64300
H  -4.05400 19.02200 43.59700
H  -4.14300 17.65400 44.78400

