158

Mg 17.77400 -1.90000 26.11200
C  16.81400 -0.08100 29.04200
C  19.50000 -4.00600 28.28500
C  18.72500 -3.47800 23.37700
C  16.31200 0.62400 24.19400
N  18.24600 -1.82500 28.39500
C  17.61800 -1.16700 29.36000
C  17.96500 -1.68000 30.78400
C  19.09100 -2.76300 30.43900
C  18.89000 -2.89900 28.94800
C  20.56100 -2.41300 30.85300
C  16.75700 -2.28500 31.60300
C  16.76100 -1.95500 33.14800
H  18.10400 -1.98200 33.84600
N  18.83900 -3.64000 25.87300
C  19.46900 -4.40200 26.84200
C  20.09300 -5.55800 26.14700
C  19.88000 -5.41000 24.66000
C  19.20300 -4.15300 24.60900
C  20.85100 -6.66600 26.86000
C  20.31100 -6.33900 23.53000
O  19.97000 -6.09600 22.38100
C  21.09900 -7.60900 23.92700
N  17.72500 -1.36700 24.07300
C  18.08800 -2.22400 23.08500
C  18.00500 -1.52700 21.70400
C  17.00200 -0.32400 21.99000
C  17.02300 -0.32800 23.52200
C  19.37100 -1.16800 21.10600
C  15.59400 -0.42300 21.39400
C  15.19300 0.74700 20.43100
N  16.74600 -0.20800 26.48100
C  16.07600 0.63100 25.58900
C  15.29200 1.54700 26.27100
C  15.56700 1.35600 27.63100
C  16.45700 0.22200 27.67900
C  14.38600 2.55700 25.61500
C  15.38200 1.86200 28.99300
O  14.83500 2.90400 29.40100
C  16.12500 0.87700 29.94400
C  17.11500 1.65800 30.73300
O  17.97600 2.40100 30.25700
O  17.06300 1.43900 32.12200
C  17.90200 2.18800 33.03300
H  20.05100 -4.65500 28.96900
H  19.04600 -3.93800 22.44000
H  15.83500 1.40500 23.59800
H  18.46500 -0.87100 31.31600
H  18.89600 -3.72400 30.91400
H  20.61500 -1.36400 31.14700
H  21.26300 -2.39400 30.01900
H  20.94500 -3.04300 31.65500
H  16.81200 -3.37300 31.59800
H  15.76000 -2.04100 31.23700
H  16.19100 -2.76400 33.60600
H  16.36000 -0.97600 33.41300
H  20.99300 -6.62700 27.94000
H  21.84700 -6.62400 26.42000
H  20.48700 -7.64800 26.55900
H  20.51600 -8.18700 24.64400
H  22.05800 -7.25100 24.29900
H  21.18700 -8.19500 23.01100
H  17.46800 -2.25300 21.09300
H  17.40800 0.63600 21.67100
H  19.67900 -0.14000 21.29800
H  19.18700 -1.32300 20.04300
H  20.20900 -1.74300 21.49900
H  14.83200 -0.53400 22.16500
H  15.46500 -1.38700 20.90200
H  14.28600 1.22700 20.79800
H  15.06800 0.31700 19.43700
H  15.97000 1.49100 20.25600
H  13.46600 2.02200 25.38300
H  14.91500 3.04800 24.79800
H  14.09400 3.31300 26.34500
H  15.48200 0.32600 30.63100
H  17.26600 2.90200 33.55800
H  18.69500 2.83200 32.65400
H  18.42200 1.39900 33.57500
Mg 15.69000 51.04700 25.51000
C  17.72500 50.48800 28.30500
C  13.13100 51.86000 27.58800
C  13.78800 51.43200 22.78400
C  18.44700 50.27700 23.44100
N  15.52900 51.37000 27.71800
C  16.45100 50.94700 28.64500
C  16.01200 51.15100 30.09000
C  14.45000 51.30800 29.82400
C  14.35300 51.69200 28.29500
C  13.53400 50.07300 30.29800
C  16.68800 52.41700 30.72500
C  16.79400 52.53100 32.18800
H  15.84800 51.72600 33.08800
N  13.71200 51.53400 25.18300
C  12.75900 51.76900 26.16700
C  11.46900 52.00900 25.52800
C  11.65800 51.97900 24.14300
C  13.13500 51.55900 23.97400
C  10.20000 52.34400 26.28500
C  10.74200 52.15300 22.97300
O  11.06600 52.03800 21.80600
C  9.29400 52.45200 23.31000
N  16.08300 50.94700 23.42100
C  15.13100 51.15600 22.49600
C  15.72500 51.15900 21.01800
C  17.27500 51.03200 21.31900
C  17.30300 50.69500 22.83300
C  15.14000 50.02600 20.13300
C  18.18000 52.21400 20.92200
C  18.86200 52.21500 19.56300
N  17.70300 50.30200 25.74400
C  18.69900 50.09300 24.82600
C  19.85100 49.66700 25.57100
C  19.56600 49.89400 26.94000
C  18.20200 50.28600 26.99200
C  21.12900 49.36600 24.84800
C  20.13900 49.85400 28.29100
O  21.20000 49.49100 28.66100
C  18.97000 50.32400 29.14100
C  18.76300 49.44100 30.33000
O  17.99300 48.54900 30.27900
O  19.51400 49.82900 31.38100
C  19.37300 49.05000 32.59900
H  12.29900 52.05800 28.26600
H  13.22200 51.46400 21.85000
H  19.25600 50.17200 22.71400
H  16.17300 50.30600 30.76000
H  14.05300 52.16000 30.37600
H  12.80000 50.36000 31.05000
H  14.21100 49.31200 30.68600
H  12.89200 49.64400 29.52900
H  16.10100 53.30000 30.47300
H  17.69300 52.61800 30.35500
H  16.60500 53.55100 32.52400
H  17.82600 52.34300 32.48500
H  9.30100 51.73300 26.21100
H  9.89900 53.35200 25.99800
H  10.31800 52.32800 27.36800
H  9.12900 53.35900 23.89200
H  8.86300 51.54800 23.74000
H  8.87000 52.51100 22.30700
H  15.56500 52.11500 20.51900
H  17.68400 50.14500 20.83600
H  14.68400 49.22100 20.70800
H  15.90300 49.57500 19.49900
H  14.36900 50.50900 19.53200
H  18.98000 52.23500 21.66200
H  17.80300 53.21300 21.14000
H  19.71000 51.53600 19.65200
H  19.23900 53.20700 19.31800
H  18.22500 51.82200 18.77100
H  21.55800 50.21200 24.30900
H  21.05700 48.44600 24.26900
H  21.82500 49.13800 25.65500
H  19.38400 51.22800 29.58800
H  19.99100 49.58200 33.32300
H  19.67000 48.00400 32.66500
H  18.34600 49.09100 32.96100

