158

Mg 35.03800 2.59000 29.55400
C  33.16000 3.68700 32.40100
C  37.72100 2.69200 31.64500
C  36.90900 1.36800 27.06900
C  32.37700 3.23600 27.51000
N  35.29100 2.89400 31.83600
C  34.47700 3.29500 32.78400
C  35.05600 3.41100 34.20900
C  36.54900 3.33300 33.83800
C  36.54700 3.04800 32.33700
C  37.42500 4.53900 34.17300
C  34.57300 2.16700 35.05700
C  34.40000 2.29800 36.58100
H  35.30900 3.30900 37.29000
N  36.99000 1.92000 29.43700
C  37.91200 2.07800 30.39500
C  39.16900 1.53600 29.96800
C  38.98400 1.16000 28.60500
C  37.62000 1.46200 28.31800
C  40.42100 1.41300 30.81700
C  39.98400 0.53600 27.57800
O  39.65600 0.31900 26.43700
C  41.45900 0.27800 27.87200
N  34.77200 2.50500 27.57500
C  35.63500 1.79200 26.75800
C  34.99400 1.67300 25.33400
C  33.52500 1.84200 25.64800
C  33.52600 2.57900 26.93300
C  35.56700 2.81100 24.34800
C  32.77600 0.53400 25.72900
C  31.56200 0.22500 24.79700
N  33.22600 3.39500 29.79800
C  32.21100 3.57100 28.86500
C  31.02800 4.05400 29.54000
C  31.40000 4.19100 30.88400
C  32.73700 3.67900 31.01500
C  29.64400 4.35300 29.05900
C  30.78100 4.56700 32.11700
O  29.68900 4.97800 32.44800
C  31.96000 4.30400 33.13500
C  32.31600 5.55000 33.76600
O  33.23500 6.38000 33.51000
O  31.28000 5.85100 34.61500
C  31.27500 7.18600 35.19500
H  38.64600 2.60300 32.21900
H  37.47400 1.01500 26.20400
H  31.50600 3.40000 26.87300
H  34.83000 4.37400 34.66700
H  36.96000 2.45300 34.33300
H  38.38900 4.28900 34.61400
H  36.94900 5.07500 34.99300
H  37.64900 5.28300 33.40800
H  35.06300 1.21700 34.84400
H  33.55100 2.07200 34.68800
H  34.62700 1.32100 37.00600
H  33.34200 2.42400 36.81500
H  40.98000 0.53700 30.48600
H  40.25400 1.12300 31.85400
H  41.05000 2.30200 30.77500
H  41.93600 1.17200 28.27400
H  41.92600 0.16900 26.89300
H  41.53000 -0.57000 28.55400
H  35.20600 0.69600 24.90000
H  32.98900 2.44300 24.91300
H  36.48600 3.25600 24.73000
H  34.89700 3.61100 24.03400
H  35.87200 2.24500 23.46800
H  32.33000 0.47300 26.72200
H  33.43000 -0.33100 25.61900
H  31.63300 -0.81800 24.48700
H  31.58600 0.97900 24.01000
H  30.58800 0.26000 25.28500
H  29.19400 3.44600 28.65600
H  29.67600 5.08800 28.25500
H  29.02200 4.71300 29.87900
H  31.76100 3.61700 33.95700
H  32.26800 7.63200 35.24900
H  30.79300 7.08500 36.16700
H  30.60500 7.83200 34.62600
Mg 47.16100 25.50100 28.82400
C  47.76400 27.86600 31.34200
C  45.95700 23.31500 31.21500
C  46.80300 23.26100 26.45300
C  48.74600 27.75600 26.60200
N  46.73100 25.63700 31.02600
C  47.10200 26.69100 31.87500
C  46.90000 26.31100 33.32200
C  46.40700 24.80800 33.17200
C  46.29000 24.61800 31.67500
C  47.30400 23.76600 33.90600
C  45.86800 27.18000 34.07400
C  45.58700 26.73100 35.54300
H  45.71600 27.79400 36.63500
N  46.35900 23.62000 28.78500
C  45.95900 22.85700 29.86300
C  45.52500 21.53000 29.40600
C  45.61200 21.57300 28.03200
C  46.24200 22.87900 27.67600
C  44.89400 20.45500 30.32500
C  45.44600 20.45700 26.94200
O  45.40400 20.76500 25.75100
C  45.22200 19.05500 27.26100
N  47.61600 25.56200 26.86300
C  47.36600 24.49100 26.12700
C  47.91100 24.68300 24.65800
C  48.21800 26.23000 24.60100
C  48.12000 26.58900 26.08700
C  49.12100 23.78000 24.25300
C  47.11500 27.01700 23.90700
C  45.63100 26.83600 24.36100
N  48.06900 27.39300 28.91200
C  48.69700 28.14100 27.91400
C  49.33500 29.31700 28.48400
C  48.98500 29.26900 29.83300
C  48.16700 28.07900 30.03800
C  50.10800 30.32700 27.71000
C  49.03300 29.86400 31.15100
O  49.62300 30.87400 31.55100
C  48.27400 29.02900 32.15100
C  49.22000 28.57700 33.15700
O  50.14600 27.83900 33.04600
O  48.76400 29.02100 34.37600
C  49.67900 28.77700 35.45700
H  45.68500 22.55100 31.94600
H  46.79500 22.60200 25.58200
H  49.19200 28.37900 25.82300
H  47.80900 26.33100 33.92200
H  45.39100 24.85100 33.56400
H  48.08900 24.29200 34.44900
H  47.72300 23.03100 33.21800
H  46.66500 23.24200 34.61800
H  44.94600 27.10100 33.49700
H  46.18600 28.22000 34.00000
H  46.27800 25.89600 35.66200
H  44.57800 26.31800 35.52500
H  44.91500 20.75500 31.37200
H  45.48800 19.55700 30.15300
H  43.88700 20.17300 30.01700
H  46.23100 18.76600 27.55400
H  44.85600 18.56900 26.35600
H  44.47900 18.99000 28.05500
H  47.02600 24.49100 24.05000
H  49.17500 26.34600 24.09100
H  49.25300 22.90000 24.88100
H  50.07100 24.31000 24.17400
H  48.99900 23.29500 23.28400
H  47.18100 26.65300 22.88200
H  47.33200 28.08400 23.87000
H  45.08400 26.46300 23.49500
H  45.24800 27.82700 24.60400
H  45.38000 26.16300 25.18100
H  49.52300 30.73500 26.88600
H  51.08300 29.91000 27.45700
H  50.32300 31.17500 28.36100
H  47.31700 29.43100 32.48400
H  50.63900 29.27000 35.30200
H  49.74300 27.71900 35.70900
H  49.20100 29.20100 36.34000

