158

Mg 17.48400 -1.46500 27.59900
C  16.60100 0.62700 30.18000
C  19.54200 -3.19400 29.71500
C  18.51900 -3.32100 24.91000
C  15.77700 0.74500 25.46500
N  17.84900 -1.39400 29.70600
C  17.46300 -0.44600 30.60900
C  17.98700 -0.70500 32.03100
C  19.02400 -1.87700 31.81200
C  18.85700 -2.13000 30.30600
C  20.43000 -1.48100 32.21900
C  16.77100 -1.08100 32.91200
C  16.66800 -0.34800 34.31400
H  17.82100 0.33500 34.92300
N  18.75500 -3.10200 27.39100
C  19.51300 -3.69900 28.36000
C  20.19100 -4.89200 27.85100
C  19.81800 -5.04700 26.48900
C  19.00700 -3.74200 26.17000
C  21.10000 -5.75600 28.69100
C  20.18200 -6.20600 25.50300
O  19.89400 -6.19400 24.34700
C  20.80700 -7.44500 26.07400
N  17.38700 -1.20700 25.49900
C  17.84800 -2.11600 24.57000
C  17.59800 -1.67300 23.15700
C  16.62700 -0.48200 23.35900
C  16.59700 -0.25100 24.86100
C  18.92300 -1.27400 22.46200
C  15.20300 -0.66200 22.77200
C  14.98500 0.14700 21.47600
N  16.36600 0.26500 27.79200
C  15.66500 1.03800 26.82200
C  14.94700 2.12100 27.44300
C  15.38200 2.07700 28.79000
C  16.15900 0.93200 28.93200
C  13.98700 3.14300 26.83200
C  15.35400 2.77400 30.08500
O  14.75900 3.79400 30.33500
C  15.95700 1.78000 31.06000
C  16.91400 2.55100 31.91100
O  18.10100 2.64300 31.80200
O  16.08700 3.26100 32.68400
C  16.78600 4.26000 33.50500
H  20.21800 -3.70500 30.40400
H  18.85700 -3.88200 24.03600
H  15.24400 1.35000 24.72900
H  18.49000 0.15300 32.47600
H  18.80900 -2.78600 32.37400
H  20.37900 -0.62900 32.89700
H  21.02300 -1.25000 31.33500
H  20.94100 -2.22700 32.82800
H  16.66000 -2.14200 33.13500
H  15.81500 -0.88500 32.42800
H  16.31500 -1.09800 35.02200
H  15.86700 0.39000 34.27000
H  22.07300 -5.95200 28.24100
H  20.62600 -6.70300 28.94800
H  21.23200 -5.22100 29.63100
H  20.88600 -8.28500 25.38400
H  20.29900 -7.69100 27.00700
H  21.83400 -7.26600 26.39500
H  17.07000 -2.46400 22.62400
H  17.12600 0.38100 22.91900
H  18.94700 -0.25300 22.07900
H  19.06000 -1.91300 21.58900
H  19.86700 -1.34100 23.00200
H  14.50600 -0.31700 23.53600
H  15.03000 -1.72600 22.60900
H  14.55400 -0.58700 20.79600
H  15.99100 0.32200 21.09700
H  14.46900 1.09800 21.61400
H  13.26800 2.69900 26.14300
H  14.56100 3.80500 26.18500
H  13.46800 3.76600 27.56000
H  15.21000 1.25400 31.65400
H  16.95400 5.16100 32.91600
H  17.63000 3.75700 33.97600
H  16.18800 4.65300 34.32700
Mg -5.80000 25.05300 26.23500
C  -4.07600 26.72500 28.76800
C  -7.37600 23.21900 28.74100
C  -7.23900 23.21300 23.79000
C  -3.87700 26.74700 23.90900
N  -5.73100 25.00800 28.44600
C  -4.93800 25.77800 29.26000
C  -5.34600 25.46800 30.73200
C  -6.12100 24.10600 30.69500
C  -6.43000 24.09100 29.20400
C  -5.22600 22.88100 31.18500
C  -6.24400 26.53900 31.41700
C  -6.19300 26.61300 32.98700
H  -5.75000 25.36700 33.77900
N  -7.19300 23.62700 26.25300
C  -7.76800 23.00100 27.35300
C  -8.77700 22.05000 26.97100
C  -8.73200 21.99100 25.48200
C  -7.64900 22.94400 25.09300
C  -9.61100 21.18800 27.94300
C  -9.56900 21.08100 24.56300
O  -9.50000 21.06400 23.35500
C  -10.62900 20.09500 25.13700
N  -5.41400 24.76700 24.18800
C  -6.16600 24.00800 23.38900
C  -5.63600 24.09200 21.94300
C  -4.89400 25.45000 21.91900
C  -4.69600 25.72200 23.43500
C  -4.81700 22.86600 21.40400
C  -5.60800 26.64500 21.15800
C  -4.69600 27.51800 20.30500
N  -4.36000 26.51400 26.26800
C  -3.64600 27.15900 25.25700
C  -2.79900 28.16300 25.78500
C  -2.95000 28.05000 27.15200
C  -3.87300 27.00500 27.38200
C  -2.00300 29.24900 25.06000
C  -2.62100 28.61100 28.43300
O  -1.97100 29.63700 28.67900
C  -3.24000 27.74400 29.52800
C  -2.16700 27.32500 30.51400
O  -0.98500 27.17900 30.29500
O  -2.72700 27.37800 31.78600
C  -1.78700 27.17200 32.86700
H  -7.76400 22.58300 29.54000
H  -7.61900 22.49800 23.05700
H  -3.42700 27.35700 23.12400
H  -4.48500 25.34800 31.39000
H  -7.03100 24.30000 31.26400
H  -4.27800 23.27000 31.55500
H  -4.96400 22.18200 30.39100
H  -5.67700 22.28800 31.98100
H  -7.17400 26.34300 30.88400
H  -5.92500 27.49400 31.00000
H  -7.17100 26.96100 33.32000
H  -5.47600 27.42000 33.13500
H  -10.64700 21.24800 27.60900
H  -9.59000 21.59300 28.95500
H  -9.29400 20.14500 27.95100
H  -11.08400 19.50200 24.34300
H  -11.35100 20.72900 25.65200
H  -10.20300 19.34700 25.80600
H  -6.54000 24.16100 21.33700
H  -3.86200 25.34900 21.58300
H  -5.59600 22.14900 21.14800
H  -4.13600 22.36000 22.08800
H  -4.24400 23.11600 20.51100
H  -6.08000 27.35100 21.84100
H  -6.37200 26.22300 20.50500
H  -5.18600 27.51200 19.33200
H  -3.70900 27.07700 20.16700
H  -4.53700 28.47600 20.80000
H  -1.96300 29.08500 23.98400
H  -0.99600 29.37600 25.45700
H  -2.56000 30.18600 25.03100
H  -3.78600 28.45400 30.14900
H  -0.90100 27.79700 32.75800
H  -1.53000 26.12200 33.00500
H  -2.18300 27.44900 33.84400

