158

Mg 47.40400 14.37600 27.41800
C  45.41900 14.27400 30.31400
C  49.61500 16.43200 29.10100
C  49.24600 14.30600 24.64000
C  44.88200 12.54600 25.77100
N  47.50300 15.21900 29.45100
C  46.64100 14.95000 30.53100
C  47.13900 15.65000 31.77500
C  48.24700 16.57600 31.25000
C  48.45600 16.05500 29.80500
C  47.98400 18.16600 31.21100
C  47.54600 14.67300 32.90500
C  47.16200 15.21200 34.28200
H  48.03600 14.83900 35.49500
N  49.19000 15.35400 26.93400
C  49.97100 16.07200 27.79100
C  51.19100 16.43500 27.12600
C  51.14700 15.84000 25.81700
C  49.83400 15.09500 25.72000
C  52.31200 17.23800 27.76700
C  52.07000 15.84500 24.70800
O  51.91500 15.17000 23.66900
C  53.36900 16.65800 24.76000
N  46.93100 13.74600 25.38100
C  47.93500 13.75300 24.46200
C  47.52500 13.13500 23.14000
C  46.15200 12.43100 23.53400
C  45.98700 12.86200 24.99100
C  47.42800 14.08000 21.93100
C  46.21800 10.89600 23.33800
C  46.68600 10.09600 24.55800
N  45.56800 13.57800 27.88100
C  44.63100 12.90500 27.09300
C  43.47900 12.55900 27.91300
C  43.73000 13.07100 29.14900
C  45.01200 13.65600 29.13800
C  42.25400 11.85300 27.57700
C  43.19300 13.29800 30.41700
O  42.12600 13.03200 30.87800
C  44.31500 13.98400 31.34000
C  43.67900 15.15600 32.09100
O  43.06300 16.04100 31.48400
O  43.79500 15.14600 33.43600
C  42.97300 16.19100 34.09400
H  50.24900 17.17600 29.58800
H  49.76900 14.18600 23.69000
H  44.22400 11.88200 25.20800
H  46.29500 16.32700 31.91100
H  49.22900 16.32000 31.64600
H  47.20700 18.50300 31.89700
H  47.65600 18.49000 30.22400
H  48.85800 18.80700 31.32100
H  48.61600 14.48000 32.82900
H  47.00800 13.73200 32.79300
H  46.19900 14.75400 34.50800
H  47.05200 16.29300 34.37100
H  52.33200 17.25700 28.85600
H  52.12700 18.29600 27.57900
H  53.34100 17.02300 27.47700
H  54.14900 16.09700 25.27600
H  53.24500 17.65900 25.17100
H  53.69300 16.83000 23.73400
H  48.28000 12.40500 22.85000
H  45.30800 12.82500 22.96700
H  47.87500 15.03700 22.19900
H  46.38300 14.14600 21.62600
H  48.02600 13.66000 21.12200
H  46.88800 10.54800 22.55300
H  45.20500 10.58600 23.08000
H  47.16200 9.15800 24.27100
H  45.83100 9.59900 25.01600
H  47.41600 10.58200 25.20600
H  42.04000 12.10800 26.53900
H  41.47800 12.29000 28.20600
H  42.24500 10.78900 27.81200
H  44.65000 13.28500 32.10600
H  41.99600 16.17300 33.61100
H  43.56200 17.10700 34.06000
H  42.88900 15.93400 35.15000
Mg 36.03600 49.86300 25.47800
C  36.06500 48.02100 28.51100
C  35.68800 52.73400 27.24600
C  35.87700 51.27400 22.54200
C  36.41800 46.63500 23.92900
N  35.72500 50.27300 27.61200
C  35.86400 49.42000 28.68200
C  35.83300 50.22500 30.04000
C  35.60800 51.65600 29.57600
C  35.69900 51.59200 28.05400
C  34.41000 52.39200 30.07800
C  37.05200 50.01700 30.92500
C  36.75100 49.81900 32.44700
H  35.32200 49.81200 32.96300
N  35.80100 51.75300 24.98800
C  35.80800 52.80000 25.84200
C  35.78700 53.96300 25.11300
C  35.86100 53.66900 23.70300
C  35.84600 52.14000 23.66000
C  35.72100 55.32200 25.64300
C  35.91700 54.64100 22.41800
O  35.86700 54.11700 21.30700
C  35.94500 56.26600 22.47900
N  36.03300 49.07500 23.49900
C  36.06600 49.89500 22.42500
C  36.26200 49.15100 21.10000
C  36.64300 47.65100 21.52900
C  36.41100 47.79400 23.14000
C  34.97700 49.26200 20.11000
C  38.09600 47.26600 21.21400
C  38.22900 45.75500 21.07700
N  36.19400 47.86300 26.03100
C  36.29700 46.68300 25.26900
C  36.32000 45.46000 26.06600
C  36.24700 45.97000 27.37600
C  36.08800 47.40500 27.30700
C  36.46300 44.00400 25.58800
C  36.42500 45.57100 28.74000
O  36.63000 44.46900 29.24500
C  36.23400 46.85800 29.60400
C  34.99000 46.59800 30.38100
O  33.86800 46.79700 29.93900
O  35.26100 46.04600 31.59800
C  34.03800 45.68800 32.36500
H  35.64000 53.67100 27.80600
H  36.02100 51.73000 21.56000
H  36.57400 45.70300 23.38300
H  34.86000 49.85100 30.35600
H  36.45000 52.30500 29.81800
H  33.94500 53.04900 29.34300
H  34.72600 53.04400 30.89300
H  33.60500 51.79200 30.50500
H  37.71800 50.87800 30.86100
H  37.60700 49.16600 30.53000
H  37.33400 50.63100 32.88100
H  37.12600 48.83300 32.72300
H  36.29400 56.01800 25.02900
H  36.13800 55.47400 26.63800
H  34.65400 55.52600 25.55800
H  36.83500 56.59500 23.01600
H  35.14300 56.54900 23.16100
H  35.87200 56.67600 21.47200
H  37.13300 49.70300 20.74700
H  35.99900 46.87400 21.11900
H  35.24000 49.90300 19.26800
H  34.19600 49.77100 20.67500
H  34.66000 48.28800 19.73700
H  38.65000 47.53700 22.11300
H  38.46900 47.77000 20.32300
H  37.33500 45.21700 20.76100
H  38.61700 45.31400 21.99500
H  38.89400 45.65500 20.22000
H  36.41700 43.30700 26.42500
H  37.43500 43.81700 25.13300
H  35.62800 43.81400 24.91300
H  37.05200 46.97600 30.31400
H  33.90700 44.60700 32.33500
H  33.19600 46.27200 31.99400
H  34.15400 46.09000 33.37100

