158

Mg 16.41800 -2.27300 27.54200
C  15.45500 -0.26600 30.21900
C  18.39400 -4.06900 29.66400
C  17.44900 -4.20700 24.89500
C  14.47800 -0.29300 25.40800
N  16.96500 -2.05400 29.73400
C  16.27300 -1.28700 30.67800
C  16.93000 -1.47900 32.04400
C  17.90600 -2.72400 31.84900
C  17.83400 -2.93400 30.28900
C  19.29200 -2.66100 32.51100
C  15.76600 -1.84600 33.06200
C  15.81700 -1.02500 34.43400
H  17.08800 -0.29000 34.86200
N  17.73100 -3.87800 27.36300
C  18.45700 -4.46000 28.33800
C  19.14200 -5.62300 27.87500
C  18.85000 -5.73900 26.49500
C  17.93900 -4.61900 26.18400
C  19.70400 -6.54000 28.78800
C  19.38900 -6.69500 25.47500
O  19.03300 -6.74500 24.31200
C  20.33000 -7.83200 25.96800
N  16.17700 -2.19800 25.43800
C  16.64200 -3.16400 24.58000
C  16.03900 -2.95100 23.09400
C  14.88800 -1.95400 23.41600
C  15.18800 -1.41100 24.81900
C  17.13700 -2.26500 22.21500
C  13.44500 -2.55200 23.35100
C  13.00300 -3.14100 21.98700
N  15.23800 -0.69600 27.67800
C  14.56900 0.02200 26.72600
C  13.84200 1.08400 27.27700
C  14.13600 1.02400 28.65300
C  15.02300 -0.05300 28.86400
C  12.85000 1.93500 26.67400
C  13.78800 1.52600 29.94700
O  12.91100 2.40100 30.21000
C  14.56700 0.66500 31.00800
C  15.35200 1.68700 31.79900
O  16.50300 1.97800 31.60800
O  14.64200 2.02500 32.91100
C  15.28000 3.12800 33.67900
H  19.03300 -4.60100 30.37200
H  17.73600 -4.80100 24.02500
H  13.75800 0.18800 24.74300
H  17.39300 -0.51400 32.25100
H  17.54300 -3.70300 32.16000
H  19.34400 -1.83200 33.21700
H  20.15200 -2.63500 31.84100
H  19.50700 -3.58000 33.05500
H  15.72500 -2.91300 33.28100
H  14.80000 -1.68300 32.58400
H  15.61700 -1.72900 35.24200
H  14.99200 -0.31300 34.45500
H  20.03900 -7.52100 28.45000
H  19.05400 -6.71100 29.64700
H  20.59700 -6.09900 29.23000
H  21.22500 -7.42400 26.43700
H  20.69900 -8.40800 25.11900
H  19.93000 -8.53500 26.69900
H  15.70200 -3.93600 22.77000
H  15.04700 -1.03700 22.84800
H  17.96000 -2.20900 22.92700
H  16.85500 -1.32900 21.73300
H  17.30100 -2.89500 21.34100
H  12.75100 -1.82700 23.77700
H  13.48900 -3.36000 24.08100
H  12.91500 -4.22200 22.09500
H  13.76800 -3.00300 21.22300
H  12.02600 -2.75100 21.69900
H  12.92300 2.20300 25.62000
H  13.00800 2.89400 27.16800
H  11.83500 1.63200 26.93000
H  13.73500 0.19000 31.52800
H  14.65300 4.01600 33.60200
H  16.30800 3.38900 33.42500
H  15.33000 2.82900 34.72600
Mg 45.99300 17.05800 28.41700
C  44.52900 16.63000 31.70000
C  48.54500 18.58900 29.94000
C  47.11800 17.56600 25.33700
C  43.14600 15.34000 27.10300
N  46.40200 17.59500 30.56500
C  45.79000 17.30900 31.72700
C  46.52000 17.73800 32.94600
C  47.69200 18.49300 32.36700
C  47.54600 18.25300 30.84400
C  47.75200 20.04100 32.54200
C  47.05400 16.43100 33.73200
C  47.05100 16.46200 35.22600
H  46.90900 17.73900 36.03700
N  47.59100 17.98000 27.74400
C  48.56800 18.61800 28.55500
C  49.61300 19.10900 27.64900
C  49.19400 18.75200 26.28100
C  47.98100 18.05300 26.38100
C  50.75600 20.02600 27.95900
C  49.93700 19.00500 24.93400
O  49.45700 18.72900 23.86000
C  51.31700 19.63600 24.93600
N  45.18300 16.54500 26.60600
C  45.90400 16.90100 25.46700
C  45.12000 16.52600 24.17300
C  43.94600 15.66300 24.75400
C  44.06000 15.89800 26.21000
C  44.53000 17.78500 23.46200
C  44.00700 14.11600 24.44900
C  44.98600 13.29800 25.25300
N  44.19700 16.19300 29.20400
C  43.19100 15.52100 28.50700
C  42.12800 15.15700 29.45200
C  42.64700 15.50800 30.75000
C  43.89400 16.17100 30.55300
C  40.86800 14.39700 29.01300
C  42.34800 15.53300 32.12600
O  41.32400 15.16600 32.67600
C  43.55000 16.28700 32.86100
C  42.99600 17.45800 33.51800
O  42.58700 18.45500 32.90200
O  42.98300 17.27600 34.88600
C  42.38100 18.28600 35.68400
H  49.37900 19.17700 30.32900
H  47.47800 17.59500 24.30600
H  42.38700 14.65000 26.72800
H  45.89900 18.32900 33.61900
H  48.65100 18.16100 32.76300
H  47.52300 20.48500 31.57300
H  48.78900 20.22800 32.82200
H  47.04100 20.32100 33.31900
H  48.04000 16.08900 33.41700
H  46.32700 15.67100 33.44700
H  47.95900 15.96800 35.57300
H  46.19900 15.89300 35.59800
H  50.46300 21.02300 27.63000
H  51.68800 19.68600 27.50800
H  50.89100 20.08800 29.03900
H  52.08900 19.23400 25.59100
H  51.28900 20.67700 25.25800
H  51.54800 19.65600 23.87100
H  45.79900 16.01600 23.48900
H  42.98200 16.09100 24.48100
H  43.47500 17.87200 23.20300
H  45.10700 17.86300 22.54000
H  44.85000 18.62700 24.07600
H  44.28500 14.06000 23.39700
H  43.02400 13.66200 24.57400
H  44.55000 12.83800 26.13900
H  45.85200 13.89300 25.54300
H  45.36700 12.49600 24.61900
H  40.44500 14.87000 28.12600
H  40.17400 14.63200 29.81900
H  40.92800 13.34100 28.74900
H  44.04200 15.60800 33.55600
H  42.55500 19.25000 35.20700
H  42.93600 18.31600 36.62100
H  41.34500 17.96300 35.79200

