158

Mg 17.14400 51.99800 25.36600
C  18.94000 50.42000 27.98500
C  14.83800 53.09700 27.54500
C  15.29800 53.01200 22.77900
C  19.45800 50.37700 23.14800
N  16.92800 51.73800 27.56700
C  17.79200 51.06200 28.41400
C  17.43200 51.37700 29.89300
C  15.94600 52.09300 29.64000
C  15.89400 52.32900 28.16900
C  14.65600 51.36000 30.29000
C  18.43500 52.18800 30.67900
C  18.46000 52.04000 32.18900
H  17.37600 51.21900 32.86500
N  15.33200 52.97600 25.21200
C  14.56600 53.47500 26.17500
C  13.42400 54.19700 25.60100
C  13.51700 54.11000 24.15500
C  14.71800 53.31900 23.99100
C  12.31100 54.76600 26.56900
C  12.54600 54.74300 23.13300
O  12.66000 54.55800 21.94400
C  11.53800 55.65600 23.60900
N  17.44200 51.71300 23.33600
C  16.49400 52.27500 22.45600
C  16.86300 51.81900 20.98700
C  18.35500 51.28900 21.09800
C  18.45400 51.19500 22.58000
C  15.81900 50.71100 20.66900
C  19.44000 52.20000 20.50200
C  20.07600 53.33900 21.31000
N  18.90200 50.72500 25.46300
C  19.68900 50.16400 24.50000
C  20.80100 49.45200 25.08400
C  20.51300 49.48300 26.46600
C  19.33600 50.19700 26.60200
C  21.92900 48.72100 24.29300
C  20.96900 49.10100 27.82800
O  21.98200 48.50200 28.10300
C  19.99800 49.76800 28.77500
C  19.61500 48.80400 29.83400
O  18.80200 47.89100 29.74000
O  20.26500 49.06200 30.98300
C  19.79700 48.19600 32.10600
H  14.11100 53.45200 28.27800
H  14.72700 53.36600 21.91800
H  20.20700 49.92300 22.49700
H  17.34300 50.47500 30.49800
H  15.90400 53.05600 30.14900
H  14.18100 51.00900 29.37300
H  13.98800 51.99200 30.87500
H  15.04800 50.58200 30.94400
H  18.20000 53.23400 30.48300
H  19.35600 52.06700 30.10800
H  18.47700 53.03000 32.64400
H  19.39200 51.53800 32.44800
H  12.58200 55.78200 26.85600
H  12.35800 54.21800 27.50900
H  11.34300 54.65500 26.07800
H  10.78500 55.11900 24.18500
H  11.10600 56.16200 22.74600
H  12.03700 56.36500 24.26900
H  16.79200 52.69200 20.33800
H  18.33800 50.29800 20.64600
H  15.24000 50.96000 19.77900
H  15.14500 50.39600 21.46500
H  16.29500 49.78400 20.34900
H  19.11100 52.64200 19.56100
H  20.13100 51.47900 20.06500
H  21.10000 53.10000 21.59800
H  19.50200 53.61400 22.19500
H  20.20900 54.24700 20.72100
H  22.16200 49.15600 23.32100
H  21.74800 47.65900 24.12800
H  22.76900 48.94800 24.95000
H  20.59400 50.60100 29.14900
H  19.86000 48.80000 33.01200
H  20.40000 47.28800 32.11700
H  18.77900 47.81300 32.03300
Mg -12.90200 16.41700 42.63100
C  -10.17900 14.06300 42.33000
C  -10.92500 18.73900 41.08500
C  -15.54500 18.16000 42.11800
C  -14.64300 13.76900 44.00900
N  -10.85800 16.33400 41.69100
C  -9.89100 15.29700 41.80300
C  -8.58800 15.85900 41.19300
C  -8.79900 17.40900 41.08900
C  -10.30700 17.47300 41.33800
C  -7.87100 18.31200 42.07700
C  -8.12000 15.22300 39.83100
C  -6.56600 15.11900 39.61400
H  -6.04500 15.74900 38.29300
N  -13.14100 18.32200 41.87600
C  -12.22800 19.15200 41.29100
C  -12.83200 20.40100 41.07900
C  -14.27300 20.16000 41.15100
C  -14.38000 18.85700 41.77300
C  -12.00400 21.52400 40.63600
C  -15.30500 21.12700 40.58300
O  -14.95200 22.22500 40.07500
C  -16.79900 20.79400 40.63800
N  -14.88500 16.01300 42.99100
C  -15.82400 16.86100 42.65100
C  -17.19800 16.30100 42.95700
C  -16.90200 15.02300 43.77000
C  -15.37800 14.91100 43.58200
C  -18.09300 17.38500 43.69700
C  -17.56800 13.76600 43.28800
C  -17.92100 12.71700 44.26700
N  -12.50200 14.37300 43.09300
C  -13.30600 13.43200 43.72900
C  -12.61000 12.24300 44.01800
C  -11.36300 12.46300 43.42400
C  -11.37600 13.77100 42.89800
C  -13.14500 10.99600 44.63800
C  -10.11100 11.76300 43.11700
O  -9.74700 10.64400 43.39200
C  -9.30400 12.83700 42.28900
C  -7.96400 12.99900 43.00600
O  -7.76900 13.29000 44.19400
O  -6.96100 12.78500 42.15400
C  -5.67400 13.17800 42.70800
H  -10.17500 19.45100 40.73300
H  -16.45500 18.76300 42.11600
H  -15.24700 13.03400 44.54500
H  -7.92200 15.65300 42.03100
H  -8.66000 17.74600 40.06200
H  -8.46700 19.08200 42.56700
H  -7.13400 18.77100 41.41800
H  -7.33300 17.83100 42.89500
H  -8.56000 15.88000 39.08100
H  -8.50600 14.21700 39.66400
H  -6.47700 14.05200 39.81800
H  -5.97700 15.69600 40.32800
H  -12.39700 22.53800 40.55700
H  -11.66400 21.27800 39.63000
H  -11.04700 21.58800 41.15400
H  -17.12200 20.79700 41.67900
H  -17.03900 19.79200 40.28000
H  -17.30400 21.54900 40.03600
H  -17.67800 16.05800 42.00900
H  -17.14000 15.12400 44.82900
H  -17.52600 18.24100 44.06200
H  -18.49500 16.98500 44.62800
H  -18.89600 17.70600 43.03300
H  -16.90400 13.43100 42.49100
H  -18.49600 14.07200 42.80500
H  -17.54100 12.83300 45.28200
H  -17.63700 11.74000 43.87700
H  -19.00300 12.60300 44.32400
H  -12.43100 10.49200 45.28900
H  -13.47000 10.25000 43.91200
H  -14.08400 11.17600 45.16200
H  -9.13400 12.52300 41.25900
H  -5.05200 12.29800 42.87100
H  -5.51000 13.84400 43.55600
H  -5.24900 13.71300 41.85900

