158

Mg 0.80800 7.07800 25.63500
C  1.35000 9.02000 28.40100
C  0.82500 4.28000 27.55100
C  -0.43200 5.27900 23.05800
C  1.16100 9.81800 23.56600
N  1.06900 6.66800 27.71000
C  1.17000 7.66200 28.70000
C  1.16500 6.99900 30.07000
C  1.27500 5.45500 29.75100
C  1.02900 5.46700 28.21900
C  2.62400 4.78700 30.13600
C  -0.12000 7.39000 30.88300
C  0.20100 7.77900 32.38800
H  1.43200 7.31800 33.10200
N  0.37700 5.03200 25.28500
C  0.42500 4.08100 26.26100
C  0.09500 2.82500 25.62000
C  -0.41400 3.12700 24.33800
C  -0.22300 4.54900 24.15600
C  0.35700 1.52400 26.32000
C  -1.12400 2.20900 23.32100
O  -1.45300 2.43500 22.15400
C  -1.62200 0.84900 23.83300
N  0.62600 7.45200 23.59100
C  -0.00900 6.55700 22.75400
C  -0.18600 7.14200 21.39100
C  0.28000 8.62200 21.58200
C  0.82000 8.63900 22.99500
C  0.58800 6.41600 20.23600
C  -0.85400 9.70500 21.34300
C  -0.69400 10.55300 20.07500
N  1.36000 9.00900 25.86600
C  1.34300 10.07900 24.95300
C  1.52900 11.33100 25.67700
C  1.60700 10.90700 26.96800
C  1.43000 9.52900 27.05300
C  1.56700 12.72800 25.08800
C  1.83300 11.44700 28.36800
O  2.19200 12.60200 28.70900
C  1.55800 10.22800 29.29700
C  2.56400 10.07900 30.39600
O  3.63800 9.53000 30.35700
O  2.24700 11.01500 31.31000
C  3.32700 11.33800 32.22000
H  0.82200 3.40300 28.20000
H  -0.97000 4.79800 22.23900
H  1.20700 10.69300 22.91400
H  2.03600 7.30300 30.65000
H  0.46800 4.93200 30.26500
H  2.41400 3.77800 30.49000
H  3.16100 5.26000 30.95800
H  3.37600 4.70500 29.35100
H  -0.86000 6.59800 30.76600
H  -0.45100 8.27500 30.34000
H  -0.73000 7.48500 32.87200
H  0.19900 8.86800 32.42700
H  -0.57600 1.15700 26.74700
H  1.17500 1.56200 27.04000
H  0.74600 0.86000 25.54800
H  -0.81300 0.12600 23.73200
H  -2.32300 0.49000 23.08000
H  -2.15200 0.93500 24.78100
H  -1.27000 7.14100 21.27300
H  1.20100 8.89200 21.06500
H  1.40100 6.06100 20.86800
H  0.79300 7.10900 19.42000
H  0.06100 5.50200 19.96300
H  -0.96700 10.42300 22.15500
H  -1.84300 9.24500 21.35100
H  -1.69700 10.64300 19.65800
H  -0.09800 9.96800 19.37400
H  -0.25100 11.51000 20.34900
H  1.99000 12.72400 24.08400
H  2.13400 13.26100 25.85200
H  0.57900 13.15500 24.91600
H  0.63400 10.40700 29.84600
H  2.90400 11.99400 32.98100
H  4.29800 11.58900 31.79300
H  3.46300 10.35500 32.67200
Mg -2.10100 34.65900 26.18100
C  -3.53600 32.80300 28.81000
C  -0.58400 36.65100 28.53600
C  -1.02900 36.47200 23.67700
C  -3.82300 32.53700 23.94900
N  -2.32200 34.79200 28.47700
C  -2.73600 33.81300 29.38200
C  -2.29700 34.12200 30.81900
C  -1.38800 35.32900 30.63500
C  -1.42600 35.66800 29.11400
C  -1.73700 36.47600 31.55300
C  -1.68300 32.84800 31.43700
C  -2.36000 32.36500 32.70300
H  -1.41000 32.29600 33.92400
N  -0.89200 36.31200 26.15100
C  -0.35700 36.95200 27.21700
C  0.58100 37.93100 26.65300
C  0.44200 37.91300 25.28100
C  -0.45000 36.82800 24.97000
C  1.38600 38.89600 27.49300
C  1.13000 38.72700 24.23800
O  0.88200 38.58200 23.05700
C  2.19900 39.73800 24.57200
N  -2.45500 34.57800 24.17000
C  -1.91500 35.42300 23.31600
C  -2.27200 35.14700 21.86100
C  -2.87600 33.71600 21.96400
C  -3.16600 33.60600 23.43600
C  -3.24000 36.13500 21.27600
C  -1.92700 32.56500 21.43400
C  -0.45200 32.48000 21.97800
N  -3.54900 33.12800 26.30500
C  -4.04600 32.30400 25.32000
C  -4.73200 31.08200 25.86500
C  -4.53600 31.25500 27.24900
C  -3.81300 32.46300 27.42900
C  -5.28500 29.90700 25.13500
C  -4.83200 30.67100 28.54800
O  -5.44200 29.68300 28.93300
C  -4.20000 31.66100 29.58500
C  -5.35400 32.18600 30.57100
O  -6.11600 33.11400 30.41200
O  -5.28000 31.41100 31.68800
C  -6.14200 31.63500 32.88800
H  0.07200 37.26500 29.15600
H  -0.92500 37.18300 22.85400
H  -4.38200 31.78800 23.38300
H  -3.18200 34.33800 31.41700
H  -0.35800 35.09600 30.90700
H  -0.76800 36.95600 31.68900
H  -2.16300 36.02800 32.45100
H  -2.36000 37.22200 31.06000
H  -0.66300 33.16000 31.66300
H  -1.50500 32.05700 30.70800
H  -2.66200 31.32800 32.55800
H  -3.27700 32.92500 32.89000
H  1.37600 39.89900 27.06600
H  2.39300 38.51100 27.65200
H  1.00900 39.07800 28.49900
H  1.77300 40.67800 24.92300
H  2.54700 40.13200 23.61700
H  2.94400 39.19100 25.14900
H  -1.39300 35.02300 21.22900
H  -3.83900 33.59300 21.46800
H  -3.38100 37.05700 21.84000
H  -4.23200 35.69100 21.19400
H  -2.76500 36.49600 20.36400
H  -1.87100 32.45200 20.35100
H  -2.38100 31.61200 21.70400
H  0.20600 33.10300 21.37300
H  -0.07000 31.46600 21.86200
H  -0.25600 32.83000 22.99100
H  -6.21500 30.05000 24.58400
H  -5.58400 29.14600 25.85700
H  -4.50400 29.49400 24.49800
H  -3.50800 31.08600 30.20000
H  -6.55800 30.67000 33.17800
H  -6.94900 32.34700 32.71500
H  -5.57900 31.97000 33.75900

