158

Mg -0.86700 17.71500 26.12100
C  -1.04600 15.22900 28.60900
C  -2.00300 19.87900 28.55800
C  -1.49000 20.17900 23.75200
C  -0.54600 15.42700 23.76100
N  -1.43700 17.53800 28.38500
C  -1.20900 16.50000 29.20200
C  -1.33400 16.88800 30.68000
C  -1.90300 18.31700 30.58800
C  -1.77200 18.62900 29.11000
C  -3.38800 18.40900 31.24600
C  -0.01400 16.73400 31.46200
C  0.16400 17.47700 32.78800
H  0.04600 16.76100 34.03900
N  -1.43200 19.83300 26.20200
C  -1.96200 20.48000 27.30000
C  -2.39400 21.76600 26.94800
C  -2.10800 21.90000 25.56600
C  -1.60700 20.58400 25.09400
C  -3.06100 22.73600 27.89200
C  -2.38700 23.06400 24.68400
O  -2.11400 22.99300 23.47300
C  -2.86700 24.46100 25.25800
N  -0.66900 17.85700 24.12300
C  -0.94300 18.95900 23.31400
C  -0.73800 18.61900 21.80800
C  -0.29100 17.12200 21.95300
C  -0.53900 16.76300 23.37800
C  -1.86700 18.89900 20.79800
C  1.17300 16.74400 21.50100
C  1.22900 16.01800 20.08800
N  -0.69700 15.76000 26.12300
C  -0.64000 14.89700 25.03500
C  -0.68600 13.59200 25.44600
C  -0.81700 13.61500 26.82700
C  -0.83100 15.00300 27.21700
C  -0.75800 12.38100 24.53800
C  -0.87100 12.83800 28.04700
O  -1.06800 11.64700 28.31600
C  -1.14800 13.85600 29.22700
C  -0.18900 13.61300 30.29300
O  1.01600 13.56400 30.20800
O  -0.91500 13.45800 31.40900
C  -0.13700 13.04400 32.50900
H  -2.23000 20.48800 29.43600
H  -1.90800 20.77500 22.93800
H  -0.51800 14.73900 22.91300
H  -2.06300 16.23800 31.16300
H  -1.26700 19.06900 31.05500
H  -4.18800 18.22700 30.52800
H  -3.37100 19.45700 31.54800
H  -3.50700 17.69400 32.05900
H  0.85300 17.00100 30.85700
H  0.10900 15.69500 31.76600
H  -0.50200 18.33900 32.82200
H  1.15000 17.94000 32.83500
H  -2.74500 22.59800 28.92500
H  -4.14600 22.64500 27.95100
H  -2.85700 23.78400 27.67100
H  -2.86400 25.22100 24.47600
H  -2.08600 24.87400 25.89800
H  -3.87900 24.46100 25.66300
H  0.14500 19.14100 21.43800
H  -0.89500 16.55500 21.24500
H  -1.88500 19.96400 20.56900
H  -2.86500 18.58000 21.10000
H  -1.67700 18.38000 19.85800
H  1.58300 16.11000 22.28700
H  1.79000 17.64200 21.46600
H  2.25000 15.85800 19.74400
H  0.79800 16.64200 19.30500
H  0.72300 15.05300 20.11300
H  0.14400 12.22700 23.94500
H  -1.70000 12.53200 24.01000
H  -1.01400 11.55700 25.20400
H  -2.16000 13.65900 29.58100
H  0.31100 13.77400 33.18300
H  0.63700 12.31900 32.25600
H  -0.78900 12.46800 33.16500
Mg 24.83600 -5.77500 46.75900
C  26.96400 -3.41900 45.23600
C  22.21200 -4.40700 44.81400
C  22.93600 -8.58900 47.31700
C  27.44000 -7.11600 48.36300
N  24.65500 -4.29700 44.93300
C  25.65700 -3.37200 44.65700
C  25.12300 -2.31900 43.66700
C  23.57600 -2.37500 43.98700
C  23.44200 -3.74000 44.62100
C  23.13400 -1.25400 44.99800
C  25.51900 -2.86800 42.18100
C  26.34000 -1.94300 41.27900
H  26.18300 -2.05600 39.72900
N  22.81000 -6.41800 46.17900
C  21.94000 -5.75100 45.33500
C  20.69300 -6.39300 45.28100
C  20.79300 -7.69000 45.97800
C  22.25200 -7.61500 46.52400
C  19.62200 -5.88600 44.42700
C  19.82000 -8.83000 46.11700
O  18.71800 -8.68400 45.58800
C  20.10600 -10.05700 46.96200
N  25.08100 -7.60200 47.82600
C  24.22200 -8.67100 47.92100
C  24.88900 -9.79900 48.71600
C  26.31500 -9.20800 49.26100
C  26.27400 -7.88000 48.46200
C  24.10900 -10.31500 49.94800
C  27.69100 -10.07900 49.07500
C  28.55400 -10.10900 50.35200
N  26.75500 -5.33800 46.84600
C  27.76900 -5.98100 47.58800
C  29.06700 -5.27100 47.43600
C  28.74400 -4.29100 46.48000
C  27.39000 -4.39600 46.13800
C  30.28800 -5.64700 48.06800
C  29.31200 -3.18100 45.71200
O  30.44400 -2.73000 45.64700
C  28.17400 -2.60400 44.79700
C  28.02300 -1.12100 45.14400
O  28.68200 -0.22300 44.69700
O  27.02100 -0.91000 46.08200
C  26.98000 0.45100 46.64400
H  21.47600 -3.76000 44.33400
H  22.48500 -9.54100 47.60400
H  28.34800 -7.43900 48.87600
H  25.58200 -1.36200 43.91500
H  23.03600 -2.16600 43.06300
H  23.99100 -0.69400 45.37200
H  22.49900 -1.50300 45.84800
H  22.51800 -0.62500 44.35400
H  24.61400 -3.22700 41.69200
H  26.01700 -3.83100 42.29600
H  27.42000 -1.95000 41.42900
H  25.85000 -0.98800 41.46900
H  19.77100 -6.24000 43.40700
H  19.53100 -4.80000 44.42300
H  18.65200 -6.24700 44.76700
H  20.96600 -10.57400 46.53500
H  19.30000 -10.78300 47.07600
H  20.31300 -9.76000 47.99000
H  25.01900 -10.64300 48.03900
H  26.19000 -8.77200 50.25200
H  23.69200 -11.31200 49.81000
H  23.35500 -9.60400 50.28600
H  24.76300 -10.27200 50.81900
H  28.28600 -9.63200 48.27900
H  27.48200 -11.08200 48.70500
H  29.38900 -9.47900 50.04700
H  29.00600 -11.10000 50.36900
H  28.20300 -9.83700 51.34800
H  30.74700 -4.77200 48.52900
H  30.92100 -5.93400 47.22800
H  30.12400 -6.38700 48.85100
H  28.40400 -2.65000 43.73300
H  26.57700 0.57000 47.65000
H  26.32500 0.98900 45.95800
H  27.89700 1.03700 46.70400

