158

Mg 1.09500 -0.93600 43.76600
C  4.49900 -0.44000 43.08100
C  0.19800 1.66900 41.83700
C  -2.20100 -2.15700 43.66000
C  1.96000 -4.05000 45.11800
N  2.26400 0.26800 42.28400
C  3.63100 0.42800 42.31100
C  3.98600 1.66600 41.57700
C  2.59300 2.45700 41.55300
C  1.58300 1.41200 41.89000
C  2.44400 3.68400 42.39400
C  4.83000 1.48900 40.26700
C  6.23400 2.16600 40.09100
H  6.49000 2.96500 38.80100
N  -0.75300 -0.25500 43.01200
C  -0.83800 0.82200 42.11900
C  -2.15400 1.06700 41.89300
C  -2.93200 0.00300 42.42600
C  -1.98500 -0.86200 43.08900
C  -2.62300 2.37800 41.20700
C  -4.46500 -0.03700 42.42000
O  -5.10900 0.89700 41.94900
C  -5.19400 -1.22100 42.92700
N  0.02200 -2.83000 44.23000
C  -1.30300 -3.04900 44.21600
C  -1.73700 -4.46400 44.77600
C  -0.40600 -4.92700 45.38600
C  0.57800 -3.90200 44.84200
C  -3.04300 -4.61400 45.57600
C  -0.09500 -6.39800 45.00400
C  -0.26300 -7.35700 46.20700
N  2.85200 -2.05600 44.12200
C  3.02100 -3.23000 44.77600
C  4.42600 -3.44100 45.02000
C  5.06000 -2.38000 44.27600
C  4.06900 -1.54200 43.78800
C  5.17000 -4.53700 45.69900
C  6.32700 -1.75000 43.96700
O  7.46100 -2.07000 44.27400
C  6.02700 -0.49900 43.13200
C  6.62100 0.76400 43.69300
O  6.24400 1.17800 44.81500
O  7.67500 1.30600 42.99100
C  8.48500 2.24100 43.79100
H  0.02300 2.67700 41.45500
H  -3.19700 -2.60600 43.66100
H  2.27600 -4.90100 45.72600
H  4.63400 2.21700 42.25800
H  2.46100 2.71900 40.50400
H  3.30700 3.93000 43.01300
H  1.55000 3.72800 43.01500
H  2.45200 4.48600 41.65600
H  4.33700 1.94500 39.40800
H  4.91000 0.40600 40.16900
H  7.02000 1.41000 40.09100
H  6.45000 2.67100 41.03300
H  -1.92700 3.21100 41.10500
H  -3.44100 2.78500 41.80100
H  -2.92700 2.22400 40.17200
H  -5.09800 -1.34600 44.00600
H  -4.66000 -2.02100 42.41400
H  -6.23000 -1.25800 42.59100
H  -1.89700 -4.91900 43.79900
H  -0.40800 -4.71500 46.45600
H  -3.48600 -3.65200 45.83600
H  -2.79700 -4.96900 46.57700
H  -3.62600 -5.38100 45.06700
H  0.90100 -6.44400 44.56200
H  -0.70100 -6.75600 44.17200
H  -1.19300 -7.09700 46.71200
H  0.60100 -7.32500 46.87000
H  -0.40200 -8.36000 45.80200
H  4.64200 -4.81700 46.61100
H  6.15200 -4.14300 45.95900
H  5.18300 -5.39400 45.02600
H  6.35000 -0.79000 42.13300
H  7.92400 3.14500 44.02900
H  9.37600 2.45600 43.20100
H  8.91500 1.76400 44.67200
Mg 47.41600 24.98100 28.68400
C  48.34000 27.43700 31.14300
C  46.06000 23.17700 31.33000
C  46.97800 22.56700 26.69200
C  49.09000 26.98500 26.27600
N  47.40700 25.26200 31.04000
C  47.59200 26.37000 31.70500
C  47.19600 26.30000 33.19300
C  46.51200 24.89800 33.23800
C  46.75200 24.30500 31.79200
C  47.04500 23.85700 34.36100
C  46.25100 27.39600 33.84200
C  46.85300 28.09900 35.09800
H  47.22000 27.23500 36.31300
N  46.52900 23.15500 28.94100
C  45.97600 22.56500 30.08400
C  45.37300 21.35700 29.70200
C  45.66000 21.16400 28.33400
C  46.51400 22.21600 27.95200
C  44.60100 20.53500 30.72200
C  45.29000 19.89700 27.50800
O  45.80000 19.75600 26.36100
C  44.37100 18.84600 28.10400
N  48.19800 24.75200 26.89700
C  47.67900 23.70700 26.15700
C  48.10900 23.73100 24.67200
C  48.56800 25.17600 24.52500
C  48.66800 25.69000 26.00200
C  49.18400 22.68400 24.34400
C  47.64700 26.00000 23.55200
C  48.26400 26.33200 22.16800
N  48.49900 26.86300 28.64200
C  49.12000 27.50100 27.57400
C  49.62200 28.78300 28.09700
C  49.39200 28.78900 29.47300
C  48.69800 27.62300 29.76800
C  50.33500 29.82700 27.20000
C  49.52000 29.50400 30.71000
O  50.00000 30.58900 31.01400
C  49.00100 28.58700 31.84300
C  50.08800 28.13700 32.85300
O  50.79400 27.15300 32.81300
O  50.13000 29.09500 33.93000
C  51.00500 28.70000 35.08900
H  45.55200 22.73100 32.18800
H  46.82500 21.86100 25.87300
H  49.44500 27.57000 25.42500
H  48.14100 26.25300 33.73400
H  45.42300 24.93400 33.26100
H  47.32300 22.90200 33.91600
H  46.36500 23.60200 35.17500
H  48.02600 24.14800 34.73800
H  45.37000 26.92300 34.27800
H  45.90100 28.17800 33.16800
H  46.19900 28.91600 35.40200
H  47.76700 28.63600 34.84200
H  43.55300 20.39100 30.46100
H  44.60600 21.05100 31.68200
H  44.99200 19.53300 30.89400
H  44.84100 18.37200 28.96600
H  44.05500 18.15000 27.32700
H  43.52900 19.43700 28.46400
H  47.20000 23.55300 24.09700
H  49.62000 25.14700 24.24100
H  50.14200 23.19600 24.24900
H  49.01500 22.28800 23.34300
H  49.14400 21.81300 24.99800
H  47.32200 26.89000 24.09000
H  46.71800 25.45900 23.37100
H  47.62400 26.03900 21.33600
H  49.20300 25.78900 22.06000
H  48.47900 27.39400 22.05000
H  51.40400 29.83300 27.41500
H  49.85400 30.80200 27.27300
H  50.27400 29.53500 26.15200
H  48.23600 29.23700 32.26800
H  51.95400 28.29000 34.74300
H  50.43300 27.94200 35.62500
H  51.13000 29.53700 35.77600

