158

Mg -10.62600 16.66200 41.03100
C  -7.20800 16.80100 41.58200
C  -10.58500 19.94500 40.19500
C  -13.97400 16.41000 40.31400
C  -10.54100 13.13700 41.40900
N  -9.07800 18.09400 40.85800
C  -7.75900 17.96200 41.06000
C  -7.01600 19.27300 40.59600
C  -8.14900 20.28500 40.76500
C  -9.40000 19.38700 40.64300
C  -8.25300 21.07300 42.10500
C  -6.47600 19.16400 39.19400
C  -5.00300 18.87700 39.04700
H  -4.65000 17.85900 38.04800
N  -12.07500 18.00700 40.30400
C  -11.87000 19.31800 40.04500
C  -13.10000 19.91100 39.73400
C  -14.02400 18.85600 39.65900
C  -13.37800 17.64300 40.04500
C  -13.30000 21.42400 39.43500
C  -15.41300 19.05300 39.15400
O  -15.76800 20.22200 38.93100
C  -16.45200 17.95700 38.87600
N  -12.00300 14.91700 40.57000
C  -13.34000 15.13600 40.56200
C  -14.16800 13.86200 40.91200
C  -12.99800 12.75900 41.02800
C  -11.73900 13.62500 40.98700
C  -14.98000 14.05700 42.26000
C  -13.07000 11.59800 39.94200
C  -12.31800 11.83600 38.57700
N  -9.18800 15.20200 41.45000
C  -9.26500 13.81500 41.61200
C  -7.95400 13.29100 42.08700
C  -7.10200 14.48300 42.08500
C  -7.86300 15.53500 41.64300
C  -7.56900 11.84100 42.26700
C  -5.79900 15.00500 42.39800
O  -4.80800 14.42800 42.77000
C  -5.89700 16.55900 42.15500
C  -5.72200 17.40500 43.40400
O  -4.95700 18.35900 43.49500
O  -6.52600 16.95800 44.40800
C  -6.15900 17.39300 45.78900
H  -10.49900 21.01600 40.00100
H  -15.06500 16.36500 40.35300
H  -10.57200 12.07300 41.65300
H  -6.09400 19.40600 41.16100
H  -8.24800 21.05600 40.00200
H  -7.30600 20.81900 42.58200
H  -9.03400 20.82400 42.82300
H  -8.24900 22.14500 41.91100
H  -6.57800 20.15700 38.75700
H  -7.01200 18.38000 38.65900
H  -4.64800 18.40700 39.96400
H  -4.54300 19.83000 38.78500
H  -13.74000 21.47700 38.43900
H  -12.33800 21.93600 39.47200
H  -13.94000 21.87100 40.19600
H  -15.94500 17.22500 38.24700
H  -17.20600 18.40400 38.22800
H  -16.93900 17.50500 39.74000
H  -14.88700 13.63800 40.12500
H  -12.84600 12.31900 42.01400
H  -14.69000 14.96000 42.79800
H  -14.96700 13.11900 42.81500
H  -16.01900 14.21800 41.97300
H  -14.13900 11.50500 39.75300
H  -12.67500 10.76900 40.52900
H  -13.06000 11.98600 37.79400
H  -11.72200 10.94300 38.38900
H  -11.67000 12.71200 38.60600
H  -7.83400 11.28200 41.37000
H  -8.13200 11.40600 43.09300
H  -6.49800 11.87200 42.46900
H  -5.06200 16.73200 41.47600
H  -6.80300 18.20200 46.13300
H  -5.19100 17.89500 45.80000
H  -5.95300 16.57600 46.48100
Mg -5.62400 25.54000 25.96100
C  -4.41000 26.72800 29.03400
C  -7.39500 23.06500 27.72600
C  -6.15200 23.83600 23.10800
C  -3.29000 27.67500 24.41000
N  -5.73200 24.91500 28.17200
C  -5.33800 25.63900 29.24400
C  -5.99700 25.11700 30.50400
C  -6.80200 23.82800 30.04700
C  -6.61600 23.89200 28.52000
C  -6.19600 22.50600 30.67300
C  -6.90700 26.19400 31.14600
C  -6.70600 26.30700 32.67700
H  -6.36300 25.09200 33.49300
N  -6.84300 23.87900 25.44800
C  -7.50300 23.02400 26.31300
C  -8.46600 22.27500 25.56100
C  -8.05200 22.31600 24.18700
C  -6.95500 23.35900 24.23500
C  -9.61400 21.51000 26.31200
C  -8.64800 21.76100 22.94500
O  -8.29900 22.12000 21.81700
C  -9.81700 20.78300 23.18200
N  -4.71300 25.68300 24.03900
C  -5.12000 24.81400 23.05700
C  -4.40200 25.26300 21.74700
C  -3.74900 26.61700 22.11700
C  -3.92500 26.67100 23.60600
C  -3.52300 24.15400 21.16000
C  -4.42200 27.83200 21.36000
C  -3.49500 28.52800 20.33300
N  -4.16400 27.01200 26.53100
C  -3.23400 27.76900 25.80600
C  -2.61200 28.69200 26.71000
C  -3.05000 28.33900 28.01200
C  -3.99500 27.27200 27.84300
C  -1.71400 29.81600 26.27900
C  -2.82600 28.67200 29.38000
O  -2.12000 29.46000 30.02200
C  -3.79300 27.65700 30.10400
C  -3.15400 26.88800 31.20400
O  -2.71000 25.75500 31.17700
O  -3.02400 27.73100 32.27700
C  -2.36100 27.15600 33.41500
H  -8.15100 22.48700 28.26100
H  -6.25000 23.16500 22.25200
H  -2.62900 28.43500 23.98700
H  -5.20600 24.87800 31.21500
H  -7.83400 23.97800 30.36300
H  -5.34700 22.11800 30.10900
H  -7.01300 21.82700 30.91900
H  -5.65100 22.61600 31.61000
H  -7.96300 25.93800 31.06200
H  -6.56000 27.12500 30.69600
H  -7.48300 26.78400 33.27400
H  -5.86400 26.99200 32.78300
H  -10.49400 21.53700 25.66900
H  -9.90200 22.01300 27.23500
H  -9.36800 20.46200 26.47900
H  -10.02800 20.32500 22.21500
H  -10.62900 21.49000 23.34900
H  -9.50800 20.08400 23.96000
H  -5.14300 25.39400 20.95900
H  -2.69900 26.58800 21.82800
H  -2.47400 24.44800 21.12100
H  -3.82100 23.85700 20.15400
H  -3.69900 23.36200 21.88700
H  -4.69600 28.56600 22.11900
H  -5.34600 27.48500 20.89600
H  -3.88200 28.33200 19.33300
H  -2.50400 28.08400 20.42100
H  -3.48000 29.59400 20.55900
H  -0.93100 29.79100 27.03700
H  -2.23900 30.76900 26.34000
H  -1.31100 29.56000 25.29900
H  -4.67200 28.18900 30.46700
H  -2.48700 27.73200 34.33200
H  -1.29100 27.17800 33.20800
H  -2.54300 26.10100 33.61800

