158

Mg 45.36400 4.08500 45.31700
C  43.25700 6.96600 45.41700
C  42.50600 2.22100 44.68300
C  47.36200 1.45800 44.77800
C  48.14600 6.28700 45.16000
N  43.12500 4.56800 45.01000
C  42.55400 5.82200 44.98200
C  41.02700 5.78700 44.74400
C  40.76100 4.22900 44.87700
C  42.21700 3.60900 44.88300
C  39.94600 3.75600 46.12400
C  40.43600 6.37400 43.50600
C  41.33400 6.31400 42.24900
H  40.64500 6.45000 40.92500
N  44.98700 2.08900 44.91700
C  43.77100 1.54000 44.61600
C  43.94200 0.06900 44.37500
C  45.33400 -0.12800 44.60800
C  45.96000 1.13300 44.84200
C  42.72800 -0.91000 44.11900
C  45.96300 -1.50600 44.50900
O  45.25500 -2.48100 44.15300
C  47.36300 -1.73500 44.95400
N  47.45200 3.88400 45.02900
C  48.00700 2.67500 44.94900
C  49.51500 2.76500 44.65600
C  49.78500 4.28600 44.76300
C  48.40100 4.88900 45.05400
C  50.55900 1.88800 45.40500
C  50.44000 4.80900 43.42500
C  51.95000 4.76000 43.39000
N  45.71500 6.23000 45.23400
C  46.85800 6.97100 45.22700
C  46.50600 8.44000 45.39800
C  45.10400 8.42800 45.64300
C  44.70500 7.10400 45.39200
C  47.42100 9.62200 45.24400
C  43.97300 9.27100 45.98200
O  43.91700 10.47500 46.34500
C  42.76100 8.34000 45.73600
C  41.96400 8.36400 46.96900
O  42.17100 7.65100 47.97400
O  40.96900 9.29900 46.92500
C  40.15000 9.35700 48.14100
H  41.61200 1.63200 44.46800
H  48.06900 0.65400 44.56300
H  49.06800 6.87200 45.15500
H  40.43100 6.19900 45.55800
H  40.19900 3.90800 44.00000
H  40.52800 3.40600 46.97700
H  39.32200 2.88000 45.94800
H  39.27400 4.54600 46.45900
H  40.25500 7.41000 43.79100
H  39.44800 5.94800 43.33600
H  41.80700 5.33200 42.20700
H  42.07600 7.06100 42.53000
H  42.51600 -1.54000 44.98300
H  43.01400 -1.43400 43.20700
H  41.78300 -0.38000 44.00100
H  47.45200 -2.80300 45.15200
H  47.64000 -1.08800 45.78700
H  48.01400 -1.45100 44.12700
H  49.65400 2.40000 43.63800
H  50.49700 4.59400 45.52900
H  50.07500 1.24200 46.13800
H  51.30800 2.47100 45.94100
H  51.05300 1.25300 44.67000
H  50.12700 5.84100 43.27000
H  50.16300 4.18500 42.57600
H  52.30800 4.18100 42.53900
H  52.38400 4.18400 44.20700
H  52.42200 5.73800 43.29000
H  48.29500 9.24100 44.71600
H  47.67100 9.85700 46.27900
H  46.94200 10.55200 44.93900
H  42.07400 8.72100 44.98100
H  39.60000 8.42800 48.29500
H  39.44800 10.18900 48.19900
H  40.69700 9.44300 49.08000
Mg -5.13000 25.17900 25.96300
C  -3.72000 26.78900 28.92400
C  -7.04300 23.26800 28.15900
C  -5.99700 23.31800 23.30400
C  -2.75600 27.01600 24.09900
N  -5.14900 24.90500 28.23800
C  -4.61100 25.67700 29.27300
C  -5.24900 25.36400 30.67700
C  -6.09400 24.11700 30.33500
C  -6.13300 24.06200 28.76600
C  -5.49900 22.76800 30.95300
C  -6.09300 26.56900 31.22000
C  -5.56600 27.04600 32.63100
H  -5.08000 25.98100 33.68300
N  -6.45200 23.76200 25.73800
C  -7.17200 23.14700 26.75000
C  -8.18000 22.28900 26.13800
C  -8.02000 22.44200 24.76700
C  -6.70400 23.16800 24.53200
C  -9.08400 21.31700 26.84900
C  -8.88400 21.83100 23.61000
O  -8.66700 22.07800 22.44200
C  -10.09000 20.97800 23.88900
N  -4.50400 25.23300 23.91500
C  -4.93100 24.25700 23.03700
C  -4.12800 24.35400 21.68700
C  -3.15400 25.61300 22.01200
C  -3.40300 25.93800 23.48400
C  -3.32900 23.06700 21.33200
C  -3.46300 26.84200 21.09600
C  -2.18400 27.61600 20.63200
N  -3.65400 26.67400 26.38500
C  -2.84700 27.38300 25.44300
C  -2.13100 28.41500 26.15700
C  -2.45500 28.20400 27.53800
C  -3.33100 27.11100 27.59700
C  -1.27500 29.47700 25.49900
C  -2.26200 28.73500 28.85100
O  -1.61800 29.67800 29.19600
C  -3.01000 27.81000 29.87200
C  -1.90700 27.07700 30.65500
O  -1.17700 26.26600 30.14300
O  -1.77400 27.51600 31.92200
C  -0.77000 26.74800 32.70700
H  -7.63200 22.58500 28.77500
H  -6.22200 22.64000 22.47800
H  -2.01500 27.48300 23.44700
H  -4.40400 25.19400 31.34400
H  -7.05700 24.22000 30.83700
H  -5.17000 22.13100 30.13200
H  -6.21600 22.25200 31.59200
H  -4.53600 22.97500 31.41900
H  -7.16900 26.40500 31.26800
H  -5.98100 27.41100 30.53700
H  -6.46600 27.40400 33.13100
H  -4.86600 27.86800 32.48100
H  -10.15000 21.47000 26.68100
H  -8.94600 21.42000 27.92500
H  -8.79100 20.31700 26.53100
H  -9.82400 20.26800 24.67100
H  -10.43600 20.54400 22.95100
H  -10.91000 21.58200 24.27900
H  -4.75500 24.61100 20.83400
H  -2.12500 25.26700 21.92200
H  -2.24400 23.04300 21.43600
H  -3.64200 22.83600 20.31400
H  -3.77800 22.30200 21.96500
H  -4.00700 27.54900 21.72300
H  -4.12300 26.59100 20.26500
H  -2.05400 27.45100 19.56300
H  -1.30700 27.30000 21.19800
H  -2.32000 28.65500 20.93100
H  -0.26500 29.39300 25.90100
H  -1.75400 30.41400 25.78300
H  -1.28000 29.33300 24.41900
H  -3.66800 28.43400 30.47600
H  0.14000 26.53000 32.14700
H  -1.30400 25.88700 33.10900
H  -0.48100 27.35100 33.56800

