158

Mg 0.42600 7.59000 25.81300
C  1.42400 9.63700 28.57700
C  0.31300 4.93900 28.04500
C  0.05700 5.60500 23.16800
C  0.93500 10.33600 23.77400
N  0.90700 7.32100 28.03400
C  1.19000 8.29800 28.94600
C  1.21400 7.83700 30.35200
C  1.14300 6.22400 30.08800
C  0.62800 6.12600 28.65300
C  2.46900 5.42600 30.39200
C  -0.01200 8.45200 31.15300
C  0.29000 9.02200 32.55700
H  1.30200 8.25900 33.40400
N  0.08700 5.51500 25.62900
C  0.04600 4.59200 26.66400
C  -0.29600 3.27900 26.09800
C  -0.33800 3.43800 24.67100
C  -0.01500 4.86500 24.40100
C  -0.36600 2.07900 26.99400
C  -0.49700 2.39100 23.49000
O  -0.46500 2.70200 22.32800
C  -0.76400 0.91800 23.88200
N  0.48500 7.89700 23.79600
C  0.13700 6.97600 22.88200
C  0.05100 7.55900 21.46200
C  0.32600 9.04700 21.69100
C  0.62700 9.14300 23.19000
C  0.94800 6.91700 20.47600
C  -0.73600 10.18000 21.20200
C  -0.22800 11.23900 20.18800
N  1.09800 9.56200 26.01300
C  1.16900 10.60100 25.12200
C  1.51400 11.92200 25.78300
C  1.57900 11.48400 27.12300
C  1.33800 10.13300 27.25800
C  1.67000 13.33800 25.18400
C  1.90400 11.98300 28.42400
O  2.26000 13.14400 28.71200
C  1.76400 10.83000 29.43400
C  2.93800 10.71800 30.34800
O  3.97500 10.13000 30.18300
O  2.63900 11.55000 31.37800
C  3.79100 11.74200 32.33800
H  0.19300 4.13400 28.77400
H  -0.06500 5.06800 22.22500
H  0.94600 11.17300 23.07300
H  2.16000 8.07200 30.84000
H  0.42600 5.91100 30.84800
H  2.72600 4.76900 29.56200
H  2.23900 4.69200 31.16500
H  3.27400 6.06900 30.75000
H  -0.78200 7.68800 31.25400
H  -0.56900 9.11700 30.49300
H  -0.68100 8.91700 33.04200
H  0.62900 10.05700 32.51400
H  -1.37000 1.85400 27.35500
H  0.26900 2.37100 27.83000
H  0.07300 1.26400 26.41800
H  -0.86700 0.37600 22.94200
H  -1.72000 0.90100 24.40500
H  0.12900 0.57200 24.40400
H  -0.93800 7.32800 21.06500
H  1.27800 9.28200 21.21500
H  1.89900 6.56200 20.87400
H  1.32000 7.56900 19.68500
H  0.36500 6.21300 19.88200
H  -1.01800 10.89100 21.97800
H  -1.55400 9.58300 20.79800
H  -0.49000 10.82200 19.21600
H  0.85800 11.17200 20.25500
H  -0.44700 12.26300 20.49200
H  1.54200 13.41500 24.10400
H  2.64600 13.74600 25.44800
H  0.89900 13.98100 25.60800
H  0.89400 11.12700 30.02100
H  4.69400 11.39700 31.83400
H  3.68500 11.12600 33.23100
H  3.91900 12.79400 32.59200
Mg 35.48900 1.71800 29.81000
C  33.16400 2.71100 32.20700
C  37.87800 1.71300 32.39700
C  37.94900 1.37200 27.56800
C  33.16100 1.94900 27.35700
N  35.57100 2.43500 32.08000
C  34.44500 2.56400 32.81000
C  34.76900 2.73700 34.30800
C  36.27400 2.67600 34.32800
C  36.57400 2.15800 32.87600
C  37.21100 3.87000 34.74400
C  33.98400 1.62500 35.08000
C  33.41300 2.07800 36.45600
H  34.04100 3.26600 37.18000
N  37.59100 1.45900 29.96100
C  38.36000 1.56500 31.10200
C  39.71500 1.19500 30.75800
C  39.77900 1.10000 29.37800
C  38.40800 1.37600 28.89100
C  40.89600 1.07700 31.81100
C  41.06600 0.78600 28.46900
O  40.88700 0.63700 27.26000
C  42.47600 0.73400 29.07800
N  35.55300 1.63100 27.80000
C  36.66300 1.44300 27.00700
C  36.30300 1.24000 25.49900
C  34.75500 1.00700 25.59500
C  34.47200 1.58600 27.04700
C  36.88700 2.35300 24.66400
C  34.35800 -0.45700 25.36300
C  33.95400 -0.88100 23.92100
N  33.46600 2.22000 29.71400
C  32.69000 2.37500 28.62000
C  31.33900 2.62200 29.12500
C  31.44100 2.82900 30.52500
C  32.78400 2.58500 30.83100
C  30.18200 2.84400 28.24000
C  30.75200 3.22200 31.77700
O  29.64000 3.61900 31.99700
C  31.83600 3.18800 32.89400
C  31.97500 4.58500 33.30700
O  32.71700 5.40100 32.76800
O  31.10800 4.84700 34.38400
C  31.14000 6.26300 34.81800
H  38.55800 1.71400 33.25100
H  38.69300 1.31700 26.77100
H  32.54700 1.86700 26.45800
H  34.38800 3.73700 34.51700
H  36.49600 1.86100 35.01700
H  36.66800 4.81100 34.83700
H  37.96300 4.11800 33.99500
H  37.63100 3.79100 35.74600
H  34.71200 0.82600 35.22300
H  33.17000 1.15700 34.52600
H  33.57500 1.19700 37.07700
H  32.33200 2.14900 36.33900
H  40.43500 1.18000 32.79300
H  41.63800 1.87300 31.75800
H  41.40900 0.11700 31.86700
H  42.62700 -0.13000 29.72400
H  42.57100 1.69100 29.59200
H  43.29000 0.65000 28.35800
H  36.82100 0.34000 25.16800
H  34.22800 1.68300 24.92200
H  36.21200 2.92000 24.02300
H  37.71800 1.91400 24.11100
H  37.38500 3.09600 25.28600
H  33.57000 -0.71600 26.07100
H  35.19300 -1.02500 25.77200
H  34.80500 -0.74600 23.25400
H  33.09400 -0.25800 23.67700
H  33.64700 -1.91600 24.07300
H  29.85000 1.87300 27.87100
H  30.46600 3.49200 27.41100
H  29.41700 3.42300 28.75600
H  31.58800 2.51400 33.71400
H  32.07800 6.49400 35.32200
H  30.27100 6.47400 35.44100
H  30.95200 6.95000 33.99200

