158

Mg 44.45800 4.02700 46.45800
C  42.46400 6.83800 46.50300
C  41.52400 2.01200 46.45100
C  46.36100 1.36100 45.98900
C  47.23500 6.13300 46.05400
N  42.27400 4.38000 46.23200
C  41.77100 5.66200 46.22300
C  40.19800 5.53400 46.21200
C  39.92200 4.00200 46.49700
C  41.28900 3.39400 46.31600
C  39.17900 3.68000 47.90400
C  39.45000 6.03800 44.86200
C  39.85400 5.43400 43.47800
H  39.84400 6.33100 42.26100
N  44.03600 1.92100 46.10100
C  42.75600 1.35000 46.21100
C  42.97100 -0.11000 46.21900
C  44.37700 -0.30100 45.89700
C  44.98900 1.03500 46.02400
C  41.95700 -1.15900 46.52700
C  45.05000 -1.60100 45.56000
O  44.29600 -2.60400 45.62300
C  46.51400 -1.78100 45.34500
N  46.46000 3.81300 45.83300
C  47.02400 2.58100 45.86500
C  48.55800 2.71100 45.86200
C  48.83300 4.29000 45.87000
C  47.43000 4.82100 45.87000
C  49.28800 1.91000 47.03200
C  49.64800 4.83800 44.62200
C  50.89300 3.99800 44.35800
N  44.83700 6.05900 46.35000
C  46.01800 6.79500 46.19900
C  45.68400 8.23200 46.39200
C  44.28700 8.26200 46.49400
C  43.82300 6.93600 46.44000
C  46.74900 9.34000 46.37500
C  43.12800 9.15000 46.59200
O  43.13200 10.36100 46.53100
C  41.87500 8.24700 46.61000
C  41.18500 8.48600 47.87800
O  41.41800 7.88900 48.93000
O  40.42700 9.57900 47.79800
C  39.72600 10.16200 48.97300
H  40.72600 1.29000 46.63700
H  47.07900 0.53900 45.97100
H  48.08200 6.82200 46.08600
H  39.77000 6.16300 46.99200
H  39.30900 3.58000 45.70100
H  39.00300 4.65800 48.35300
H  39.85700 2.95600 48.35600
H  38.22600 3.16200 47.79300
H  39.50900 7.11400 44.70000
H  38.41000 5.78900 45.06900
H  39.09100 4.68000 43.28600
H  40.84300 4.97600 43.46800
H  41.45500 -1.46700 45.61000
H  41.25000 -0.72500 47.23300
H  42.44000 -2.05800 46.91100
H  47.17900 -1.52700 46.17000
H  46.68500 -1.03500 44.56900
H  46.70900 -2.79500 44.99700
H  48.90800 2.25000 44.93800
H  49.29900 4.61500 46.80000
H  48.52200 1.59000 47.73900
H  49.90500 2.56900 47.64200
H  49.83700 1.05900 46.62900
H  49.86300 5.87800 44.86500
H  49.00700 4.89400 43.74200
H  51.04200 3.25500 45.14100
H  51.75200 4.66200 44.45000
H  51.00700 3.62900 43.33900
H  47.66600 9.04500 46.88500
H  46.31900 10.15900 46.95100
H  47.08500 9.58900 45.36800
H  41.20500 8.47600 45.78200
H  38.67600 10.10800 48.68600
H  40.02400 11.19300 49.16400
H  39.85300 9.59700 49.89600
Mg 42.25400 41.42100 26.68700
C  41.44300 43.54400 29.31700
C  43.20800 39.04700 28.97200
C  43.36900 39.46400 24.08700
C  41.51900 43.92500 24.46100
N  42.28300 41.34100 28.93900
C  41.94000 42.35200 29.78800
C  42.17700 41.87900 31.24800
C  42.59600 40.41900 31.15200
C  42.64000 40.14900 29.59500
C  43.96700 40.02300 31.75200
C  41.08600 42.35100 32.24000
C  40.64800 41.38500 33.32400
H  39.96600 41.78100 34.62500
N  43.27300 39.54800 26.53100
C  43.51600 38.76700 27.59200
C  43.99800 37.48900 27.05500
C  44.01000 37.53800 25.62600
C  43.55500 38.90400 25.36400
C  44.46200 36.41700 28.05300
C  44.49700 36.48700 24.67900
O  44.46200 36.63600 23.48100
C  44.83200 35.12300 25.15700
N  42.43100 41.61800 24.57800
C  42.80500 40.65000 23.70000
C  42.68500 41.01600 22.22500
C  41.83000 42.32100 22.38300
C  41.98800 42.73300 23.86800
C  44.07400 41.14900 21.54300
C  40.43800 42.16000 21.79900
C  39.41600 41.61600 22.69700
N  41.70200 43.36900 26.78700
C  41.44900 44.30000 25.86700
C  40.88000 45.48000 26.43700
C  40.86900 45.18900 27.77600
C  41.49100 43.95200 27.97500
C  40.58500 46.68800 25.57900
C  40.48800 45.71000 29.05800
O  39.99700 46.83200 29.25100
C  40.88900 44.74200 30.09700
C  41.76400 45.39800 31.06600
O  43.01200 45.35700 31.07600
O  41.01400 46.14800 31.91300
C  41.68400 46.46400 33.28100
H  43.63800 38.36400 29.70800
H  43.58300 38.87100 23.19600
H  41.10700 44.57700 23.68800
H  43.02100 42.53500 31.46000
H  41.93600 39.71700 31.66200
H  44.76800 40.23100 31.04300
H  43.88500 38.98800 32.08200
H  44.18300 40.76800 32.51700
H  40.19900 42.47800 31.61900
H  41.40300 43.35700 32.51500
H  41.53100 40.80700 33.59700
H  40.01200 40.66200 32.81400
H  45.42800 36.16400 27.61700
H  43.69300 35.64500 28.09700
H  44.64700 36.72800 29.08100
H  45.73400 35.05600 25.76600
H  44.90700 34.49600 24.26900
H  43.96800 34.92400 25.79100
H  42.14800 40.18500 21.76900
H  42.17800 43.13100 21.74100
H  44.82400 40.85400 22.27700
H  44.37400 42.16200 21.27500
H  44.15700 40.44600 20.71400
H  40.54800 41.60400 20.86800
H  40.22600 43.19500 21.52900
H  39.91200 41.18700 23.56800
H  38.87200 40.86000 22.13100
H  38.73200 42.36900 23.08900
H  41.42700 46.89000 24.91700
H  40.27800 47.55300 26.16800
H  39.64500 46.41500 25.10000
H  39.92300 44.62700 30.58900
H  42.07900 45.53500 33.69300
H  41.01500 46.79600 34.07500
H  42.47900 47.19400 33.12700

