158

Mg -3.06600 17.18100 26.12600
C  -3.64200 14.76000 28.66500
C  -3.34400 19.51700 28.69200
C  -3.09500 19.48400 23.80600
C  -3.45800 14.80900 23.77500
N  -3.49500 17.08400 28.53900
C  -3.53100 15.94900 29.36300
C  -3.58200 16.40900 30.83200
C  -3.51100 18.04600 30.69600
C  -3.50200 18.24600 29.22900
C  -4.52700 18.86900 31.57300
C  -2.43500 15.78500 31.74100
C  -1.75800 16.49900 32.86000
H  -1.03300 15.65600 33.87000
N  -3.08400 19.15000 26.19500
C  -3.17600 19.96600 27.33600
C  -2.95300 21.34100 26.86100
C  -2.88900 21.40000 25.42600
C  -3.12100 19.99400 25.06800
C  -2.85400 22.57300 27.70900
C  -2.62200 22.53000 24.44300
O  -2.82600 22.39700 23.25600
C  -2.17400 23.90500 24.95200
N  -3.41300 17.18200 23.97500
C  -3.22300 18.18200 23.25000
C  -2.97000 17.85100 21.76800
C  -3.22600 16.34900 21.70200
C  -3.31100 16.06100 23.22500
C  -3.89800 18.68500 20.81300
C  -2.16600 15.51200 20.96100
C  -2.70200 14.52400 19.84700
N  -3.37500 15.16700 26.18000
C  -3.57100 14.33200 25.08900
C  -3.74000 12.93900 25.47900
C  -3.76800 13.09300 26.90500
C  -3.58400 14.45800 27.27900
C  -3.98300 11.73100 24.72500
C  -4.01300 12.32000 28.20000
O  -4.29900 11.19800 28.44300
C  -3.93100 13.43300 29.33800
C  -2.84400 13.01200 30.24100
O  -1.64600 13.02700 29.99900
O  -3.39900 12.59400 31.45700
C  -2.54600 12.09100 32.52500
H  -3.58400 20.36500 29.33700
H  -3.18400 20.25100 23.03400
H  -3.62600 14.04400 23.01500
H  -4.56800 16.11900 31.19500
H  -2.53800 18.33900 31.09100
H  -4.75300 18.22000 32.41800
H  -5.51800 18.98600 31.13400
H  -4.14400 19.82200 31.94000
H  -1.64900 15.35000 31.12500
H  -2.95700 15.01200 32.30400
H  -2.52000 17.11900 33.33200
H  -1.05300 17.20500 32.42300
H  -2.80300 22.21300 28.73700
H  -3.69700 23.26400 27.68100
H  -1.92400 23.09500 27.48400
H  -2.22800 24.64600 24.15400
H  -1.13200 23.80500 25.25800
H  -2.76900 24.32500 25.76300
H  -1.93200 18.16200 21.65300
H  -4.25000 16.29500 21.33300
H  -3.80200 18.23300 19.82600
H  -3.87500 19.77200 20.89300
H  -4.92200 18.50800 21.14300
H  -1.66400 14.81200 21.62900
H  -1.44900 16.18800 20.49500
H  -2.39100 14.94800 18.89300
H  -3.78800 14.52400 19.93500
H  -2.41700 13.51400 20.14400
H  -5.03300 11.45100 24.80900
H  -3.32100 10.97300 25.14300
H  -3.76700 11.97900 23.68500
H  -4.82600 13.49800 29.95700
H  -2.95300 11.22300 33.04400
H  -2.29700 12.91700 33.19100
H  -1.58300 11.69800 32.20100
Mg 47.59400 25.33200 29.51600
C  48.37400 27.74800 31.90200
C  46.07800 23.46700 32.05800
C  47.15500 22.90900 27.26900
C  49.34300 27.22500 27.05000
N  47.28100 25.54000 31.79200
C  47.73400 26.65400 32.48400
C  47.33000 26.45400 34.05500
C  46.87600 24.88500 34.04000
C  46.75000 24.59400 32.56600
C  47.88500 23.90000 34.69800
C  46.37800 27.52500 34.48000
C  46.35800 27.91800 35.93200
H  47.21500 27.18500 36.97100
N  46.71400 23.50800 29.63500
C  46.06800 22.91400 30.71300
C  45.49700 21.65600 30.30900
C  45.79500 21.52200 28.86600
C  46.64100 22.64000 28.54600
C  44.70600 20.74700 31.13300
C  45.28600 20.52900 27.82800
O  45.35200 20.66300 26.58900
C  44.59400 19.29900 28.42600
N  48.10800 25.15000 27.45900
C  47.78300 24.05800 26.74500
C  48.35200 24.09600 25.33200
C  48.81600 25.60700 25.23000
C  48.74900 26.05900 26.65500
C  49.51100 23.18200 25.11200
C  47.94000 26.49100 24.25400
C  48.65200 26.96400 22.95300
N  48.61500 27.05800 29.36800
C  49.24800 27.71300 28.34400
C  49.62900 29.05600 28.78500
C  49.28700 29.16400 30.16300
C  48.74500 27.87400 30.48200
C  50.22500 30.09000 27.81200
C  49.29300 30.04200 31.32500
O  49.65000 31.17400 31.50800
C  48.83300 29.09300 32.44200
C  49.96100 28.89800 33.40700
O  51.07300 28.63300 33.01900
O  49.48300 29.01500 34.69600
C  50.52300 28.68400 35.63000
H  45.57300 22.91100 32.85100
H  47.22100 22.06600 26.57900
H  49.87700 27.83600 26.32000
H  48.29000 26.67000 34.52400
H  45.86400 24.72900 34.41400
H  48.31100 23.27000 33.91700
H  47.33500 23.22000 35.34900
H  48.57100 24.54500 35.24700
H  45.45600 26.94500 34.43700
H  46.13700 28.34500 33.80400
H  45.30200 27.94400 36.19900
H  46.62000 28.97600 35.90200
H  45.01400 19.70200 31.15200
H  43.63100 20.74800 30.95500
H  44.76600 21.15500 32.14200
H  45.14500 18.76300 29.19800
H  44.33500 18.63000 27.60500
H  43.68600 19.74600 28.83200
H  47.54600 23.72500 24.69800
H  49.85000 25.71700 24.90400
H  50.24700 23.49700 24.37300
H  48.98700 22.36900 24.60900
H  49.94800 22.76200 26.01800
H  47.59200 27.39600 24.75100
H  47.08600 25.91200 23.90400
H  48.18600 26.39000 22.15200
H  49.72000 26.74900 22.95000
H  48.37000 28.00100 22.77000
H  51.31400 30.10400 27.77400
H  49.96100 31.07700 28.19300
H  49.83400 29.88600 26.81500
H  47.97900 29.50600 32.98000
H  50.82400 27.65500 35.43100
H  50.19300 28.69900 36.66900
H  51.37600 29.36300 35.63700

