158

Mg 44.12900 4.22400 48.25400
C  42.01800 6.98000 47.58700
C  41.55300 2.15800 47.79400
C  46.29700 1.65500 48.54200
C  46.81300 6.51000 48.29800
N  42.05900 4.59800 47.53800
C  41.37100 5.74400 47.37500
C  39.93500 5.50500 47.14000
C  39.77700 4.04000 47.43100
C  41.23700 3.57100 47.59100
C  38.89700 3.76900 48.69100
C  39.48800 5.91900 45.69000
C  38.29900 6.85900 45.65600
H  37.60500 6.83900 44.28500
N  43.92000 2.18000 48.03400
C  42.78400 1.52700 47.94500
C  43.04600 0.08500 48.01700
C  44.45900 -0.05200 48.24400
C  44.98200 1.33100 48.27700
C  42.07100 -0.99500 47.82300
C  45.15200 -1.37500 48.42000
O  44.57500 -2.45300 48.39300
C  46.62100 -1.48100 48.68900
N  46.14300 4.04700 48.12400
C  46.86500 2.86700 48.46100
C  48.26600 3.14700 48.88900
C  48.42900 4.66200 48.41300
C  47.00600 5.12300 48.18700
C  48.52800 2.97700 50.44600
C  49.28000 4.79200 47.15100
C  50.73500 5.06500 47.55700
N  44.44700 6.34300 48.08700
C  45.54300 7.12700 48.17700
C  45.22400 8.52300 48.07500
C  43.82300 8.51200 47.85300
C  43.40000 7.21100 47.85300
C  46.27400 9.59800 48.05100
C  42.73400 9.33700 47.60800
O  42.67600 10.55600 47.43700
C  41.38600 8.40200 47.48200
C  40.51800 8.80400 48.71200
O  40.98800 8.95900 49.81900
O  39.24000 9.13600 48.34700
C  38.52600 9.83500 49.44900
H  40.68200 1.50000 47.77600
H  47.07000 0.93300 48.81700
H  47.59800 7.26200 48.39600
H  39.39800 6.08800 47.88900
H  39.31900 3.41900 46.66100
H  38.09100 4.49200 48.81500
H  39.58300 3.91100 49.52600
H  38.54700 2.73600 48.68200
H  39.28100 5.05200 45.06300
H  40.38500 6.24900 45.16600
H  38.63800 7.87300 45.86600
H  37.49800 6.64500 46.36400
H  42.08900 -1.47200 46.84400
H  41.05300 -0.63000 47.95800
H  42.20100 -1.66800 48.67000
H  46.68700 -0.94600 49.63600
H  47.13400 -0.96200 47.87800
H  46.95500 -2.50200 48.87400
H  48.86500 2.39400 48.37900
H  48.89200 5.26700 49.19300
H  47.80500 2.34000 50.95600
H  48.62800 3.93100 50.96500
H  49.42800 2.37300 50.33100
H  48.87100 5.64400 46.60800
H  49.30800 3.84300 46.61600
H  50.88400 5.12500 48.63500
H  51.11400 5.94000 47.02900
H  51.52000 4.39700 47.20400
H  46.91500 9.35100 47.20500
H  46.93900 9.48500 48.90800
H  45.98400 10.64500 48.13900
H  40.78700 8.38900 46.57100
H  39.04800 10.66100 49.93300
H  38.28800 9.10500 50.22300
H  37.57000 10.23700 49.11300
Mg 35.90500 2.06100 29.93800
C  33.29900 2.80500 31.96500
C  37.99600 2.08600 32.58300
C  38.45000 1.40600 27.76400
C  33.66000 2.14500 27.16400
N  35.62500 2.35700 31.98500
C  34.47500 2.61000 32.63800
C  34.70800 2.70800 34.16500
C  36.19600 2.83000 34.28300
C  36.66200 2.39300 32.86500
C  36.69500 4.30100 34.40300
C  34.12600 1.53400 35.09500
C  33.91000 1.97100 36.54400
H  34.51200 3.30100 37.19000
N  37.99700 1.80000 30.14700
C  38.64000 1.80800 31.35900
C  40.06300 1.48200 31.11200
C  40.15200 1.20700 29.70200
C  38.84900 1.47700 29.16300
C  41.05600 1.33200 32.14300
C  41.34800 0.70900 28.84300
O  41.41900 0.46800 27.65200
C  42.65000 0.50300 29.62600
N  35.93000 1.63800 27.83700
C  37.18600 1.54000 27.19800
C  37.04500 1.38000 25.65800
C  35.40500 1.55800 25.48800
C  34.92500 1.78000 26.89500
C  37.72500 2.53600 24.88200
C  34.82400 0.27500 24.88600
C  34.29700 0.40000 23.43600
N  33.87000 2.24400 29.53700
C  33.14400 2.46800 28.38200
C  31.80600 2.88500 28.71300
C  31.84600 3.03200 30.09900
C  33.12400 2.66300 30.56400
C  30.69300 3.14300 27.78600
C  31.07100 3.45300 31.22900
O  29.96900 3.96400 31.22800
C  31.94300 3.17600 32.49000
C  32.00500 4.40900 33.37100
O  32.44600 5.52100 33.13400
O  31.39100 4.06100 34.59600
C  31.18800 5.18000 35.50800
H  38.55700 2.20700 33.51200
H  39.32100 1.26200 27.12200
H  32.98300 2.11600 26.30900
H  34.21200 3.60700 34.53200
H  36.64500 2.20700 35.05500
H  37.50400 4.29700 35.13400
H  35.88400 4.95600 34.72100
H  37.10800 4.64300 33.45400
H  34.77400 0.66300 34.99800
H  33.13200 1.22300 34.77400
H  34.11000 1.08300 37.14300
H  32.83100 2.04800 36.68000
H  41.35100 0.29400 32.29600
H  40.62900 1.73000 33.06400
H  41.93400 1.92900 31.89900
H  43.33700 0.17500 28.84600
H  42.50700 -0.24900 30.40200
H  42.88000 1.50000 30.00200
H  37.49900 0.45500 25.30100
H  35.04200 2.39400 24.89100
H  38.62500 2.85000 25.41100
H  37.04800 3.34200 24.59900
H  38.15100 2.14000 23.96100
H  34.05100 -0.10400 25.55400
H  35.62200 -0.46200 24.97300
H  34.98400 -0.13200 22.77700
H  34.10900 1.41700 23.09300
H  33.32200 -0.04100 23.22800
H  31.12800 3.43900 26.83200
H  30.03400 3.94200 28.12500
H  30.05700 2.26500 27.67200
H  31.44800 2.47500 33.16100
H  32.14400 5.57400 35.85300
H  30.53800 5.01500 36.36800
H  30.82900 6.08800 35.02400

