158

Mg 5.01400 54.59100 40.90200
C  4.90400 51.08300 40.63600
C  8.08300 54.51100 39.37000
C  4.76100 57.88100 40.58300
C  1.86500 54.52300 42.41600
N  6.23900 52.99300 40.02700
C  6.03900 51.66400 40.00100
C  7.21500 50.92500 39.41800
C  8.30800 52.00700 39.26900
C  7.53800 53.25400 39.59200
C  9.53100 51.82600 40.25900
C  6.82400 50.07400 38.17400
C  5.88300 50.80200 37.17200
H  6.54500 51.03400 35.78800
N  6.28300 56.11400 40.15100
C  7.57500 55.81900 39.57900
C  8.22300 57.08700 39.27400
C  7.31400 58.14300 39.68100
C  6.00500 57.36900 40.14000
C  9.68400 57.10100 38.65600
C  7.58600 59.59400 39.50800
O  8.60800 60.04700 39.08000
C  6.63200 60.56500 40.03500
N  3.50900 55.93500 41.23700
C  3.64500 57.26400 41.10000
C  2.35900 58.00500 41.43300
C  1.34400 56.86900 41.95900
C  2.32800 55.71800 41.88400
C  2.45700 59.06100 42.51000
C  0.12700 56.65500 41.03700
C  -1.09900 56.05200 41.65800
N  3.59800 53.15200 41.47700
C  2.41500 53.23900 42.19600
C  2.01200 51.85600 42.49300
C  2.91300 51.01800 41.87600
C  3.84200 51.87800 41.23800
C  0.79500 51.48400 43.40600
C  3.17900 49.62500 41.67600
O  2.57900 48.58700 42.03800
C  4.53800 49.66300 40.90400
C  4.15500 48.81700 39.76500
O  3.36100 49.04400 38.93800
O  4.93600 47.65100 39.85700
C  4.62200 46.60300 38.88500
H  9.09000 54.53700 38.94900
H  4.60400 58.96000 40.51400
H  1.05300 54.57300 43.14500
H  7.54600 50.28800 40.23700
H  8.78800 52.03700 38.29100
H  10.26700 51.17700 39.78400
H  9.19500 51.36900 41.19000
H  9.90400 52.79800 40.58200
H  6.49500 49.05200 38.35800
H  7.83500 50.05700 37.76800
H  5.67000 51.80400 37.54500
H  4.91700 50.31700 37.02900
H  10.53000 56.98000 39.33200
H  9.94300 58.01500 38.12200
H  9.69100 56.33000 37.88600
H  5.66500 60.67200 39.54400
H  6.98400 61.58600 39.89000
H  6.43300 60.43700 41.09900
H  1.95100 58.53900 40.57600
H  1.01600 56.92100 42.99800
H  1.93400 58.83000 43.43800
H  2.06200 59.97500 42.06700
H  3.46600 59.39400 42.75200
H  0.47700 55.92300 40.30900
H  -0.05700 57.58700 40.50200
H  -1.39500 55.10700 41.20200
H  -1.91600 56.77300 41.62500
H  -0.90400 55.86200 42.71400
H  0.02900 50.86900 42.93400
H  0.26700 52.38300 43.72400
H  1.10900 50.91400 44.28000
H  5.37900 49.23000 41.44600
H  5.28200 45.77500 39.14400
H  4.63700 46.83200 37.82000
H  3.62100 46.19300 39.01600
Mg -10.47800 39.12300 40.71400
C  -9.58200 35.91500 39.60000
C  -7.52600 40.24900 39.49500
C  -11.70200 42.23100 41.14600
C  -13.84200 37.81400 40.93800
N  -8.85300 38.08700 39.68400
C  -8.57800 36.81500 39.43000
C  -7.11700 36.52500 38.88600
C  -6.48700 37.99000 39.05900
C  -7.70700 38.84500 39.43600
C  -5.38500 38.10900 40.24100
C  -6.95300 35.89700 37.50600
C  -6.41000 36.61800 36.22400
H  -6.24400 35.84000 34.91300
N  -9.67900 41.01700 40.33900
C  -8.41700 41.25300 39.81100
C  -8.29000 42.71200 39.59200
C  -9.52800 43.35800 40.09600
C  -10.38000 42.18100 40.59200
C  -7.13400 43.31200 38.90800
C  -9.83200 44.80800 40.10900
O  -9.04100 45.64600 39.69400
C  -11.11200 45.21500 40.68100
N  -12.59800 39.94400 40.86400
C  -12.65800 41.23400 41.31900
C  -14.16900 41.58900 41.66300
C  -14.87600 40.19200 41.63900
C  -13.69900 39.27400 41.10200
C  -14.30400 42.26700 43.06000
C  -16.28800 40.25000 40.89600
C  -17.50500 40.15400 41.78300
N  -11.54700 37.25000 40.47700
C  -12.86000 36.90800 40.55400
C  -13.04400 35.53800 40.22700
C  -11.77600 35.05400 39.96800
C  -10.89400 36.16300 40.01500
C  -14.32900 34.79800 40.20600
C  -11.01200 33.92600 39.60000
O  -11.33700 32.78100 39.38400
C  -9.53600 34.42600 39.34400
C  -8.56300 33.75600 40.11400
O  -8.54800 33.62300 41.35200
O  -7.60900 33.12400 39.29200
C  -6.38800 32.51200 39.87500
H  -6.57200 40.52500 39.04100
H  -12.04400 43.20800 41.49300
H  -14.83600 37.46800 41.22600
H  -6.64200 35.89400 39.63700
H  -6.02600 38.43500 38.17700
H  -5.56900 38.93000 40.93400
H  -4.39000 38.25000 39.81900
H  -5.28300 37.21200 40.85100
H  -7.92900 35.56500 37.15100
H  -6.26400 35.05600 37.57900
H  -5.40300 36.92100 36.50800
H  -7.03100 37.48900 36.01300
H  -7.43200 44.02000 38.13500
H  -6.54200 42.51000 38.46600
H  -6.50100 43.88700 39.58400
H  -11.95200 44.83400 40.10100
H  -11.18700 46.30100 40.73000
H  -10.98600 45.02100 41.74700
H  -14.54900 42.36100 40.99300
H  -15.09400 39.95000 42.67900
H  -15.07400 41.79600 43.67100
H  -14.51300 43.32600 42.91100
H  -13.29900 42.23700 43.48100
H  -16.22700 39.41100 40.20200
H  -16.46400 41.21100 40.41400
H  -18.21200 40.94900 41.54300
H  -17.25400 40.24900 42.84000
H  -18.01200 39.21300 41.57000
H  -14.15200 33.82800 39.74200
H  -14.96300 35.36200 39.52100
H  -14.67900 34.54300 41.20600
H  -9.40100 34.26500 38.27500
H  -5.76000 33.37600 40.09500
H  -5.89600 31.86500 39.14900
H  -6.59100 31.97400 40.80100

