158

Mg -2.46900 35.57700 26.90200
C  -3.93000 33.53400 29.36600
C  -1.19200 37.48800 29.43100
C  -1.23200 37.50000 24.51000
C  -4.11000 33.57300 24.54300
N  -2.50400 35.42100 29.16500
C  -3.12300 34.49600 29.95100
C  -2.80700 34.75200 31.47900
C  -1.81800 36.00400 31.38800
C  -1.82900 36.36100 29.90900
C  -2.20500 37.19600 32.30100
C  -2.19400 33.51200 32.26200
C  -1.25700 33.83100 33.47500
H  -1.68200 33.40900 34.88100
N  -1.30100 37.20400 26.99300
C  -0.82000 37.83600 28.05400
C  0.12600 38.82800 27.59300
C  0.13000 38.83900 26.17200
C  -0.86100 37.85400 25.80600
C  0.97200 39.61500 28.62400
C  0.88100 39.74600 25.25900
O  0.63200 39.90700 24.08500
C  1.86700 40.74000 25.95300
N  -2.70000 35.59200 24.86200
C  -2.05900 36.46900 24.01600
C  -2.38500 36.15600 22.54300
C  -3.28800 34.91100 22.58700
C  -3.38800 34.64000 24.09000
C  -3.00000 37.42500 21.78100
C  -2.62800 33.79100 21.74600
C  -1.59200 32.87900 22.53400
N  -3.88800 33.93300 26.84300
C  -4.39600 33.21400 25.84700
C  -5.15600 32.05500 26.34200
C  -4.98200 32.21500 27.73700
C  -4.16100 33.27600 27.96600
C  -5.84400 31.07900 25.56000
C  -5.25000 31.61600 29.02100
O  -5.86900 30.60300 29.31900
C  -4.58500 32.42400 30.08100
C  -5.71800 32.74800 30.99100
O  -6.83300 33.17800 30.59600
O  -5.41400 32.41000 32.23600
C  -6.47100 32.72400 33.22700
H  -0.75300 38.15300 30.17800
H  -0.78000 38.03600 23.67300
H  -4.43900 32.93000 23.72400
H  -3.78500 35.02900 31.87200
H  -0.79200 35.76000 31.66400
H  -1.48600 38.00900 32.40600
H  -2.10300 36.71800 33.27500
H  -3.24900 37.49800 32.22400
H  -1.72700 32.83900 31.54400
H  -3.05300 32.95600 32.63900
H  -1.13900 34.91300 33.53000
H  -0.31500 33.40800 33.12600
H  0.89900 39.32300 29.67100
H  0.86900 40.70000 28.62900
H  2.01200 39.31600 28.49300
H  1.39300 41.50400 26.56900
H  2.58900 40.99100 25.17700
H  2.45700 40.01000 26.50700
H  -1.43700 35.97300 22.03600
H  -4.27600 35.19100 22.22100
H  -2.17100 37.65900 21.11400
H  -3.06300 38.27500 22.46100
H  -3.98300 37.19400 21.37000
H  -2.21700 34.25100 20.84700
H  -3.47900 33.18700 21.43300
H  -1.05900 33.32600 23.37400
H  -0.88600 32.76100 21.71300
H  -1.97200 31.91300 22.86500
H  -6.85000 31.38400 25.27300
H  -5.76500 30.12500 26.08100
H  -5.28100 30.93400 24.63800
H  -3.78800 32.01400 30.70100
H  -7.14700 31.87000 33.18100
H  -7.11300 33.60000 33.13900
H  -6.05100 32.72200 34.23300
Mg -11.57300 16.97100 41.79400
C  -8.28200 15.49900 41.35300
C  -10.21500 19.96500 40.44600
C  -14.67500 18.16700 41.38100
C  -12.71000 13.86400 42.27600
N  -9.46000 17.57700 40.87000
C  -8.34100 16.77300 40.90400
C  -7.21300 17.63600 40.35400
C  -7.76000 19.14000 40.25500
C  -9.23200 18.91600 40.51900
C  -7.19000 20.26100 41.23400
C  -6.60500 17.02100 39.07400
C  -5.17800 17.55500 38.77000
H  -5.00100 18.56000 37.61300
N  -12.36000 18.79600 41.12600
C  -11.61900 19.88500 40.68200
C  -12.51900 21.08900 40.57800
C  -13.83900 20.62300 40.93400
C  -13.70400 19.12400 41.16700
C  -12.11200 22.48700 40.16900
C  -15.04700 21.41200 41.00900
O  -14.97900 22.64000 40.84600
C  -16.40400 20.89300 41.42000
N  -13.43800 16.12500 41.87900
C  -14.56200 16.84000 41.76500
C  -15.84600 16.00000 42.10300
C  -15.22200 14.55900 42.18100
C  -13.68500 14.80600 42.14000
C  -16.58900 16.34700 43.38400
C  -15.55300 13.65200 40.92600
C  -16.20900 12.26900 41.33200
N  -10.67000 15.05500 41.97500
C  -11.30600 13.87000 42.14800
C  -10.23900 12.90100 42.43000
C  -9.05100 13.47700 42.12800
C  -9.31800 14.78500 41.83000
C  -10.52000 11.43900 42.83300
C  -7.59300 13.27100 42.04100
O  -6.82000 12.34300 42.25900
C  -7.03700 14.59200 41.53000
C  -6.05500 15.17100 42.54800
O  -6.38100 15.94700 43.42800
O  -4.74300 14.70700 42.26900
C  -3.62700 15.35400 42.99300
H  -9.74400 20.89100 40.11100
H  -15.70900 18.51800 41.38100
H  -13.05300 12.86200 42.53800
H  -6.49500 17.64100 41.17500
H  -7.68200 19.57400 39.25800
H  -7.93400 20.31900 42.02900
H  -7.18800 21.17800 40.64400
H  -6.16300 20.07900 41.55000
H  -7.34000 17.37800 38.35300
H  -6.62200 15.93300 39.00100
H  -4.62200 16.73600 38.31400
H  -4.68400 17.87600 39.68700
H  -12.30200 23.16700 41.00000
H  -12.61400 22.76200 39.24100
H  -11.06200 22.42800 39.88100
H  -17.14800 21.67300 41.58200
H  -16.31400 20.39300 42.38500
H  -16.67300 20.26000 40.57500
H  -16.59000 16.07200 41.31000
H  -15.57900 14.08600 43.09500
H  -17.67700 16.38800 43.32000
H  -16.22000 17.32600 43.69000
H  -16.35700 15.54900 44.08900
H  -14.66500 13.45500 40.32600
H  -16.30600 14.17800 40.33900
H  -17.17900 12.08800 40.87000
H  -16.24800 12.07300 42.40400
H  -15.48100 11.54500 40.96500
H  -11.26800 10.94900 42.21000
H  -10.96500 11.36600 43.82500
H  -9.62200 10.84000 42.67800
H  -6.46300 14.41600 40.62000
H  -2.96700 15.93100 42.34600
H  -3.13600 14.49100 43.44400
H  -3.94300 15.99700 43.81400

