158

Mg 25.73800 1.74700 29.55400
C  27.75300 1.15500 32.49100
C  23.14300 2.12800 31.53400
C  23.89100 1.66100 26.76300
C  28.58600 0.57300 27.63800
N  25.55900 1.65400 31.77300
C  26.42100 1.53500 32.82000
C  25.75300 1.70700 34.21200
C  24.31800 1.72300 33.79800
C  24.29900 1.86900 32.23800
C  23.36300 0.56900 34.40100
C  26.22500 3.00400 35.07400
C  26.65500 2.72700 36.41500
H  26.57600 3.73000 37.54000
N  23.74800 2.18000 29.18200
C  22.83200 2.32100 30.12900
C  21.53500 2.55200 29.49000
C  21.71500 2.35100 28.07800
C  23.15500 1.96900 27.99300
C  20.32500 2.96500 30.27100
C  20.74500 2.45900 26.91600
O  21.12300 2.27700 25.76500
C  19.32500 2.76000 27.14200
N  26.14300 1.02300 27.58200
C  25.21800 1.27200 26.56800
C  25.87100 1.23900 25.14500
C  27.40300 1.09600 25.47300
C  27.40900 0.79700 26.97000
C  25.23700 0.19600 24.10400
C  28.28900 2.29800 24.95500
C  28.82700 2.23000 23.58600
N  27.73000 0.98700 29.96600
C  28.75000 0.61300 29.07500
C  29.99800 0.47100 29.84400
C  29.61300 0.61800 31.14500
C  28.25400 0.87200 31.22500
C  31.33900 0.04700 29.23400
C  30.13100 0.50000 32.52200
O  31.24600 0.24900 32.99700
C  28.92300 0.96900 33.39800
C  28.72000 -0.05600 34.46800
O  27.90500 -0.92900 34.55200
O  29.64700 0.20100 35.45800
C  29.51200 -0.58700 36.66100
H  22.26600 1.86200 32.12800
H  23.31900 1.79600 25.84200
H  29.40900 0.36400 26.95100
H  25.94300 0.83800 34.84200
H  23.87700 2.63300 34.20400
H  23.96800 -0.30400 34.64900
H  22.56200 0.28800 33.71700
H  23.01900 0.96600 35.35600
H  25.47500 3.79500 35.06400
H  27.11500 3.19500 34.47400
H  27.72900 2.68000 36.23500
H  26.39100 1.72300 36.74800
H  19.98300 3.95600 29.97200
H  20.62800 2.90200 31.31600
H  19.42400 2.36800 30.12900
H  18.77800 2.52900 26.22800
H  19.06300 3.77700 27.43100
H  18.92500 2.01200 27.82800
H  25.61600 2.17900 24.65700
H  27.74000 0.23100 24.90300
H  24.22400 -0.07000 24.40600
H  25.87300 -0.68000 23.98200
H  25.13200 0.69100 23.13800
H  29.00800 2.69100 25.67400
H  27.50200 3.02900 24.76800
H  28.60300 1.28200 23.09700
H  29.89200 2.44100 23.68200
H  28.50000 3.14200 23.08600
H  31.35400 -0.74100 28.48100
H  31.87700 -0.39900 30.07100
H  31.99600 0.86900 28.95000
H  29.04000 1.89200 33.96600
H  28.45800 -0.62900 36.93400
H  30.19100 -0.14700 37.39200
H  29.87000 -1.58500 36.40900
Mg 0.70900 42.34500 26.02900
C  2.28900 42.40200 29.25200
C  -2.18800 41.31800 27.77400
C  -0.61600 41.58300 23.15200
C  3.63400 43.35200 24.67500
N  0.07500 42.16600 28.37900
C  0.93800 42.16900 29.44800
C  0.20400 41.96000 30.79500
C  -1.16200 41.48300 30.28800
C  -1.14200 41.71100 28.70500
C  -1.41400 40.01500 30.73100
C  0.19000 43.35700 31.59000
C  0.40600 43.38400 33.13000
H  0.14800 42.10300 33.88400
N  -1.16300 41.66200 25.46400
C  -2.21300 41.30900 26.35300
C  -3.34700 40.86600 25.56100
C  -2.92200 41.01300 24.21000
C  -1.53900 41.39400 24.23000
C  -4.66000 40.54500 26.26500
C  -3.74400 40.73300 22.96300
O  -3.36100 40.93000 21.80700
C  -5.16800 40.28300 23.12300
N  1.48100 42.18800 24.24400
C  0.74700 41.97000 23.14300
C  1.51300 42.31400 21.80600
C  2.79400 42.98400 22.35400
C  2.59500 42.95500 23.85100
C  1.73200 41.00100 21.10600
C  3.03700 44.45900 21.76600
C  1.84200 45.41800 21.67200
N  2.66600 42.82800 26.70100
C  3.77300 43.19000 26.00900
C  4.88300 43.27200 26.92000
C  4.38200 42.93700 28.17000
C  2.96400 42.72000 28.04900
C  6.30000 43.72600 26.69300
C  4.72400 42.74900 29.57200
O  5.78000 42.68200 30.18900
C  3.29700 42.56700 30.30600
C  3.45100 41.42200 31.25000
O  3.19400 40.26200 30.99500
O  3.93000 41.88200 32.43600
C  4.08000 40.83000 33.47300
H  -3.01800 40.94400 28.37800
H  -1.00200 41.45600 22.13900
H  4.45100 43.80600 24.10800
H  0.76400 41.26500 31.42200
H  -1.97600 42.08200 30.69500
H  -2.39100 39.99300 31.21400
H  -0.66100 39.75700 31.47600
H  -1.32400 39.30500 29.90900
H  -0.79200 43.82200 31.49700
H  0.93800 44.04300 31.19400
H  -0.24000 44.11300 33.61700
H  1.43600 43.69700 33.30300
H  -4.29000 40.02200 27.14700
H  -5.36900 39.94700 25.69200
H  -5.19000 41.42600 26.62500
H  -5.60000 40.11200 22.13700
H  -5.77500 41.08900 23.53500
H  -5.10800 39.41400 23.77900
H  1.01700 42.96500 21.08600
H  3.72700 42.45900 22.14600
H  2.73100 40.98900 20.67000
H  0.95700 40.92200 20.34400
H  1.63200 40.10000 21.71100
H  3.59200 44.46500 20.82700
H  3.69100 45.06200 22.39600
H  0.93000 45.04500 22.13900
H  1.76100 45.64900 20.61000
H  2.10300 46.36000 22.15500
H  6.91700 42.88200 26.38700
H  6.63100 44.18200 27.62700
H  6.26300 44.51100 25.93800
H  3.13600 43.44300 30.93500
H  5.10900 40.47000 33.47300
H  3.47000 39.95300 33.25800
H  3.83300 41.26600 34.44100

