158

Mg 45.76700 4.44900 47.89500
C  43.35000 6.88100 47.30500
C  43.21100 2.10600 47.81000
C  48.11000 2.04800 47.84200
C  48.14400 6.94000 47.69800
N  43.57600 4.41800 47.49100
C  42.79600 5.60200 47.40000
C  41.38100 5.25500 47.14600
C  41.27800 3.82900 47.81300
C  42.75400 3.40500 47.73600
C  40.76900 3.93900 49.23000
C  41.05900 5.34700 45.60200
C  39.90300 6.37500 45.18900
H  40.18900 7.51600 44.17100
N  45.67900 2.34400 47.79800
C  44.51600 1.59200 47.68600
C  44.89800 0.22700 47.61700
C  46.33200 0.11500 47.53000
C  46.78900 1.51800 47.78300
C  43.82900 -0.93000 47.55700
C  47.09900 -1.17600 47.19300
O  46.57500 -2.28400 47.15600
C  48.60300 -1.18600 47.03500
N  47.75800 4.50000 47.87000
C  48.57700 3.32600 47.91000
C  50.06000 3.70400 47.82200
C  49.98000 5.24200 47.89700
C  48.53900 5.62600 47.82700
C  50.91700 2.97700 48.85600
C  50.94800 5.90100 46.80200
C  52.19200 6.73300 47.30200
N  45.80100 6.58600 47.62700
C  46.86100 7.41800 47.59200
C  46.29900 8.74700 47.36600
C  44.93600 8.61900 47.28200
C  44.70300 7.25000 47.43000
C  47.05900 10.00400 47.11400
C  43.69600 9.31600 47.18400
O  43.56600 10.54100 47.07500
C  42.62600 8.25100 47.13500
C  41.65400 8.58600 48.20600
O  41.53600 7.96700 49.28200
O  40.79500 9.62700 47.88000
C  39.71800 9.94900 48.80400
H  42.42900 1.34500 47.75300
H  48.98600 1.39900 47.78000
H  48.93400 7.69400 47.65000
H  40.81100 5.95200 47.76000
H  40.56600 3.25100 47.22200
H  41.09800 3.03800 49.74800
H  39.68200 4.01300 49.25600
H  41.16400 4.83200 49.71300
H  40.70900 4.36200 45.29400
H  41.96400 5.66700 45.08500
H  39.48600 6.78800 46.10800
H  39.09400 5.77100 44.77700
H  42.96700 -0.75900 46.91200
H  43.42900 -1.02700 48.56600
H  44.18800 -1.93100 47.31900
H  49.06500 -2.09400 46.64800
H  49.12200 -0.84400 47.93100
H  48.75700 -0.42400 46.27100
H  50.25700 3.18800 46.88200
H  50.32500 5.64500 48.84900
H  51.63500 3.70900 49.22400
H  51.41100 2.17200 48.31100
H  50.34200 2.55400 49.67900
H  50.40500 6.55600 46.12000
H  51.40900 5.11300 46.20800
H  52.21700 7.59800 46.64000
H  53.11600 6.19200 47.09500
H  52.14100 7.03000 48.34900
H  46.50000 10.87000 46.76000
H  47.78900 9.72200 46.35500
H  47.67600 10.30000 47.96300
H  42.04800 8.34700 46.21600
H  39.88800 10.79900 49.46400
H  39.42300 9.09300 49.41000
H  38.82600 10.12900 48.20400
Mg 48.14700 15.74700 27.50900
C  46.33800 15.76100 30.54100
C  50.44400 17.65800 28.89000
C  49.56600 16.08400 24.36700
C  45.27700 14.26900 25.85700
N  48.22400 16.66500 29.51600
C  47.54800 16.38900 30.66300
C  48.13200 17.02400 31.90100
C  49.38300 17.78600 31.28300
C  49.35300 17.40400 29.79500
C  49.29800 19.29400 31.52200
C  48.50500 15.97400 32.97700
C  47.94300 16.38700 34.35100
H  47.82400 17.86500 34.71700
N  49.81400 16.71100 26.73500
C  50.66600 17.40800 27.50100
C  51.82100 17.82900 26.73500
C  51.60100 17.40200 25.38000
C  50.27400 16.69100 25.44100
C  52.98100 18.55200 27.24800
C  52.52300 17.61200 24.13200
O  52.15700 17.30700 23.00500
C  53.88700 18.17900 24.26700
N  47.51000 15.10100 25.44200
C  48.30900 15.46700 24.40300
C  47.73900 14.89100 23.08200
C  46.43400 14.19000 23.53000
C  46.38700 14.50200 25.03000
C  47.57700 15.81300 21.89800
C  46.30000 12.66200 23.11900
C  45.49200 12.48000 21.80500
N  46.27700 15.17200 28.02500
C  45.21900 14.54200 27.27100
C  44.12800 14.29200 28.11800
C  44.49400 14.74400 29.40500
C  45.83300 15.21000 29.30200
C  42.79300 13.59100 27.73500
C  44.07300 14.92000 30.74800
O  42.98000 14.84400 31.22400
C  45.28200 15.47800 31.55500
C  44.85200 16.68000 32.27800
O  44.54200 17.78500 31.84500
O  44.53000 16.36400 33.58300
C  43.87200 17.25900 34.49200
H  51.32400 18.15800 29.29900
H  50.02300 16.15000 23.37800
H  44.49300 13.83100 25.23500
H  47.39100 17.73600 32.26300
H  50.40500 17.50300 31.53500
H  48.85600 19.85000 30.69500
H  50.30900 19.64300 31.73400
H  48.67400 19.39300 32.41000
H  49.58500 15.83100 32.96000
H  47.98800 15.03100 32.79600
H  48.62600 15.93000 35.06700
H  46.91200 16.05000 34.45900
H  53.17100 19.40100 26.59300
H  53.87000 17.93300 27.36600
H  52.69800 19.01200 28.19500
H  54.51200 17.77800 25.06500
H  53.82300 19.26100 24.38400
H  54.27700 18.01400 23.26300
H  48.46600 14.11900 22.83000
H  45.61400 14.74800 23.07800
H  48.55900 15.85400 21.42700
H  47.40800 16.86100 22.14200
H  46.77800 15.57300 21.19600
H  45.65600 12.13800 23.82500
H  47.27700 12.18000 23.15800
H  46.10500 12.02800 21.02500
H  45.14900 13.42000 21.37400
H  44.60500 11.87100 21.97900
H  42.12900 14.31200 27.25800
H  42.44300 13.29700 28.72400
H  42.89900 12.68400 27.14000
H  45.44200 14.70200 32.30500
H  43.76900 16.64200 35.38500
H  42.90900 17.65000 34.16400
H  44.45000 18.14900 34.74200

