158

Mg 46.32000 24.83500 28.23500
C  47.32400 26.91300 30.95900
C  45.57900 22.42900 30.55800
C  46.36100 22.65900 25.76500
C  47.38200 27.43400 26.10800
N  46.32400 24.77400 30.47900
C  46.71300 25.74100 31.34600
C  46.25800 25.35600 32.81600
C  45.88500 23.83900 32.68000
C  45.92300 23.65200 31.14200
C  46.88000 22.81300 33.32700
C  45.22700 26.32900 33.48600
C  45.54800 27.01100 34.80500
H  44.49800 27.08700 35.92900
N  45.94100 22.87700 28.20700
C  45.57800 22.03600 29.22300
C  45.18300 20.77900 28.67600
C  45.45600 20.76700 27.26600
C  46.00200 22.16800 27.00500
C  44.53600 19.66200 29.44400
C  45.11600 19.69000 26.19500
O  45.32200 19.85300 25.02400
C  44.59400 18.41000 26.58600
N  46.77600 25.02500 26.23700
C  46.72600 23.97200 25.37300
C  47.23900 24.36200 23.95800
C  47.21300 25.92500 24.05300
C  47.14600 26.16900 25.53500
C  48.57300 23.81400 23.39400
C  46.06600 26.61100 23.24000
C  46.46700 27.59800 22.18600
N  47.17300 26.74400 28.37100
C  47.53300 27.74600 27.46800
C  48.17800 28.85200 28.06100
C  47.97300 28.57800 29.47300
C  47.47200 27.24700 29.60700
C  48.91600 29.91200 27.38400
C  48.26800 29.14600 30.77300
O  48.86600 30.18600 30.99400
C  47.73900 28.10800 31.90700
C  48.95100 27.77100 32.75200
O  50.12900 27.63700 32.37000
O  48.59400 27.64800 34.08900
C  49.52500 27.29200 35.12500
H  45.29100 21.66700 31.28600
H  46.34900 21.90500 24.97500
H  47.65200 28.14200 25.32200
H  47.12000 25.36900 33.48200
H  44.85300 23.67300 32.99000
H  47.02000 23.18800 34.34100
H  47.82200 22.87700 32.78300
H  46.56700 21.77600 33.45000
H  44.31600 25.73900 33.58900
H  45.06500 27.12900 32.76400
H  45.77600 28.07000 34.68200
H  46.38400 26.48200 35.26300
H  45.04900 18.70900 29.31600
H  43.48100 19.52500 29.20600
H  44.51600 19.93000 30.50000
H  45.26000 17.88200 27.26800
H  44.31500 17.75600 25.76000
H  43.69800 18.71300 27.12800
H  46.57500 24.07600 23.14300
H  48.09800 26.47100 23.72600
H  48.42200 23.49800 22.36200
H  49.01000 23.03300 24.01500
H  49.34200 24.58600 23.36800
H  45.29900 27.04600 23.88100
H  45.55700 25.85600 22.64200
H  47.51000 27.53300 21.87700
H  46.26100 28.57200 22.63200
H  45.84900 27.46500 21.29800
H  49.11200 29.72000 26.32900
H  49.92800 30.02500 27.77200
H  48.39300 30.86100 27.50400
H  46.90600 28.49800 32.49200
H  49.62500 28.16300 35.77200
H  50.51000 27.12500 34.68900
H  49.17900 26.44100 35.71100
Mg -9.96400 17.18100 42.52200
C  -6.47900 16.79600 42.28400
C  -9.51500 20.43100 41.63300
C  -13.30500 17.50800 42.39300
C  -10.17200 13.69700 42.67800
N  -8.05200 18.44800 41.97000
C  -6.78700 18.12100 41.97000
C  -5.89300 19.39800 41.62700
C  -6.90600 20.60700 41.54600
C  -8.27800 19.82300 41.78900
C  -6.62500 21.89700 42.35400
C  -5.05300 19.21500 40.38500
C  -5.56700 18.20800 39.27600
H  -4.88100 18.50100 37.85900
N  -11.29200 18.76400 42.18100
C  -10.85700 19.98800 41.82300
C  -12.05300 20.80200 41.56400
C  -13.25600 20.05800 41.86900
C  -12.69200 18.74000 42.27000
C  -11.90300 22.19000 41.00100
C  -14.72600 20.48700 41.82700
O  -15.13900 21.58900 41.37000
C  -15.86300 19.59800 42.20900
N  -11.47200 15.72200 42.29000
C  -12.81700 16.18100 42.33800
C  -13.75200 14.93800 42.63800
C  -12.72600 13.81700 42.59000
C  -11.36400 14.43500 42.56600
C  -14.47100 15.12300 44.05800
C  -12.97500 12.73700 41.45500
C  -13.04300 11.23600 41.87900
N  -8.60300 15.52900 42.65400
C  -8.86900 14.15900 42.74400
C  -7.66100 13.41800 42.82900
C  -6.68100 14.41400 42.74100
C  -7.25500 15.69300 42.54500
C  -7.46600 11.94300 42.88100
C  -5.32600 14.63600 42.71500
O  -4.30000 13.91300 42.73000
C  -5.15800 16.16800 42.49300
C  -4.31700 16.65900 43.71000
O  -3.15700 17.02900 43.60800
O  -5.09600 16.72100 44.83400
C  -4.52400 17.60600 45.86700
H  -9.26600 21.47200 41.41600
H  -14.38000 17.33200 42.47600
H  -10.30900 12.61700 42.76500
H  -5.25900 19.58500 42.49300
H  -6.90500 20.93900 40.50800
H  -5.59500 21.90300 42.71200
H  -7.28000 21.92200 43.22500
H  -6.79600 22.69800 41.63500
H  -4.00000 19.14700 40.66000
H  -4.96800 20.10300 39.75800
H  -6.65400 18.15700 39.20500
H  -5.25900 17.19900 39.54900
H  -11.16200 22.09700 40.20700
H  -11.40700 22.93900 41.61800
H  -12.89900 22.44400 40.63800
H  -15.99100 18.87400 41.40400
H  -16.74900 20.19500 42.42300
H  -15.61000 19.14300 43.16700
H  -14.47500 14.88800 41.82400
H  -12.63000 13.29400 43.54100
H  -14.45000 14.16800 44.58300
H  -15.44300 15.48100 43.71700
H  -13.93300 15.85600 44.65900
H  -12.19000 12.89600 40.71600
H  -13.90400 13.02900 40.96500
H  -13.98500 10.71700 41.69800
H  -12.76500 11.07600 42.92100
H  -12.23300 10.70700 41.37700
H  -8.34900 11.34300 42.66000
H  -6.96400 11.56200 43.77000
H  -6.66400 11.66300 42.20000
H  -4.62300 16.48300 41.59700
H  -3.85900 18.34200 45.41500
H  -4.03000 17.12900 46.71300
H  -5.24300 18.25700 46.36400

