158

Mg 35.48900 1.71800 29.81000
C  33.16400 2.71100 32.20700
C  37.87800 1.71300 32.39700
C  37.94900 1.37200 27.56800
C  33.16100 1.94900 27.35700
N  35.57100 2.43500 32.08000
C  34.44500 2.56400 32.81000
C  34.76900 2.73700 34.30800
C  36.27400 2.67600 34.32800
C  36.57400 2.15800 32.87600
C  37.21100 3.87000 34.74400
C  33.98400 1.62500 35.08000
C  33.41300 2.07800 36.45600
H  34.04100 3.26600 37.18000
N  37.59100 1.45900 29.96100
C  38.36000 1.56500 31.10200
C  39.71500 1.19500 30.75800
C  39.77900 1.10000 29.37800
C  38.40800 1.37600 28.89100
C  40.89600 1.07700 31.81100
C  41.06600 0.78600 28.46900
O  40.88700 0.63700 27.26000
C  42.47600 0.73400 29.07800
N  35.55300 1.63100 27.80000
C  36.66300 1.44300 27.00700
C  36.30300 1.24000 25.49900
C  34.75500 1.00700 25.59500
C  34.47200 1.58600 27.04700
C  36.88700 2.35300 24.66400
C  34.35800 -0.45700 25.36300
C  33.95400 -0.88100 23.92100
N  33.46600 2.22000 29.71400
C  32.69000 2.37500 28.62000
C  31.33900 2.62200 29.12500
C  31.44100 2.82900 30.52500
C  32.78400 2.58500 30.83100
C  30.18200 2.84400 28.24000
C  30.75200 3.22200 31.77700
O  29.64000 3.61900 31.99700
C  31.83600 3.18800 32.89400
C  31.97500 4.58500 33.30700
O  32.71700 5.40100 32.76800
O  31.10800 4.84700 34.38400
C  31.14000 6.26300 34.81800
H  38.55800 1.71400 33.25100
H  38.69300 1.31700 26.77100
H  32.54700 1.86700 26.45800
H  34.38800 3.73700 34.51700
H  36.49600 1.86100 35.01700
H  36.66800 4.81100 34.83700
H  37.96300 4.11800 33.99500
H  37.63100 3.79100 35.74600
H  34.71200 0.82600 35.22300
H  33.17000 1.15700 34.52600
H  33.57500 1.19700 37.07700
H  32.33200 2.14900 36.33900
H  40.43500 1.18000 32.79300
H  41.63800 1.87300 31.75800
H  41.40900 0.11700 31.86700
H  42.62700 -0.13000 29.72400
H  42.57100 1.69100 29.59200
H  43.29000 0.65000 28.35800
H  36.82100 0.34000 25.16800
H  34.22800 1.68300 24.92200
H  36.21200 2.92000 24.02300
H  37.71800 1.91400 24.11100
H  37.38500 3.09600 25.28600
H  33.57000 -0.71600 26.07100
H  35.19300 -1.02500 25.77200
H  34.80500 -0.74600 23.25400
H  33.09400 -0.25800 23.67700
H  33.64700 -1.91600 24.07300
H  29.85000 1.87300 27.87100
H  30.46600 3.49200 27.41100
H  29.41700 3.42300 28.75600
H  31.58800 2.51400 33.71400
H  32.07800 6.49400 35.32200
H  30.27100 6.47400 35.44100
H  30.95200 6.95000 33.99200
Mg 47.77100 15.16300 28.36800
C  45.86500 15.26400 31.34200
C  49.93600 17.35300 29.82100
C  49.32600 15.30800 25.47900
C  45.16500 13.19700 26.87500
N  47.89300 16.19300 30.42100
C  47.07000 16.06300 31.48200
C  47.68100 16.73500 32.70300
C  48.89500 17.51000 32.11600
C  48.87400 17.06500 30.67100
C  48.82500 19.01500 32.34600
C  47.88700 15.83900 33.86100
C  47.14900 16.08000 35.23500
H  47.02500 17.49000 35.76500
N  49.35000 16.16600 27.72300
C  50.12200 17.06300 28.43800
C  51.29000 17.43500 27.65100
C  51.18400 16.79600 26.39700
C  49.92000 16.01900 26.50500
C  52.34100 18.36300 28.14500
C  51.99800 16.99600 25.16100
O  51.81900 16.36500 24.12500
C  53.22600 17.86400 25.25000
N  47.32400 14.31700 26.46400
C  48.12600 14.50700 25.41500
C  47.59700 13.95700 24.10500
C  46.32300 13.26600 24.57000
C  46.27500 13.58300 26.06300
C  47.36200 15.12200 22.97800
C  46.18300 11.67400 24.28600
C  46.87600 10.66900 25.23100
N  45.98000 14.37800 28.95200
C  45.00700 13.60800 28.22800
C  43.85600 13.31000 29.05300
C  44.22100 13.96400 30.26700
C  45.46600 14.56600 30.14000
C  42.66300 12.42400 28.69300
C  43.70800 14.16300 31.62200
O  42.65800 13.65700 32.08300
C  44.82400 14.96300 32.44400
C  44.02100 16.13900 32.94700
O  43.82800 17.17400 32.33900
O  43.55100 15.89700 34.24000
C  42.75800 16.98000 34.85100
H  50.64500 18.07400 30.23200
H  49.92000 15.27600 24.56400
H  44.29500 12.64200 26.51800
H  46.86600 17.39300 33.00700
H  49.75000 17.01700 32.57900
H  48.10900 19.24800 33.13400
H  48.56800 19.61100 31.47100
H  49.77700 19.43400 32.67400
H  48.93100 15.82800 34.17300
H  47.51500 14.89300 33.46500
H  47.72800 15.37000 35.82600
H  46.09700 15.81300 35.13200
H  52.07200 19.40400 27.96200
H  53.36700 18.16100 27.83700
H  52.45500 18.36300 29.22900
H  53.17100 18.85000 25.71000
H  53.39300 18.06000 24.19100
H  54.05800 17.34900 25.72900
H  48.39000 13.26800 23.81500
H  45.45400 13.68000 24.05800
H  46.49600 14.85900 22.37000
H  48.21200 15.04500 22.30000
H  47.36300 16.10400 23.45100
H  46.49400 11.54000 23.25000
H  45.14600 11.36800 24.42800
H  47.39200 11.11800 26.07900
H  47.63900 10.10800 24.69100
H  46.19200 9.90300 25.59600
H  42.99900 11.56300 28.11600
H  42.05500 13.07500 28.06400
H  42.06100 12.03500 29.51500
H  45.11800 14.51200 33.39200
H  41.74300 16.67500 35.10700
H  42.60100 17.90000 34.28800
H  43.25300 17.31000 35.76400

