158

Mg 0.20700 7.79300 26.34700
C  1.24500 9.51600 29.16700
C  0.13100 4.87900 28.03100
C  -0.16000 6.16800 23.40800
C  0.31000 10.85500 24.55300
N  0.73100 7.27800 28.32700
C  1.05200 8.13400 29.39800
C  0.99400 7.37600 30.66500
C  0.79200 5.83200 30.26800
C  0.47300 5.98800 28.77700
C  2.07600 4.96700 30.51500
C  -0.15900 7.99800 31.52900
C  0.19100 8.38600 32.98400
H  1.27200 7.58400 33.80500
N  0.08300 5.75700 25.79800
C  0.01100 4.74700 26.61700
C  -0.24200 3.51000 25.94100
C  -0.18300 3.84600 24.60000
C  -0.18100 5.31200 24.52500
C  -0.45100 2.19900 26.65800
C  -0.34900 2.94300 23.32600
O  -0.38700 3.36800 22.15400
C  -0.38600 1.50900 23.45600
N  0.02900 8.43300 24.37000
C  -0.08600 7.52000 23.35800
C  -0.12000 8.14800 22.03600
C  -0.36900 9.68400 22.38300
C  0.04100 9.67600 23.84800
C  1.09100 7.92300 21.08700
C  -1.82400 10.22400 22.18700
C  -2.03000 11.48100 21.28000
N  0.60300 9.83100 26.81600
C  0.70500 10.90000 25.88200
C  1.19100 12.06400 26.64100
C  1.50100 11.62100 27.94300
C  1.03500 10.22600 27.95300
C  1.57600 13.43300 26.03700
C  2.00400 11.94200 29.27000
O  2.47800 13.03400 29.69600
C  1.67000 10.61600 30.09100
C  2.78000 10.21800 30.97100
O  3.84700 9.69900 30.62900
O  2.54100 10.74000 32.25100
C  3.68500 10.78000 33.13600
H  -0.09100 4.01700 28.66300
H  -0.33100 5.55600 22.52000
H  0.25000 11.74900 23.92900
H  1.95100 7.42000 31.18400
H  -0.05500 5.35500 30.76100
H  2.75300 5.43700 31.22800
H  2.58900 4.73800 29.58100
H  1.63300 4.08800 30.98300
H  -0.99000 7.29800 31.44700
H  -0.42100 8.88300 30.95000
H  -0.74900 8.28800 33.52700
H  0.49100 9.43000 32.89500
H  -0.93500 1.52200 25.95500
H  -1.07000 2.38000 27.53600
H  0.48500 1.81300 27.06200
H  -1.35400 1.27300 23.89900
H  0.45100 1.14200 24.05000
H  -0.47200 1.20500 22.41300
H  -0.97800 7.68300 21.55000
H  0.26600 10.36000 21.81100
H  1.23000 6.87900 20.80800
H  2.00200 8.29300 21.55700
H  0.76500 8.43200 20.18000
H  -2.29800 10.25200 23.16800
H  -2.36100 9.40100 21.71600
H  -2.68100 11.20100 20.45200
H  -1.10500 11.82300 20.81700
H  -2.47900 12.35000 21.76000
H  2.47600 13.88400 26.45600
H  0.77500 14.09500 26.36400
H  1.51900 13.31900 24.95400
H  0.85100 10.87000 30.76400
H  4.67800 10.51500 32.77200
H  3.41000 10.08700 33.93000
H  3.80700 11.78900 33.53000
Mg 6.57800 54.28300 42.18700
C  6.00300 50.81000 41.58700
C  9.57000 53.86200 40.57500
C  6.52800 57.55300 41.71500
C  3.25200 54.42000 43.24500
N  7.51000 52.54600 41.07300
C  7.18000 51.22200 40.99600
C  8.29100 50.37100 40.45200
C  9.56500 51.32000 40.64800
C  8.85000 52.69800 40.86500
C  10.60400 50.97400 41.62800
C  8.04700 49.86100 39.04700
C  7.30400 50.70900 38.06600
H  6.82200 50.19800 36.79500
N  7.95900 55.58100 41.38600
C  9.17900 55.21300 40.87900
C  9.95500 56.42600 40.76000
C  9.08100 57.52400 40.95100
C  7.74700 56.95100 41.30600
C  11.45600 56.46800 40.57800
C  9.38900 58.96200 40.73500
O  10.54700 59.30400 40.36100
C  8.43700 60.02600 40.81300
N  5.09000 55.73900 42.47500
C  5.30500 57.00500 42.19000
C  4.05900 57.91900 42.55500
C  2.98300 56.91300 42.77700
C  3.79600 55.58100 42.89100
C  4.38500 58.94600 43.69400
C  1.81200 56.76700 41.73800
C  0.49400 57.06000 42.34000
N  5.02600 52.92500 42.52500
C  3.80500 53.11300 43.16400
C  3.17400 51.90100 43.58700
C  3.99500 50.95400 42.87700
C  5.02400 51.61300 42.21400
C  2.02400 51.69000 44.53400
C  4.20500 49.57500 42.70500
O  3.56700 48.65800 43.13500
C  5.47400 49.37800 41.76700
C  5.11500 48.63200 40.48600
O  4.30800 48.99500 39.67700
O  5.79700 47.48800 40.32200
C  5.27300 46.53100 39.35700
H  10.61400 53.69500 40.30300
H  6.46200 58.64300 41.74600
H  2.24600 54.36700 43.66700
H  8.35300 49.51000 41.11700
H  10.06200 51.49700 39.69500
H  10.40400 49.99900 42.07300
H  10.56800 51.73800 42.40500
H  11.60600 50.92600 41.20100
H  7.78500 48.80300 39.07700
H  9.05600 49.77800 38.64300
H  7.95000 51.57800 37.93600
H  6.41200 51.10600 38.55000
H  11.65000 57.05500 39.68100
H  11.95200 55.51600 40.38700
H  11.97100 57.00000 41.37700
H  7.55600 59.83500 40.20200
H  8.87600 60.98200 40.52900
H  8.08800 60.04300 41.84600
H  3.71100 58.53200 41.72400
H  2.63200 57.14600 43.78200
H  5.44100 59.02600 43.95200
H  3.83100 58.59300 44.56400
H  3.99400 59.94200 43.48500
H  1.82100 55.80300 41.22900
H  2.10100 57.48800 40.97200
H  0.27500 56.41600 43.19200
H  -0.22600 56.79000 41.56700
H  0.49300 58.08900 42.70000
H  1.87600 52.53900 45.20100
H  2.17200 50.77100 45.10200
H  1.13300 51.67700 43.90600
H  6.19500 48.78000 42.32500
H  5.76000 45.57200 39.53200
H  5.38900 46.90000 38.33800
H  4.23500 46.31500 39.61000

