158

Mg 16.68300 -1.95700 28.79300
C  15.25700 0.25300 31.15500
C  18.57200 -3.31400 31.43100
C  18.16800 -3.90200 26.63000
C  15.22400 -0.03400 26.32200
N  16.83300 -1.53400 31.02100
C  16.23600 -0.62900 31.75900
C  16.63000 -0.73200 33.22000
C  17.86400 -1.69700 33.20600
C  17.72900 -2.19200 31.81700
C  19.23900 -1.11800 33.69100
C  15.36900 -1.18900 34.16100
C  15.28000 -0.87600 35.71400
H  16.51000 -0.36800 36.46600
N  18.10300 -3.40200 29.00400
C  18.69500 -3.90100 30.13900
C  19.45900 -5.11600 29.81800
C  19.29200 -5.32000 28.45600
C  18.41000 -4.23300 27.99300
C  20.31800 -5.77500 30.91600
C  19.85800 -6.50300 27.60300
O  19.48100 -6.73000 26.46300
C  20.83400 -7.55700 28.16500
N  16.82600 -1.81800 26.77600
C  17.43500 -2.79200 26.06300
C  17.19500 -2.60000 24.55000
C  16.34800 -1.41600 24.46700
C  16.06300 -1.05400 25.92500
C  18.52000 -2.47800 23.84000
C  15.01100 -1.70000 23.79400
C  14.27700 -0.50200 23.21900
N  15.41900 -0.32300 28.73000
C  14.91200 0.35000 27.58000
C  14.12600 1.48700 27.93800
C  14.11900 1.37600 29.41300
C  14.98800 0.29600 29.77400
C  13.49200 2.46700 27.10400
C  13.68400 1.98800 30.59600
O  12.90700 2.96800 30.73800
C  14.37600 1.25000 31.75500
C  15.10800 2.33700 32.52300
O  15.97400 3.06600 32.07200
O  14.76600 2.37600 33.84100
C  15.50500 3.33000 34.62700
H  19.05200 -3.65800 32.34900
H  18.52300 -4.67000 25.94000
H  14.84400 0.64700 25.55700
H  16.89900 0.26000 33.58200
H  17.63300 -2.60700 33.75900
H  19.12800 -0.31700 34.42200
H  19.84800 -0.73700 32.87200
H  19.75200 -1.96800 34.14300
H  15.30300 -2.27700 34.15300
H  14.39900 -0.85700 33.79200
H  14.97700 -1.85100 36.09700
H  14.52800 -0.11200 35.91200
H  19.73900 -6.56400 31.39600
H  20.79400 -5.10700 31.63400
H  21.15100 -6.32800 30.48200
H  21.78400 -7.05200 28.33800
H  20.96000 -8.36000 27.43900
H  20.55700 -8.02000 29.11200
H  16.76700 -3.57400 24.31200
H  16.80800 -0.49000 24.12300
H  18.63400 -3.40100 23.27200
H  19.31500 -2.35100 24.57500
H  18.46500 -1.62700 23.16000
H  14.25900 -2.17100 24.42700
H  15.20500 -2.38700 22.97100
H  13.41100 -0.32500 23.85700
H  13.97600 -0.87000 22.23900
H  14.95500 0.34500 23.10800
H  12.47500 2.57900 27.47800
H  13.35600 1.89300 26.18800
H  13.90100 3.45000 26.87000
H  13.71400 0.58200 32.30600
H  16.59100 3.30900 34.53900
H  15.19300 3.10300 35.64600
H  15.24100 4.37500 34.46400
Mg 25.82100 -0.13200 29.05000
C  27.61900 -0.65800 32.01400
C  22.94400 -0.03500 30.84000
C  24.14700 0.20800 26.22500
C  28.82900 -0.81500 27.19500
N  25.36900 -0.31400 31.13400
C  26.23800 -0.44500 32.21600
C  25.49100 -0.34400 33.60600
C  23.98600 -0.26200 33.18500
C  24.09600 -0.25400 31.61900
C  23.05000 -1.33400 33.83100
C  26.00300 0.88300 34.49500
C  26.46200 0.70200 35.94900
H  26.21400 1.79500 36.99000
N  23.85900 0.17900 28.60400
C  22.76300 0.20400 29.45000
C  21.49900 0.24300 28.77100
C  21.83900 0.34800 27.38100
C  23.35300 0.30800 27.35600
C  20.10800 0.12200 29.32000
C  21.02300 0.45900 26.13900
O  21.58100 0.48400 25.01300
C  19.58200 0.41300 26.22800
N  26.40900 -0.44500 26.98700
C  25.54100 -0.00200 26.03800
C  26.11400 -0.10600 24.56800
C  27.66600 -0.28100 24.88100
C  27.69000 -0.52800 26.41500
C  25.40400 -1.08300 23.67400
C  28.56100 0.92900 24.44600
C  28.19600 2.23900 25.01500
N  27.79000 -0.62700 29.45000
C  28.85300 -0.88000 28.58500
C  30.00500 -1.22900 29.38700
C  29.54200 -1.10200 30.72500
C  28.23900 -0.74100 30.74100
C  31.40600 -1.40100 28.87400
C  30.02700 -1.23300 32.09500
O  31.16200 -1.49100 32.47200
C  28.77200 -0.82900 33.03200
C  28.51400 -2.07000 33.84300
O  27.74200 -2.95200 33.48100
O  29.20100 -1.88400 35.05200
C  28.84000 -2.97600 35.99100
H  21.95700 0.01400 31.30500
H  23.84300 0.59300 25.24900
H  29.74400 -1.00000 26.62800
H  25.65800 -1.25100 34.18600
H  23.56000 0.72600 33.36000
H  23.50500 -1.74000 34.73400
H  22.81800 -2.14900 33.14600
H  22.11800 -0.86400 34.14600
H  25.18500 1.59700 34.59300
H  26.86600 1.38400 34.05700
H  27.55000 0.67900 35.88000
H  26.07200 -0.23800 36.33900
H  20.15700 -0.02100 30.40000
H  19.41700 -0.53900 28.79600
H  19.63300 1.10300 29.33100
H  19.21600 1.12200 26.97000
H  19.37800 -0.64100 26.41600
H  19.23000 0.73100 25.24700
H  25.95100 0.87100 24.11200
H  28.10200 -1.18700 24.46200
H  26.11700 -1.76100 23.20300
H  25.03300 -0.43000 22.88400
H  24.57000 -1.60000 24.14600
H  28.49000 1.16700 23.38500
H  29.59500 0.73500 24.73200
H  29.03900 2.65000 25.57000
H  27.33900 2.18200 25.68700
H  27.93700 3.00000 24.28000
H  31.45300 -2.04300 27.99500
H  32.04700 -1.59800 29.73300
H  31.51000 -0.40000 28.45600
H  29.03300 0.13000 33.47800
H  29.73200 -3.01700 36.61700
H  28.72200 -3.92300 35.46300
H  27.98200 -2.65800 36.58300

