158

Mg 40.51400 9.63400 28.82200
C  42.23500 10.82900 31.59800
C  38.23900 8.10200 30.95400
C  39.05300 8.13800 26.25100
C  43.36300 10.26400 26.86900
N  40.22300 9.45900 30.95700
C  40.98800 10.17900 31.89000
C  40.43100 9.96700 33.29700
C  39.28300 8.88700 33.10500
C  39.24500 8.77200 31.56000
C  39.52900 7.50400 33.83500
C  39.99900 11.17100 34.12800
C  39.93800 11.01300 35.63000
H  40.63400 12.16500 36.44200
N  38.74600 8.48000 28.60300
C  37.89100 8.03200 29.55800
C  36.83000 7.22500 29.00500
C  36.94400 7.40100 27.61800
C  38.31400 8.04600 27.42100
C  35.85900 6.43400 29.87000
C  36.02400 6.85600 26.49400
O  36.21300 7.01000 25.29200
C  34.69800 6.17000 26.78600
N  41.03500 9.34000 26.76500
C  40.27100 8.68600 25.90800
C  40.85800 8.70700 24.51300
C  42.28600 9.39900 24.77100
C  42.27600 9.63300 26.24500
C  41.17900 7.26400 23.91100
C  42.39900 10.66100 23.81200
C  41.68200 11.99200 24.18100
N  42.39200 10.38900 29.13200
C  43.41400 10.68100 28.23400
C  44.38600 11.43700 28.89300
C  43.88700 11.63500 30.22500
C  42.75400 10.87100 30.31100
C  45.67700 11.90100 28.29000
C  44.18400 12.27700 31.50900
O  45.13900 12.90400 31.90000
C  43.08600 11.71900 32.47400
C  43.79000 10.97600 33.60700
O  44.66500 10.17000 33.58700
O  43.24300 11.47300 34.71900
C  43.81700 10.87500 36.00600
H  37.53000 7.56100 31.58300
H  38.70500 7.55100 25.39800
H  44.19100 10.61300 26.24800
H  41.17000 9.46300 33.91900
H  38.37800 9.33500 33.51400
H  40.57600 7.40100 34.11800
H  39.25600 6.77400 33.07300
H  38.90000 7.40300 34.72000
H  39.01100 11.44900 33.76000
H  40.60900 12.04400 33.89500
H  40.45900 10.09100 35.88500
H  38.87700 10.99700 35.88000
H  36.35800 5.91300 30.68700
H  35.47200 5.73000 29.13300
H  35.17300 7.15900 30.30800
H  34.09900 6.40400 25.90600
H  34.16000 6.59300 27.63400
H  34.94700 5.13600 27.02600
H  40.19800 9.25200 23.83900
H  43.19300 8.80900 24.63500
H  40.39900 7.11200 23.16500
H  41.02300 6.56700 24.73500
H  42.22900 7.19600 23.62600
H  41.99100 10.27400 22.87800
H  43.46300 10.89500 23.78000
H  41.08900 11.72500 25.05600
H  41.11900 12.45200 23.36900
H  42.37200 12.76600 24.51700
H  46.25600 12.63000 28.85700
H  45.49800 12.39700 27.33600
H  46.35500 11.07200 28.08800
H  42.42000 12.53000 32.76900
H  44.89300 10.70600 36.05400
H  43.35900 9.89200 36.11200
H  43.43000 11.52000 36.79600
Mg 9.70600 47.27200 26.60200
C  8.04700 47.46300 29.60100
C  12.40200 49.02300 28.01900
C  11.34600 46.94500 23.65800
C  6.67700 46.46300 25.02300
N  10.17200 48.16400 28.59700
C  9.40700 47.97000 29.66700
C  10.03600 48.53900 30.89400
C  11.24100 49.39700 30.29900
C  11.27900 48.88100 28.88000
C  11.11800 50.93800 30.36300
C  10.53100 47.50200 31.97200
C  10.18100 47.67500 33.44100
H  9.88300 46.59500 34.48000
N  11.63000 47.70300 26.09000
C  12.59900 48.46600 26.73400
C  13.85000 48.51900 25.91800
C  13.59500 47.72700 24.77000
C  12.15700 47.37900 24.82700
C  15.15300 49.16500 26.38400
C  14.46500 47.39600 23.64200
O  14.08400 46.72500 22.67800
C  15.85700 47.87600 23.63000
N  9.02700 46.71500 24.64700
C  9.91200 46.78100 23.56700
C  9.18600 46.45000 22.23500
C  7.78400 46.01400 22.74300
C  7.81800 46.48300 24.17800
C  9.20800 47.58100 21.22100
C  7.50000 44.51700 22.59700
C  8.52900 43.60600 23.38000
N  7.65700 47.09100 27.15300
C  6.59800 46.65800 26.43900
C  5.37300 46.55100 27.31600
C  5.92000 46.94100 28.55400
C  7.30600 47.25500 28.41100
C  4.06900 45.97000 26.83900
C  5.66200 46.98500 29.99400
O  4.64700 46.74000 30.67600
C  7.05900 47.26000 30.69100
C  7.32500 46.06700 31.58400
O  7.88700 45.04200 31.21400
O  6.69900 46.34100 32.81100
C  6.53300 45.08600 33.58500
H  13.24500 49.57300 28.44200
H  11.90200 46.92300 22.71800
H  5.84500 46.02600 24.46800
H  9.36100 49.25600 31.36300
H  12.20800 49.16900 30.74700
H  10.19800 51.25300 30.85400
H  11.26800 51.32700 29.35600
H  11.99900 51.21500 30.94200
H  11.61700 47.45100 31.89800
H  10.22100 46.48400 31.73600
H  9.27200 48.26800 33.34300
H  11.09800 48.12800 33.81700
H  15.27100 49.98700 25.67800
H  15.89800 48.37000 26.36900
H  15.13100 49.63600 27.36700
H  15.78500 48.96300 23.64900
H  16.19600 47.57100 22.64000
H  16.45800 47.39700 24.40300
H  9.68800 45.62300 21.73300
H  6.86300 46.48100 22.39500
H  8.18400 47.89200 21.01500
H  9.60300 47.29500 20.24700
H  9.85600 48.38000 21.57900
H  7.60900 44.18200 21.56600
H  6.47300 44.33500 22.91300
H  7.94000 42.84600 23.89300
H  9.08700 44.01700 24.22200
H  9.27500 43.18800 22.70300
H  4.17800 45.31700 25.97400
H  3.50600 46.78600 26.38500
H  3.42500 45.62900 27.65000
H  6.89600 48.13400 31.32200
H  6.52900 45.20700 34.66800
H  7.14700 44.19900 33.42300
H  5.61700 44.62900 33.21100

