158

Mg 25.67300 1.49000 29.04000
C  27.53800 0.78700 31.98600
C  22.86800 1.68100 30.88300
C  23.99900 1.66400 26.12300
C  28.61700 0.46600 27.21900
N  25.30200 1.24500 31.25200
C  26.17600 1.11000 32.27500
C  25.46800 1.24600 33.62700
C  23.97700 1.57000 33.18800
C  24.05200 1.58200 31.70300
C  22.95700 0.45800 33.62800
C  26.17200 2.31500 34.58100
C  26.92700 1.92900 35.90500
H  26.57800 2.81500 37.11400
N  23.68700 1.70000 28.52900
C  22.69400 1.78100 29.42200
C  21.43900 2.01200 28.75500
C  21.72500 2.04300 27.34200
C  23.17300 1.76000 27.25600
C  20.08900 2.25200 29.46900
C  20.80500 2.24300 26.11700
O  21.13900 2.03000 24.95200
C  19.25400 2.55300 26.24300
N  26.24400 0.97000 26.94100
C  25.30000 1.24200 25.97400
C  26.01900 1.26100 24.56100
C  27.48000 0.88800 24.87900
C  27.48000 0.71300 26.40300
C  25.38500 0.44200 23.45700
C  28.53000 1.80900 24.20500
C  29.02300 1.51300 22.77200
N  27.72700 0.85900 29.43500
C  28.73800 0.41000 28.62400
C  29.81800 -0.09800 29.47200
C  29.49700 0.16300 30.75900
C  28.12000 0.66800 30.74000
C  31.00400 -0.73900 28.91900
C  29.94800 0.01400 32.09600
O  31.03000 -0.27900 32.57100
C  28.68700 0.44500 32.98400
C  28.23400 -0.68000 33.73800
O  27.39900 -1.50200 33.32500
O  28.87600 -0.69300 34.95500
C  28.42200 -1.65000 35.92000
H  21.87000 1.70100 31.32600
H  23.50400 1.86400 25.17000
H  29.43900 0.23100 26.53900
H  25.59500 0.27500 34.10500
H  23.57600 2.48100 33.63100
H  22.07700 0.94100 34.05300
H  23.47500 -0.12600 34.38900
H  22.61800 -0.17500 32.80800
H  25.40300 2.99100 34.95700
H  26.76100 2.97400 33.94400
H  27.97100 1.77700 35.63000
H  26.53100 0.92100 36.03200
H  20.15400 1.60500 30.34400
H  19.17500 1.97600 28.94400
H  19.90900 3.27900 29.78700
H  18.88500 2.66500 25.22400
H  19.18900 3.50500 26.77000
H  18.68100 1.83900 26.83500
H  25.86100 2.30400 24.28500
H  27.69800 -0.09600 24.46300
H  25.65300 -0.61400 23.45100
H  25.58900 0.78600 22.44300
H  24.31200 0.48700 23.64200
H  29.44800 1.72200 24.78600
H  28.28300 2.86600 24.29800
H  30.09200 1.69200 22.65600
H  28.37300 2.18100 22.20500
H  28.65500 0.51000 22.55500
H  30.82100 -1.05200 27.89100
H  31.36100 -1.59600 29.49000
H  31.78500 0.00300 29.09000
H  28.82700 1.32000 33.61800
H  29.24400 -1.80500 36.61900
H  28.29400 -2.63500 35.47000
H  27.59800 -1.31400 36.54900
Mg -5.95500 25.05700 25.77100
C  -4.61900 26.82500 28.57700
C  -7.60100 22.99100 28.00800
C  -6.73400 23.23100 23.28100
C  -3.80200 26.95600 23.71700
N  -5.98100 24.89000 28.00000
C  -5.43300 25.77400 28.92300
C  -5.83300 25.40300 30.38000
C  -6.66200 24.00700 30.17100
C  -6.78400 23.99800 28.59000
C  -5.83400 22.74100 30.65300
C  -6.64900 26.55400 31.09600
C  -6.37900 26.70300 32.65000
H  -6.10500 25.55300 33.57400
N  -7.13400 23.37700 25.61600
C  -7.77900 22.68200 26.59700
C  -8.58300 21.63300 25.95700
C  -8.29600 21.68600 24.59900
C  -7.33700 22.76700 24.43000
C  -9.46500 20.77700 26.82700
C  -8.90800 20.84000 23.43000
O  -8.55000 21.01100 22.32100
C  -10.00700 19.81300 23.70600
N  -5.21400 25.04800 23.78900
C  -5.87600 24.24700 22.93300
C  -5.53200 24.56700 21.47700
C  -4.56200 25.72400 21.56900
C  -4.56100 26.02600 23.09600
C  -4.96900 23.34100 20.68900
C  -4.84400 26.91900 20.58200
C  -3.61800 27.64700 20.03700
N  -4.58900 26.64400 26.08300
C  -3.82800 27.30100 25.12900
C  -3.03500 28.30900 25.73300
C  -3.31500 28.25800 27.07600
C  -4.23800 27.16700 27.22700
C  -1.96800 29.17400 25.01400
C  -3.00600 28.70500 28.43700
O  -2.34800 29.66700 28.79200
C  -3.74900 27.75900 29.49300
C  -2.67900 26.92200 30.16700
O  -1.72400 26.47400 29.54200
O  -2.86400 26.97200 31.54300
C  -1.81800 26.22400 32.28100
H  -8.12200 22.47300 28.81600
H  -7.06100 22.70400 22.38200
H  -3.17800 27.45700 22.97500
H  -4.90700 25.27700 30.94000
H  -7.61600 24.21900 30.65400
H  -6.44900 22.10100 31.28600
H  -4.94900 22.92900 31.26000
H  -5.69100 22.07700 29.80000
H  -7.73600 26.47800 31.12400
H  -6.38600 27.43100 30.50500
H  -7.08100 27.33300 33.19500
H  -5.42400 27.22700 32.65600
H  -9.36600 19.71300 26.61000
H  -10.52200 21.02800 26.73800
H  -9.22400 20.82700 27.88900
H  -9.81100 19.16800 24.56300
H  -9.97700 19.11200 22.87100
H  -10.96700 20.32800 23.71400
H  -6.50100 24.83100 21.05400
H  -3.55700 25.31700 21.45700
H  -4.89000 22.46200 21.32800
H  -3.91700 23.50200 20.45300
H  -5.50200 23.18700 19.75000
H  -5.49400 27.62900 21.09200
H  -5.51500 26.57100 19.79700
H  -3.55700 28.68700 20.35800
H  -3.52500 27.59700 18.95300
H  -2.71200 27.24600 20.49000
H  -1.12100 29.49000 25.62300
H  -2.44500 29.97600 24.45100
H  -1.58300 28.54400 24.21200
H  -4.33900 28.30000 30.23300
H  -1.40600 26.84500 33.07700
H  -0.92800 25.96300 31.70800
H  -2.27000 25.38900 32.81600

