158

Mg 7.18800 2.72800 27.65500
C  8.75100 1.40400 30.50800
C  5.05000 4.52400 29.69900
C  5.45600 3.78300 24.89900
C  8.92400 0.39900 25.67900
N  6.87200 2.84000 29.84700
C  7.71000 2.29800 30.85100
C  7.29000 2.77500 32.28600
C  6.05700 3.67700 31.92600
C  5.99900 3.70000 30.33800
C  4.69100 3.41200 32.59200
C  8.50800 3.37700 33.09000
C  8.22300 4.39300 34.21900
H  8.94300 4.04600 35.54300
N  5.58200 4.15300 27.31800
C  4.92200 4.79600 28.30700
C  3.98200 5.71300 27.68500
C  4.13900 5.54700 26.25900
C  5.11900 4.51000 26.06400
C  3.10900 6.65900 28.47800
C  3.55800 6.33600 25.17900
O  3.84400 6.07100 24.05500
C  2.46800 7.49800 25.44600
N  7.00200 2.01000 25.62700
C  6.24700 2.57000 24.73700
C  6.42300 2.02800 23.30400
C  7.74300 1.15100 23.55300
C  7.89400 1.16900 25.04300
C  5.22500 1.15900 22.69800
C  9.00100 1.78100 22.89400
C  9.81900 2.74900 23.72900
N  8.56300 1.20400 27.96500
C  9.22000 0.38700 27.06900
C  10.10400 -0.46800 27.75800
C  10.01000 -0.04500 29.13600
C  9.04100 0.92200 29.15600
C  11.01900 -1.50400 27.10700
C  10.62200 -0.19300 30.42800
O  11.58300 -0.88200 30.79300
C  9.72200 0.66700 31.45400
C  9.11000 -0.46700 32.27500
O  8.14000 -1.10100 31.93300
O  9.81000 -0.51000 33.43000
C  9.26500 -1.38600 34.44100
H  4.47800 5.06600 30.45400
H  5.11900 4.22900 23.96000
H  9.65900 -0.14500 25.08300
H  6.98700 1.90500 32.86700
H  6.33400 4.67000 32.28000
H  4.21100 4.34900 32.87300
H  4.74600 2.72400 33.43600
H  3.91500 3.07700 31.90500
H  9.25000 3.83400 32.43600
H  9.02600 2.59700 33.64900
H  7.14100 4.38900 34.35000
H  8.39300 5.41700 33.88700
H  3.38800 7.71300 28.46100
H  3.07400 6.41100 29.53900
H  2.08200 6.55800 28.12700
H  1.51000 7.04300 25.69900
H  2.38300 7.99700 24.48100
H  2.84000 8.23300 26.15900
H  6.61000 2.87200 22.63900
H  7.54000 0.11800 23.27300
H  4.30600 1.44700 23.20900
H  5.32400 0.07900 22.80600
H  5.19800 1.27900 21.61500
H  8.54500 2.38500 22.11000
H  9.55200 0.95400 22.44500
H  9.24800 3.07700 24.59800
H  9.91000 3.70500 23.21400
H  10.86100 2.45300 23.84900
H  10.70200 -1.79300 26.10400
H  10.90300 -2.41400 27.69500
H  12.07800 -1.24700 27.13800
H  10.35600 1.36100 32.00500
H  8.94700 -2.34900 34.04100
H  8.42400 -0.96200 34.98900
H  10.13300 -1.58200 35.07000
Mg -5.89200 24.64500 26.44800
C  -4.35600 25.84500 29.28900
C  -8.01900 22.70600 28.45200
C  -6.70200 22.87700 23.65300
C  -3.48600 26.45400 24.52800
N  -6.03600 24.18700 28.59800
C  -5.34500 24.85800 29.57500
C  -5.86800 24.51700 30.98300
C  -6.90500 23.33400 30.64900
C  -7.12700 23.51900 29.15100
C  -6.14100 21.97200 31.02700
C  -6.59500 25.73700 31.68700
C  -6.29400 26.01100 33.13500
H  -5.85500 24.83300 34.02800
N  -7.22600 23.13100 26.09300
C  -8.06000 22.50200 27.05100
C  -8.98600 21.66800 26.33100
C  -8.63700 21.65600 24.92900
C  -7.47300 22.59900 24.83700
C  -10.15500 20.98800 27.06800
C  -9.21400 20.87800 23.73100
O  -8.76100 20.95800 22.60200
C  -10.44800 20.06200 23.88000
N  -5.09600 24.60900 24.43000
C  -5.65900 23.78100 23.45700
C  -4.83900 23.92000 22.12500
C  -4.25600 25.34000 22.35400
C  -4.25000 25.48000 23.85500
C  -3.89300 22.77500 21.79000
C  -4.88400 26.57700 21.66800
C  -3.85200 27.41400 20.76400
N  -4.31300 26.02500 26.75200
C  -3.44700 26.68500 25.90500
C  -2.44400 27.46900 26.69800
C  -2.86900 27.25400 28.04700
C  -3.92400 26.28200 28.02400
C  -1.50000 28.57900 26.28000
C  -2.59700 27.63600 29.51600
O  -1.88000 28.49000 30.09600
C  -3.55900 26.64400 30.28500
C  -2.81300 25.81300 31.19600
O  -2.07500 24.95700 30.90600
O  -3.09500 26.24400 32.47400
C  -2.14400 25.80600 33.55700
H  -8.71100 22.10300 29.04500
H  -7.07200 22.65600 22.65000
H  -2.77200 26.96200 23.87600
H  -5.01600 24.14500 31.55200
H  -7.87900 23.43300 31.12800
H  -5.92400 21.42500 30.10900
H  -6.90300 21.38500 31.54100
H  -5.31800 22.06700 31.73600
H  -7.66200 25.52500 31.74600
H  -6.52300 26.65700 31.10700
H  -7.07300 26.59900 33.62000
H  -5.49400 26.75100 33.13300
H  -11.07900 21.54400 26.91100
H  -9.99300 20.78100 28.12600
H  -10.40000 19.98600 26.71700
H  -10.74500 19.75300 22.87800
H  -11.18000 20.76900 24.27000
H  -10.47000 19.24200 24.59800
H  -5.51300 23.89200 21.27000
H  -3.19600 25.27400 22.10800
H  -2.96000 23.20300 21.42300
H  -4.29000 21.99900 21.13500
H  -3.61200 22.39100 22.77100
H  -5.17600 27.21700 22.50000
H  -5.69200 26.21900 21.02900
H  -3.78800 28.37700 21.27100
H  -4.20900 27.44200 19.73500
H  -2.84400 27.01700 20.64800
H  -0.54500 28.32800 26.74200
H  -1.77800 29.63000 26.35900
H  -1.38300 28.46400 25.20200
H  -4.23800 27.22300 30.91000
H  -2.34800 24.73900 33.64800
H  -2.37700 26.35800 34.46800
H  -1.13000 25.91000 33.17000

