158

Mg 36.13300 1.90600 29.94300
C  33.77500 2.91400 32.39700
C  38.28200 1.25600 32.41600
C  38.14500 0.90300 27.63400
C  33.57800 2.24500 27.56000
N  36.08400 2.33800 32.18000
C  35.01900 2.69100 33.00400
C  35.37900 2.47700 34.48200
C  36.95000 2.29300 34.43500
C  37.07800 1.88400 32.90700
C  37.76600 3.58500 34.64800
C  34.59000 1.43300 35.24600
C  33.95800 1.81700 36.63800
H  34.57100 2.99500 37.42100
N  38.08300 1.30700 30.01300
C  38.78000 1.12700 31.08500
C  40.13300 0.68400 30.66400
C  40.11600 0.52700 29.26700
C  38.78500 0.93200 28.90200
C  41.30500 0.53700 31.67300
C  41.29000 0.06200 28.38000
O  41.14700 0.03800 27.15200
C  42.64000 -0.41400 28.83200
N  35.84200 1.51400 27.93100
C  36.88500 1.14400 27.16600
C  36.53100 1.31000 25.70300
C  35.04400 1.25200 25.70400
C  34.79200 1.75300 27.12300
C  37.22300 2.50000 24.95600
C  34.42500 -0.17100 25.47700
C  33.22000 -0.23200 24.54800
N  33.99000 2.55000 29.88100
C  33.13500 2.69800 28.82300
C  31.81400 3.09800 29.37200
C  32.01500 3.16600 30.73000
C  33.34200 2.84400 31.03200
C  30.57600 3.24400 28.46100
C  31.39700 3.48000 32.04400
O  30.24900 3.78200 32.30800
C  32.50200 3.32300 33.11900
C  32.57200 4.61600 33.76700
O  33.17600 5.60200 33.35600
O  31.73800 4.68500 34.83000
C  31.76600 5.84500 35.78000
H  39.04100 1.04100 33.17200
H  38.77600 0.45200 26.86500
H  32.74300 2.34200 26.86300
H  35.22100 3.43700 34.97300
H  37.14000 1.46000 35.11200
H  37.25700 4.53000 34.45900
H  38.66300 3.51900 34.03200
H  38.02900 3.50700 35.70300
H  35.24200 0.57100 35.38900
H  33.72500 1.13600 34.65200
H  33.99800 0.89200 37.21400
H  32.88500 1.89800 36.46500
H  41.00500 0.97500 32.62500
H  42.25500 1.01000 31.42400
H  41.39800 -0.54700 31.74000
H  43.41100 -0.60400 28.08600
H  42.55700 -1.32200 29.42900
H  43.02800 0.39200 29.45600
H  36.91400 0.40900 25.22300
H  34.65900 2.07300 25.10000
H  36.40800 3.13600 24.61100
H  37.97700 2.25300 24.20900
H  37.70400 3.20200 25.63700
H  34.18700 -0.65700 26.42300
H  35.20900 -0.79400 25.04700
H  33.52700 -0.85500 23.70800
H  32.85500 0.72200 24.16700
H  32.38300 -0.78000 24.98200
H  29.76000 2.69200 28.92800
H  30.77300 2.71000 27.53100
H  30.41200 4.27300 28.14100
H  32.14700 2.60800 33.86100
H  32.68700 6.40000 35.60000
H  31.84900 5.43500 36.78600
H  30.93500 6.54900 35.74200
Mg 5.23800 54.33400 40.72400
C  4.87800 50.81200 40.41800
C  8.48200 53.97500 39.71100
C  5.41900 57.67400 40.45400
C  1.77700 54.53500 41.15100
N  6.50300 52.62600 39.97000
C  6.18000 51.27900 40.05300
C  7.45000 50.36400 39.80700
C  8.59500 51.38600 39.88200
C  7.77900 52.72300 39.90600
C  9.65900 51.43300 41.04300
C  7.42700 49.56000 38.38900
C  6.46100 50.08800 37.21700
H  7.03800 50.72300 35.95200
N  6.77200 55.62400 40.32900
C  8.03800 55.31400 39.91700
C  8.77000 56.48900 39.62000
C  7.97500 57.56200 40.15200
C  6.63600 56.97800 40.34300
C  10.19200 56.42900 39.15900
C  8.45200 59.02400 40.35100
O  9.55900 59.38800 40.06200
C  7.65700 59.97200 41.18900
N  3.81400 55.86400 40.52300
C  4.08900 57.21400 40.55700
C  2.89600 58.09600 40.76500
C  1.83000 57.03000 41.03500
C  2.49500 55.70200 40.85400
C  3.06200 59.23800 41.80200
C  0.55100 57.10300 40.12500
C  -0.77100 57.36300 40.86200
N  3.56300 52.98400 40.80600
C  2.24100 53.17700 41.11700
C  1.56800 51.93400 41.36200
C  2.56700 50.94500 41.14900
C  3.74400 51.62300 40.73000
C  0.11700 51.89100 41.49700
C  2.80200 49.55500 40.98900
O  2.01600 48.56400 41.05100
C  4.29500 49.43200 40.53000
C  4.17800 48.75800 39.21500
O  3.66400 49.25100 38.21600
O  4.55900 47.44000 39.31900
C  4.24900 46.52100 38.19900
H  9.55800 53.87800 39.54900
H  5.60900 58.74200 40.33600
H  0.73800 54.62000 41.47700
H  7.52300 49.67800 40.65100
H  9.14800 51.45900 38.94500
H  9.55700 52.37200 41.58800
H  10.67300 51.31300 40.66300
H  9.53500 50.61500 41.75300
H  7.10600 48.56700 38.70400
H  8.44100 49.40400 38.02200
H  5.73800 50.78400 37.64300
H  5.96800 49.19100 36.84200
H  10.42300 57.42300 38.77600
H  10.33300 55.69300 38.36800
H  10.78800 56.18700 40.03900
H  7.16000 59.51700 42.04500
H  6.90300 60.43800 40.55500
H  8.25300 60.75300 41.66100
H  2.71400 58.60700 39.82000
H  1.59000 57.05000 42.09800
H  2.19800 59.16700 42.46300
H  3.04300 60.16300 41.22700
H  3.91200 59.16300 42.48100
H  0.43400 56.17700 39.56100
H  0.64800 57.90400 39.39200
H  -1.33800 58.08000 40.26900
H  -0.63700 57.69900 41.89100
H  -1.37800 56.46500 40.97600
H  -0.39800 52.73000 41.02900
H  -0.09400 51.89000 42.56600
H  -0.24600 50.89000 41.26400
H  4.91100 48.94900 41.28900
H  5.17400 45.95300 38.09900
H  4.04300 47.07600 37.28300
H  3.45400 45.81300 38.43300

