158

Mg 2.13500 -1.41800 43.99900
C  5.38200 -0.23500 43.78100
C  1.04500 1.42700 42.62300
C  -0.78700 -2.97700 43.24000
C  3.49600 -4.59800 44.74800
N  3.10600 0.40900 43.33700
C  4.46900 0.66700 43.33300
C  4.72600 2.11400 42.98600
C  3.20600 2.73600 43.18000
C  2.38400 1.50000 42.97900
C  2.93900 3.45500 44.59200
C  5.32300 2.29000 41.60000
C  6.70900 2.90700 41.48200
H  7.76600 2.32900 40.47800
N  0.36200 -0.80700 43.10900
C  0.12200 0.39800 42.56200
C  -1.25300 0.51600 42.18200
C  -1.85600 -0.66400 42.41200
C  -0.80200 -1.60400 42.99400
C  -1.85600 1.85400 41.69300
C  -3.33300 -1.02400 42.19000
O  -4.05400 -0.18700 41.66700
C  -3.83000 -2.25300 42.66900
N  1.43100 -3.46100 44.06400
C  0.15400 -3.82600 43.81700
C  -0.04600 -5.31600 43.97200
C  1.27500 -5.81900 44.57600
C  2.16800 -4.57300 44.48200
C  -1.25400 -5.77000 44.81400
C  1.90500 -7.16100 43.93900
C  1.80900 -8.37700 44.95800
N  4.00300 -2.28800 44.37900
C  4.42400 -3.56100 44.67000
C  5.85600 -3.56300 44.93900
C  6.27500 -2.30700 44.51700
C  5.06800 -1.59700 44.18200
C  6.75700 -4.65600 45.53700
C  7.43500 -1.44400 44.41100
O  8.57200 -1.67300 44.66100
C  6.90800 -0.10200 43.96200
C  7.31800 0.91800 44.92600
O  6.59200 1.19900 45.88400
O  8.43400 1.64500 44.50300
C  8.83200 2.91300 45.15500
H  0.63200 2.37700 42.27900
H  -1.73200 -3.52200 43.18900
H  3.96000 -5.54800 45.02200
H  5.34100 2.57200 43.76100
H  2.98100 3.47000 42.40600
H  3.08800 4.53500 44.58000
H  3.57400 3.08800 45.39800
H  1.86700 3.33900 44.75300
H  4.61000 2.85300 40.99800
H  5.32100 1.35400 41.04000
H  7.17300 2.80800 42.46400
H  6.53200 3.95800 41.25600
H  -2.59500 1.73800 40.90000
H  -1.09000 2.48600 41.24400
H  -2.26500 2.32800 42.58500
H  -3.54000 -2.27000 43.72000
H  -3.39700 -3.07400 42.09900
H  -4.89900 -2.20800 42.45900
H  -0.17800 -5.66400 42.94800
H  1.19400 -5.95200 45.65500
H  -0.89200 -6.42400 45.60700
H  -1.88000 -6.43200 44.21600
H  -1.81200 -4.93800 45.24400
H  2.98900 -7.05300 43.90100
H  1.45500 -7.45000 42.98900
H  2.78700 -8.53500 45.41100
H  1.43000 -9.26900 44.45800
H  1.10700 -8.19300 45.77200
H  6.70100 -5.46000 44.80300
H  6.48800 -5.10500 46.49300
H  7.78400 -4.30500 45.43800
H  7.41100 0.05900 43.00900
H  7.99500 3.36000 45.69100
H  9.32700 3.59200 44.46000
H  9.44700 2.63800 46.01100
Mg 30.51400 58.49300 39.82200
C  27.78800 56.30200 39.10400
C  32.66600 55.72800 39.11800
C  32.95100 60.61800 39.90200
C  28.16700 61.17800 39.68400
N  30.26700 56.27900 39.19500
C  29.01500 55.66000 39.12600
C  29.27100 54.30400 38.49100
C  30.76500 54.00100 38.98900
C  31.30300 55.40300 39.07400
C  30.86200 53.12600 40.21100
C  29.18700 54.31800 36.93900
C  28.39900 53.18800 36.25600
H  27.90900 53.49300 34.79500
N  32.55500 58.16800 39.57000
C  33.27500 57.03800 39.15500
C  34.61000 57.30900 39.03800
C  34.80000 58.67300 39.35500
C  33.40500 59.27500 39.64300
C  35.74900 56.34200 38.73500
C  36.09900 59.49200 39.44700
O  37.15300 58.95700 39.11600
C  36.25900 60.89300 39.79800
N  30.48600 60.61400 39.77500
C  31.67100 61.18700 40.03300
C  31.60100 62.59200 40.15400
C  30.11800 62.87200 39.93900
C  29.54400 61.47500 39.73000
C  32.28400 63.27200 41.44300
C  29.78000 63.86000 38.72200
C  29.63400 63.27900 37.25700
N  28.38700 58.76700 39.57000
C  27.59900 59.93100 39.52800
C  26.24900 59.48200 39.37700
C  26.28000 58.13000 39.06400
C  27.59300 57.69300 39.28800
C  25.01300 60.34900 39.36400
C  25.41800 57.00700 38.63500
O  24.19800 56.85000 38.42100
C  26.43700 55.76800 38.60000
C  25.96700 54.55400 39.33600
O  26.10700 54.41500 40.54900
O  25.31700 53.62900 38.53800
C  24.67700 52.41700 39.17900
H  33.30500 54.85100 38.99000
H  33.77600 61.30000 40.11700
H  27.50300 62.02900 39.84700
H  28.66000 53.49700 38.89600
H  31.16600 53.44100 38.14500
H  31.53100 52.33200 39.87900
H  29.91000 52.83500 40.65300
H  31.32800 53.72200 40.99600
H  30.20500 54.16900 36.57900
H  28.86000 55.31500 36.64400
H  27.41800 53.06000 36.71200
H  29.08900 52.34500 36.22400
H  36.15100 56.34000 37.72200
H  35.32500 55.33800 38.77000
H  36.54700 56.38400 39.47500
H  35.89400 61.14800 40.79300
H  35.58100 61.40800 39.11700
H  37.19600 61.32900 39.45200
H  32.18000 62.96300 39.30800
H  29.72100 63.29800 40.86000
H  32.85800 62.70800 42.17900
H  31.49400 63.77300 42.00200
H  32.85100 64.16100 41.16900
H  30.43500 64.72200 38.59600
H  28.83600 64.29600 39.05000
H  28.58100 63.02300 37.13200
H  30.21100 62.35900 37.17300
H  29.84000 64.01900 36.48400
H  24.46700 60.35300 40.30700
H  24.30600 59.98400 38.61900
H  25.23000 61.38800 39.11800
H  26.54600 55.49800 37.55000
H  25.27700 52.04900 40.01100
H  24.58800 51.66500 38.39500
H  23.67900 52.62600 39.56500

