158

Mg 24.76300 -6.67400 45.86800
C  26.83600 -4.12500 44.32500
C  22.25800 -5.58300 43.82400
C  23.26200 -9.49100 46.41200
C  27.63000 -7.71600 47.59100
N  24.64200 -5.05900 44.22200
C  25.56700 -4.13300 43.75200
C  24.84400 -3.06200 42.86000
C  23.35100 -3.49800 42.90700
C  23.40700 -4.77900 43.72400
C  22.29900 -2.46700 43.50900
C  25.44500 -3.02500 41.47200
C  25.69800 -1.63800 40.76600
H  25.06700 -1.33000 39.38300
N  22.95800 -7.42700 45.35300
C  22.06500 -6.80900 44.50200
C  20.94700 -7.64100 44.27200
C  21.19200 -8.78100 45.05100
C  22.48600 -8.59300 45.64100
C  19.73500 -7.29200 43.51900
C  20.25800 -9.99300 45.13400
O  19.08200 -9.94300 44.70600
C  20.72700 -11.18300 45.74400
N  25.41700 -8.42900 46.75800
C  24.54500 -9.44500 46.97100
C  25.31100 -10.62500 47.66200
C  26.57800 -9.95700 48.22600
C  26.58800 -8.65200 47.47100
C  24.52000 -11.47800 48.68000
C  27.92000 -10.84500 48.09300
C  29.11800 -10.69900 49.10300
N  26.85100 -6.01200 46.09200
C  27.79200 -6.54800 46.78300
C  29.02400 -5.70600 46.61600
C  28.65000 -4.70800 45.64100
C  27.31500 -5.00100 45.31800
C  30.31700 -5.78100 47.38700
C  29.16300 -3.62600 44.87600
O  30.33000 -3.25200 44.72300
C  27.99300 -3.20300 43.92900
C  27.61600 -1.79000 44.25100
O  27.22400 -1.29500 45.34700
O  27.87300 -0.99300 43.14400
C  27.57600 0.47900 43.11100
H  21.42300 -5.18200 43.24600
H  22.87500 -10.47600 46.68400
H  28.49500 -8.10500 48.13200
H  24.96800 -2.05700 43.26400
H  22.96600 -3.74100 41.91700
H  22.66200 -1.46100 43.71500
H  21.84000 -2.73100 44.46200
H  21.50700 -2.47100 42.76000
H  24.82000 -3.48600 40.70800
H  26.33200 -3.65000 41.57600
H  26.76700 -1.62600 40.55400
H  25.39900 -0.77200 41.35700
H  19.01900 -8.09300 43.33600
H  20.03300 -6.79300 42.59700
H  19.14300 -6.56000 44.06900
H  19.90600 -11.88500 45.88800
H  21.05100 -10.82200 46.72000
H  21.53800 -11.63300 45.17100
H  25.54500 -11.23200 46.78700
H  26.46000 -9.76100 49.29100
H  23.46300 -11.21200 48.66600
H  24.85600 -11.19200 49.67700
H  24.57100 -12.55300 48.50800
H  28.36100 -10.64900 47.11600
H  27.57800 -11.88000 48.06400
H  29.46900 -11.60000 49.60600
H  28.93400 -9.98000 49.90200
H  29.98100 -10.26900 48.59500
H  30.90300 -4.92200 47.06000
H  30.81900 -6.70000 47.08300
H  30.11300 -5.73600 48.45600
H  28.17000 -3.39100 42.87000
H  26.96900 0.62900 42.21800
H  28.49200 1.03200 42.90600
H  27.03400 0.74400 44.02000
Mg 47.36900 25.82800 28.32500
C  48.03000 27.98500 30.91900
C  47.25100 23.17400 30.40400
C  47.54200 23.79400 25.55000
C  48.47800 28.52200 26.07200
N  47.46300 25.65500 30.38800
C  47.68600 26.68300 31.33700
C  47.68200 26.14100 32.75300
C  47.43100 24.59500 32.51900
C  47.34300 24.43300 30.97700
C  48.38300 23.58000 33.31800
C  46.75500 26.85700 33.66300
C  46.08200 26.18600 34.89400
H  45.73100 27.07900 36.09000
N  47.08600 23.82000 28.06200
C  47.14400 22.89200 29.02700
C  47.07000 21.57200 28.40800
C  47.00500 21.80900 27.05600
C  47.29500 23.22300 26.81800
C  46.85800 20.29500 29.20200
C  46.88000 20.76600 25.93000
O  46.99800 21.02400 24.71700
C  46.43600 19.39900 26.22600
N  48.13000 26.06300 26.15200
C  47.94700 25.08700 25.20000
C  47.94800 25.63700 23.67800
C  48.10000 27.20200 23.91900
C  48.24300 27.27000 25.45700
C  49.07700 25.01500 22.76100
C  46.84300 27.95300 23.42600
C  47.17100 29.26300 22.69000
N  48.11200 27.80700 28.42200
C  48.52500 28.77300 27.47500
C  48.91800 30.02500 28.16600
C  48.66800 29.72700 29.50700
C  48.20200 28.40000 29.63200
C  49.42500 31.22900 27.60300
C  48.71300 30.26500 30.80900
O  48.93400 31.37600 31.22800
C  48.21900 29.17100 31.81200
C  49.34200 28.89600 32.75700
O  50.32600 28.23200 32.60200
O  49.03900 29.54400 33.93200
C  49.90800 29.15600 35.07000
H  47.03900 22.41400 31.15800
H  47.56100 23.24700 24.60500
H  48.54800 29.40500 25.43300
H  48.70800 26.19900 33.11700
H  46.42300 24.45600 32.91000
H  49.21100 24.20900 33.64500
H  48.74300 22.74000 32.72300
H  47.92500 23.16100 34.21300
H  45.97000 27.27600 33.03300
H  47.23900 27.75100 34.05600
H  46.78000 25.44300 35.28000
H  45.15600 25.83600 34.43700
H  47.47000 19.51500 28.74900
H  45.80300 20.03500 29.12900
H  47.12200 20.48000 30.24300
H  47.27900 18.98300 26.77600
H  46.32200 18.88000 25.27400
H  45.45000 19.40400 26.69000
H  46.91000 25.47500 23.38700
H  49.06000 27.41600 23.45100
H  49.75200 24.49800 23.44400
H  49.64600 25.76100 22.20600
H  48.65200 24.33100 22.02600
H  46.20900 28.27900 24.25000
H  46.30900 27.37500 22.67100
H  46.51400 29.38900 21.82900
H  48.20900 29.43300 22.40700
H  47.00300 30.13600 23.32100
H  49.57900 31.23000 26.52400
H  50.33000 31.51000 28.14100
H  48.67800 31.97700 27.86800
H  47.29900 29.48800 32.30500
H  49.96800 29.99800 35.76000
H  50.95400 28.92900 34.86400
H  49.49600 28.26900 35.55000

