158

Mg 26.96900 51.55300 25.81200
C  25.05500 52.62400 28.46100
C  29.21900 50.17600 28.08700
C  28.55400 49.98400 23.31400
C  24.87400 53.07500 23.62000
N  27.03500 51.34300 28.01200
C  26.12100 51.85300 28.89500
C  26.44000 51.41000 30.28900
C  27.86600 50.89700 30.15800
C  28.06800 50.81300 28.65100
C  28.91300 51.79600 30.73400
C  25.31100 50.38000 30.77400
C  24.62500 50.63600 32.15400
H  25.57000 50.99900 33.29700
N  28.69800 50.29400 25.68800
C  29.50900 49.90100 26.73800
C  30.60400 49.09100 26.27200
C  30.38100 48.98400 24.82400
C  29.18000 49.79200 24.54900
C  31.72900 48.60700 27.21100
C  31.14600 48.23000 23.80800
O  30.82000 48.21000 22.63500
C  32.32900 47.40200 24.21000
N  26.89600 51.68900 23.72500
C  27.57500 50.88600 22.90500
C  27.13200 51.06100 21.43500
C  25.78800 51.82100 21.62700
C  25.87300 52.24700 23.04700
C  28.22600 51.95900 20.69900
C  24.56000 50.91600 21.45300
C  23.56600 51.46200 20.39000
N  25.38300 52.71200 25.93700
C  24.58700 53.33000 25.00200
C  23.42900 54.06000 25.60000
C  23.64800 53.78300 26.96600
C  24.81200 52.96800 27.12100
C  22.31700 54.71700 24.89300
C  23.02200 54.02200 28.20400
O  22.06500 54.72200 28.47800
C  23.91700 53.34300 29.26300
C  24.49000 54.30000 30.16900
O  25.20400 55.25600 29.84800
O  23.90400 54.19700 31.39100
C  24.50300 55.05400 32.42400
H  29.82700 49.79000 28.90900
H  28.93300 49.49000 22.41700
H  24.13700 53.45800 22.91200
H  26.39900 52.29700 30.92200
H  27.96400 49.86400 30.49300
H  29.56500 52.19000 29.95500
H  29.43500 51.18000 31.46700
H  28.47300 52.60600 31.31600
H  25.75300 49.38400 30.74100
H  24.53600 50.38100 30.00800
H  24.07800 49.74100 32.45300
H  23.85400 51.38400 31.97100
H  32.12900 47.59400 27.23100
H  31.59000 48.79200 28.27600
H  32.52100 49.35400 27.15400
H  32.14000 46.73700 25.05300
H  33.04000 48.18400 24.47400
H  32.75900 46.82800 23.38900
H  27.14200 50.08000 20.96000
H  25.63100 52.67400 20.96700
H  28.95800 52.17700 21.47700
H  27.92200 52.97300 20.44100
H  28.58500 51.48000 19.78800
H  24.00300 50.89300 22.38900
H  24.92700 49.94700 21.11400
H  23.60000 50.84600 19.49100
H  23.75100 52.51700 20.18900
H  22.61500 51.43200 20.92100
H  21.34000 54.28200 25.10200
H  22.42300 54.92900 23.82900
H  22.14500 55.70100 25.32900
H  23.35900 52.64300 29.88400
H  25.24900 54.44900 32.93700
H  23.71900 55.02800 33.18100
H  24.76300 56.07100 32.12900
Mg -10.35700 38.33900 40.61000
C  -8.21800 35.61600 39.89800
C  -8.01200 40.38600 39.01100
C  -12.47500 40.96200 40.68500
C  -12.79300 36.18200 41.45800
N  -8.41800 37.88200 39.37000
C  -7.68300 36.76400 39.39000
C  -6.42500 36.93400 38.49300
C  -6.25600 38.52700 38.64200
C  -7.67700 38.99500 39.02200
C  -5.03200 39.08100 39.38000
C  -6.63900 36.50100 36.95700
C  -5.64700 35.67200 36.21100
H  -5.32100 36.13400 34.81900
N  -10.19400 40.42100 40.09000
C  -9.14300 41.02500 39.46500
C  -9.36200 42.44500 39.57800
C  -10.63600 42.67800 40.14100
C  -11.17600 41.35900 40.40200
C  -8.49200 43.43000 39.12000
C  -11.37400 44.06700 40.21900
O  -10.78700 45.05300 39.78800
C  -12.70000 44.20400 40.71100
N  -12.32700 38.56000 40.97200
C  -13.00200 39.71500 40.97000
C  -14.49100 39.58100 41.27000
C  -14.56900 38.05300 41.54200
C  -13.16400 37.56500 41.23200
C  -15.00300 40.52400 42.36800
C  -15.67500 37.35600 40.66300
C  -16.78500 36.69900 41.49800
N  -10.54000 36.27400 40.71400
C  -11.54400 35.54500 41.11800
C  -11.09600 34.17400 41.32300
C  -9.79500 34.12700 40.81100
C  -9.51600 35.43300 40.39300
C  -11.82800 33.12300 42.04000
C  -8.62500 33.35800 40.55500
O  -8.48000 32.15700 40.59100
C  -7.62900 34.24700 39.80900
C  -6.25800 34.14000 40.43700
O  -5.34300 33.49600 39.89200
O  -6.12200 35.04300 41.50400
C  -4.97300 34.87100 42.43900
H  -7.19700 40.97000 38.57900
H  -13.17500 41.79400 40.57800
H  -13.63000 35.63700 41.90100
H  -5.54800 36.42400 38.88900
H  -6.16400 38.87400 37.61300
H  -4.31000 39.23100 38.57800
H  -4.63500 38.38400 40.11700
H  -5.21000 40.03000 39.88600
H  -6.94100 37.38900 36.40300
H  -7.51900 35.86000 36.90000
H  -5.99800 34.64000 36.22800
H  -4.64900 35.59500 36.64200
H  -8.76900 43.92700 38.19100
H  -7.46700 43.06900 39.03600
H  -8.26800 44.19700 39.86100
H  -12.84100 45.22900 41.05200
H  -12.76400 43.62200 41.63100
H  -13.48000 44.00800 39.97600
H  -15.11700 39.74800 40.39400
H  -14.87200 37.90100 42.57800
H  -15.71300 41.22500 41.92900
H  -14.16000 40.92500 42.93000
H  -15.50500 39.92900 43.13100
H  -15.22900 36.47200 40.20900
H  -16.14700 38.04800 39.96500
H  -16.57900 35.62900 41.51900
H  -17.77200 36.93200 41.09900
H  -16.80100 36.96600 42.55500
H  -11.86600 32.18700 41.48300
H  -12.84500 33.47900 42.20500
H  -11.39700 33.02000 43.03500
H  -7.62000 33.82100 38.80600
H  -5.29800 34.81500 43.47800
H  -4.34700 35.75200 42.29400
H  -4.31400 34.00300 42.40500

