158

Mg 24.99500 1.30300 30.37400
C  27.29800 1.31100 33.08100
C  22.37400 1.58500 32.67200
C  22.88000 1.06200 27.95000
C  27.71900 0.78800 28.26600
N  24.90300 1.34600 32.62200
C  25.98700 1.40000 33.51500
C  25.48000 1.73500 34.91300
C  23.96000 1.54100 34.74100
C  23.70700 1.50600 33.22800
C  23.28300 0.46800 35.58200
C  25.89400 3.16800 35.35500
C  26.62800 3.19200 36.76900
H  26.03600 4.13300 37.77800
N  22.86000 1.20200 30.31900
C  22.00200 1.34400 31.33900
C  20.65200 1.25300 30.79500
C  20.80800 1.15900 29.39500
C  22.22800 1.16000 29.14700
C  19.38600 1.30000 31.60900
C  19.67300 1.05100 28.40000
O  19.85800 0.99400 27.16700
C  18.27600 0.74400 28.78800
N  25.29500 0.92300 28.40500
C  24.22100 0.99000 27.53800
C  24.59000 0.87200 26.05000
C  26.16900 0.88600 26.12800
C  26.42700 0.79500 27.69400
C  23.85700 -0.31000 25.31800
C  26.82700 2.19200 25.37000
C  26.77600 3.54800 26.13500
N  27.12200 1.03500 30.55400
C  28.05900 0.86500 29.61200
C  29.33000 0.66700 30.26500
C  29.10000 0.95100 31.63500
C  27.75300 1.09300 31.74200
C  30.66900 0.30300 29.48700
C  29.70300 1.13300 32.94500
O  30.85900 1.05100 33.24000
C  28.54500 1.36900 33.88900
C  28.68800 0.36600 34.96700
O  28.54700 -0.82700 34.77600
O  29.20700 0.81200 36.13000
C  29.34100 -0.13900 37.29300
H  21.55700 1.79200 33.36700
H  22.19700 0.95800 27.10500
H  28.43100 0.61800 27.45700
H  25.87100 0.95900 35.57200
H  23.47200 2.46900 35.04100
H  22.66800 -0.15900 34.93700
H  22.47700 0.85500 36.20600
H  23.99400 -0.15000 36.13100
H  25.06000 3.86700 35.41700
H  26.54300 3.59600 34.59100
H  27.70000 3.37300 36.69400
H  26.46300 2.17700 37.13000
H  19.70600 1.60700 32.60500
H  18.93200 0.30900 31.59600
H  18.60700 2.00300 31.31400
H  17.77600 1.54100 29.33900
H  18.52300 -0.18100 29.30800
H  17.64100 0.39900 27.97200
H  24.27800 1.71200 25.43100
H  26.61600 -0.00900 25.69700
H  24.56500 -0.82500 24.66900
H  23.14500 0.08600 24.59300
H  23.43000 -0.99500 26.05000
H  26.46700 2.32300 24.34900
H  27.91300 2.10700 25.39900
H  26.52100 3.39500 27.18300
H  26.19300 4.30100 25.60500
H  27.73200 4.04100 26.31100
H  31.21600 1.23800 29.60500
H  30.45600 -0.02500 28.47000
H  31.21800 -0.38700 30.12800
H  28.65600 2.32900 34.39400
H  28.51600 -0.11600 38.00500
H  30.27300 0.11800 37.79800
H  29.43300 -1.16500 36.93600
Mg -5.98900 25.43700 26.55500
C  -4.52000 26.84300 29.48400
C  -7.76400 23.36700 28.68000
C  -7.09100 23.94000 23.85100
C  -3.59100 27.23300 24.73800
N  -6.02000 25.06000 28.83600
C  -5.50700 25.87500 29.81600
C  -5.96900 25.44800 31.16800
C  -6.68700 24.06600 30.93600
C  -6.79400 24.13100 29.43100
C  -5.82800 22.84400 31.22900
C  -6.91800 26.55400 31.83000
C  -7.38600 26.28800 33.25100
H  -6.75800 25.11100 34.10000
N  -7.33700 23.89200 26.25700
C  -7.93700 23.16900 27.26700
C  -8.89300 22.22900 26.63900
C  -8.81800 22.41800 25.19200
C  -7.74200 23.44900 25.02700
C  -9.81200 21.29100 27.48100
C  -9.58800 21.72900 24.04700
O  -9.27000 21.97400 22.90000
C  -10.62400 20.72000 24.40500
N  -5.29900 25.47800 24.61300
C  -5.98000 24.81500 23.66000
C  -5.26300 24.98800 22.29700
C  -4.34600 26.20200 22.53800
C  -4.40900 26.37200 24.04100
C  -4.39100 23.73500 21.75000
C  -4.70900 27.50900 21.84500
C  -3.55500 28.21300 21.02500
N  -4.41800 26.81100 26.95400
C  -3.52700 27.43000 26.11200
C  -2.54800 28.18500 26.85800
C  -2.96500 28.00800 28.20000
C  -4.06300 27.12000 28.18700
C  -1.29000 28.86600 26.22900
C  -2.55700 28.31900 29.56500
O  -1.56900 28.92000 30.00500
C  -3.63100 27.58600 30.52300
C  -2.77100 26.79300 31.38200
O  -2.20500 25.73100 31.06200
O  -2.87000 27.25700 32.68500
C  -2.24900 26.33800 33.71500
H  -8.41300 22.71200 29.26500
H  -7.46000 23.55700 22.89700
H  -2.82800 27.74600 24.14900
H  -5.08000 25.26100 31.77000
H  -7.63300 23.97900 31.46900
H  -5.00900 23.09100 31.90500
H  -5.43400 22.35900 30.33600
H  -6.34100 22.09000 31.82500
H  -7.78400 26.73300 31.19200
H  -6.32000 27.46500 31.80400
H  -8.44800 26.04800 33.20200
H  -7.33000 27.25300 33.75600
H  -10.58300 20.80700 26.88300
H  -10.19700 21.93700 28.27000
H  -9.33100 20.45800 27.99400
H  -10.94300 20.25800 23.47100
H  -11.50100 21.24000 24.79200
H  -10.27300 19.91500 25.05000
H  -5.99800 25.22800 21.52900
H  -3.31700 25.90300 22.33900
H  -4.73600 23.40500 20.76900
H  -4.52500 22.91600 22.45700
H  -3.34100 24.00900 21.65600
H  -4.99800 28.19700 22.64000
H  -5.59300 27.43000 21.21200
H  -2.67600 27.58200 20.88900
H  -3.28300 29.20600 21.38500
H  -3.74800 28.46200 19.98100
H  -1.54600 29.89100 25.96300
H  -0.96300 28.29900 25.35700
H  -0.38300 28.80400 26.83100
H  -4.20900 28.26600 31.15000
H  -2.59600 25.30400 33.73000
H  -2.24000 26.79800 34.70300
H  -1.17600 26.41700 33.53800

