158

Mg 16.52400 -1.67100 28.04800
C  15.51100 0.22100 30.72700
C  18.60300 -3.36900 30.03400
C  17.59900 -3.34500 25.26500
C  14.44500 0.19800 25.93300
N  16.97800 -1.52500 30.14500
C  16.44300 -0.73800 31.02500
C  16.95700 -0.99700 32.44400
C  18.17300 -2.00100 32.15800
C  17.93800 -2.34300 30.68300
C  19.64200 -1.46000 32.41600
C  15.85900 -1.66600 33.35700
C  15.78500 -1.26100 34.90900
H  17.04700 -0.63000 35.46700
N  17.73600 -3.33100 27.69600
C  18.51600 -3.82700 28.70600
C  19.39100 -4.77200 28.04600
C  19.03800 -4.83200 26.57600
C  18.04800 -3.84800 26.46400
C  20.35700 -5.59800 28.74100
C  19.65100 -5.70300 25.50500
O  19.24800 -5.73700 24.35100
C  20.90500 -6.39800 25.71500
N  16.25400 -1.46700 25.93100
C  16.85700 -2.26300 25.02800
C  16.46000 -1.91000 23.53700
C  15.27200 -0.92200 23.73300
C  15.29700 -0.73900 25.29400
C  17.63600 -1.43000 22.59400
C  13.85900 -1.28000 23.23700
C  13.18900 -0.29100 22.34300
N  15.22300 -0.09300 28.23000
C  14.44500 0.52600 27.28300
C  13.61100 1.49200 28.06900
C  13.95300 1.36100 29.36200
C  15.00800 0.44300 29.42500
C  12.64500 2.44800 27.59000
C  13.79200 1.92500 30.66200
O  12.95800 2.74900 31.01900
C  14.72700 1.17300 31.64900
C  15.63200 2.16600 32.25400
O  16.45900 2.86900 31.65000
O  15.31800 2.19900 33.58900
C  16.12300 3.16000 34.30700
H  19.29800 -3.87600 30.70700
H  18.15800 -3.81400 24.45300
H  13.73100 0.78700 25.35400
H  17.33700 -0.02700 32.76500
H  18.11400 -2.94100 32.70600
H  20.16600 -1.30600 31.47300
H  20.22800 -2.11600 33.06000
H  19.47300 -0.46100 32.81800
H  16.05300 -2.73600 33.28500
H  14.89600 -1.52100 32.86700
H  15.57200 -2.14700 35.50700
H  14.98900 -0.62400 35.29300
H  21.35800 -5.17200 28.68100
H  20.47700 -6.67900 28.66800
H  19.98700 -5.55100 29.76600
H  21.32000 -6.57700 24.72300
H  20.75800 -7.36800 26.18900
H  21.55400 -5.75800 26.31300
H  16.10300 -2.86000 23.13800
H  15.51800 0.03200 23.26600
H  17.35500 -0.48900 22.12200
H  17.74400 -2.25100 21.88500
H  18.49900 -1.48600 23.25800
H  13.21600 -1.49100 24.09200
H  14.04500 -2.19800 22.68000
H  12.45800 -0.82200 21.73200
H  13.96400 -0.07200 21.60900
H  12.69600 0.56900 22.79700
H  12.08000 1.83100 26.89100
H  13.01200 3.23900 26.93600
H  12.03300 2.88400 28.38000
H  14.13500 0.47500 32.24200
H  15.55700 4.08600 34.19800
H  17.07000 3.38200 33.81600
H  16.23400 2.95000 35.37100
Mg 49.38300 47.03300 43.11000
C  45.98300 47.42000 42.53200
C  49.18000 43.94700 41.59400
C  52.73500 46.97800 43.01600
C  49.35800 50.48200 44.08900
N  47.72900 45.85400 42.08300
C  46.40900 46.18900 42.09200
C  45.56400 45.13600 41.47000
C  46.62000 43.90500 41.44300
C  47.91700 44.57000 41.74200
C  46.34300 42.75300 42.44800
C  44.86500 45.41100 40.10400
C  43.75700 44.44800 39.57800
H  44.23000 43.51800 38.50500
N  50.77700 45.60800 42.52200
C  50.46800 44.37400 42.02400
C  51.65200 43.58700 41.93600
C  52.72600 44.41700 42.31500
C  52.10200 45.75800 42.58500
C  51.65200 42.06100 41.57500
C  54.15600 44.05800 42.40300
O  54.50400 42.88200 42.13200
C  55.30500 45.02300 42.68600
N  50.81200 48.56700 43.45500
C  52.14700 48.26600 43.38400
C  52.99100 49.40500 43.84200
C  51.91700 50.54300 44.11200
C  50.58900 49.82500 43.88700
C  53.93100 49.01600 45.09200
C  52.13600 51.81600 43.19600
C  51.54800 53.09400 43.70400
N  47.96400 48.63100 43.42800
C  48.09500 49.94500 43.86100
C  46.77400 50.57400 43.94800
C  45.92700 49.62300 43.43200
C  46.71600 48.45100 43.15000
C  46.55400 52.02300 44.41800
C  44.53600 49.36600 43.06400
O  43.49000 50.04800 43.15600
C  44.55900 47.99800 42.40200
C  43.66200 47.20500 43.25400
O  43.80800 47.00900 44.43300
O  42.82600 46.50800 42.43500
C  42.12900 45.47600 43.14400
H  49.06100 42.90400 41.29600
H  53.79900 47.03200 43.25400
H  49.41200 51.52000 44.42400
H  44.84100 44.84300 42.23100
H  46.71400 43.49000 40.44000
H  45.40900 42.85500 43.00000
H  47.09400 42.57900 43.21800
H  46.15500 41.85300 41.86300
H  45.69600 45.42200 39.39900
H  44.52700 46.44200 40.21300
H  42.96700 45.07000 39.15800
H  43.31800 43.87800 40.39700
H  52.13800 42.06600 40.59900
H  50.64900 41.63800 41.63400
H  52.21300 41.56500 42.36700
H  55.26500 45.39700 43.71000
H  55.28700 45.78800 41.91000
H  56.22200 44.50500 42.40600
H  53.67400 49.69000 43.04200
H  52.09100 50.78600 45.16000
H  54.89800 48.93900 44.59400
H  53.69500 48.10000 45.63300
H  54.08500 49.82200 45.80900
H  51.70600 51.58300 42.22200
H  53.21100 51.96700 43.09800
H  51.15500 53.02200 44.71800
H  50.79100 53.47900 43.02100
H  52.36500 53.80900 43.79600
H  45.52100 52.21400 44.12500
H  47.17800 52.71000 43.84700
H  46.75300 52.04600 45.48900
H  44.07100 48.21500 41.45200
H  41.41700 45.73500 43.92800
H  42.85200 44.73300 43.48000
H  41.54600 45.01600 42.34500

