158

Mg 2.05700 -0.64600 44.58300
C  5.45200 0.14400 44.05900
C  1.21500 2.27800 42.89600
C  -1.08600 -1.86100 44.27100
C  3.06300 -3.45500 46.23800
N  3.23400 0.89800 43.47800
C  4.58900 1.09300 43.46800
C  4.97200 2.22800 42.55800
C  3.63600 3.09100 42.59400
C  2.62800 1.97900 42.99700
C  3.63700 4.19700 43.64400
C  5.37900 1.70900 41.14500
C  6.68500 2.46700 40.57000
H  6.94200 2.31700 39.03000
N  0.26600 0.00700 43.67700
C  0.15100 1.28500 43.08100
C  -1.22000 1.39400 42.56600
C  -1.91100 0.17000 42.88200
C  -0.97700 -0.63300 43.64100
C  -1.66100 2.50400 41.67400
C  -3.36600 -0.14500 42.41700
O  -4.06900 0.79500 42.02100
C  -3.93500 -1.47000 42.58300
N  1.15300 -2.55500 44.98100
C  -0.15600 -2.66300 44.96700
C  -0.56700 -3.96900 45.64900
C  0.63600 -4.34400 46.47200
C  1.71400 -3.45500 45.87400
C  -1.94600 -3.90300 46.42000
C  1.09400 -5.87100 46.24800
C  1.66500 -6.67700 47.51500
N  3.87800 -1.55400 45.10400
C  4.16800 -2.68700 45.83700
C  5.54500 -2.94700 45.87700
C  6.17400 -1.81800 45.25000
C  5.05500 -1.06800 44.71500
C  6.15600 -4.06500 46.63300
C  7.48300 -1.10800 44.98100
O  8.57700 -1.31000 45.43000
C  6.96900 0.16800 44.13800
C  7.48000 1.34300 44.75400
O  7.45300 1.58500 45.95100
O  8.06400 2.15200 43.72200
C  8.46300 3.46400 44.15900
H  0.86400 3.28800 42.67500
H  -2.06400 -2.34700 44.25100
H  3.37100 -4.32600 46.82000
H  5.76300 2.82500 43.01100
H  3.37800 3.51800 41.62500
H  4.45100 4.29500 44.36200
H  2.69800 4.32000 44.18200
H  3.71300 5.08600 43.01800
H  4.59400 1.64600 40.39200
H  5.68000 0.66800 41.26400
H  7.55800 1.98000 41.00500
H  6.47800 3.51000 40.81100
H  -1.31300 2.24300 40.67500
H  -1.33700 3.53200 41.83700
H  -2.74900 2.53200 41.61400
H  -4.80600 -1.60000 41.94000
H  -4.04300 -1.80300 43.61500
H  -3.25800 -2.19900 42.13900
H  -0.67600 -4.67800 44.82800
H  0.49400 -4.07700 47.51900
H  -2.02700 -4.64200 47.21700
H  -2.77200 -4.21800 45.78200
H  -2.14400 -2.89200 46.77600
H  1.88700 -5.98700 45.51000
H  0.22800 -6.35700 45.79900
H  1.31300 -6.25300 48.45600
H  2.73900 -6.49300 47.48100
H  1.58500 -7.75300 47.36700
H  7.24600 -4.08100 46.60800
H  5.77200 -4.87800 46.01700
H  5.83600 -4.19400 47.66700
H  7.50100 0.09600 43.18900
H  9.08100 3.97300 43.42000
H  9.09100 3.45600 45.05100
H  7.65700 4.18500 44.29500
Mg 16.44900 52.44500 26.82000
C  18.35200 50.86900 29.10500
C  14.01500 53.08800 29.35600
C  14.43300 53.97600 24.51700
C  18.62700 51.65000 24.17700
N  16.21300 52.09200 28.96000
C  17.27100 51.55500 29.67900
C  16.98900 51.74900 31.12600
C  15.53200 52.20100 31.25500
C  15.20300 52.51900 29.83300
C  14.53200 51.08600 31.71400
C  18.04800 52.81000 31.65700
C  18.24400 52.93900 33.13400
H  17.32700 52.04200 34.09700
N  14.51700 53.44900 26.97500
C  13.68000 53.60700 28.09700
C  12.57600 54.46800 27.83800
C  12.75200 54.84700 26.43300
C  13.93700 54.12100 25.89000
C  11.59600 54.89300 28.88500
C  11.97800 55.83100 25.54300
O  12.32700 56.00700 24.42500
C  10.78100 56.61200 26.14700
N  16.49100 52.59200 24.70500
C  15.50000 53.26700 23.97600
C  15.59700 53.03000 22.48800
C  17.14400 52.64000 22.32400
C  17.53300 52.42100 23.78300
C  14.68900 51.94300 22.01600
C  18.03200 53.54200 21.44000
C  19.00400 54.50600 22.16800
N  18.11400 51.41600 26.64800
C  18.88100 51.13600 25.51200
C  19.98300 50.31500 25.91600
C  19.82000 50.17300 27.34500
C  18.69000 50.89300 27.74300
C  21.02900 49.71200 24.96400
C  20.32500 49.54500 28.59200
O  21.32900 48.86400 28.67000
C  19.54500 50.17200 29.79400
C  19.08100 49.14000 30.66300
O  18.22300 48.35700 30.28600
O  19.59200 49.35100 31.93100
C  19.24600 48.40000 33.02700
H  13.24000 53.14900 30.12300
H  13.74400 54.30200 23.73500
H  19.45700 51.32000 23.54900
H  17.14800 50.74700 31.52400
H  15.41100 53.04600 31.93200
H  14.12500 50.59400 30.83100
H  13.79600 51.47600 32.41700
H  15.09100 50.29200 32.20900
H  17.78500 53.75900 31.19000
H  19.01700 52.53600 31.23900
H  18.06300 53.98400 33.38400
H  19.28300 52.68400 33.34600
H  10.69100 55.32800 28.46000
H  12.05500 55.65000 29.52100
H  11.22500 54.14500 29.58600
H  11.19600 57.12800 27.01300
H  9.90200 55.99700 26.34000
H  10.49400 57.36800 25.41500
H  15.36600 53.98300 22.01200
H  17.15200 51.67000 21.82700
H  15.19700 51.31200 21.28700
H  13.93400 52.47600 21.43800
H  14.11200 51.37000 22.74200
H  17.37700 54.16900 20.83600
H  18.57600 52.90700 20.74100
H  19.14800 54.25600 23.21900
H  18.62700 55.50400 21.94500
H  19.97900 54.41200 21.69000
H  21.88100 49.35400 25.54200
H  21.31500 50.50400 24.27200
H  20.64000 48.87600 24.38300
H  20.21600 50.94500 30.16800
H  18.30000 47.87500 32.89600
H  19.25100 48.87400 34.00800
H  20.03300 47.66600 33.19900

