158

Mg 0.51000 42.38200 26.88400
C  2.08100 42.41500 29.97400
C  -2.34800 41.23600 28.25500
C  -0.69200 41.72200 23.78600
C  3.64900 43.20500 25.37300
N  -0.02800 41.99000 28.83600
C  0.72700 42.15700 29.98800
C  -0.18100 41.96400 31.20100
C  -1.55500 41.35200 30.71400
C  -1.30400 41.59100 29.14100
C  -1.79000 39.90500 31.18300
C  -0.39400 43.25500 32.03100
C  -0.01200 43.11500 33.56800
H  -0.31200 41.84400 34.39900
N  -1.24600 41.60400 26.11400
C  -2.39600 41.23900 26.84700
C  -3.48500 40.82200 25.94900
C  -2.96000 40.92300 24.65100
C  -1.54500 41.45000 24.79300
C  -4.90300 40.37400 26.39900
C  -3.70500 40.73300 23.35400
O  -3.21500 41.04300 22.27300
C  -5.10400 40.22900 23.23800
N  1.31500 42.41900 24.87100
C  0.64700 42.14300 23.78700
C  1.43500 42.46400 22.53200
C  2.73500 43.12600 23.02000
C  2.52600 43.02700 24.57500
C  1.65500 41.25500 21.61200
C  2.95800 44.60300 22.48600
C  3.78200 44.73800 21.13800
N  2.42600 42.81000 27.51000
C  3.61000 43.04400 26.78800
C  4.75300 43.20000 27.73600
C  4.13100 42.99900 29.04400
C  2.80300 42.69600 28.82400
C  6.15900 43.51800 27.41100
C  4.36600 42.85500 30.51700
O  5.41200 42.93800 31.17700
C  3.02100 42.61500 31.23800
C  3.06800 41.34400 32.01000
O  2.92000 40.24900 31.51600
O  3.54000 41.55700 33.30700
C  3.74500 40.36600 34.23800
H  -3.27600 40.96600 28.76400
H  -1.11700 41.53400 22.79800
H  4.59100 43.62100 25.01100
H  0.42400 41.30600 31.82600
H  -2.41000 41.90700 31.09800
H  -2.77300 39.71100 31.61400
H  -0.95100 39.51700 31.76100
H  -1.93400 39.33100 30.26800
H  -1.37900 43.70800 31.91900
H  0.30800 43.95500 31.57700
H  -0.63200 43.87500 34.04500
H  1.04800 43.30700 33.73400
H  -5.73300 41.04500 26.17700
H  -4.81300 40.35900 27.48500
H  -5.05400 39.35000 26.05600
H  -5.26900 39.25700 23.70300
H  -5.30100 40.08300 22.17600
H  -5.92500 40.93000 23.38900
H  0.87700 43.27900 22.07200
H  3.57800 42.50700 22.71300
H  1.18700 41.51700 20.66400
H  1.06700 40.43200 22.01900
H  2.70900 40.98400 21.53600
H  3.41400 45.17300 23.29600
H  1.98100 45.06100 22.33600
H  3.23300 45.29600 20.37900
H  4.08600 43.78800 20.69900
H  4.68100 45.33200 21.30400
H  6.39200 43.23300 26.38400
H  6.82600 42.97600 28.08100
H  6.31400 44.57800 27.61000
H  2.82700 43.47900 31.87300
H  4.72000 40.38000 34.72400
H  3.62100 39.34100 33.88700
H  2.96300 40.54800 34.97500
Mg -12.12000 16.99700 41.83600
C  -9.05700 15.35400 41.33900
C  -10.87500 19.81800 40.35400
C  -15.35000 18.13400 41.45700
C  -13.47900 14.01200 43.06500
N  -10.21100 17.49800 40.92100
C  -9.06800 16.70200 40.88800
C  -7.93300 17.45200 40.23500
C  -8.40300 18.92200 40.27200
C  -9.94900 18.74700 40.43500
C  -7.77900 19.81200 41.32800
C  -7.71500 16.84000 38.78700
C  -6.23700 16.90400 38.23500
H  -5.82500 17.78000 37.01200
N  -13.02100 18.84800 41.13400
C  -12.31500 19.83000 40.63500
C  -13.21300 20.91800 40.41800
C  -14.54100 20.50800 40.72600
C  -14.39600 19.08700 41.06400
C  -12.69000 22.29600 39.97700
C  -15.73900 21.46500 40.84100
O  -15.67900 22.64700 40.47200
C  -17.14500 20.97000 41.31500
N  -14.19900 16.14700 42.09900
C  -15.31600 16.90500 42.01700
C  -16.54400 16.15600 42.52900
C  -15.91600 14.91900 43.20800
C  -14.36600 15.00400 42.78500
C  -17.44100 16.96500 43.50100
C  -16.65700 13.58100 42.93800
C  -17.30500 12.70800 43.95700
N  -11.47100 15.09600 42.15100
C  -12.13300 13.96100 42.71500
C  -11.24900 12.85700 42.78000
C  -10.02900 13.35800 42.24700
C  -10.21300 14.70300 41.87400
C  -11.56900 11.58800 43.42000
C  -8.61500 13.06700 41.91300
O  -7.95500 12.02400 42.00400
C  -7.89200 14.33600 41.28200
C  -6.79000 14.76600 42.13200
O  -6.80300 14.76800 43.32000
O  -5.79200 15.20700 41.33000
C  -4.72800 15.91300 42.05700
H  -10.37000 20.73800 40.05000
H  -16.37400 18.51400 41.46900
H  -14.03000 13.19200 43.52900
H  -7.07000 17.23200 40.86300
H  -8.18100 19.40400 39.31900
H  -7.24200 20.59000 40.78600
H  -7.07500 19.25800 41.94800
H  -8.59000 20.29100 41.87800
H  -8.44900 17.35900 38.17200
H  -8.03400 15.80800 38.64400
H  -5.85200 15.90100 38.05100
H  -5.64300 17.20900 39.09600
H  -13.10600 23.17300 40.47300
H  -12.89600 22.38800 38.91100
H  -11.61000 22.39900 40.07600
H  -17.87000 21.77900 41.40300
H  -16.97600 20.51100 42.28900
H  -17.71600 20.31200 40.66000
H  -17.09900 15.84600 41.64400
H  -15.93800 14.99200 44.29500
H  -17.28900 18.04200 43.57200
H  -17.37900 16.57000 44.51500
H  -18.46800 16.81100 43.17100
H  -15.97600 12.90900 42.41500
H  -17.45600 13.67300 42.20200
H  -17.59500 13.37800 44.76500
H  -16.68800 11.94600 44.43400
H  -18.33400 12.37300 43.82500
H  -11.11600 10.89100 42.71500
H  -12.65700 11.57300 43.48500
H  -11.08100 11.45200 44.38500
H  -7.58600 14.14500 40.25400
H  -4.76600 16.96600 41.77800
H  -3.74900 15.44300 41.96000
H  -4.89500 15.96000 43.13300

