158

Mg 47.37800 16.82500 28.71700
C  45.15600 16.64300 31.41300
C  49.73100 18.56000 30.64100
C  49.19800 17.43000 25.89300
C  44.87500 15.29500 26.75800
N  47.40700 17.55400 30.71000
C  46.39700 17.33300 31.69900
C  47.00000 17.67600 33.14100
C  48.25300 18.55500 32.79400
C  48.57200 18.12400 31.31100
C  48.19500 20.13200 32.95800
C  47.25300 16.38600 34.03700
C  47.02100 16.51000 35.53300
H  46.77000 17.84700 36.24400
N  49.23800 17.79400 28.38000
C  50.05000 18.45400 29.28400
C  51.17000 19.07000 28.66800
C  51.02300 18.76200 27.26500
C  49.76700 18.00900 27.10100
C  52.15900 19.74500 29.47400
C  51.89300 19.18900 26.13900
O  51.64600 18.87300 24.97500
C  53.08900 20.01200 26.37900
N  47.06300 16.47300 26.73900
C  48.00000 16.74600 25.77900
C  47.66800 16.18100 24.37800
C  46.36800 15.40400 24.67100
C  46.08900 15.65700 26.17600
C  47.69600 17.13100 23.15300
C  46.47800 13.83300 24.43300
C  45.74700 13.35300 23.13100
N  45.33300 16.17600 28.95000
C  44.49100 15.50400 28.12600
C  43.35200 15.11800 28.90000
C  43.62800 15.50700 30.20200
C  44.79100 16.16500 30.16600
C  42.08300 14.40200 28.44500
C  43.06300 15.42700 31.49200
O  42.02400 14.89500 31.95100
C  44.07800 16.22200 32.37900
C  43.43100 17.32300 33.08200
O  43.26400 18.42100 32.55500
O  42.87500 17.02600 34.27400
C  42.27300 18.00900 35.14700
H  50.48900 19.05000 31.25600
H  49.70000 17.59700 24.93800
H  44.06700 14.69700 26.33200
H  46.27200 18.24000 33.72400
H  49.01400 18.24200 33.50900
H  48.67600 20.45100 33.88200
H  47.13500 20.36300 33.05600
H  48.59400 20.62900 32.07300
H  48.30900 16.14700 33.91200
H  46.57100 15.61300 33.68100
H  47.85800 16.02000 36.03100
H  46.13200 15.94100 35.80500
H  52.91100 19.02400 29.79400
H  51.80500 20.38700 30.28100
H  52.72900 20.53800 28.98900
H  53.40000 20.11900 25.34000
H  53.80900 19.35600 26.86900
H  52.93800 20.95800 26.90000
H  48.49100 15.51700 24.11300
H  45.57400 15.87500 24.09100
H  48.37300 16.81600 22.35800
H  48.09400 18.07100 23.53600
H  46.73700 17.24700 22.64700
H  45.99400 13.39300 25.30400
H  47.53400 13.58600 24.32800
H  46.45700 13.52000 22.32100
H  44.87500 13.97800 22.94100
H  45.54600 12.28200 23.14200
H  41.34500 14.38000 29.24700
H  42.42300 13.42100 28.11500
H  41.66400 14.99200 27.63000
H  44.61400 15.62900 33.12000
H  41.39300 18.43900 34.66800
H  43.04700 18.75000 35.34800
H  42.04400 17.65100 36.15000
Mg 48.73600 35.63300 27.21300
C  46.48600 34.28100 29.54700
C  49.15800 38.22400 29.30900
C  50.43000 37.13100 24.77100
C  48.01900 33.10200 24.98900
N  47.95700 36.06800 29.23000
C  47.13400 35.42000 30.07800
C  47.25500 35.89600 31.51500
C  47.85600 37.28500 31.27000
C  48.42200 37.18700 29.83600
C  46.82600 38.42600 31.57300
C  48.24100 34.98000 32.33000
C  47.91500 35.06400 33.80100
H  48.90700 35.77900 34.74200
N  49.74100 37.43100 27.06800
C  49.78200 38.36800 28.05800
C  50.63100 39.39100 27.64100
C  51.03500 39.08600 26.26000
C  50.41000 37.84400 25.93400
C  50.98700 40.65300 28.49700
C  51.93700 39.83000 25.31500
O  52.15500 39.49400 24.18900
C  52.46600 41.14400 25.69700
N  49.07600 35.17300 25.18800
C  49.87100 35.90700 24.40300
C  49.99900 35.34000 22.96200
C  49.35500 33.99700 23.06000
C  48.84300 34.05700 24.50500
C  49.39800 36.25100 21.87000
C  50.29000 32.84900 22.82200
C  49.88800 31.83300 21.68100
N  47.60800 33.95100 27.19600
C  47.41100 33.06000 26.25000
C  46.28200 32.22500 26.63700
C  45.84300 32.68700 27.83100
C  46.73300 33.75900 28.19500
C  45.89100 31.03500 25.72600
C  44.90800 32.47300 28.91300
O  43.96200 31.70600 29.03000
C  45.34500 33.44800 30.02700
C  45.58400 32.74600 31.34300
O  46.36500 31.87600 31.48700
O  44.67100 33.28100 32.22000
C  44.53000 32.68800 33.53200
H  49.31400 38.96800 30.09200
H  50.86500 37.51400 23.84600
H  47.62200 32.42800 24.22600
H  46.23400 35.84300 31.89300
H  48.61900 37.49900 32.01900
H  46.56300 38.92500 30.64000
H  47.39000 39.12300 32.19200
H  45.94700 38.06300 32.10600
H  49.24000 35.39400 32.19500
H  48.15500 33.95300 31.97400
H  47.88000 34.03800 34.16800
H  46.90800 35.47900 33.84400
H  52.03500 40.61100 28.79300
H  50.30500 40.82000 29.33100
H  50.79400 41.52700 27.87400
H  53.02100 40.94900 26.61500
H  51.65300 41.83400 25.92100
H  53.03800 41.58300 24.87900
H  51.04400 35.32800 22.65200
H  48.54400 33.83600 22.34900
H  48.86300 37.05300 22.38000
H  48.76100 35.76400 21.13200
H  50.19200 36.78100 21.34400
H  50.60200 32.27100 23.69200
H  51.21900 33.25100 22.41800
H  50.73100 31.96000 21.00200
H  48.96400 32.05400 21.14700
H  49.78400 30.80800 22.03800
H  45.12100 31.29600 25.00100
H  45.51700 30.18400 26.29500
H  46.74800 30.60800 25.20400
H  44.48300 34.11500 30.03500
H  45.01300 33.32000 34.27700
H  44.76700 31.63500 33.68500
H  43.49400 32.65400 33.87000

