158

Mg 47.33600 44.54500 44.11300
C  43.91400 44.20000 43.59600
C  47.65900 41.16400 43.05900
C  50.69000 44.94400 43.88600
C  46.85800 48.03300 44.41100
N  45.87700 42.94800 43.49400
C  44.56900 42.98000 43.43300
C  43.92300 41.73700 42.91800
C  45.09100 40.76800 43.26000
C  46.32100 41.69300 43.27000
C  45.04800 39.95100 44.63100
C  43.65400 41.78800 41.36700
C  42.28500 41.38400 40.87900
H  42.18500 40.93600 39.36500
N  48.95800 43.20500 43.53400
C  48.88000 41.89600 43.16900
C  50.20200 41.35400 42.92100
C  51.06000 42.46600 43.09700
C  50.26600 43.57400 43.59900
C  50.39800 39.88200 42.58400
C  52.58400 42.44900 42.77100
O  53.07000 41.48000 42.15900
C  53.46700 43.56700 43.10400
N  48.58700 46.27000 44.07300
C  49.90100 46.14000 44.05100
C  50.61600 47.47900 44.05400
C  49.39800 48.40400 44.41000
C  48.19000 47.54400 44.25500
C  51.87800 47.62800 44.87600
C  49.28900 49.77900 43.67400
C  49.21800 51.01000 44.67200
N  45.74800 45.92600 44.12000
C  45.68600 47.25900 44.35000
C  44.29000 47.72900 44.29400
C  43.57300 46.52800 44.02500
C  44.50400 45.48300 43.93200
C  43.83400 49.02600 44.66600
C  42.25600 45.99100 43.91200
O  41.17000 46.56000 43.98800
C  42.43200 44.47100 43.43400
C  41.48800 43.62300 44.18100
O  40.33000 43.49200 43.90400
O  42.02400 43.11200 45.34900
C  41.02900 42.43500 46.19500
H  47.61200 40.09300 42.85000
H  51.75800 45.05200 44.09200
H  46.60000 49.06900 44.63900
H  43.06800 41.56500 43.57300
H  45.15600 40.08200 42.41500
H  45.47300 40.60600 45.39200
H  45.56000 38.99600 44.51600
H  43.99200 39.74000 44.80100
H  44.42200 41.28600 40.77700
H  43.69200 42.85300 41.13800
H  41.61800 42.23600 41.01000
H  41.89300 40.56200 41.47800
H  50.57200 39.91100 41.50800
H  49.52800 39.23900 42.71400
H  51.22400 39.43300 43.13500
H  52.96500 44.36100 42.55100
H  54.44100 43.37900 42.65200
H  53.49100 43.63300 44.19200
H  50.84300 47.66500 43.00400
H  49.49500 48.50000 45.49100
H  52.32000 46.67100 45.15600
H  51.64300 48.34800 45.65900
H  52.60000 48.01100 44.15400
H  48.39000 49.75700 43.05800
H  50.13300 49.81700 42.98600
H  49.30300 50.62400 45.68700
H  48.23900 51.44000 44.45800
H  49.90200 51.83000 44.45200
H  44.30400 49.69000 43.94000
H  44.08800 49.24200 45.70400
H  42.75100 49.07200 44.55100
H  42.07400 44.41600 42.40600
H  40.46000 41.67300 45.66200
H  40.28000 43.09700 46.63000
H  41.57900 41.99500 47.02600
Mg 30.48400 58.55800 41.03500
C  27.46600 56.93600 40.34200
C  32.16000 55.59400 40.21700
C  33.47100 60.06400 41.30100
C  28.84800 61.57900 41.12800
N  29.81600 56.55800 40.37900
C  28.57600 56.13100 40.10700
C  28.55700 54.66200 39.53000
C  29.99100 54.15500 39.96100
C  30.74800 55.51600 40.10900
C  30.00300 53.26900 41.25100
C  28.34200 54.70700 37.96100
C  27.08100 54.04500 37.34300
H  26.37100 54.95500 36.25100
N  32.57300 57.86100 40.97700
C  33.00100 56.66200 40.56700
C  34.46500 56.68400 40.57100
C  34.89700 57.95000 40.92000
C  33.66100 58.67400 41.10700
C  35.32100 55.45600 40.17500
C  36.25900 58.38700 41.17800
O  37.13700 57.57000 40.95800
C  36.66900 59.76000 41.70900
N  31.10800 60.53500 41.19100
C  32.40100 60.93300 41.36900
C  32.44000 62.44300 41.26200
C  31.00600 62.85700 41.45500
C  30.22200 61.59300 41.14000
C  33.38100 63.15800 42.30400
C  30.57500 64.06700 40.57700
C  30.45500 63.75100 39.03700
N  28.50800 59.23100 40.75300
C  27.96100 60.52100 40.94100
C  26.52300 60.41500 40.73000
C  26.28500 59.00700 40.45900
C  27.55700 58.34200 40.57600
C  25.59400 61.55800 40.76900
C  25.25000 58.03000 40.15700
O  24.04200 58.14900 40.05600
C  25.98900 56.67400 40.01100
C  25.42700 55.65800 40.96200
O  24.97600 55.96800 42.05500
O  25.31300 54.41400 40.34500
C  24.60000 53.46300 41.27000
H  32.56200 54.59900 40.01400
H  34.36600 60.68900 41.30800
H  28.33000 62.54000 41.16100
H  27.71400 54.03200 39.81300
H  30.42000 53.61200 39.11800
H  30.31700 52.25200 41.01800
H  29.04100 53.27500 41.76300
H  30.75000 53.59800 41.97300
H  29.06800 54.09400 37.42800
H  28.40200 55.70400 37.52300
H  26.32700 53.97500 38.12700
H  27.45800 53.11300 36.92100
H  34.69700 54.79900 39.57000
H  35.48900 54.90700 41.10200
H  36.25300 55.54100 39.61700
H  37.75800 59.73800 41.68600
H  36.19800 59.71400 42.69100
H  36.30600 60.47600 40.97100
H  32.81300 62.52100 40.24100
H  30.68900 63.07000 42.47600
H  34.30700 62.59000 42.38800
H  32.92200 63.19400 43.29300
H  33.58500 64.20500 42.07700
H  31.26100 64.91200 40.63500
H  29.67200 64.45700 41.04600
H  29.43500 64.02800 38.77100
H  30.68100 62.70100 38.84900
H  31.03700 64.49200 38.49000
H  26.00100 62.42200 41.29300
H  24.58900 61.28900 41.09600
H  25.36900 61.93700 39.77200
H  25.70600 56.32100 39.02000
H  25.27000 52.73000 41.71900
H  23.94100 52.86700 40.63900
H  23.93500 53.81300 42.06000

