158

Mg 24.18800 -5.09300 45.72200
C  26.07300 -2.41900 44.57500
C  21.63400 -3.97600 43.74100
C  22.71900 -8.12700 46.03800
C  27.16500 -6.48300 47.09000
N  23.88700 -3.41800 44.38700
C  24.75000 -2.36100 44.14000
C  24.10500 -1.36800 43.21800
C  22.58300 -1.70600 43.28400
C  22.68300 -3.15700 43.79400
C  21.80100 -0.88100 44.20100
C  24.76800 -1.18700 41.76800
C  25.22400 -2.44400 41.11400
H  26.02900 -2.29800 39.71000
N  22.33800 -5.95200 45.04000
C  21.44400 -5.28700 44.27000
C  20.36600 -6.13500 44.07000
C  20.51600 -7.30200 44.90600
C  21.91100 -7.18900 45.38600
C  19.21600 -5.61200 43.27100
C  19.48900 -8.50000 45.06500
O  18.44400 -8.51700 44.44700
C  19.82100 -9.57500 46.04100
N  24.87400 -7.05300 46.37400
C  23.99700 -8.11600 46.46700
C  24.57500 -9.22700 47.32900
C  25.95200 -8.64300 47.80500
C  26.01200 -7.29600 47.07200
C  23.66900 -9.66500 48.55500
C  27.08100 -9.54500 47.26400
C  28.51500 -9.46000 47.95500
N  26.13700 -4.52800 45.98400
C  27.18900 -5.18900 46.55300
C  28.32900 -4.33800 46.50900
C  27.94600 -3.26000 45.77200
C  26.58500 -3.38100 45.43600
C  29.72200 -4.60500 46.98100
C  28.43400 -2.01100 45.15600
O  29.45600 -1.36600 45.25200
C  27.22700 -1.54800 44.23600
C  27.08000 -0.03800 44.34200
O  26.43200 0.59100 45.16100
O  27.89100 0.53100 43.37100
C  27.86900 1.98800 43.29800
H  20.77800 -3.69800 43.12300
H  22.27500 -9.12000 46.13200
H  28.02300 -6.90500 47.61800
H  24.26400 -0.37400 43.63500
H  22.20700 -1.58800 42.26700
H  22.26000 -0.90900 45.19000
H  20.85400 -1.41800 44.24900
H  21.69100 0.18900 44.02400
H  25.61400 -0.50400 41.68800
H  23.87800 -0.93600 41.19200
H  24.33000 -3.05200 40.97800
H  25.83800 -3.01900 41.80700
H  18.87500 -4.69900 43.75900
H  18.31600 -6.22600 43.24000
H  19.57600 -5.60100 42.24300
H  19.02000 -10.09000 46.57200
H  20.38300 -9.07700 46.83100
H  20.29300 -10.34500 45.43100
H  24.69000 -10.02100 46.59100
H  26.07000 -8.45800 48.87300
H  22.88300 -8.95000 48.80000
H  24.25100 -9.83200 49.46100
H  23.14100 -10.57600 48.27600
H  27.14600 -9.21800 46.22700
H  26.88600 -10.61800 47.25400
H  29.19800 -9.05300 47.20900
H  28.93200 -10.37500 48.37600
H  28.44200 -8.66600 48.69800
H  29.77200 -4.24400 48.00800
H  30.42100 -4.00900 46.39400
H  29.81500 -5.68900 46.90700
H  27.56200 -1.68400 43.20800
H  26.90000 2.45900 43.45800
H  28.23600 2.37500 42.34700
H  28.57200 2.20900 44.10100
Mg 43.70500 3.81000 46.60500
C  41.81300 6.66400 47.07500
C  40.95800 1.86300 46.81300
C  45.83400 1.10400 46.32100
C  46.62800 5.90300 46.29800
N  41.62500 4.26500 46.81900
C  41.02900 5.45000 47.07500
C  39.56500 5.27200 47.52800
C  39.39200 3.72300 47.63800
C  40.76100 3.24900 47.01300
C  39.18000 3.09900 49.05300
C  38.39700 5.96900 46.68800
C  38.48800 5.82000 45.13100
H  38.96900 6.92700 44.14600
N  43.42300 1.79600 46.40900
C  42.17600 1.20000 46.46100
C  42.30900 -0.20600 46.39000
C  43.65700 -0.52400 46.25500
C  44.40800 0.81200 46.31500
C  41.19300 -1.19800 46.33300
C  44.24700 -1.88400 46.10500
O  43.44500 -2.86400 46.16600
C  45.62100 -2.08700 45.99200
N  45.94600 3.57200 46.37700
C  46.51200 2.35300 46.35800
C  48.03000 2.48200 46.30400
C  48.29700 4.03400 46.19400
C  46.87700 4.56200 46.31400
C  48.71500 1.76700 47.56400
C  48.85000 4.48600 44.82500
C  50.33800 4.96400 44.86500
N  44.17600 5.88000 46.53600
C  45.33700 6.50300 46.43800
C  45.07900 7.88500 46.60000
C  43.73200 8.03900 46.90300
C  43.19400 6.72800 46.85600
C  46.04600 8.97300 46.32000
C  42.59500 8.94500 47.21400
O  42.65400 10.18500 47.39000
C  41.24900 8.02200 47.33300
C  40.55000 8.27600 48.63200
O  40.65400 7.67100 49.66300
O  39.69100 9.34000 48.42700
C  38.78600 9.59200 49.53800
H  40.09300 1.22100 46.99700
H  46.51100 0.26100 46.17100
H  47.52000 6.51800 46.16400
H  39.49700 5.66200 48.54400
H  38.63500 3.33900 46.95400
H  39.79400 2.20400 49.15200
H  38.14900 2.80400 49.24900
H  39.51200 3.83500 49.78600
H  38.41200 7.01200 47.00400
H  37.45800 5.52200 47.01600
H  37.46300 5.63900 44.80800
H  39.18600 4.98500 45.05900
H  40.19400 -0.77100 46.41900
H  41.29800 -2.09900 46.93800
H  41.15800 -1.65100 45.34200
H  46.09200 -1.78800 46.92900
H  45.92500 -1.59900 45.06600
H  45.77400 -3.14800 45.79200
H  48.39000 1.90700 45.45100
H  48.85500 4.45100 47.03200
H  47.92200 1.13500 47.96300
H  48.90400 2.48800 48.35900
H  49.66500 1.26200 47.38900
H  48.30000 5.27800 44.31800
H  48.68200 3.68800 44.10200
H  50.46700 5.99500 44.53400
H  50.87800 4.32300 44.16800
H  50.80600 4.75300 45.82600
H  46.27700 8.93200 45.25600
H  47.02600 9.10000 46.78000
H  45.59000 9.95700 46.42900
H  40.51400 8.22800 46.55500
H  38.30800 10.57000 49.49300
H  39.27500 9.64100 50.51100
H  37.98700 8.85400 49.46900

