158

Mg 35.99600 48.81000 24.27200
C  36.34400 47.09500 27.30700
C  34.75100 51.53500 25.93900
C  35.69500 50.40000 21.26600
C  37.27900 45.95400 22.58200
N  35.43900 49.18200 26.33700
C  35.69300 48.37400 27.46400
C  35.48900 49.17300 28.79000
C  34.69800 50.48100 28.29000
C  34.98100 50.40500 26.77300
C  33.25100 50.64400 28.71400
C  36.77700 49.43700 29.59000
C  36.74800 49.09100 31.13500
H  35.38400 49.00100 31.91600
N  35.43200 50.74000 23.66500
C  34.93300 51.71000 24.50300
C  34.51900 52.81400 23.70800
C  34.89100 52.55100 22.37700
C  35.36800 51.18100 22.35700
C  33.87700 54.02600 24.31600
C  34.72600 53.48300 21.17300
O  35.20700 53.13900 20.09800
C  34.01400 54.82400 21.25600
N  36.15500 48.12100 22.13100
C  36.07300 49.04400 21.21800
C  36.25400 48.30400 19.85800
C  37.07200 47.02500 20.22000
C  36.80300 47.00100 21.69800
C  34.89400 48.03200 19.20200
C  38.50100 47.08000 19.67500
C  39.74100 47.24600 20.69500
N  36.54700 46.87200 24.80300
C  37.10700 45.85600 24.00200
C  37.70100 44.87100 24.85400
C  37.41700 45.33000 26.18300
C  36.60400 46.49300 26.06200
C  38.44600 43.69400 24.34500
C  37.53300 45.02600 27.63900
O  38.09300 44.09100 28.24800
C  36.87000 46.18100 28.37300
C  35.82900 45.72100 29.38000
O  34.67600 45.50600 29.13900
O  36.45200 45.55100 30.55700
C  35.59400 44.82100 31.57000
H  34.41000 52.40200 26.50900
H  35.51100 50.81100 20.27100
H  37.70800 45.07000 22.10600
H  34.81200 48.60700 29.43000
H  35.13100 51.38000 28.72900
H  32.92800 49.92600 29.46800
H  32.58800 50.51000 27.85900
H  33.03600 51.63600 29.11100
H  37.13400 50.45600 29.44000
H  37.55500 48.72800 29.30600
H  37.32100 49.88200 31.62000
H  37.31800 48.20100 31.40100
H  34.46800 54.91300 24.54100
H  33.49500 53.82300 25.31700
H  33.02900 54.29000 23.68500
H  32.93800 54.68300 21.35500
H  34.16900 55.35800 20.31900
H  34.34100 55.52200 22.02700
H  36.77600 48.99200 19.19300
H  36.52500 46.18100 19.80000
H  34.01800 48.19300 19.83000
H  34.73700 47.04800 18.76000
H  34.81400 48.68500 18.33300
H  38.67300 47.83200 18.90600
H  38.69300 46.16800 19.10900
H  40.36900 46.35600 20.72600
H  39.37000 47.61500 21.65200
H  40.25900 48.14700 20.36700
H  38.94600 43.93500 23.40600
H  37.97700 42.71100 24.29800
H  39.17800 43.43300 25.10800
H  37.70700 46.61300 28.92200
H  35.33000 43.79000 31.33500
H  34.67800 45.36000 31.81300
H  36.15700 44.81200 32.50400
Mg -12.96400 16.62300 41.99000
C  -9.60000 15.23700 41.65700
C  -11.57500 19.64400 41.18700
C  -15.99200 17.72300 42.06700
C  -14.08900 13.31800 42.50800
N  -10.79200 17.35400 41.67800
C  -9.62300 16.65100 41.50700
C  -8.45300 17.54800 41.12500
C  -9.02200 18.97000 41.37500
C  -10.52800 18.70500 41.36900
C  -8.55800 19.59300 42.73700
C  -7.98700 17.27000 39.70700
C  -6.45500 16.96100 39.46700
H  -5.76000 17.59000 38.26800
N  -13.71400 18.42500 41.64100
C  -13.02800 19.58200 41.27300
C  -13.96000 20.65000 41.12300
C  -15.21900 20.09100 41.34600
C  -15.05500 18.67700 41.70100
C  -13.47000 22.03300 40.71400
C  -16.52800 20.88000 41.40100
O  -16.41900 22.06800 41.00700
C  -17.90400 20.40800 41.72000
N  -14.78600 15.59100 41.91100
C  -15.92900 16.34100 42.19400
C  -17.11000 15.47800 42.58200
C  -16.51000 14.06700 42.47600
C  -15.04000 14.30400 42.32700
C  -17.68500 15.74100 44.00500
C  -16.98100 13.24800 41.26800
C  -17.89400 12.06900 41.69600
N  -12.08500 14.63500 42.03500
C  -12.64800 13.38900 42.32900
C  -11.62700 12.40500 42.27700
C  -10.49200 13.11300 42.06700
C  -10.75400 14.45500 41.91900
C  -11.83200 10.89000 42.40800
C  -9.00900 12.95500 41.77200
O  -8.30500 11.97900 41.80000
C  -8.37100 14.29900 41.54200
C  -7.35800 14.47100 42.61200
O  -7.42800 13.95400 43.74700
O  -6.23100 15.09900 42.17700
C  -4.99100 15.18700 42.94000
H  -11.24600 20.67800 41.06400
H  -16.98200 18.15600 42.22500
H  -14.55800 12.40000 42.86700
H  -7.67600 17.33400 41.85900
H  -8.69200 19.60400 40.55200
H  -9.21900 20.45000 42.86500
H  -7.59600 20.08500 42.59100
H  -8.57100 18.90600 43.58300
H  -8.16900 18.08600 39.00800
H  -8.61100 16.45500 39.34000
H  -6.37900 15.87700 39.38200
H  -5.87700 17.24700 40.34600
H  -13.40700 22.22800 39.64400
H  -12.50200 22.23400 41.17500
H  -14.09600 22.77800 41.20500
H  -18.17900 19.56400 41.08700
H  -18.55900 21.25800 41.53000
H  -17.92800 20.24900 42.79800
H  -17.78600 15.72900 41.76400
H  -16.75700 13.44000 43.33300
H  -18.53200 15.08100 44.19400
H  -18.00900 16.78200 43.98100
H  -17.04200 15.64400 44.87900
H  -16.27000 12.86600 40.53700
H  -17.61800 13.82400 40.59700
H  -18.95400 12.28500 41.56300
H  -17.70800 11.71200 42.70900
H  -17.65200 11.32200 40.94000
H  -12.38000 10.62900 43.31200
H  -10.82900 10.50600 42.59700
H  -12.29800 10.45200 41.52500
H  -7.90200 14.37700 40.56100
H  -4.87000 14.41000 43.69600
H  -4.99400 16.18900 43.36900
H  -4.05900 15.18700 42.37400

