158

Mg 0.75800 -1.69400 43.78100
C  4.24800 -1.51200 42.90300
C  0.32700 1.29200 42.12500
C  -2.32900 -2.34500 43.88200
C  1.58600 -4.96300 45.07600
N  2.16800 -0.22600 42.74400
C  3.46800 -0.44900 42.41100
C  3.99400 0.70700 41.46200
C  2.83600 1.75600 41.55600
C  1.72100 0.90400 42.16100
C  3.14700 3.07300 42.33600
C  4.18200 0.13200 40.01800
C  5.36300 0.73500 39.27900
H  5.24600 1.41000 37.89000
N  -0.81300 -0.71900 43.03400
C  -0.80400 0.48700 42.45000
C  -2.20000 0.94800 42.26200
C  -2.97900 -0.16000 42.60100
C  -2.02400 -1.13700 43.18200
C  -2.63400 2.33500 41.80800
C  -4.48200 -0.19200 42.48200
O  -5.14200 0.85900 42.34800
C  -5.32300 -1.46100 42.55200
N  -0.24600 -3.36300 44.56000
C  -1.60500 -3.35600 44.49100
C  -2.22200 -4.61200 45.05900
C  -0.96300 -5.47400 45.40000
C  0.20800 -4.60500 44.89600
C  -3.36200 -4.62500 46.13100
C  -0.95200 -6.91900 44.75300
C  -0.03200 -7.94400 45.38700
N  2.52200 -2.93000 44.24200
C  2.70400 -4.17700 44.78500
C  4.09800 -4.47000 44.86300
C  4.77900 -3.53800 44.11300
C  3.75100 -2.60500 43.71000
C  4.75700 -5.77200 45.36500
C  6.08900 -3.13600 43.62800
O  7.24700 -3.60600 43.57100
C  5.71300 -1.87200 42.73300
C  6.62400 -0.65400 42.94600
O  6.63800 0.13500 43.83500
O  7.55200 -0.57400 41.91200
C  8.45000 0.60800 41.98500
H  0.11800 2.25200 41.65000
H  -3.39300 -2.50400 44.07400
H  1.86000 -5.96400 45.41600
H  4.86700 1.15600 41.93500
H  2.62300 2.03800 40.52500
H  3.26300 3.86000 41.59200
H  4.08500 2.87000 42.85300
H  2.35000 3.23500 43.06200
H  3.25000 0.29800 39.47800
H  4.19000 -0.95800 40.01000
H  6.18400 0.01900 39.26700
H  5.64200 1.60100 39.88000
H  -3.68600 2.57300 41.96400
H  -2.45300 2.60100 40.76700
H  -2.05600 3.02300 42.42500
H  -6.18900 -1.28800 41.91200
H  -5.77300 -1.55100 43.54100
H  -4.77500 -2.33700 42.20300
H  -2.56500 -5.02400 44.10900
H  -0.87100 -5.69700 46.46300
H  -4.30800 -4.86000 45.64300
H  -3.43400 -3.64000 46.59300
H  -3.26400 -5.25700 47.01400
H  -0.47000 -6.85700 43.77700
H  -1.93700 -7.38300 44.71000
H  -0.62300 -8.84100 45.57500
H  0.24400 -7.65600 46.40100
H  0.88400 -8.11200 44.82100
H  4.53600 -6.48800 44.57300
H  4.28600 -6.02000 46.31700
H  5.81900 -5.78100 45.61000
H  5.72200 -2.13500 41.67500
H  8.41000 0.95800 40.95400
H  9.48200 0.31700 42.18100
H  8.18500 1.47000 42.59800
Mg -4.89400 25.66400 25.42300
C  -3.39800 27.23600 28.38500
C  -6.29800 23.31000 27.64800
C  -5.95800 23.89200 22.88900
C  -2.90300 27.61400 23.55500
N  -4.93700 25.43000 27.76100
C  -4.35400 26.18200 28.75900
C  -4.74400 25.59200 30.19900
C  -5.74700 24.47200 29.83700
C  -5.56200 24.32900 28.30500
C  -5.36500 23.08600 30.45000
C  -5.23600 26.70100 31.16800
C  -6.31400 26.31000 32.24500
H  -5.95400 25.11000 33.12900
N  -6.15700 23.99400 25.31000
C  -6.56900 23.16300 26.26800
C  -7.45400 22.13500 25.77000
C  -7.40500 22.31100 24.41900
C  -6.49700 23.41900 24.09600
C  -8.16300 21.08500 26.66900
C  -8.15500 21.52700 23.27700
O  -7.99700 21.76000 22.06400
C  -9.12200 20.35900 23.66000
N  -4.46900 25.67800 23.54300
C  -5.05600 24.93100 22.55300
C  -4.80200 25.42400 21.16800
C  -3.92900 26.68700 21.39800
C  -3.70400 26.62400 22.96900
C  -4.20100 24.42900 20.20600
C  -4.58000 28.09800 21.06900
C  -3.77700 29.09900 20.25900
N  -3.36100 27.12400 25.84800
C  -2.63900 27.84100 24.93400
C  -1.86400 28.83700 25.60200
C  -2.10200 28.60800 26.99600
C  -3.05400 27.57100 27.10000
C  -0.90800 29.78600 24.89700
C  -1.73400 29.08800 28.25800
O  -0.94400 29.96900 28.68900
C  -2.59100 28.18300 29.26300
C  -1.66500 27.55500 30.19400
O  -0.85700 26.75200 29.88600
O  -1.92500 27.97700 31.55400
C  -1.16100 27.29400 32.61300
H  -6.73200 22.64100 28.39400
H  -6.28000 23.29400 22.03300
H  -2.31700 28.17400 22.82200
H  -3.82100 25.19700 30.62300
H  -6.80300 24.62000 30.06100
H  -5.17500 22.35700 29.66200
H  -6.21000 22.79200 31.07200
H  -4.55600 23.06300 31.17900
H  -5.65400 27.57700 30.67300
H  -4.38400 27.12500 31.69900
H  -7.29100 26.28500 31.76100
H  -6.40400 27.16800 32.91100
H  -8.37100 20.21500 26.04700
H  -9.06900 21.61700 26.96300
H  -7.48000 20.86100 27.48800
H  -9.93300 20.68600 24.31000
H  -8.45500 19.59600 24.06100
H  -9.63800 20.04500 22.75200
H  -5.77300 25.67100 20.73900
H  -2.95800 26.74100 20.90500
H  -3.88500 23.44300 20.54700
H  -3.29600 24.82000 19.74000
H  -4.88800 24.14300 19.41000
H  -4.74700 28.80700 21.87900
H  -5.50900 27.94800 20.51900
H  -2.74000 28.79100 20.39400
H  -3.81500 30.08900 20.71600
H  -4.10400 29.12000 19.22000
H  -1.43200 30.27900 24.07800
H  0.06100 29.34900 24.65600
H  -0.71800 30.55400 25.64700
H  -3.30400 28.86300 29.72800
H  -0.24700 26.78900 32.30200
H  -1.84700 26.56100 33.03700
H  -0.82200 27.97100 33.39700

