158

Mg 46.77000 25.05900 27.23500
C  48.00800 27.31400 29.69500
C  46.15600 22.80800 29.74600
C  46.01300 22.91000 24.85400
C  48.28400 27.20000 24.70500
N  47.22600 25.06300 29.54500
C  47.58000 26.15300 30.29300
C  47.24500 25.90500 31.75400
C  46.93400 24.30700 31.76700
C  46.80300 24.00000 30.24100
C  48.02800 23.35600 32.35900
C  46.18100 26.87400 32.35500
C  45.90700 26.53300 33.84900
H  46.32700 27.59200 34.87200
N  46.15000 23.16200 27.31100
C  45.89600 22.42800 28.47800
C  45.42200 21.11600 28.02900
C  45.38700 21.08600 26.61800
C  45.90400 22.42900 26.17100
C  45.00600 19.99600 28.99500
C  44.89400 20.00300 25.67800
O  45.09700 20.05200 24.46000
C  44.20100 18.74600 26.20300
N  47.18100 25.02500 24.98200
C  46.53500 24.10800 24.31300
C  46.75700 24.25300 22.82900
C  47.35600 25.75700 22.79600
C  47.68300 26.00700 24.23100
C  47.60200 23.10500 22.24400
C  46.47400 26.87200 22.07800
C  46.99200 27.45700 20.84100
N  47.94000 26.76700 27.18400
C  48.44200 27.54100 26.07200
C  49.09500 28.78300 26.56500
C  48.90500 28.70100 28.00300
C  48.16800 27.51600 28.24900
C  49.78100 29.85100 25.76300
C  49.23000 29.39600 29.19500
O  49.84400 30.46000 29.35600
C  48.54200 28.60400 30.27700
C  49.42700 28.49700 31.52900
O  50.48200 28.00900 31.59800
O  48.71600 29.12100 32.55600
C  49.37500 29.06500 33.83400
H  46.00000 22.07000 30.53700
H  45.67700 22.18600 24.10800
H  48.53100 27.87800 23.88500
H  48.12600 26.05300 32.37900
H  45.95100 24.16600 32.21500
H  48.47000 23.95900 33.15200
H  48.78300 23.08500 31.62000
H  47.53900 22.47200 32.76800
H  45.18400 26.65600 31.97100
H  46.38800 27.93200 32.19300
H  46.32500 25.55500 34.08800
H  44.84400 26.38300 34.03600
H  45.54900 20.12900 29.93100
H  45.31600 19.10500 28.44900
H  43.93300 20.09100 29.16100
H  43.48100 19.08800 26.94700
H  45.01600 18.15700 26.62200
H  43.83900 18.12300 25.38400
H  45.83500 24.21800 22.24900
H  48.32900 25.83500 22.31000
H  48.43700 22.91800 22.91900
H  48.14700 23.23800 21.30900
H  47.05000 22.17800 22.09400
H  46.32000 27.75000 22.70600
H  45.44700 26.53100 21.95000
H  46.96500 26.83400 19.94700
H  48.03000 27.69100 21.08000
H  46.54600 28.39800 20.52000
H  49.05800 30.33800 25.10800
H  50.62900 29.41200 25.23700
H  50.05400 30.72700 26.35100
H  47.59200 29.09400 30.48800
H  50.43800 29.29900 33.77200
H  49.29800 28.10400 34.34300
H  49.07000 29.87600 34.49700
Mg 0.50800 43.15400 25.84400
C  1.84000 43.04900 29.08000
C  -2.43600 42.01800 27.04200
C  -0.39900 42.65700 22.68300
C  3.81400 43.85900 24.68400
N  -0.19300 42.54000 27.86900
C  0.47300 42.77100 29.07400
C  -0.50900 42.66000 30.28300
C  -1.81600 42.26900 29.57000
C  -1.48000 42.38800 28.01900
C  -2.45900 40.85900 29.86400
C  -0.66000 43.95900 31.11000
C  -0.35900 43.77600 32.60700
H  -0.77300 42.50200 33.32400
N  -1.21600 42.43200 24.95600
C  -2.35400 42.00500 25.65500
C  -3.27100 41.58200 24.64200
C  -2.72800 41.84300 23.36000
C  -1.40500 42.39100 23.61200
C  -4.76000 41.09000 24.96000
C  -3.39900 41.66800 21.98300
O  -2.86400 41.97000 20.89600
C  -4.82400 41.16000 21.83600
N  1.63800 43.24900 23.92800
C  0.93700 43.03100 22.73800
C  1.95000 42.98700 21.54800
C  3.11300 43.84200 22.20400
C  2.91000 43.58600 23.71300
C  2.19300 41.53400 20.93700
C  2.91500 45.34100 21.86900
C  3.47300 45.96500 20.55100
N  2.41100 43.60300 26.63500
C  3.65700 43.87300 26.09900
C  4.57100 43.99400 27.12800
C  3.95800 43.71100 28.33000
C  2.59000 43.51300 27.97200
C  6.03300 44.39000 26.90200
C  4.16900 43.45000 29.66200
O  5.17400 43.39200 30.34100
C  2.73000 43.14800 30.28000
C  2.86900 41.89900 31.13500
O  2.95600 40.72600 30.76600
O  3.04000 42.20600 32.45100
C  3.06300 41.09400 33.35000
H  -3.41600 41.83900 27.49000
H  -0.77100 42.47200 21.67400
H  4.80600 44.05000 24.26900
H  -0.10000 41.86700 30.90900
H  -2.65600 42.87900 29.90500
H  -1.82000 40.18800 30.43700
H  -2.70300 40.19400 29.03600
H  -3.35200 41.00800 30.47100
H  -1.61700 44.45700 30.96100
H  0.10600 44.66100 30.77900
H  -1.04400 44.44900 33.12200
H  0.62900 44.15500 32.87000
H  -5.43900 41.89100 24.67100
H  -4.70100 41.01700 26.04600
H  -5.01200 40.13800 24.49200
H  -5.50000 41.67800 22.51700
H  -4.77700 40.07300 21.78500
H  -5.05900 41.43000 20.80700
H  1.62000 43.64400 20.74300
H  4.08300 43.57000 21.78600
H  1.56400 41.34700 20.06600
H  1.82600 40.78400 21.63700
H  3.27000 41.46600 20.78300
H  3.25500 45.96400 22.69600
H  1.82700 45.38500 21.81500
H  3.94300 45.16600 19.97900
H  4.29400 46.64900 20.76900
H  2.74200 46.60800 20.06000
H  6.23300 45.30900 26.35200
H  6.55400 43.64600 26.29900
H  6.53000 44.42700 27.87200
H  2.34800 43.98200 30.86800
H  4.03200 40.59400 33.33600
H  2.28600 40.37200 33.09800
H  2.83800 41.52000 34.32800

