158

Mg 47.25900 24.99700 28.29400
C  48.37700 27.19400 30.85100
C  46.21600 22.88600 30.84100
C  46.42600 22.70900 25.95300
C  48.75700 27.02200 25.88800
N  47.31000 25.07700 30.55900
C  47.73900 26.03400 31.36700
C  47.60900 25.74100 32.87000
C  46.78800 24.36300 32.85500
C  46.72500 24.06800 31.31500
C  47.33600 23.19100 33.74300
C  46.68000 26.87500 33.41700
C  46.99300 27.63300 34.75600
H  45.96900 27.74400 35.82600
N  46.29400 23.11200 28.33200
C  46.02700 22.44400 29.49100
C  45.37500 21.17500 29.08500
C  45.31500 21.11400 27.68000
C  46.02800 22.34800 27.22800
C  44.93500 20.13100 30.08100
C  44.64200 20.12900 26.80000
O  44.69700 20.27100 25.58800
C  43.72600 19.02100 27.35500
N  47.61500 24.86700 26.17300
C  47.20800 23.74200 25.46600
C  47.70000 23.89200 24.01800
C  48.11200 25.43400 23.98800
C  48.23800 25.80700 25.42300
C  48.86100 22.96800 23.68700
C  47.03900 26.36500 23.25900
C  47.32100 26.75000 21.78400
N  48.41100 26.61000 28.30900
C  48.81300 27.39600 27.28200
C  49.56500 28.53000 27.73800
C  49.28300 28.51700 29.12900
C  48.59800 27.34400 29.45100
C  50.47900 29.53000 26.99500
C  49.61300 29.21700 30.34000
O  50.23600 30.24900 30.59800
C  48.94700 28.33200 31.54100
C  50.07200 27.87000 32.34800
O  50.75300 26.92500 32.01200
O  50.26900 28.74600 33.34900
C  51.30100 28.58400 34.47100
H  45.92400 22.23600 31.66800
H  46.27400 21.94700 25.18500
H  49.26100 27.67700 25.17400
H  48.56800 25.77200 33.38800
H  45.72100 24.40800 33.07600
H  48.14200 22.79900 33.12200
H  46.53500 22.46200 33.86300
H  47.52600 23.57200 34.74700
H  45.70000 26.41300 33.53900
H  46.40400 27.59000 32.64200
H  47.43100 28.61600 34.58500
H  47.81200 27.00900 35.11400
H  45.44000 19.18300 29.89800
H  43.88500 19.85000 30.00300
H  45.08900 20.48700 31.10000
H  42.83300 19.46200 27.79700
H  44.21800 18.45400 28.14500
H  43.44200 18.42500 26.48800
H  46.81900 23.75600 23.39100
H  49.09300 25.62200 23.55300
H  48.50800 22.32100 22.88400
H  49.07200 22.43300 24.61300
H  49.82700 23.36000 23.36700
H  46.98400 27.22900 23.92100
H  46.04700 25.91300 23.25600
H  47.13100 27.81400 21.64400
H  46.60700 26.23000 21.14500
H  48.33400 26.47100 21.49300
H  49.88500 30.13300 26.30800
H  51.16800 28.99700 26.33900
H  51.08400 30.16500 27.64300
H  48.18000 28.88800 32.08000
H  52.30700 28.89400 34.18800
H  51.32600 27.56900 34.86600
H  51.06600 29.26900 35.28500
Mg 0.10000 42.71800 24.64700
C  1.47500 42.83600 27.98600
C  -2.68900 41.33700 25.98900
C  -0.79300 41.87400 21.69700
C  3.46400 43.38000 23.50400
N  -0.48600 42.27400 26.82600
C  0.09900 42.53800 28.03200
C  -0.83000 42.30600 29.18400
C  -2.17600 41.74000 28.47500
C  -1.76600 41.72600 26.99600
C  -2.67100 40.32400 28.93900
C  -0.99600 43.43800 30.21100
C  -0.53000 43.37400 31.70900
H  -1.71900 43.50200 32.75600
N  -1.64600 42.11700 23.95200
C  -2.71300 41.59300 24.65100
C  -3.82000 41.29200 23.73300
C  -3.27000 41.39200 22.38000
C  -1.86500 41.81700 22.57800
C  -5.24300 40.90200 24.10400
C  -3.82400 41.01800 21.01500
O  -3.22300 41.33200 19.96400
C  -5.17600 40.32600 21.01100
N  1.14400 42.72100 22.79600
C  0.53600 42.37500 21.65800
C  1.44800 42.37800 20.45400
C  2.75200 43.00100 21.06500
C  2.48500 43.01000 22.57400
C  1.67800 40.95400 19.79000
C  3.09200 44.41100 20.45900
C  2.50900 45.66000 21.07400
N  2.05800 43.09200 25.45400
C  3.33200 43.33900 24.91100
C  4.29700 43.50800 25.90900
C  3.56700 43.44700 27.10200
C  2.22500 43.11000 26.81900
C  5.72200 43.83700 25.76900
C  3.69200 43.69900 28.51600
O  4.60500 44.08500 29.19400
C  2.31400 43.18800 29.11400
C  2.68300 42.02400 29.95600
O  2.54600 40.81300 29.75900
O  3.04600 42.54600 31.16100
C  3.58900 41.60100 32.11000
H  -3.53300 40.78400 26.40400
H  -1.04600 41.72700 20.64500
H  4.39800 43.64900 23.00600
H  -0.45700 41.42600 29.70800
H  -2.95500 42.50200 28.48500
H  -2.06700 39.92700 29.75400
H  -2.60000 39.69800 28.04900
H  -3.74500 40.33800 29.12800
H  -2.04400 43.73000 30.14900
H  -0.50900 44.34700 29.85900
H  0.25400 44.12600 31.79200
H  -0.08000 42.38800 31.82900
H  -5.35800 39.83200 24.28100
H  -5.99100 41.24000 23.38800
H  -5.54400 41.32100 25.06400
H  -5.14700 39.66400 20.14500
H  -5.92900 41.09700 20.85100
H  -5.34500 39.70700 21.89200
H  1.18200 43.11000 19.69200
H  3.63500 42.41500 20.80900
H  2.72700 40.68400 19.90300
H  1.38600 40.96500 18.74000
H  1.02600 40.25100 20.30800
H  2.77300 44.42100 19.41700
H  4.18100 44.41700 20.50600
H  3.32500 46.20400 21.55000
H  1.87100 45.30100 21.88100
H  1.82200 46.15700 20.38900
H  5.99800 44.07000 24.74100
H  6.35300 43.08400 26.24200
H  5.93900 44.70600 26.38900
H  1.81000 43.90700 29.76100
H  3.40800 42.18200 33.01500
H  4.65800 41.45800 31.95300
H  3.10900 40.63000 32.23400

