158

Mg 44.61100 4.46700 47.25700
C  42.27600 7.21000 46.64800
C  41.77700 2.41800 47.06100
C  46.56100 1.82500 46.85700
C  47.19000 6.64500 46.47600
N  42.35700 4.86300 46.84100
C  41.64600 5.94500 46.68200
C  40.18300 5.64500 46.49700
C  40.01500 4.22900 46.94300
C  41.46600 3.76300 46.97700
C  39.32000 4.01200 48.27800
C  39.63700 5.91500 45.01800
C  38.69900 7.02000 44.66300
H  39.15600 8.09600 43.64800
N  44.15200 2.37600 47.11500
C  42.97000 1.73200 47.14700
C  43.15500 0.31400 47.05200
C  44.56900 0.10300 46.91500
C  45.19000 1.47800 46.96900
C  42.01900 -0.69700 46.97800
C  45.28200 -1.24300 46.79700
O  44.57500 -2.23100 46.94200
C  46.66000 -1.40700 46.43800
N  46.52000 4.29600 46.58400
C  47.11300 3.05100 46.71400
C  48.69400 3.15600 46.53100
C  48.78900 4.72000 46.17500
C  47.41500 5.25000 46.54600
C  49.50500 2.80200 47.85100
C  49.22200 4.98400 44.72800
C  50.73100 4.76600 44.38300
N  44.74900 6.59700 46.86700
C  45.92900 7.33700 46.62700
C  45.59900 8.67900 46.48300
C  44.15300 8.66200 46.58500
C  43.68700 7.36900 46.62700
C  46.61000 9.82500 46.27000
C  42.93000 9.53200 46.66500
O  42.85100 10.75200 46.67900
C  41.72700 8.61100 46.57400
C  40.75600 8.96500 47.68300
O  40.59400 8.25500 48.66300
O  39.94100 10.01600 47.29400
C  38.88900 10.38400 48.20700
H  40.84000 1.85800 47.01100
H  47.32000 1.04000 46.87000
H  48.05700 7.28000 46.28600
H  39.58500 6.26500 47.16400
H  39.48800 3.61200 46.21500
H  39.24900 4.95900 48.81100
H  39.73900 3.28600 48.97400
H  38.36000 3.58000 47.99400
H  39.03300 5.05500 44.72900
H  40.58600 6.03400 44.49500
H  38.48300 7.61600 45.55000
H  37.71100 6.72800 44.30700
H  42.12300 -1.09400 45.96800
H  40.95800 -0.45500 47.04500
H  42.16800 -1.48200 47.71900
H  46.73600 -0.73800 45.58000
H  46.71500 -2.42600 46.05600
H  47.29300 -1.15800 47.28900
H  49.01600 2.52500 45.70200
H  49.45000 5.27700 46.83900
H  49.94700 3.71000 48.26100
H  50.21800 2.00600 47.63600
H  48.82600 2.41000 48.60700
H  49.08100 6.04000 44.50100
H  48.60900 4.31100 44.12800
H  50.87800 4.15600 43.49200
H  51.19100 4.16800 45.17000
H  51.25500 5.71800 44.31000
H  46.28000 10.75500 46.73300
H  46.73200 9.97600 45.19700
H  47.58500 9.58100 46.68900
H  41.18500 8.74900 45.63900
H  39.28800 10.73700 49.15800
H  38.19600 9.59100 48.48700
H  38.31900 11.21700 47.79600
Mg 46.83600 16.65300 27.40900
C  45.01000 16.51000 30.41100
C  49.18900 18.43000 28.99600
C  48.32100 16.94500 24.40700
C  44.21800 15.00900 25.81500
N  46.91700 17.62000 29.51600
C  46.19700 17.22000 30.62200
C  46.88400 17.65400 31.91900
C  48.19100 18.50800 31.36500
C  48.14600 18.15300 29.91300
C  48.15700 19.98500 31.64100
C  47.33500 16.45700 32.73300
C  47.06300 16.56500 34.20700
H  47.05200 18.00700 34.82100
N  48.48400 17.64100 26.76900
C  49.39900 18.33400 27.58200
C  50.50600 18.75400 26.72100
C  50.21300 18.33800 25.40500
C  48.96700 17.63400 25.53400
C  51.64900 19.59800 27.29700
C  50.98400 18.62400 24.09500
O  50.70700 18.26500 22.96400
C  52.18400 19.48700 24.26200
N  46.37600 15.94200 25.36800
C  47.20400 16.14300 24.33700
C  46.67300 15.49000 23.01100
C  45.26300 14.88100 23.52500
C  45.30200 15.18800 25.03700
C  46.46600 16.66400 21.96100
C  45.01300 13.39500 23.09100
C  44.23500 13.26500 21.79600
N  45.05800 15.80300 28.00600
C  44.01400 15.27500 27.22100
C  42.85100 14.91000 28.02100
C  43.24000 15.44000 29.31400
C  44.56100 15.95700 29.17600
C  41.72400 14.08700 27.59800
C  42.82500 15.54600 30.72200
O  41.77500 15.14100 31.22200
C  44.05100 16.12000 31.46600
C  43.56300 17.20800 32.32100
O  43.16000 18.31400 31.99300
O  43.54300 16.68300 33.60300
C  42.68000 17.48900 34.46000
H  49.96100 18.92700 29.58600
H  48.86300 17.08100 23.46800
H  43.31200 14.63200 25.33600
H  46.29400 18.33600 32.53100
H  49.11700 18.13600 31.80300
H  49.05200 20.20600 32.22100
H  47.28500 20.27200 32.22900
H  48.17900 20.50300 30.68200
H  48.39900 16.22200 32.71100
H  46.81600 15.60400 32.29400
H  47.82100 15.98700 34.73600
H  46.18500 15.93800 34.36700
H  52.60900 19.12800 27.08500
H  51.66200 19.62800 28.38600
H  51.66000 20.60500 26.88100
H  51.88900 20.38300 24.80900
H  52.51000 19.92900 23.32000
H  52.99800 18.95900 24.75900
H  47.44200 14.79500 22.67400
H  44.45600 15.43300 23.04400
H  46.47700 17.63500 22.45600
H  45.46500 16.50600 21.55900
H  47.16300 16.59100 21.12600
H  44.45300 12.97100 23.92500
H  45.97800 12.89000 23.07100
H  44.90700 12.73300 21.12300
H  44.07800 14.21400 21.28400
H  43.29200 12.74200 21.95400
H  41.98200 13.07300 27.29500
H  41.29500 14.54400 26.70600
H  41.05700 14.08300 28.46000
H  44.56600 15.40100 32.10300
H  42.94500 18.54300 34.37200
H  42.63000 17.05400 35.45800
H  41.70800 17.45200 33.96700

