158

Mg 35.87000 49.10500 25.85000
C  36.45600 47.06600 28.58900
C  34.67600 51.57400 27.90600
C  35.07000 50.63600 23.15800
C  36.66600 46.26100 23.75800
N  35.65300 49.30700 28.00300
C  35.94300 48.32700 28.97400
C  35.76200 48.94100 30.36200
C  34.88700 50.25000 30.15200
C  35.06200 50.44400 28.60100
C  33.34900 50.15200 30.53800
C  37.12700 49.20000 31.13900
C  37.00700 49.08100 32.69600
H  36.72600 50.29600 33.53100
N  35.13400 50.89200 25.54400
C  34.76300 51.75700 26.53600
C  34.40200 53.00300 25.87200
C  34.44200 52.78900 24.45400
C  34.91100 51.38100 24.34800
C  34.05400 54.30500 26.72500
C  34.00200 53.67100 23.42400
O  34.05800 53.29000 22.26900
C  33.56100 55.05000 23.75800
N  36.11600 48.57400 23.68500
C  35.71900 49.43200 22.82700
C  35.83400 48.95200 21.37200
C  36.63100 47.57000 21.63500
C  36.39400 47.44300 23.10600
C  34.44600 48.65200 20.68900
C  38.21700 47.76900 21.35500
C  38.87500 46.84500 20.32200
N  36.42700 47.03600 26.09700
C  36.61200 45.97100 25.14800
C  37.02400 44.75700 25.88900
C  36.98000 45.13400 27.21600
C  36.58700 46.52000 27.29700
C  37.58900 43.40500 25.34200
C  37.26600 44.69600 28.57600
O  37.62600 43.64600 28.96800
C  36.84200 45.87800 29.50300
C  35.66700 45.29900 30.30300
O  34.62300 44.93200 29.83700
O  35.90800 45.35500 31.66900
C  34.77500 45.14800 32.60900
H  34.18600 52.21000 28.64500
H  34.86900 51.16700 22.22500
H  36.88500 45.37000 23.16600
H  35.23100 48.16300 30.91000
H  35.31500 51.12100 30.64800
H  32.71900 50.50200 29.72100
H  33.07500 50.77900 31.38700
H  33.11000 49.11600 30.78100
H  37.63700 50.14200 30.93800
H  37.86400 48.51000 30.72900
H  38.02900 48.76600 32.90800
H  36.19500 48.39500 32.93400
H  32.98100 54.43700 26.59000
H  34.74700 55.02100 26.28400
H  34.36600 54.16300 27.76000
H  33.77300 55.55500 22.81600
H  34.31300 55.48600 24.41600
H  32.59100 55.29100 24.19200
H  36.42800 49.67400 20.81200
H  36.28300 46.71100 21.06200
H  34.47600 47.71200 20.13900
H  34.25200 49.52400 20.06400
H  33.60100 48.60500 21.37600
H  38.75400 47.81500 22.30300
H  38.41600 48.76900 20.96900
H  38.26500 46.06800 19.86100
H  39.69200 46.40200 20.89100
H  39.29100 47.49100 19.54900
H  38.18000 43.56900 24.44100
H  36.77100 42.69300 25.23200
H  38.23500 42.95800 26.09700
H  37.71000 45.90800 30.16100
H  33.80200 45.10900 32.12000
H  34.70000 45.96500 33.32600
H  34.87500 44.18100 33.10300
Mg -10.31900 16.90100 41.65900
C  -6.90600 16.08200 41.40500
C  -9.65200 20.09200 41.13500
C  -13.61900 17.27500 40.99100
C  -11.01200 13.24200 41.58400
N  -8.44600 17.98100 41.45500
C  -7.19500 17.47600 41.33300
C  -6.20800 18.72500 41.03800
C  -7.15500 19.91200 41.65400
C  -8.50900 19.33700 41.46900
C  -6.96800 20.47500 43.09500
C  -5.99700 18.91000 39.51200
C  -4.52100 18.60600 38.98300
H  -4.38400 17.71900 37.74400
N  -11.46700 18.48100 41.11900
C  -10.98800 19.73500 40.91700
C  -11.99200 20.48600 40.43200
C  -13.23100 19.73500 40.39900
C  -12.85500 18.41900 40.84900
C  -11.87900 21.92600 40.14700
C  -14.64100 20.23900 40.00900
O  -14.76900 21.47400 39.88000
C  -15.97000 19.37800 39.96000
N  -12.06800 15.40000 41.48300
C  -13.25700 15.90600 41.22100
C  -14.33200 14.83000 41.35800
C  -13.55400 13.47000 41.28800
C  -12.12900 14.01500 41.43900
C  -15.25300 14.93600 42.60500
C  -13.77700 12.61000 40.04800
C  -13.82500 11.10500 40.24300
N  -9.26900 15.07000 41.74400
C  -9.67400 13.73200 41.68200
C  -8.49200 12.90100 41.79500
C  -7.39400 13.78400 41.64900
C  -7.91800 15.07000 41.59400
C  -8.50700 11.40100 42.01800
C  -5.91900 13.78900 41.51600
O  -5.07700 12.93300 41.55100
C  -5.60200 15.39400 41.39500
C  -4.69400 15.66900 42.47500
O  -3.47000 15.44600 42.33600
O  -5.24800 16.35300 43.55200
C  -4.38200 17.02700 44.49900
H  -9.52200 21.17000 41.02100
H  -14.69900 17.43300 40.95200
H  -11.17200 12.17600 41.41100
H  -5.31700 18.63100 41.66000
H  -6.90200 20.74000 40.99200
H  -5.94900 20.36300 43.46500
H  -7.61700 19.93200 43.78200
H  -7.31100 21.50600 43.00600
H  -6.10900 19.95600 39.22800
H  -6.64000 18.32800 38.85200
H  -3.86700 18.25700 39.78200
H  -4.08100 19.56400 38.70700
H  -12.70300 22.49600 40.57700
H  -11.98000 22.00500 39.06500
H  -11.01800 22.50800 40.47700
H  -15.82300 18.76900 39.06700
H  -16.86700 19.96400 39.76200
H  -16.30000 18.92400 40.89400
H  -14.97500 14.87400 40.47900
H  -13.77900 12.87000 42.16900
H  -14.65100 14.76900 43.49800
H  -15.93300 14.08500 42.59100
H  -15.80700 15.84900 42.82500
H  -12.99300 12.77400 39.30900
H  -14.66900 12.89200 39.48800
H  -13.12400 10.60500 39.57400
H  -14.84800 10.77300 40.06600
H  -13.53500 10.77500 41.24000
H  -9.45800 10.93700 42.28000
H  -7.73000 11.10300 42.72100
H  -8.16900 10.98700 41.06800
H  -4.95400 15.50700 40.52600
H  -4.70600 16.78600 45.51100
H  -4.44700 18.09600 44.29400
H  -3.30900 16.83800 44.48500

