158

Mg 35.07600 2.16200 30.42100
C  32.80300 3.10400 32.87600
C  37.60600 2.24800 32.77000
C  37.47900 1.77500 27.85200
C  32.62800 2.83600 27.93300
N  35.19900 2.59600 32.56800
C  34.11900 2.92700 33.40400
C  34.57000 2.86200 34.83600
C  36.09700 2.86900 34.76800
C  36.37900 2.59100 33.31000
C  36.79500 4.29500 35.22500
C  34.02900 1.54500 35.57000
C  33.41000 1.70000 36.98300
H  33.88100 2.70500 38.09200
N  37.17100 1.97100 30.36000
C  37.99500 2.02100 31.41400
C  39.38900 1.68700 30.97500
C  39.39200 1.40400 29.55300
C  37.96200 1.64900 29.20900
C  40.56700 1.61600 31.87700
C  40.47900 0.91800 28.62000
O  40.27000 0.99900 27.44800
C  41.84800 0.48800 29.04100
N  35.04400 2.21100 28.24500
C  36.16100 2.06200 27.37800
C  35.72800 2.43000 25.96000
C  34.16000 2.53500 25.97000
C  33.92200 2.59000 27.49400
C  36.48600 3.73500 25.43100
C  33.47000 1.29300 25.28100
C  32.52700 1.41700 24.05000
N  33.12900 2.77900 30.35300
C  32.24200 2.96500 29.28700
C  30.89100 3.31000 29.78900
C  31.10800 3.32600 31.20400
C  32.49700 3.09200 31.46000
C  29.65600 3.62900 28.98100
C  30.43800 3.66200 32.41300
O  29.31200 4.08100 32.64700
C  31.47400 3.38900 33.53600
C  31.63600 4.63700 34.41000
O  32.35100 5.60100 34.17300
O  30.70500 4.64800 35.44000
C  30.74500 5.80900 36.35800
H  38.41400 2.30300 33.50200
H  38.23500 1.75500 27.06400
H  31.93400 3.06800 27.12300
H  34.14500 3.69400 35.39800
H  36.54900 2.09700 35.39000
H  35.97400 4.91000 35.59400
H  37.43300 4.79300 34.49500
H  37.50000 4.01200 36.00700
H  34.91600 0.91800 35.65300
H  33.35700 0.99600 34.91100
H  33.41200 0.72500 37.47000
H  32.33800 1.80300 36.81000
H  40.77100 0.54700 31.82600
H  40.30400 1.90500 32.89500
H  41.44700 2.19400 31.59800
H  41.84400 -0.19800 29.88800
H  42.46700 1.36200 29.23900
H  42.46000 -0.02000 28.29500
H  36.10300 1.56600 25.41300
H  33.88500 3.47200 25.48700
H  37.27500 3.52500 24.70900
H  37.06000 4.17500 26.24500
H  35.76300 4.43700 25.01400
H  32.91200 0.72900 26.02800
H  34.23700 0.60400 24.92700
H  32.61500 2.41500 23.62100
H  31.54700 1.08900 24.39600
H  32.76200 0.60700 23.36000
H  29.71400 3.30900 27.94000
H  29.41700 4.69100 29.01200
H  28.80700 3.03600 29.32000
H  31.05900 2.63500 34.20500
H  30.52200 5.46100 37.36700
H  30.02100 6.50400 35.93200
H  31.64300 6.41800 36.24900
Mg 47.20700 25.22900 28.24800
C  47.98400 27.44900 30.89200
C  46.37600 22.89100 30.68300
C  46.54100 23.09600 25.86300
C  48.32900 27.62900 26.04600
N  47.35600 25.16500 30.52800
C  47.47600 26.24900 31.38300
C  47.18700 25.88700 32.84000
C  46.79000 24.35900 32.78200
C  46.75400 24.14400 31.21800
C  47.62800 23.28200 33.54200
C  46.15000 26.77900 33.58600
C  45.50400 26.27700 34.86200
H  45.32000 27.11100 36.09400
N  46.59100 23.24900 28.25900
C  46.22500 22.49700 29.32900
C  45.77500 21.19000 28.86300
C  45.71800 21.20500 27.45900
C  46.29100 22.49900 27.12500
C  45.38600 20.06500 29.76500
C  45.47200 20.05600 26.51800
O  45.63200 20.16000 25.28100
C  44.91500 18.76400 27.05100
N  47.57900 25.20400 26.32500
C  47.12100 24.28000 25.49800
C  47.31100 24.66500 24.00800
C  47.52000 26.21200 24.05000
C  47.80400 26.40500 25.57900
C  48.27700 23.84400 23.06000
C  46.32900 27.02600 23.49000
C  46.10400 27.24200 21.97800
N  48.02200 27.14500 28.36600
C  48.40000 28.03300 27.39300
C  48.84500 29.26600 28.00800
C  48.72700 29.08800 29.36200
C  48.24600 27.76900 29.51100
C  49.32600 30.45000 27.21700
C  48.92600 29.76200 30.61700
O  49.37100 30.83900 30.81800
C  48.43000 28.69900 31.71500
C  49.47700 28.43400 32.76000
O  50.42600 27.71700 32.61300
O  49.25500 29.14600 33.92500
C  50.15100 28.90900 35.06300
H  46.22200 22.09700 31.41700
H  46.19400 22.42300 25.07600
H  48.41700 28.34300 25.22500
H  48.14100 25.89900 33.36800
H  45.72500 24.33000 33.01300
H  47.21200 22.30300 33.30300
H  47.51600 23.49400 34.60500
H  48.66300 23.28100 33.20200
H  45.35000 27.15300 32.94700
H  46.63600 27.74000 33.75500
H  45.99200 25.36200 35.19600
H  44.47400 25.97000 34.68100
H  44.35600 19.80800 29.51800
H  45.29200 20.39200 30.80000
H  46.06000 19.21100 29.70200
H  45.74400 18.25600 27.54400
H  44.69800 18.14400 26.18200
H  44.09600 18.90700 27.75700
H  46.29000 24.54000 23.64900
H  48.34300 26.55700 23.42500
H  48.74000 23.01100 23.58900
H  49.04200 24.34300 22.46500
H  47.62300 23.38400 22.31800
H  46.65000 28.02800 23.77600
H  45.50200 26.65700 24.09600
H  45.20300 26.66100 21.78100
H  46.97100 26.88900 21.41800
H  45.98400 28.27300 21.64400
H  49.10400 30.46100 26.15000
H  50.39900 30.50600 27.39700
H  48.78700 31.28300 27.66800
H  47.55900 29.14500 32.19500
H  50.03900 27.95900 35.58600
H  49.89300 29.64800 35.82100
H  51.19600 28.81800 34.76600

