158

Mg -2.39100 17.26600 26.26700
C  -2.97400 14.74300 28.72300
C  -3.09300 19.57800 28.43200
C  -2.44000 19.44400 23.73800
C  -2.80800 14.63100 23.88900
N  -3.15200 17.14900 28.32200
C  -3.06200 16.05100 29.22300
C  -3.13700 16.55300 30.64900
C  -3.41900 18.06400 30.46700
C  -3.27500 18.31100 28.99800
C  -4.69600 18.53700 31.14200
C  -1.88800 16.18000 31.52700
C  -1.82200 16.98100 32.82900
H  -1.76300 16.22300 34.12200
N  -2.45300 19.30700 26.18500
C  -2.72200 20.12800 27.25900
C  -2.45500 21.53000 26.79800
C  -2.23100 21.45300 25.35100
C  -2.37800 20.04900 25.00300
C  -2.67900 22.68100 27.70200
C  -1.81300 22.51700 24.33400
O  -1.67200 22.32800 23.15000
C  -1.60400 23.89400 24.78200
N  -2.60100 17.04500 24.14900
C  -2.52900 18.12000 23.32400
C  -2.74500 17.76500 21.87400
C  -2.76300 16.21900 21.93800
C  -2.68200 15.92100 23.43300
C  -4.05300 18.43800 21.40100
C  -1.65200 15.56000 21.06400
C  -2.14200 14.81400 19.85900
N  -2.68000 15.13800 26.28200
C  -2.69000 14.24000 25.23600
C  -2.77300 12.86000 25.74700
C  -2.81700 12.99300 27.11700
C  -2.89200 14.41800 27.37400
C  -2.98800 11.55300 24.93600
C  -2.94500 12.30100 28.35600
O  -2.96700 11.06500 28.57200
C  -3.09700 13.36300 29.43100
C  -1.90400 13.09800 30.34800
O  -0.86200 13.68900 30.31500
O  -2.33100 12.17600 31.28400
C  -1.50600 12.10700 32.55700
H  -3.14700 20.21300 29.31900
H  -2.36100 20.08400 22.85700
H  -2.84900 13.85100 23.12600
H  -3.93600 16.06300 31.20600
H  -2.51500 18.56000 30.82000
H  -5.37600 18.86400 30.35600
H  -4.48200 19.41200 31.75600
H  -5.16100 17.73100 31.71000
H  -0.93700 16.26300 31.00100
H  -1.88100 15.13000 31.82100
H  -2.62700 17.70700 32.93900
H  -0.90300 17.55600 32.71400
H  -3.02500 22.46800 28.71400
H  -3.41000 23.38900 27.31000
H  -1.70200 23.14800 27.82200
H  -0.97700 23.96300 25.67100
H  -2.54400 24.33200 25.11900
H  -1.24900 24.48600 23.93900
H  -1.90900 18.19700 21.32400
H  -3.73800 15.85900 21.60800
H  -4.38900 19.15400 22.15000
H  -4.81700 17.70200 21.14700
H  -3.86800 19.09100 20.54800
H  -1.12200 14.81700 21.66100
H  -0.86200 16.23900 20.74500
H  -2.72500 13.93000 20.11600
H  -1.21800 14.50900 19.36900
H  -2.66400 15.47300 19.16500
H  -4.04000 11.27600 24.87300
H  -2.43600 10.71000 25.35000
H  -2.58700 11.67800 23.93000
H  -4.04200 13.12200 29.91900
H  -1.31500 13.11800 32.91900
H  -0.59100 11.57700 32.29500
H  -1.93100 11.46300 33.32700
Mg 35.66000 0.91700 29.19500
C  33.50700 2.41400 31.71100
C  38.15400 1.08500 31.47400
C  37.86300 0.44400 26.72900
C  33.16500 1.67100 26.80000
N  35.78300 1.53900 31.38400
C  34.79200 2.17200 32.23200
C  35.31000 2.36100 33.64700
C  36.88300 2.30400 33.37300
C  36.95900 1.55000 31.99700
C  37.51200 3.73100 33.26200
C  34.69800 1.31700 34.67500
C  34.31400 1.95500 36.03700
H  35.23200 3.02000 36.63400
N  37.66900 0.41500 29.18700
C  38.52500 0.57800 30.18500
C  39.91100 0.21800 29.78000
C  39.75700 -0.10100 28.37700
C  38.40000 0.25000 27.98600
C  41.10200 0.05000 30.74700
C  40.82600 -0.56400 27.39100
O  40.59600 -0.86800 26.20300
C  42.27500 -0.61200 27.84200
N  35.47500 0.84100 27.12800
C  36.56800 0.74200 26.25400
C  36.27300 1.02000 24.80300
C  34.75500 1.44800 24.91800
C  34.36700 1.19000 26.36200
C  37.11600 2.10100 24.00000
C  33.83000 0.73900 23.85200
C  33.17600 1.77800 22.84000
N  33.70400 1.76200 29.19400
C  32.79600 1.94900 28.16500
C  31.61900 2.66900 28.62600
C  31.81300 2.77100 29.99600
C  33.11000 2.21800 30.29600
C  30.52100 3.01400 27.79300
C  31.20800 3.27800 31.22700
O  30.16800 3.85200 31.42500
C  32.22200 2.88100 32.42300
C  32.41000 4.13600 33.23600
O  33.11600 5.10600 33.00700
O  31.51100 3.99700 34.28600
C  31.31100 5.10500 35.20900
H  39.00300 1.32400 32.11800
H  38.57300 0.22900 25.92800
H  32.41500 1.77900 26.01400
H  35.20700 3.41100 33.92300
H  37.39800 1.80500 34.19400
H  38.25900 3.82500 34.05000
H  36.78800 4.53400 33.39900
H  38.00300 3.85900 32.29700
H  35.35600 0.50200 34.97400
H  33.83200 0.83600 34.22200
H  34.20900 1.17300 36.78800
H  33.26000 2.19400 35.89600
H  40.75200 -0.63700 31.51800
H  41.49100 0.94600 31.22900
H  42.05200 -0.33400 30.37500
H  42.54700 -1.33200 28.61400
H  42.60500 0.40900 28.03700
H  42.90700 -0.74900 26.96500
H  36.32500 0.08600 24.24400
H  34.75400 2.53800 24.92500
H  36.50000 2.90900 23.60400
H  37.57300 1.59300 23.15100
H  37.91600 2.44500 24.65700
H  33.11200 0.16900 24.44100
H  34.44800 0.00300 23.33800
H  33.40700 1.42400 21.83600
H  33.57400 2.79000 22.91100
H  32.09300 1.78800 22.96500
H  29.90900 3.78000 28.26900
H  29.95800 2.13100 27.49200
H  30.96600 3.49200 26.92100
H  31.71700 2.12900 33.03000
H  30.79700 5.94600 34.74300
H  32.30900 5.38900 35.54400
H  30.69800 4.74200 36.03300

