158

Mg 40.64100 9.15600 29.17200
C  42.80300 10.68800 31.50500
C  38.66300 7.95000 31.69100
C  38.82500 7.58100 26.77800
C  42.88100 10.31200 26.64800
N  40.92800 9.05400 31.41100
C  41.66100 10.01600 32.08800
C  41.12600 10.21100 33.46200
C  39.97600 9.14500 33.54800
C  39.81300 8.66100 32.09600
C  40.19400 7.98300 34.55100
C  40.65400 11.65300 33.87300
C  39.99500 11.80500 35.29000
H  40.82100 12.64100 36.33700
N  39.02500 7.77000 29.25900
C  38.23600 7.53900 30.37300
C  37.10600 6.75500 29.96300
C  37.20000 6.69000 28.48600
C  38.40000 7.34000 28.11500
C  36.03600 6.11200 30.89900
C  36.19500 6.16600 27.42400
O  36.49800 5.80100 26.29900
C  34.75400 5.86300 27.86200
N  40.96400 8.84500 27.12900
C  39.91800 8.33200 26.35100
C  40.18600 8.65000 24.81400
C  41.52400 9.41100 24.82700
C  41.83000 9.55300 26.25600
C  40.04300 7.36900 23.98400
C  41.47800 10.69400 23.91800
C  40.86400 11.91000 24.61800
N  42.48800 10.27400 29.03600
C  43.23600 10.68500 27.96200
C  44.29900 11.50200 28.40300
C  44.15800 11.48700 29.77200
C  43.09100 10.72500 30.10100
C  45.37900 12.17700 27.50200
C  44.79800 12.02600 30.92100
O  45.79100 12.74400 30.97600
C  43.85200 11.63100 32.18200
C  44.49200 11.12400 33.30600
O  44.95100 9.97700 33.48400
O  44.47300 12.08400 34.34200
C  45.13700 11.54100 35.53300
H  38.03500 7.81200 32.57400
H  38.22300 7.17300 25.96300
H  43.44800 10.79600 25.85000
H  41.95000 9.95000 34.12500
H  39.03500 9.62000 33.82400
H  41.25900 7.84800 34.73800
H  39.74300 6.99900 34.42900
H  39.73400 8.31300 35.48300
H  39.91200 11.99300 33.15000
H  41.52900 12.29600 33.77500
H  39.86600 10.80700 35.71000
H  38.98300 12.20000 35.20700
H  36.38900 5.84300 31.89500
H  35.52900 5.27200 30.42500
H  35.24100 6.85600 30.95300
H  34.52300 6.60400 28.62800
H  34.78600 4.83800 28.23300
H  34.04800 5.96000 27.03800
H  39.46200 9.36600 24.42200
H  42.21400 8.65500 24.45200
H  39.00600 7.24200 23.67300
H  40.51100 6.59200 24.58900
H  40.63500 7.49600 23.07800
H  40.91500 10.55900 22.99400
H  42.53300 10.86400 23.70300
H  41.50300 12.79300 24.60600
H  40.76900 11.71100 25.68500
H  39.95000 12.26700 24.14400
H  44.95700 12.65400 26.61800
H  46.17500 11.48700 27.21900
H  45.87900 12.99200 28.02700
H  43.27500 12.51000 32.47000
H  46.18400 11.26800 35.40100
H  44.59900 10.65600 35.87300
H  45.21000 12.20900 36.39200
Mg -0.88700 34.95100 27.14800
C  -2.70800 33.16600 29.50400
C  0.48500 36.78500 29.78300
C  0.84800 36.65600 24.92900
C  -2.13100 32.86600 24.71600
N  -1.16100 35.00500 29.35200
C  -1.90200 34.12400 30.09000
C  -1.64100 34.38500 31.57600
C  -0.71300 35.62500 31.58500
C  -0.45500 35.78000 30.14800
C  -1.41800 36.91900 32.11200
C  -1.21800 33.14900 32.42700
C  -1.96600 32.85600 33.78000
H  -1.17600 32.78900 35.03400
N  0.47100 36.57600 27.31700
C  0.93500 37.13500 28.45000
C  1.92200 38.11700 28.08700
C  2.04100 38.09200 26.67100
C  1.06800 37.09900 26.22500
C  2.69400 38.97700 29.06100
C  2.98300 38.97600 25.81300
O  3.13200 38.77200 24.60900
C  3.94400 40.06600 26.28100
N  -0.67200 34.79700 25.05000
C  -0.02300 35.73600 24.32700
C  -0.01500 35.44000 22.84500
C  -0.87000 34.10300 22.82400
C  -1.30100 33.92100 24.27700
C  -0.68200 36.58000 21.98700
C  -0.07400 32.86000 22.33000
C  -0.82400 31.73200 21.59700
N  -2.27800 33.41300 27.04500
C  -2.69600 32.65200 25.98400
C  -3.70500 31.59700 26.48600
C  -3.74400 31.77600 27.81200
C  -2.84200 32.92000 28.13700
C  -4.35500 30.43400 25.68600
C  -4.31100 31.30800 29.06100
O  -5.18200 30.45000 29.28700
C  -3.58500 32.16600 30.16800
C  -4.74800 32.84900 30.86500
O  -5.28300 33.85300 30.49000
O  -4.96800 32.23800 32.12100
C  -5.90200 32.94000 33.04900
H  1.03400 37.26200 30.59800
H  1.38000 37.21100 24.15300
H  -2.54800 32.30000 23.88000
H  -2.58200 34.77400 31.96300
H  0.27800 35.62500 32.04000
H  -2.23400 36.71700 32.80700
H  -1.79700 37.42100 31.22200
H  -0.73800 37.61700 32.60100
H  -0.16400 33.18800 32.70100
H  -1.17400 32.25500 31.80500
H  -2.49900 31.91300 33.65600
H  -2.74300 33.61600 33.86100
H  2.40700 40.00100 28.82100
H  3.75600 38.76300 28.93500
H  2.38600 38.67600 30.06200
H  4.87200 39.55300 26.53300
H  3.45900 40.55800 27.12500
H  4.05700 40.80100 25.48400
H  1.01800 35.23300 22.56800
H  -1.73700 34.17900 22.16800
H  -0.81600 36.27800 20.94900
H  0.02500 37.40900 22.02800
H  -1.65400 36.85100 22.39900
H  0.49600 32.42600 23.15100
H  0.59100 33.28700 21.57800
H  -0.59000 30.78000 22.07200
H  -0.40400 31.76700 20.59100
H  -1.89300 31.89400 21.73500
H  -5.39000 30.74500 25.54800
H  -4.30900 29.51000 26.26300
H  -3.73700 30.32300 24.79500
H  -3.05400 31.56100 30.90300
H  -6.27500 32.08000 33.60500
H  -6.72200 33.51300 32.61500
H  -5.38200 33.53800 33.79700

