158

Mg 35.27900 3.71800 29.57200
C  32.85700 4.39800 31.96000
C  37.75100 3.68900 31.95400
C  37.49800 2.96900 27.13000
C  32.66100 3.85000 27.20900
N  35.31800 3.98500 31.76000
C  34.18600 4.25300 32.52200
C  34.66900 4.32800 33.93800
C  36.22200 4.46900 33.88700
C  36.51400 3.99800 32.46300
C  36.67200 5.94100 34.02200
C  34.09700 3.13500 34.75600
C  34.07100 3.15700 36.29100
H  34.69000 4.32700 36.97600
N  37.31000 3.39500 29.57000
C  38.11700 3.34000 30.59300
C  39.42500 2.84600 30.27300
C  39.46400 2.65000 28.89300
C  38.07200 3.01600 28.44000
C  40.48800 2.55600 31.33700
C  40.61900 2.12200 27.96300
O  40.48000 2.13600 26.76900
C  41.83500 1.53100 28.57600
N  35.08800 3.69500 27.51600
C  36.15100 3.28100 26.68400
C  35.62500 2.99400 25.23300
C  34.06800 3.25400 25.31600
C  33.90400 3.59000 26.81400
C  36.39600 3.75700 24.14600
C  33.14200 2.14500 24.65000
C  32.81200 1.01000 25.55100
N  33.21700 4.10700 29.52300
C  32.30000 4.21600 28.46600
C  30.98200 4.47400 28.93400
C  31.21200 4.63800 30.34700
C  32.56900 4.40300 30.63800
C  29.71900 4.57200 28.11800
C  30.51700 4.88200 31.61800
O  29.28600 4.89500 31.78300
C  31.59700 4.83000 32.67000
C  31.71100 6.18000 33.22900
O  32.51200 6.99600 32.91600
O  30.76200 6.30900 34.22700
C  30.82300 7.52500 35.04100
H  38.52600 3.66600 32.72400
H  38.26900 2.70200 26.40400
H  31.85900 3.86700 26.46800
H  34.18900 5.23600 34.30300
H  36.71400 3.82100 34.61200
H  35.79100 6.57900 33.94100
H  37.42900 6.13600 33.26300
H  37.18100 6.08400 34.97500
H  34.74000 2.30100 34.47400
H  33.09200 2.91000 34.39700
H  34.47300 2.20500 36.63500
H  33.00200 3.16300 36.50700
H  40.86500 1.54700 31.16700
H  40.01400 2.52900 32.31800
H  41.26300 3.32200 31.35100
H  42.20200 2.30300 29.25200
H  42.52700 1.32500 27.75900
H  41.63300 0.66700 29.20900
H  35.64700 1.92100 25.03900
H  33.76100 4.15100 24.77800
H  36.55200 3.14700 23.25600
H  37.33500 4.05400 24.61400
H  35.86100 4.65800 23.84800
H  33.76000 1.64700 23.90300
H  32.36100 2.56900 24.01900
H  32.51500 1.27300 26.56600
H  33.73500 0.45500 25.71900
H  32.07700 0.33600 25.11200
H  28.89300 4.26100 28.75800
H  29.76100 3.86700 27.28800
H  29.66600 5.58400 27.71900
H  31.34200 4.13000 33.46500
H  31.78600 7.97800 35.28000
H  30.51800 7.15900 36.02100
H  30.22000 8.36900 34.70700
Mg 46.90700 16.79400 28.37600
C  44.88000 16.25400 31.16600
C  49.06200 18.50800 30.29700
C  48.58000 17.59200 25.58400
C  44.54600 15.08900 26.43900
N  46.94800 17.34800 30.46100
C  46.09600 16.90200 31.45100
C  46.52900 17.43100 32.81200
C  47.83900 18.13400 32.43300
C  47.97500 17.96400 30.99000
C  48.05800 19.57700 32.90100
C  46.71200 16.25200 33.85700
C  46.24800 16.63900 35.25600
H  46.09300 18.14600 35.67900
N  48.56000 17.93100 27.91100
C  49.36500 18.47200 28.91800
C  50.50900 19.14200 28.27000
C  50.40500 18.90900 26.88700
C  49.13000 18.13800 26.71300
C  51.57700 19.92700 29.05800
C  51.19400 19.41100 25.68700
O  50.85200 19.39400 24.49400
C  52.47600 20.17900 25.99500
N  46.49500 16.55500 26.31100
C  47.39600 16.91000 25.36600
C  46.97100 16.30000 23.93700
C  45.50700 15.70300 24.31300
C  45.57700 15.67400 25.81600
C  46.82900 17.38600 22.84700
C  45.31800 14.23700 23.66500
C  46.14800 13.01200 24.23200
N  45.13900 15.76900 28.69700
C  44.23400 15.20800 27.78300
C  43.09400 14.78200 28.56200
C  43.32400 15.10200 29.88600
C  44.52900 15.79600 29.89900
C  41.89400 14.10600 27.97800
C  42.74300 15.13800 31.18800
O  41.62100 14.90900 31.53000
C  43.77200 15.88300 32.11900
C  43.07400 17.03000 32.76000
O  42.91900 18.13800 32.31200
O  42.46400 16.61700 33.91700
C  41.66100 17.64400 34.67400
H  49.83200 18.95800 30.92700
H  49.16100 17.76900 24.67600
H  43.78900 14.57900 25.84000
H  45.73500 18.13800 33.05700
H  48.75300 17.69400 32.83200
H  48.00000 20.22400 32.02600
H  48.98200 19.74100 33.45600
H  47.19200 19.82600 33.51500
H  47.78500 16.08700 33.94500
H  46.38600 15.24800 33.58500
H  46.89400 16.25000 36.04300
H  45.23600 16.25700 35.39000
H  51.61100 20.99800 28.85600
H  52.52300 19.49400 28.73200
H  51.54100 19.84800 30.14500
H  52.23700 21.17900 26.35800
H  52.94500 20.38300 25.03300
H  53.12500 19.52600 26.57800
H  47.67500 15.49500 23.72700
H  44.63200 16.32200 24.11700
H  47.57100 18.16600 23.01600
H  45.84400 17.82900 22.69700
H  47.14300 17.06500 21.85400
H  45.68800 14.33300 22.64500
H  44.27100 13.96600 23.52800
H  46.85300 13.34000 24.99600
H  46.73400 12.70200 23.36700
H  45.50700 12.19300 24.55900
H  41.94200 14.42100 26.93500
H  41.01500 14.55900 28.43600
H  41.86900 13.02300 28.09900
H  44.14700 15.15000 32.83300
H  40.77100 17.90300 34.10100
H  42.19200 18.58600 34.80900
H  41.42700 17.23000 35.65500

