158

Mg 0.73400 7.51300 25.34100
C  1.43000 9.58500 28.16800
C  1.44600 4.79200 27.28700
C  0.08600 5.76000 22.81000
C  0.88400 10.45200 23.42700
N  1.43500 7.22000 27.52100
C  1.40100 8.13800 28.55600
C  1.49400 7.48600 29.94500
C  1.69200 5.96500 29.58100
C  1.60700 6.00300 28.04800
C  3.02700 5.34200 30.10600
C  0.32100 7.78800 30.91500
C  0.58400 8.09400 32.44900
H  1.63200 7.19200 33.06000
N  0.72800 5.52500 25.06400
C  1.04600 4.53300 25.98300
C  0.71400 3.22000 25.39300
C  0.34200 3.58200 24.03500
C  0.37800 4.98000 23.92400
C  0.97600 1.94800 26.17300
C  -0.04700 2.66400 22.87400
O  -0.44600 2.94700 21.73600
C  0.09900 1.20300 23.09100
N  0.63200 8.06100 23.29400
C  0.24700 7.07100 22.46400
C  -0.38000 7.70900 21.15300
C  0.00800 9.21600 21.25900
C  0.54400 9.31900 22.69700
C  -0.10800 6.99400 19.75200
C  -1.24700 10.23800 21.06700
C  -0.98400 11.38000 20.12700
N  1.15000 9.52400 25.68200
C  1.18500 10.61100 24.76200
C  1.59300 11.81400 25.48400
C  1.63800 11.44700 26.82200
C  1.35000 10.09000 26.86900
C  1.72000 13.20500 24.90400
C  1.73600 11.99100 28.16200
O  2.10300 13.09100 28.55400
C  1.67400 10.74700 29.13800
C  2.91100 10.67900 29.85000
O  3.99000 10.38400 29.40000
O  2.71100 10.95100 31.20500
C  3.84900 10.72400 32.08200
H  1.49300 3.84400 27.82700
H  -0.27200 5.20900 21.93800
H  0.87500 11.39600 22.87900
H  2.42900 7.91300 30.30700
H  0.82200 5.37300 29.86500
H  2.86400 4.42100 30.66700
H  3.60900 6.05700 30.68800
H  3.73500 5.02200 29.34200
H  -0.26400 6.86900 30.93300
H  -0.30900 8.61300 30.58300
H  -0.27400 7.91500 33.09700
H  0.88600 9.13500 32.56700
H  0.11300 1.29500 26.04800
H  1.05100 2.07400 27.25300
H  1.85600 1.41400 25.81400
H  -0.50200 0.85100 23.92900
H  1.13600 0.96000 23.32400
H  -0.32100 0.66500 22.24100
H  -1.44000 7.56400 21.36500
H  0.80300 9.44800 20.55000
H  0.80400 6.42600 19.93000
H  0.07900 7.78900 19.03000
H  -0.93500 6.31700 19.53400
H  -1.62100 10.63100 22.01200
H  -2.11900 9.84100 20.54700
H  -1.44000 11.25100 19.14600
H  0.09800 11.51400 20.14500
H  -1.53200 12.22900 20.53500
H  0.86800 13.57800 24.33600
H  2.66600 13.16900 24.36300
H  1.92600 13.80200 25.79200
H  0.84300 10.88600 29.83000
H  3.50300 10.23700 32.99400
H  4.25700 11.67800 32.41400
H  4.66200 10.19200 31.58700
Mg 24.96600 -7.23600 47.89600
C  27.24300 -5.03400 46.76100
C  22.77900 -6.13000 45.39300
C  22.85700 -9.80300 48.55500
C  27.24500 -8.69700 50.11500
N  25.06900 -5.87800 46.09100
C  26.11700 -4.97600 45.95200
C  25.73300 -3.84500 45.00000
C  24.24200 -4.15800 44.62600
C  24.06300 -5.49400 45.34200
C  23.16100 -3.08000 45.07200
C  26.70100 -3.77100 43.74700
C  27.20100 -2.33400 43.30500
H  27.15500 -1.95500 41.90400
N  23.15500 -7.88400 47.10700
C  22.35800 -7.26600 46.05500
C  21.10500 -7.97500 45.83900
C  21.16300 -9.00800 46.74800
C  22.42800 -8.92700 47.47700
C  19.98500 -7.53800 44.82900
C  20.06700 -10.11500 46.81700
O  19.13400 -10.19600 46.04500
C  20.09600 -11.17800 47.84300
N  24.92700 -8.87200 49.33600
C  23.93500 -9.75700 49.39600
C  24.21300 -10.90900 50.28900
C  25.62000 -10.54300 50.85000
C  26.00100 -9.34200 49.99800
C  23.10900 -11.26700 51.38300
C  26.70900 -11.64500 50.89200
C  26.31600 -13.01800 51.50700
N  26.84900 -6.93900 48.40900
C  27.65800 -7.64100 49.27700
C  28.96600 -7.01800 49.23600
C  28.83600 -5.95700 48.31200
C  27.54000 -5.99200 47.81900
C  30.10000 -7.61300 49.97300
C  29.48400 -4.76900 47.67300
O  30.62900 -4.30800 47.84100
C  28.48400 -4.17400 46.70800
C  28.22000 -2.76900 47.19200
O  27.89000 -2.45300 48.32800
O  28.39800 -1.86700 46.20000
C  28.18300 -0.44700 46.44900
H  22.02500 -5.69300 44.73400
H  22.30000 -10.73500 48.66900
H  27.97000 -9.03000 50.86100
H  25.80800 -2.86200 45.46500
H  24.23200 -4.24300 43.53900
H  23.76100 -2.30300 45.54600
H  22.53500 -3.60500 45.79400
H  22.59100 -2.83700 44.17500
H  26.28000 -4.21300 42.84500
H  27.58100 -4.35900 44.00900
H  28.27600 -2.21000 43.43000
H  26.88300 -1.53400 43.97400
H  20.18400 -8.00800 43.86600
H  19.94300 -6.45000 44.79200
H  19.07900 -7.96600 45.25800
H  20.61100 -11.97600 47.30800
H  19.02500 -11.37700 47.83700
H  20.42500 -11.02800 48.87200
H  24.31700 -11.82400 49.70700
H  25.45300 -10.14000 51.84900
H  23.53100 -11.43000 52.37400
H  22.64600 -12.20400 51.07100
H  22.28200 -10.55700 51.36200
H  27.50100 -11.30000 51.55600
H  27.14400 -11.83100 49.91000
H  26.41900 -13.82400 50.78100
H  25.27900 -13.04900 51.84300
H  26.89000 -13.27800 52.39600
H  30.91800 -6.90800 49.82500
H  30.40900 -8.56300 49.53800
H  29.97300 -7.83400 51.03200
H  28.94600 -4.18100 45.72000
H  27.09900 -0.36100 46.52300
H  28.61600 0.26100 45.74300
H  28.56500 -0.24000 47.44900

