158

Mg 1.54500 7.71400 25.00900
C  2.00700 9.56900 27.83400
C  1.57200 4.81100 26.89100
C  1.30100 5.92900 22.14600
C  1.49100 10.63700 23.05300
N  1.72200 7.22900 27.13700
C  1.89500 8.19500 28.13100
C  1.93600 7.45000 29.49900
C  1.99000 5.96900 29.15000
C  1.64000 5.96100 27.68300
C  3.27600 5.09100 29.49000
C  0.82400 7.84100 30.50100
C  1.18100 7.60600 31.99600
H  2.39600 6.70500 32.38600
N  1.53100 5.56900 24.57200
C  1.44200 4.56200 25.44600
C  1.32400 3.26600 24.73400
C  1.27300 3.61500 23.36300
C  1.42700 5.12900 23.25600
C  1.28400 1.95900 25.43400
C  1.25500 2.61800 22.20400
O  1.09300 2.90700 20.97700
C  1.29100 1.11200 22.39900
N  1.20600 8.24600 22.91500
C  1.28500 7.31800 21.95700
C  1.00900 7.98600 20.58300
C  0.76200 9.46500 20.95000
C  1.18200 9.43500 22.34500
C  2.12000 7.80200 19.48300
C  -0.69400 10.06400 20.80100
C  -0.82000 11.57500 20.76200
N  1.68800 9.66400 25.29700
C  1.68100 10.75400 24.40400
C  1.85700 11.98600 25.19500
C  2.03000 11.52400 26.50800
C  1.93300 10.13500 26.53100
C  1.84700 13.38200 24.67700
C  2.24500 12.07100 27.86200
O  2.50700 13.21000 28.23400
C  2.16100 10.77000 28.78300
C  3.26600 10.67600 29.80300
O  4.31500 10.02500 29.61800
O  2.94200 11.39300 30.94500
C  3.94300 11.13400 32.01300
H  1.55700 3.85600 27.42000
H  1.18200 5.43400 21.18000
H  1.64000 11.50000 22.40100
H  2.85900 7.70800 30.01800
H  1.07900 5.58000 29.60500
H  2.90500 4.14800 29.89200
H  3.99800 5.58400 30.14100
H  3.94500 4.85300 28.66300
H  -0.09700 7.32800 30.22400
H  0.69800 8.89500 30.25000
H  0.42300 6.95000 32.42400
H  1.25400 8.56200 32.51400
H  1.94000 1.26400 24.91000
H  0.23700 1.65600 25.45600
H  1.63000 2.05200 26.46400
H  2.32700 0.90100 22.66400
H  1.22700 0.64800 21.41500
H  0.65800 0.70700 23.18900
H  0.05500 7.56400 20.26800
H  1.44900 10.08000 20.36900
H  1.53000 7.62600 18.58400
H  2.71400 6.92600 19.74300
H  2.78900 8.64800 19.32700
H  -1.30500 9.74700 21.64500
H  -1.17100 9.59700 19.94000
H  -0.96300 11.93000 19.74100
H  0.11300 11.95900 21.17400
H  -1.53000 11.88600 21.52800
H  2.80400 13.87300 24.85200
H  1.11300 13.94800 25.25100
H  1.50200 13.47500 23.64700
H  1.23400 10.92700 29.33500
H  4.93900 11.37300 31.64000
H  3.81100 10.22500 32.60000
H  3.88100 11.94800 32.73500
Mg 44.01700 4.00200 47.49500
C  41.77600 6.75700 47.14000
C  41.25400 1.89600 46.80400
C  46.09000 1.48600 47.21600
C  46.62800 6.37300 47.73600
N  41.81400 4.25400 47.04400
C  41.12000 5.46800 46.97600
C  39.61600 5.14100 46.73500
C  39.53600 3.65000 46.92300
C  40.95900 3.21800 46.84700
C  38.75900 3.19200 48.22500
C  39.23600 5.51800 45.26600
C  37.75000 5.99000 45.11100
H  37.22200 5.93900 43.68600
N  43.77200 1.96900 47.13700
C  42.52700 1.27600 46.91300
C  42.71700 -0.10400 46.70000
C  44.19300 -0.21800 46.78500
C  44.76900 1.08000 47.10900
C  41.63500 -1.11700 46.38700
C  44.84300 -1.54100 46.54500
O  44.16100 -2.56100 46.30400
C  46.22500 -1.65900 46.66900
N  46.08700 3.93600 47.28100
C  46.72200 2.76100 47.39200
C  48.25700 2.95200 47.32300
C  48.39700 4.55700 47.59300
C  46.93700 5.00100 47.52900
C  49.11000 2.12300 48.28800
C  49.41800 5.20700 46.64100
C  50.36000 6.20900 47.36500
N  44.25400 6.11700 47.44300
C  45.33000 6.89300 47.64900
C  44.95900 8.29000 47.66800
C  43.58200 8.23400 47.48700
C  43.19100 6.92000 47.44000
C  45.81900 9.45000 47.83700
C  42.38400 9.09000 47.39500
O  42.31700 10.31800 47.60900
C  41.14600 8.13200 47.07200
C  40.19100 8.18600 48.19900
O  40.39300 7.69100 49.32800
O  39.11100 8.89900 47.72000
C  37.96300 9.02800 48.62300
H  40.38300 1.23900 46.76300
H  46.76300 0.62900 47.28300
H  47.46300 7.07100 47.82300
H  39.08800 5.74200 47.47400
H  39.17300 3.06600 46.07700
H  38.55300 4.07500 48.82900
H  39.30700 2.46200 48.82200
H  37.73500 2.83800 48.10600
H  39.27000 4.62400 44.64400
H  39.86700 6.30900 44.86100
H  37.63500 7.05500 45.30900
H  37.03900 5.51400 45.78600
H  40.68100 -0.90000 46.86900
H  41.83600 -2.16500 46.60700
H  41.59700 -0.90500 45.31800
H  46.40000 -1.25500 47.66700
H  46.76200 -1.15700 45.86400
H  46.49700 -2.71400 46.68600
H  48.44700 2.70000 46.28000
H  48.65500 4.58300 48.65200
H  48.45700 1.40900 48.79200
H  49.68600 2.75200 48.96600
H  49.90400 1.56800 47.79000
H  48.88900 5.68300 45.81500
H  50.14500 4.50400 46.23500
H  50.07200 7.25600 47.27800
H  51.37200 6.18700 46.96000
H  50.50600 5.98600 48.42200
H  46.47000 9.57300 46.97200
H  46.32700 9.51300 48.79900
H  45.22400 10.36200 47.88100
H  40.70800 8.37600 46.10400
H  37.12800 8.58500 48.08200
H  37.72000 10.08400 48.73700
H  38.05300 8.54600 49.59700

