158

Mg 0.46300 43.73700 26.28300
C  2.34100 43.13200 29.16600
C  -2.36700 42.73500 28.14300
C  -1.32500 43.58500 23.38300
C  3.30200 44.27300 24.50400
N  0.05000 43.10100 28.44900
C  0.98000 43.00700 29.43500
C  0.36200 42.72500 30.76800
C  -1.11600 42.32000 30.37700
C  -1.13900 42.75500 28.92500
C  -1.28000 40.79800 30.57100
C  0.44000 44.11400 31.59400
C  0.46300 43.97600 33.13200
H  0.31300 42.55600 33.62400
N  -1.62400 43.37700 25.79700
C  -2.58700 43.04900 26.75200
C  -3.88000 42.99100 26.12100
C  -3.60700 43.20200 24.71900
C  -2.12600 43.44300 24.56000
C  -5.30100 42.70500 26.75300
C  -4.55500 43.17200 23.47900
O  -4.07000 43.33600 22.35000
C  -6.02400 43.14300 23.57900
N  0.87100 43.91400 24.29500
C  0.02600 43.71800 23.23900
C  0.71200 43.73600 21.84500
C  2.13200 44.24400 22.33100
C  2.11600 44.17000 23.83600
C  0.74400 42.28100 21.14700
C  2.46600 45.57500 21.62300
C  2.22600 46.91600 22.49600
N  2.41100 43.63000 26.68000
C  3.41200 43.86900 25.87800
C  4.68500 43.73400 26.60100
C  4.26900 43.38500 27.93900
C  2.87000 43.43800 27.96100
C  6.06800 43.85400 26.15700
C  4.80100 43.01500 29.19600
O  5.97200 42.73600 29.56400
C  3.56300 42.97100 30.09100
C  3.63500 41.70200 30.93300
O  3.04300 40.65100 30.66700
O  4.34200 42.04400 32.04800
C  4.49800 40.86900 33.04600
H  -3.31400 42.51000 28.63700
H  -1.83200 43.57600 22.41600
H  4.21600 44.54600 23.97300
H  0.91100 41.87200 31.16700
H  -1.87100 42.93900 30.86200
H  -1.84100 40.43100 29.71100
H  -2.01100 40.68800 31.37200
H  -0.37900 40.20500 30.72700
H  -0.43100 44.74700 31.42900
H  1.29200 44.72700 31.29800
H  -0.23800 44.61700 33.66700
H  1.48600 44.24400 33.39800
H  -6.07900 43.43500 26.53200
H  -5.26900 42.61200 27.83900
H  -5.49800 41.71400 26.34400
H  -6.42300 44.11500 23.87100
H  -6.30300 42.49600 24.41000
H  -6.37100 42.83500 22.59200
H  0.02900 44.35100 21.25800
H  2.88700 43.52300 22.01700
H  0.14500 41.58200 21.73200
H  1.74400 41.84800 21.19300
H  0.47000 42.36900 20.09600
H  1.91000 45.81300 20.71600
H  3.48900 45.61400 21.25000
H  1.28100 46.94300 23.03800
H  2.30700 47.85100 21.94100
H  2.98200 46.96600 23.28000
H  6.05900 44.29800 25.16200
H  6.63000 42.92300 26.08700
H  6.48700 44.51100 26.91900
H  3.64700 43.92800 30.60600
H  4.50600 39.85400 32.64800
H  3.66600 40.89500 33.74900
H  5.43500 40.93500 33.59800
Mg -10.94100 16.70200 42.45700
C  -7.57500 17.40700 42.88500
C  -11.33300 20.05700 41.85900
C  -14.14500 16.07300 41.40000
C  -10.25400 13.30400 42.56500
N  -9.54300 18.48600 42.20400
C  -8.27000 18.54400 42.51600
C  -7.66900 19.93200 42.44900
C  -8.95300 20.75600 42.58200
C  -10.02900 19.74100 42.15600
C  -9.23700 21.28500 43.92900
C  -6.96500 20.01400 41.05500
C  -5.46300 20.11500 41.02700
H  -4.63400 19.03500 40.24500
N  -12.50600 17.87500 41.66700
C  -12.47800 19.22300 41.55800
C  -13.77100 19.67400 41.12300
C  -14.61800 18.52800 40.87500
C  -13.78800 17.45200 41.34800
C  -14.00100 21.18100 40.95700
C  -16.11200 18.54200 40.34000
O  -16.60700 19.63800 39.98800
C  -16.88400 17.28300 40.19200
N  -12.07100 14.95500 42.09600
C  -13.37300 14.92900 41.73200
C  -13.89200 13.48000 41.55000
C  -12.59200 12.65400 41.79200
C  -11.52300 13.72900 42.15200
C  -15.22600 12.99000 42.34800
C  -12.17100 11.63300 40.73000
C  -11.98200 10.11600 41.19300
N  -9.25500 15.53600 42.73700
C  -9.14100 14.17400 42.74300
C  -7.80100 13.86700 43.04000
C  -7.12500 15.05500 43.14700
C  -8.05300 16.05700 42.87500
C  -7.22000 12.49900 43.31500
C  -5.84500 15.67500 43.31800
O  -4.72200 15.17600 43.37600
C  -6.08200 17.29700 43.25600
C  -5.73100 17.70200 44.64800
O  -6.44500 17.65200 45.64900
O  -4.42000 18.06800 44.65200
C  -4.16100 18.90700 45.86000
H  -11.37900 21.14600 41.79200
H  -15.11000 15.66900 41.08800
H  -10.18800 12.22400 42.71100
H  -6.99400 19.95700 43.30400
H  -8.93800 21.52100 41.80600
H  -8.27600 21.41700 44.42600
H  -9.71100 20.54700 44.57600
H  -9.89200 22.15600 43.91000
H  -7.28500 20.97900 40.66300
H  -7.21200 19.25000 40.31700
H  -5.03700 20.22800 42.02400
H  -5.33300 21.07100 40.52000
H  -13.74700 21.53500 39.95800
H  -13.35200 21.71200 41.65400
H  -15.05300 21.33100 41.19700
H  -17.83700 17.41500 39.68100
H  -17.09800 17.04700 41.23400
H  -16.25800 16.57300 39.65100
H  -14.18800 13.31000 40.51500
H  -12.84200 12.12400 42.71000
H  -15.29200 13.64800 43.21500
H  -15.25400 12.01500 42.83600
H  -16.01100 13.18300 41.61700
H  -11.26500 11.99200 40.24300
H  -12.87700 11.57100 39.90200
H  -12.56300 9.42200 40.58600
H  -12.25200 10.14800 42.24900
H  -10.95900 9.74000 41.20200
H  -6.15900 12.60200 43.54200
H  -7.25700 11.95200 42.37300
H  -7.81600 11.92600 44.02500
H  -5.43000 17.83600 42.56800
H  -3.93200 19.92300 45.53700
H  -3.22100 18.53900 46.27100
H  -4.85400 19.00200 46.69500

