158

Mg -1.67000 17.04900 26.33300
C  -2.03500 14.90600 29.05500
C  -2.11000 19.64200 28.42800
C  -1.92000 19.08100 23.53700
C  -1.68800 14.34300 24.12400
N  -2.35100 17.23800 28.52900
C  -2.22000 16.24000 29.48400
C  -2.35900 16.67300 30.87600
C  -2.47300 18.23700 30.63800
C  -2.32100 18.42400 29.11000
C  -3.72000 18.90900 31.25300
C  -1.09600 16.38700 31.79900
C  -0.80500 17.15500 33.07300
H  -0.93100 16.40700 34.29500
N  -1.79200 19.02700 26.03300
C  -1.99300 19.96400 27.04500
C  -2.02800 21.24900 26.46300
C  -1.82700 21.11900 25.10000
C  -1.94900 19.69600 24.82700
C  -2.27500 22.59400 27.24100
C  -1.54700 22.21200 24.06000
O  -1.70000 22.07400 22.81400
C  -0.98500 23.53100 24.45700
N  -1.75300 16.72800 24.04400
C  -1.78700 17.71300 23.18600
C  -1.85800 17.14600 21.79100
C  -1.38700 15.67300 21.91900
C  -1.49900 15.51000 23.47000
C  -3.27700 17.32300 21.18200
C  -0.07200 15.31300 21.16600
C  1.14600 15.60600 21.91500
N  -1.92000 15.07500 26.50800
C  -1.79800 14.06300 25.56200
C  -1.75500 12.75800 26.22300
C  -1.83000 13.08600 27.60300
C  -1.92900 14.49700 27.71100
C  -1.71900 11.41800 25.53300
C  -1.93100 12.53200 28.94800
O  -1.85600 11.36800 29.27300
C  -1.96900 13.66700 29.94500
C  -0.67100 13.55200 30.70200
O  0.36900 13.93000 30.28900
O  -0.84700 12.99000 31.98700
C  0.31100 12.97500 32.83200
H  -2.07200 20.49200 29.11400
H  -1.98700 19.74100 22.67000
H  -1.56800 13.52200 23.41400
H  -3.32800 16.30900 31.21800
H  -1.65700 18.69900 31.19400
H  -4.08000 19.56200 30.45800
H  -3.48700 19.40800 32.19400
H  -4.61000 18.30600 31.43400
H  -0.14000 16.34600 31.27700
H  -1.29100 15.36100 32.11100
H  -1.41900 18.05200 33.15600
H  0.24000 17.46200 33.02100
H  -2.83000 22.28200 28.12500
H  -2.87200 23.20900 26.56900
H  -1.36300 23.08400 27.58200
H  -0.25600 23.49900 25.26700
H  -1.82600 24.17500 24.71300
H  -0.47100 24.05000 23.64800
H  -1.14800 17.60100 21.10000
H  -2.15800 14.98600 21.57300
H  -3.25000 17.63900 20.13900
H  -3.82300 18.11600 21.69200
H  -3.71500 16.32500 21.18800
H  0.00700 15.86300 20.22900
H  -0.12400 14.25600 20.90600
H  0.89600 16.31600 22.70400
H  1.92000 16.18000 21.40400
H  1.51600 14.68000 22.35500
H  -1.31400 11.42400 24.52100
H  -2.71000 10.97200 25.44600
H  -1.13100 10.76200 26.17400
H  -2.78800 13.51000 30.64600
H  0.92000 12.14800 32.46700
H  -0.09000 12.79100 33.82800
H  0.80200 13.94700 32.80500
Mg 47.83800 15.10800 28.61200
C  45.67400 15.11100 31.43100
C  50.10200 16.87800 30.27400
C  49.61000 15.13600 25.77200
C  45.13400 13.55500 26.78400
N  47.88100 15.85100 30.65400
C  46.96400 15.68200 31.70900
C  47.60000 16.20000 33.07700
C  48.98500 16.73700 32.61700
C  49.03300 16.48000 31.05800
C  49.26600 18.23700 33.08000
C  47.68300 15.14600 34.20900
C  46.71300 15.33000 35.43000
H  46.38700 16.73100 36.01300
N  49.65300 15.79800 28.07800
C  50.46100 16.57600 28.93400
C  51.71900 16.83100 28.28400
C  51.62700 16.37400 26.92800
C  50.23100 15.71800 26.84300
C  52.83700 17.67200 28.93300
C  52.50500 16.65600 25.78200
O  52.27200 16.21600 24.71000
C  53.90900 17.37500 25.98400
N  47.38600 14.37800 26.69800
C  48.33700 14.54900 25.69900
C  47.95700 13.96300 24.32900
C  46.47000 13.51700 24.64900
C  46.29300 13.89300 26.10700
C  47.94700 15.09300 23.26100
C  46.36400 11.98100 24.42000
C  47.43200 11.08300 25.11100
N  45.83200 14.46000 28.99900
C  44.87300 13.81500 28.15900
C  43.67700 13.53800 28.88000
C  43.94500 14.05700 30.19400
C  45.21600 14.55400 30.18300
C  42.39700 12.85200 28.34800
C  43.41300 14.21800 31.60900
O  42.35500 13.81300 32.00900
C  44.50500 14.97200 32.40400
C  43.93300 16.14500 33.00700
O  44.01300 17.29200 32.60400
O  43.25100 15.70800 34.04200
C  42.31100 16.80600 34.41200
H  50.80100 17.51700 30.81900
H  50.18400 15.22300 24.84700
H  44.44300 12.99900 26.14800
H  46.94100 17.02000 33.36000
H  49.83500 16.17100 32.99800
H  49.31800 18.99800 32.30200
H  50.22000 18.26000 33.60500
H  48.47300 18.66300 33.69400
H  48.70700 15.21100 34.57600
H  47.52600 14.15600 33.78000
H  47.04200 14.71400 36.26600
H  45.71000 14.98400 35.18300
H  53.70200 17.12700 29.31100
H  52.38800 18.32900 29.67800
H  53.07600 18.37200 28.13200
H  54.36300 16.80300 26.79300
H  53.86400 18.46400 25.99600
H  54.44700 17.01700 25.10700
H  48.70100 13.21800 24.04800
H  45.65300 14.03600 24.14700
H  46.95300 15.52800 23.16000
H  48.09300 14.55200 22.32600
H  48.69600 15.86500 23.43800
H  46.47000 11.75900 23.35800
H  45.33300 11.80200 24.72700
H  46.86600 10.33000 25.65800
H  47.97900 11.69100 25.83100
H  48.08800 10.58800 24.39400
H  41.94400 12.22500 29.11600
H  42.54500 12.18900 27.49500
H  41.63300 13.54300 27.99400
H  44.98800 14.38900 33.18900
H  41.87200 17.27600 33.53300
H  42.68400 17.68100 34.94400
H  41.47000 16.42400 34.99100

