158

Mg -2.35900 17.68200 27.12800
C  -2.56300 15.44900 29.76600
C  -2.41500 20.25500 29.39700
C  -2.47800 19.82400 24.47400
C  -2.83200 14.98200 24.91900
N  -2.36900 17.80200 29.41100
C  -2.37400 16.77700 30.26500
C  -2.23700 17.32300 31.71900
C  -2.46400 18.82800 31.53500
C  -2.40400 18.99500 30.01900
C  -3.86300 19.34200 32.13200
C  -0.90800 16.94000 32.39800
C  -0.58200 17.70200 33.67300
H  -0.25000 16.93200 34.96000
N  -2.46500 19.73400 26.94000
C  -2.44800 20.66400 28.02800
C  -2.36700 22.02600 27.46600
C  -2.17700 21.84900 26.06200
C  -2.32500 20.43800 25.74800
C  -2.51900 23.23800 28.38600
C  -1.90500 22.87700 24.99300
O  -1.96300 22.67900 23.76700
C  -1.65700 24.25300 25.36100
N  -2.68500 17.40200 25.00300
C  -2.61600 18.43400 24.15600
C  -2.82600 17.92200 22.70900
C  -2.64500 16.36100 22.85000
C  -2.63100 16.22800 24.34700
C  -4.18300 18.23400 21.98700
C  -1.40900 15.70800 22.11600
C  -0.06500 15.69000 22.91100
N  -2.56000 15.57900 27.25700
C  -2.80200 14.63900 26.30400
C  -3.01400 13.35700 26.90800
C  -2.87300 13.61600 28.28500
C  -2.65300 14.95400 28.45500
C  -3.29700 12.06900 26.24100
C  -2.94300 13.03400 29.64700
O  -3.22500 11.86400 30.05100
C  -2.75500 14.25500 30.62600
C  -1.72200 13.96800 31.63000
O  -0.50200 13.95100 31.43900
O  -2.28500 13.59700 32.84400
C  -1.44300 13.12100 33.90800
H  -2.33500 21.09200 30.09300
H  -2.43200 20.50600 23.62300
H  -3.17400 14.18200 24.25800
H  -3.05300 16.83400 32.25100
H  -1.66200 19.38700 32.01500
H  -4.48000 19.89700 31.42400
H  -3.69400 20.07600 32.92000
H  -4.40700 18.47800 32.51400
H  -0.05200 16.91200 31.72400
H  -1.20400 15.96500 32.78300
H  -1.32000 18.47200 33.89900
H  0.36100 18.19700 33.44000
H  -3.20100 22.95900 29.18900
H  -2.81000 24.18300 27.92700
H  -1.55400 23.30800 28.88700
H  -0.63500 24.23100 25.73900
H  -2.44100 24.58400 26.04300
H  -1.69800 24.83000 24.43600
H  -2.07100 18.18100 21.96700
H  -3.59600 15.90300 22.57900
H  -4.08900 19.07300 21.29800
H  -4.91600 18.54900 22.72900
H  -4.69800 17.42700 21.46600
H  -1.22800 16.09900 21.11500
H  -1.78900 14.69000 22.03600
H  0.69800 15.19800 22.30900
H  -0.28500 15.07200 23.78200
H  0.23200 16.70000 23.19300
H  -2.75700 11.23200 26.68300
H  -2.83000 12.10100 25.25700
H  -4.38600 12.02700 26.21600
H  -3.71600 14.24900 31.14000
H  -0.99700 13.94200 34.46900
H  -0.61800 12.49100 33.57700
H  -2.07900 12.54900 34.58300
Mg 49.68100 45.82300 41.31500
C  46.38300 45.90300 40.19800
C  49.89600 42.57600 40.32400
C  53.05200 46.04100 41.48000
C  49.47500 49.30200 41.87200
N  48.32800 44.50800 40.06500
C  47.04800 44.71700 39.87100
C  46.33700 43.48000 39.23800
C  47.42200 42.32200 39.62700
C  48.64500 43.15500 40.06900
C  46.98400 41.22800 40.67500
C  46.04600 43.70400 37.72200
C  44.64600 43.34100 37.23000
H  44.20200 43.92000 35.86300
N  51.21800 44.41000 41.26000
C  51.13600 43.08200 40.83500
C  52.40200 42.49900 40.83800
C  53.31700 43.58000 41.06200
C  52.52100 44.76400 41.28200
C  52.50400 40.96000 40.66000
C  54.86800 43.30900 41.11200
O  55.36600 42.23200 40.83100
C  55.82400 44.40700 41.48100
N  51.03800 47.43400 41.79800
C  52.37000 47.26200 41.79000
C  53.10700 48.56600 42.15300
C  51.93400 49.51900 42.57700
C  50.75300 48.73900 42.01700
C  54.29000 48.40500 43.07100
C  51.99500 50.95100 41.95400
C  52.54700 52.10300 42.83600
N  48.20500 47.32500 41.13900
C  48.31300 48.63600 41.41600
C  47.03500 49.24300 41.02000
C  46.19300 48.24000 40.63800
C  47.00400 47.08400 40.63800
C  46.68300 50.72700 41.30500
C  44.94000 47.92600 40.03800
O  44.01900 48.60400 39.72900
C  44.94500 46.35500 39.87400
C  43.99200 45.84600 40.84700
O  44.37800 45.40000 41.94000
O  42.66400 46.03200 40.47200
C  41.66200 45.45100 41.35900
H  49.84400 41.51900 40.05200
H  54.13500 46.17600 41.52500
H  49.34500 50.36600 42.08400
H  45.37400 43.31300 39.72200
H  47.60100 41.74800 38.71800
H  47.71200 40.95100 41.43800
H  46.72200 40.34600 40.09200
H  46.07800 41.49200 41.22000
H  46.71800 43.00700 37.22200
H  46.29100 44.71300 37.39000
H  43.93700 43.64900 37.99900
H  44.56000 42.25500 37.19800
H  53.29200 40.54200 41.28600
H  52.77000 40.72800 39.62900
H  51.63700 40.41600 41.03500
H  56.03200 45.12600 40.68900
H  56.77000 43.86900 41.54100
H  55.43100 44.83100 42.40500
H  53.55700 48.92400 41.22700
H  51.91800 49.45200 43.66500
H  54.17600 49.05600 43.93800
H  55.25000 48.67500 42.63100
H  54.39500 47.37900 43.42200
H  51.04400 51.24400 41.51000
H  52.71100 50.82500 41.14200
H  52.79400 51.62800 43.78500
H  51.86300 52.94400 42.95900
H  53.36400 52.55100 42.27100
H  46.88600 50.83900 42.36900
H  45.67900 50.98800 40.97000
H  47.42000 51.33900 40.78500
H  44.71800 46.06200 38.84900
H  41.00700 44.84000 40.73700
H  41.22100 46.32700 41.83500
H  42.05000 44.83700 42.17200

