158

Mg 24.05700 -5.09300 45.83400
C  26.07500 -2.85000 44.09100
C  21.50900 -4.16400 43.47800
C  22.14400 -7.67000 46.80900
C  26.76800 -6.40500 47.44000
N  23.81600 -3.67500 44.04600
C  24.76200 -2.76900 43.61400
C  24.23400 -1.92800 42.42300
C  22.69900 -2.22000 42.47600
C  22.62700 -3.42600 43.39600
C  21.74900 -1.08300 42.90100
C  24.92400 -2.44100 41.05800
C  25.56000 -1.43400 40.22200
H  25.20500 -1.54300 38.75800
N  22.05200 -5.77900 45.20700
C  21.20100 -5.22700 44.35500
C  19.94900 -5.97900 44.43700
C  20.10700 -6.94000 45.42000
C  21.47700 -6.80500 45.88200
C  18.65200 -5.56500 43.67500
C  18.96300 -7.81700 45.92700
O  17.85700 -7.68400 45.48000
C  19.15800 -8.84900 47.00900
N  24.43100 -6.85000 46.92200
C  23.44500 -7.69400 47.32700
C  23.94500 -8.74600 48.22500
C  25.43000 -8.29100 48.48600
C  25.60300 -7.14500 47.53900
C  23.08100 -8.85900 49.48000
C  26.62400 -9.38800 48.18300
C  27.76700 -9.44900 49.25200
N  26.02400 -4.66000 45.85400
C  27.05100 -5.31100 46.59100
C  28.23200 -4.53500 46.46700
C  27.90000 -3.54200 45.48000
C  26.58700 -3.64700 45.16800
C  29.59800 -4.97600 46.84100
C  28.46300 -2.49300 44.65700
O  29.52200 -2.00200 44.54100
C  27.33100 -2.08200 43.53400
C  27.07800 -0.62400 43.69800
O  26.38700 -0.12000 44.56500
O  27.80900 0.05700 42.71800
C  27.91300 1.53900 42.76600
H  20.60900 -3.86600 42.93700
H  21.64200 -8.49100 47.32400
H  27.69000 -6.74700 47.91500
H  24.26700 -0.84300 42.52200
H  22.35700 -2.48400 41.47500
H  20.90200 -0.91100 42.23700
H  22.32300 -0.15600 42.91000
H  21.27400 -1.23400 43.87100
H  24.19000 -2.90500 40.39900
H  25.75200 -3.13200 41.21700
H  26.63900 -1.39900 40.37100
H  25.18500 -0.42700 40.40700
H  18.05500 -6.40000 43.30900
H  18.91400 -5.01300 42.77300
H  18.01300 -4.95000 44.31000
H  18.20800 -9.26900 47.34000
H  19.50200 -8.21900 47.82900
H  19.97400 -9.53400 46.77700
H  23.87200 -9.72000 47.74100
H  25.59600 -7.87600 49.48000
H  23.71000 -9.09300 50.33800
H  22.46900 -9.75700 49.39200
H  22.50600 -7.94300 49.61700
H  26.97100 -9.17100 47.17300
H  26.23800 -10.40700 48.17900
H  27.85400 -10.53200 49.34100
H  27.46300 -9.07500 50.23000
H  28.68300 -9.02300 48.84200
H  29.61400 -5.32500 47.87400
H  30.29300 -4.17900 46.57900
H  29.85500 -5.80300 46.18000
H  27.66800 -2.28600 42.51800
H  28.25200 1.90000 41.79500
H  28.56500 1.87500 43.57200
H  26.95600 2.02000 42.96500
Mg 48.73500 46.78700 42.61600
C  45.47300 47.39800 41.60500
C  48.59000 43.78900 41.19400
C  52.06800 46.69600 43.17400
C  48.80400 50.25900 43.57500
N  47.16600 45.72500 41.59000
C  45.93500 46.16400 41.26700
C  45.18300 45.14100 40.47400
C  46.07700 43.87600 40.61500
C  47.35300 44.49900 41.12500
C  45.62200 42.67200 41.55000
C  44.83900 45.54400 39.04400
C  43.43600 45.13500 38.52700
H  43.42300 44.67600 37.00200
N  50.22300 45.42900 42.10000
C  49.91400 44.27400 41.51500
C  51.17400 43.61000 41.27900
C  52.23100 44.50500 41.73700
C  51.55700 45.60800 42.42600
C  51.39000 42.24700 40.63400
C  53.72700 44.43700 41.44100
O  54.18000 43.51300 40.76200
C  54.73000 45.45200 41.96100
N  50.21700 48.23700 43.44400
C  51.55200 47.91900 43.60400
C  52.38900 49.08800 44.19000
C  51.34400 50.30200 44.20000
C  50.07400 49.59900 43.66600
C  53.14600 48.99100 45.67800
C  51.87000 51.49300 43.36200
C  52.00400 52.82200 44.07900
N  47.39800 48.46100 42.74300
C  47.59700 49.79600 43.18800
C  46.42500 50.56800 43.03600
C  45.53600 49.63400 42.44700
C  46.20100 48.38000 42.26200
C  46.15200 51.97600 43.42400
C  44.15000 49.49400 42.05500
O  43.17100 50.22600 42.17300
C  44.07800 48.09000 41.39100
C  42.96300 47.36800 42.08900
O  42.97700 47.03900 43.25400
O  41.96700 47.05700 41.20100
C  40.73400 46.41400 41.61400
H  48.42700 42.78500 40.79700
H  53.08600 46.77000 43.56400
H  48.80000 51.28800 43.94000
H  44.30800 44.73700 40.98300
H  46.21000 43.39000 39.64800
H  44.62500 42.91700 41.91700
H  46.34600 42.55200 42.35600
H  45.52100 41.80100 40.90300
H  45.55500 44.99400 38.43300
H  45.05700 46.59000 38.83100
H  42.88300 46.07000 38.43600
H  42.86200 44.40200 39.09500
H  51.91800 41.55000 41.28500
H  51.94400 42.30500 39.69700
H  50.38800 41.89000 40.39300
H  54.25400 46.37200 41.62100
H  55.72600 45.32500 41.53700
H  54.84700 45.45500 43.04500
H  53.13800 49.23700 43.41200
H  51.28100 50.65100 45.23100
H  53.93000 49.73600 45.54600
H  53.68500 48.06000 45.84900
H  52.58800 49.15200 46.60000
H  51.16800 51.55400 42.53000
H  52.85000 51.32300 42.91500
H  51.49200 53.66300 43.61100
H  53.06800 53.05900 44.07000
H  51.65900 52.70000 45.10600
H  46.40900 52.74800 42.69800
H  46.70200 52.13100 44.35300
H  45.09600 52.16400 43.61700
H  43.87000 48.18300 40.32600
H  40.33500 46.93500 42.48400
H  40.91500 45.35800 41.81900
H  39.96900 46.59100 40.85900

