158

Mg -1.92500 17.92300 26.91100
C  -2.68400 15.58900 29.47400
C  -2.85600 20.46300 29.04300
C  -1.12700 20.05800 24.55100
C  -1.69000 15.19000 24.67600
N  -2.77500 17.98800 28.97800
C  -2.91000 16.92900 29.89700
C  -3.33300 17.46500 31.32700
C  -3.30100 19.03400 31.04400
C  -3.00800 19.21400 29.58100
C  -4.60900 19.86800 31.58300
C  -2.50500 16.82700 32.52100
C  -2.43500 17.81600 33.76100
H  -1.91000 17.26900 35.12200
N  -1.92700 20.04500 26.84900
C  -2.38500 20.91500 27.80800
C  -2.32800 22.24300 27.33500
C  -1.67200 22.16500 26.03400
C  -1.59700 20.73700 25.73800
C  -2.92400 23.43500 28.14000
C  -1.19800 23.25100 25.17100
O  -0.59900 23.10500 24.08100
C  -1.35900 24.68100 25.53800
N  -1.61300 17.69200 24.86700
C  -1.13600 18.74500 24.15100
C  -0.85100 18.37700 22.71600
C  -0.94600 16.81500 22.75100
C  -1.48000 16.50800 24.13300
C  -1.75000 19.02300 21.65100
C  0.38400 16.16300 22.47700
C  1.49000 16.29700 23.45800
N  -2.18900 15.79900 27.00200
C  -2.07100 14.80900 26.04000
C  -2.20200 13.46000 26.55400
C  -2.47400 13.71600 27.92700
C  -2.42900 15.18100 28.11600
C  -2.19800 12.16400 25.74300
C  -2.77900 13.10500 29.20400
O  -2.94600 11.90300 29.47500
C  -2.88500 14.33900 30.24100
C  -1.81500 14.07700 31.28500
O  -0.70200 14.50000 31.33600
O  -2.40700 13.35700 32.25400
C  -1.66100 13.07900 33.46500
H  -2.99500 21.21200 29.82600
H  -0.65000 20.69300 23.80100
H  -1.66000 14.36900 23.95700
H  -4.37500 17.16100 31.42700
H  -2.45700 19.51300 31.53900
H  -5.27400 19.24000 32.17600
H  -5.12900 20.18100 30.67800
H  -4.27500 20.68400 32.22300
H  -1.48000 16.69300 32.17500
H  -3.02800 15.93600 32.86700
H  -3.38900 18.29300 33.98400
H  -1.86900 18.71200 33.50800
H  -3.61900 22.98300 28.84800
H  -3.39700 24.18700 27.50900
H  -2.03300 23.87500 28.58700
H  -2.38600 25.01200 25.38200
H  -0.67700 25.36100 25.02700
H  -1.26400 24.80500 26.61600
H  0.14400 18.70300 22.41300
H  -1.58900 16.48000 21.93700
H  -2.71300 18.51500 21.60200
H  -1.20300 18.98600 20.70900
H  -1.84300 20.06800 21.94700
H  0.81800 16.54600 21.55400
H  0.29800 15.08200 22.36400
H  1.83500 15.30200 23.73900
H  1.12600 16.85500 24.32100
H  2.24300 16.92500 22.98200
H  -2.72300 12.16200 24.78900
H  -2.82600 11.40100 26.20100
H  -1.24400 11.65000 25.62500
H  -3.85900 14.17000 30.70100
H  -0.68300 12.70900 33.15800
H  -2.16400 12.35900 34.11100
H  -1.52100 14.02300 33.99200
Mg -2.51000 35.05200 27.09600
C  -4.33200 33.29800 29.60000
C  -1.45600 37.23200 29.70100
C  -0.79200 36.81700 24.76000
C  -3.86500 32.96600 24.70700
N  -2.93100 35.28300 29.43000
C  -3.65200 34.38100 30.18700
C  -3.62700 34.76000 31.65300
C  -2.73100 36.15900 31.67000
C  -2.39900 36.28300 30.18100
C  -3.58700 37.43400 32.13700
C  -3.05500 33.49400 32.52300
C  -3.98200 32.78900 33.48200
H  -3.92400 33.20000 34.99800
N  -1.25700 36.65100 27.20400
C  -0.96600 37.47200 28.37400
C  -0.09700 38.56300 28.03200
C  0.00400 38.51900 26.61500
C  -0.63400 37.24400 26.11500
C  0.40400 39.49400 29.06800
C  0.54400 39.68700 25.79800
O  0.50900 39.72000 24.57100
C  1.02600 40.95600 26.39000
N  -2.44300 34.99600 24.89800
C  -1.62100 35.76000 24.21800
C  -1.52400 35.29300 22.78500
C  -2.38500 34.04000 22.78000
C  -2.96100 33.96200 24.23100
C  -1.89900 36.42500 21.69000
C  -1.60100 32.79500 22.33400
C  -2.43300 31.83400 21.53000
N  -3.87700 33.53800 27.07800
C  -4.29000 32.78400 26.02800
C  -5.24800 31.83100 26.51100
C  -5.19800 31.88800 27.87500
C  -4.44000 33.00300 28.14900
C  -6.14100 30.86200 25.63900
C  -5.70900 31.34900 29.05700
O  -6.46700 30.37800 29.21200
C  -5.27900 32.23700 30.27300
C  -6.55100 32.83000 30.81600
O  -6.99600 33.87000 30.40800
O  -6.99100 32.22700 31.97800
C  -8.00100 32.86600 32.85500
H  -0.92000 37.70100 30.52800
H  -0.16700 37.33700 24.03100
H  -4.29400 32.31700 23.94100
H  -4.59500 34.94700 32.11900
H  -1.93200 35.96100 32.38500
H  -3.96800 37.98500 31.27700
H  -2.84900 38.01100 32.69300
H  -4.38600 37.33900 32.87200
H  -2.18200 33.97400 32.96600
H  -2.58200 32.78500 31.84400
H  -3.86200 31.70600 33.51400
H  -5.02100 33.00900 33.23600
H  0.66400 38.93700 29.96800
H  -0.35700 40.20500 29.39200
H  1.27900 40.09700 28.82800
H  0.18200 41.45100 26.87100
H  1.25400 41.53900 25.49800
H  1.92100 40.78600 26.98900
H  -0.49200 35.03400 22.54700
H  -3.26300 34.10200 22.13800
H  -1.75700 37.44300 22.05200
H  -2.95200 36.34600 21.42100
H  -1.15800 36.27000 20.90600
H  -1.11700 32.38600 23.22000
H  -0.74100 33.07100 21.72400
H  -1.88900 30.93600 21.23700
H  -2.81100 32.34100 20.64200
H  -3.28500 31.52500 22.13500
H  -6.66800 31.41300 24.86100
H  -6.81600 30.42900 26.37800
H  -5.59400 30.02000 25.21400
H  -4.76100 31.65400 31.03500
H  -7.44200 33.50100 33.54200
H  -8.64400 32.14300 33.35700
H  -8.70400 33.54100 32.36600

