158

Mg 9.02200 3.32300 27.40800
C  10.28800 1.62400 30.23600
C  7.30500 5.41200 29.50200
C  7.85000 4.73300 24.68900
C  10.56500 0.84700 25.42000
N  8.73400 3.40800 29.72000
C  9.47200 2.70900 30.65900
C  9.18400 3.19100 32.10200
C  8.24500 4.45400 31.80300
C  8.08600 4.44500 30.27100
C  6.83000 4.47800 32.46900
C  10.49000 3.60600 32.96000
C  10.11200 4.14400 34.31900
H  11.08900 3.87900 35.43500
N  7.87000 4.83800 27.14600
C  7.19400 5.62000 28.06700
C  6.38800 6.61500 27.44900
C  6.53100 6.47200 26.03600
C  7.44100 5.29100 25.88000
C  5.66400 7.72100 28.16600
C  5.94800 7.22600 24.81700
O  6.19600 6.90200 23.67300
C  4.89600 8.26200 24.98200
N  9.07700 2.77500 25.37600
C  8.55400 3.56700 24.40600
C  8.92700 3.17300 22.99300
C  9.90800 1.91300 23.30400
C  9.88200 1.81700 24.76900
C  7.83800 2.94000 21.96500
C  11.35600 2.07100 22.67800
C  11.57100 1.25300 21.36300
N  10.12000 1.59500 27.66600
C  10.66400 0.76700 26.77300
C  11.41800 -0.27200 27.47600
C  11.28700 0.02500 28.82500
C  10.49700 1.17300 28.95100
C  12.08100 -1.54500 26.91900
C  11.62600 -0.36500 30.19000
O  12.33000 -1.28800 30.58200
C  11.01200 0.60400 31.11300
C  10.13600 0.03700 32.14300
O  9.00600 -0.36100 31.92700
O  10.70000 0.11000 33.43300
C  9.87600 -0.10300 34.61400
H  6.77400 6.13100 30.13000
H  7.61300 5.20300 23.73200
H  11.01700 0.04400 24.83500
H  8.78000 2.32800 32.63000
H  8.75100 5.38300 32.06700
H  6.54600 5.43100 32.91500
H  6.92600 3.73700 33.26300
H  6.06000 4.13200 31.78000
H  11.00600 4.38100 32.39300
H  11.24300 2.81800 32.95000
H  9.17000 3.71400 34.66200
H  9.84000 5.19800 34.26500
H  5.86500 7.73200 29.23700
H  4.59700 7.72200 27.94500
H  6.18000 8.60400 27.78900
H  5.38500 9.08600 25.50200
H  4.12400 7.76500 25.56900
H  4.43200 8.72500 24.11100
H  9.66500 3.85600 22.57200
H  9.36500 1.07200 22.87300
H  7.51000 3.94900 21.71400
H  6.99900 2.30600 22.25100
H  8.41900 2.50000 21.15500
H  12.14600 1.78300 23.37200
H  11.64600 3.05700 22.31500
H  11.84700 1.88000 20.51500
H  10.66300 0.74000 21.04600
H  12.39800 0.57700 21.58400
H  11.58400 -1.78900 25.98100
H  11.98000 -2.35300 27.64300
H  13.10200 -1.25300 26.67400
H  11.80300 1.16800 31.60800
H  10.39500 -0.83400 35.23400
H  8.92300 -0.61000 34.46500
H  9.82700 0.81400 35.20300
Mg 23.90300 -7.50600 46.89700
C  26.66100 -5.66200 45.77600
C  22.00100 -6.06400 44.40300
C  21.55300 -9.76700 47.55900
C  26.28300 -9.45400 48.75400
N  24.40500 -6.16900 45.07100
C  25.55800 -5.47600 44.97400
C  25.41800 -4.43900 43.89400
C  23.91900 -4.62700 43.33100
C  23.37200 -5.62700 44.35400
C  23.19800 -3.24400 43.28600
C  26.46900 -4.73300 42.74300
C  27.07100 -3.51600 42.04500
H  26.85500 -3.32000 40.62200
N  21.99100 -7.87200 46.05000
C  21.35100 -7.10500 45.12900
C  19.93000 -7.54300 45.12900
C  19.78800 -8.57500 46.09800
C  21.11400 -8.79600 46.60200
C  18.91000 -6.94200 44.35100
C  18.50100 -9.30200 46.42700
O  17.44800 -9.04100 45.84600
C  18.56600 -10.61600 47.21600
N  23.93000 -9.32600 47.97200
C  22.75700 -10.12300 48.14000
C  23.10400 -11.43600 48.89800
C  24.49600 -11.10800 49.38800
C  24.94900 -9.84500 48.70500
C  22.11800 -11.87600 50.02100
C  25.38400 -12.37700 49.50200
C  25.84000 -13.02200 48.17400
N  26.01900 -7.45300 47.41500
C  26.84600 -8.39200 48.11000
C  28.20500 -7.96000 48.15400
C  28.18200 -6.81800 47.26400
C  26.83800 -6.66900 46.81100
C  29.27200 -8.43200 48.99600
C  28.93700 -5.71200 46.81200
O  30.13300 -5.38100 46.97900
C  28.00300 -4.95900 45.64000
C  27.95000 -3.56400 45.91800
O  27.20900 -2.91200 46.67100
O  28.82600 -2.95400 45.09400
C  28.90900 -1.50200 45.21300
H  21.41500 -5.49400 43.67900
H  20.88000 -10.56800 47.87100
H  26.99900 -10.14900 49.19700
H  25.56500 -3.50200 44.43000
H  23.91500 -5.07400 42.33700
H  22.76800 -3.13300 42.29100
H  24.01700 -2.53700 43.42200
H  22.43600 -3.18100 44.06200
H  26.04200 -5.37700 41.97400
H  27.17500 -5.42100 43.20800
H  28.16000 -3.55100 42.06800
H  26.82600 -2.62400 42.62300
H  18.52500 -7.69000 43.65800
H  19.23800 -6.01400 43.88300
H  18.10500 -6.55700 44.97800
H  18.82200 -10.38800 48.25000
H  19.26200 -11.29100 46.71900
H  17.62800 -11.15500 47.07800
H  22.99800 -12.22100 48.15000
H  24.30200 -10.88100 50.43600
H  21.49200 -11.02200 50.28000
H  22.68300 -12.11200 50.92300
H  21.62300 -12.77200 49.64800
H  25.01500 -13.13600 50.19100
H  26.31200 -12.05700 49.97700
H  26.91800 -12.92500 48.30700
H  25.42400 -12.58400 47.26700
H  25.47900 -14.05000 48.17900
H  29.03200 -8.60300 50.04500
H  30.00800 -7.62900 48.96400
H  29.65300 -9.41400 48.71700
H  28.51100 -5.18400 44.70100
H  28.85600 -1.11600 46.23100
H  28.15300 -1.03900 44.57900
H  29.84000 -1.15800 44.76300

