158

Mg -1.15600 18.52300 26.77100
C  -1.75000 16.36700 29.47700
C  -2.05700 21.11800 28.92100
C  -0.78400 20.59400 24.33500
C  -1.08000 15.83500 24.63300
N  -1.44500 18.79800 29.18200
C  -1.66500 17.70000 29.95700
C  -2.10800 18.19200 31.44500
C  -2.50400 19.70000 31.15700
C  -2.01100 19.89600 29.69300
C  -4.01000 20.04000 31.35900
C  -0.96200 18.12500 32.49400
C  -1.46500 17.54800 33.82600
H  -0.38400 17.34300 34.89600
N  -1.27100 20.58500 26.60300
C  -1.66700 21.46500 27.63000
C  -1.77400 22.77600 27.02500
C  -1.28100 22.63700 25.65300
C  -1.11800 21.20000 25.51200
C  -2.27700 24.00900 27.68600
C  -0.94300 23.66200 24.54600
O  -0.26300 23.36800 23.57600
C  -1.28200 25.06100 24.69900
N  -1.16900 18.24900 24.68800
C  -0.83100 19.28100 23.94900
C  -0.35900 18.88900 22.52800
C  -0.45600 17.29700 22.63900
C  -0.88800 17.05500 24.07900
C  -1.32800 19.41800 21.40900
C  0.79100 16.39000 22.28700
C  0.45300 15.21300 21.35800
N  -1.34800 16.51800 26.92100
C  -1.27500 15.53600 25.97600
C  -1.44600 14.27800 26.62200
C  -1.59300 14.53500 28.00900
C  -1.58700 15.93300 28.11300
C  -1.54400 12.98800 25.88400
C  -1.82400 13.95800 29.27100
O  -1.89800 12.79400 29.60600
C  -1.98600 15.19100 30.26100
C  -0.93400 15.01000 31.29800
O  0.21100 15.36300 31.22800
O  -1.48700 14.24900 32.25500
C  -0.62600 13.77900 33.42200
H  -2.52300 21.95300 29.44800
H  -0.65200 21.26000 23.48000
H  -0.87600 14.91600 24.08000
H  -3.04400 17.66400 31.62700
H  -1.89100 20.40600 31.71700
H  -4.60200 19.13900 31.51900
H  -4.49200 20.63500 30.58400
H  -3.96200 20.74200 32.19100
H  -0.50100 19.10100 32.64700
H  -0.13200 17.63900 31.98200
H  -1.96700 16.58400 33.73400
H  -2.16000 18.29100 34.21500
H  -1.88300 24.94400 27.28600
H  -1.95800 24.06100 28.72700
H  -3.35600 23.86300 27.62200
H  -1.20000 25.53000 23.71800
H  -0.70700 25.62400 25.43500
H  -2.35100 24.94600 24.87700
H  0.62800 19.30100 22.31900
H  -1.28200 17.00100 21.99300
H  -1.98400 18.64700 21.00300
H  -0.72900 19.64600 20.52700
H  -1.92800 20.22300 21.83400
H  1.31000 15.93500 23.13000
H  1.45800 17.08600 21.77800
H  0.17600 15.72700 20.43700
H  -0.49500 14.77700 21.67200
H  1.20500 14.42400 21.36100
H  -2.37500 13.16400 25.20000
H  -1.82200 12.20200 26.58600
H  -0.63500 12.75700 25.32900
H  -3.01700 15.12400 30.60800
H  0.15400 14.50200 33.66200
H  -0.18900 12.78100 33.44400
H  -1.22900 13.81100 34.33000
Mg -5.45600 26.01300 25.90900
C  -4.05100 27.44600 28.80900
C  -7.33200 24.01100 27.88500
C  -6.77000 24.68200 23.14800
C  -3.16200 27.95700 24.13600
N  -5.75900 25.92700 28.12200
C  -5.04000 26.49500 29.08100
C  -5.51500 26.05100 30.42000
C  -6.26100 24.70700 30.10400
C  -6.52300 24.93100 28.58200
C  -5.39500 23.41200 30.26500
C  -6.35000 27.12000 31.16400
C  -6.11900 27.28700 32.71300
H  -5.38100 26.25100 33.40500
N  -6.73600 24.43400 25.51600
C  -7.44100 23.75200 26.46800
C  -8.22600 22.76100 25.80900
C  -8.01900 22.96200 24.42600
C  -7.10800 24.07500 24.33200
C  -9.10000 21.80300 26.61900
C  -8.53700 22.12300 23.25400
O  -8.39900 22.42500 22.09000
C  -9.22600 20.78700 23.56500
N  -4.76700 26.05300 23.88200
C  -5.63600 25.49500 22.92400
C  -5.08200 25.83500 21.50900
C  -4.12100 27.05300 21.88700
C  -4.03600 27.09300 23.38900
C  -4.52600 24.52800 20.86800
C  -4.70800 28.36900 21.31600
C  -3.66800 29.29200 20.70200
N  -3.81100 27.35300 26.27500
C  -2.98600 28.11900 25.49400
C  -2.12700 28.97900 26.29400
C  -2.53500 28.72700 27.56400
C  -3.53900 27.77400 27.55700
C  -1.13900 29.97400 25.74200
C  -2.25400 29.19000 28.87600
O  -1.40700 29.95700 29.28500
C  -3.10300 28.22800 29.80200
C  -2.24300 27.43000 30.71400
O  -1.82400 26.28300 30.56500
O  -2.03100 28.14900 31.92100
C  -0.87900 27.72400 32.67300
H  -7.76600 23.27500 28.56600
H  -7.10900 24.29700 22.18400
H  -2.53900 28.51700 23.43600
H  -4.57700 25.87400 30.94500
H  -7.17100 24.76300 30.70200
H  -4.64700 23.47400 31.05500
H  -4.84700 23.24300 29.33700
H  -5.91200 22.50300 30.57200
H  -7.41200 26.98200 30.96300
H  -6.15900 28.05800 30.64200
H  -7.10100 27.42000 33.16800
H  -5.61400 28.24700 32.82400
H  -9.53100 20.94400 26.10500
H  -10.00600 22.32800 26.92100
H  -8.63200 21.52100 27.56300
H  -8.59600 20.29600 24.30600
H  -9.01400 20.28200 22.62300
H  -10.29900 20.77200 23.75500
H  -5.98500 26.20600 21.02500
H  -3.17600 26.85000 21.38300
H  -3.45300 24.42400 21.02800
H  -4.84200 24.34900 19.84000
H  -4.90500 23.61900 21.33600
H  -5.20300 28.86800 22.14900
H  -5.50800 28.29500 20.57900
H  -2.93900 28.72000 20.12700
H  -3.17600 29.90000 21.46100
H  -4.15800 30.02500 20.06100
H  -1.49500 30.64100 24.95600
H  -0.36200 29.34300 25.30900
H  -0.76600 30.61300 26.54300
H  -3.79700 28.79400 30.42300
H  -0.25200 28.57600 32.93500
H  -0.28400 27.05500 32.05200
H  -1.17900 27.12200 33.53100

