158

Mg 26.12600 1.21000 28.82500
C  28.24700 0.77400 31.63800
C  23.54400 1.75600 31.13100
C  23.96600 1.54500 26.30400
C  28.62400 0.52200 26.74200
N  25.93400 1.19700 31.20100
C  26.97900 1.13700 32.08600
C  26.36400 1.09900 33.46000
C  24.88500 1.52100 33.31500
C  24.75800 1.45000 31.76800
C  23.83300 0.67600 34.18000
C  27.17000 1.96200 34.53100
C  26.44300 2.92100 35.40000
H  27.14800 3.12900 36.71700
N  24.10200 1.61500 28.75700
C  23.20100 1.81700 29.76100
C  21.87500 2.15600 29.15200
C  22.02100 1.80100 27.79900
C  23.42900 1.61200 27.55300
C  20.67200 2.55700 30.01600
C  20.87500 1.79600 26.73400
O  21.02200 1.42100 25.61200
C  19.42700 1.92700 27.20800
N  26.25900 1.20700 26.84200
C  25.26000 1.37700 25.99500
C  25.79600 1.37600 24.58700
C  27.33700 1.13500 24.72400
C  27.46200 1.04400 26.19900
C  25.20700 0.41000 23.55400
C  28.23900 2.30200 24.25600
C  28.44100 3.47400 25.25600
N  27.99100 0.53300 29.03100
C  28.92400 0.31700 28.09000
C  30.18100 -0.00700 28.70400
C  29.97900 0.19100 30.08100
C  28.61800 0.45000 30.26200
C  31.42900 -0.53000 28.03000
C  30.66100 0.21100 31.35200
O  31.82300 -0.11800 31.59600
C  29.52800 0.61500 32.43100
C  29.57400 -0.46000 33.48500
O  29.47200 -1.65400 33.27900
O  29.76800 0.03800 34.68700
C  29.64400 -0.81000 35.91800
H  22.77300 2.03700 31.85200
H  23.31700 1.64600 25.43200
H  29.43300 0.25200 26.06000
H  26.34000 0.04800 33.74700
H  24.75400 2.57600 33.55500
H  23.12600 0.15100 33.53800
H  23.19300 1.30000 34.80400
H  24.40300 -0.00600 34.81100
H  27.92600 2.48900 33.95000
H  27.77900 1.32100 35.16900
H  25.50700 2.38700 35.55900
H  26.15300 3.86800 34.94500
H  20.83600 3.17300 30.89900
H  20.21600 1.62300 30.34300
H  19.98900 3.14600 29.40300
H  19.29800 1.36100 28.13100
H  18.83000 1.55700 26.37500
H  19.38300 3.01500 27.24600
H  25.51400 2.38900 24.29900
H  27.70100 0.13700 24.47900
H  24.54400 1.08500 23.01200
H  24.62900 -0.36600 24.05600
H  26.07200 0.06200 22.99000
H  27.71700 2.51200 23.32200
H  29.23100 1.85800 24.16900
H  27.96500 3.37200 26.23200
H  27.90200 4.33700 24.86300
H  29.46100 3.76700 25.50500
H  31.71700 0.19600 27.27000
H  31.31800 -1.47200 27.49400
H  32.29500 -0.54000 28.69100
H  29.89300 1.53600 32.88500
H  30.58900 -1.12800 36.35800
H  29.04600 -1.66400 35.60100
H  29.22700 -0.21200 36.72800
Mg 41.43300 8.94600 29.77900
C  43.40500 10.03800 32.42900
C  39.17000 7.68500 31.95200
C  39.80300 7.66900 27.12100
C  43.86900 10.09500 27.60500
N  41.36800 8.72300 32.01900
C  42.19300 9.38900 32.87800
C  41.64800 9.40100 34.38700
C  40.27900 8.64700 34.21100
C  40.26000 8.27400 32.65800
C  39.96300 7.38700 35.06700
C  41.45200 10.79300 34.99800
C  42.23600 11.01800 36.36000
H  41.66700 11.82400 37.51000
N  39.82200 7.75100 29.55700
C  38.96600 7.37400 30.56000
C  37.81300 6.60500 30.05500
C  38.00900 6.61200 28.64300
C  39.28600 7.43000 28.36700
C  36.69100 6.11600 30.88800
C  37.05700 6.05600 27.56300
O  37.24500 6.08700 26.34400
C  35.65900 5.42400 27.85900
N  41.69500 8.96300 27.60500
C  40.88800 8.40900 26.71100
C  41.40900 8.41600 25.27400
C  42.64700 9.32900 25.50700
C  42.76400 9.48000 26.97900
C  41.58400 7.11800 24.50400
C  42.49400 10.72100 24.80400
C  41.59000 11.72900 25.50000
N  43.32600 9.84900 29.92700
C  44.17700 10.26000 28.99700
C  45.36600 10.83000 29.59400
C  45.06900 10.89900 31.00300
C  43.86700 10.25900 31.10100
C  46.59100 11.34600 28.90300
C  45.53300 11.31600 32.30100
O  46.45000 12.07000 32.64800
C  44.46100 10.76200 33.30700
C  45.12200 9.89000 34.33000
O  45.32100 8.67400 34.12700
O  45.45200 10.58600 35.44300
C  45.79400 9.68400 36.52600
H  38.37800 7.30200 32.59800
H  39.21700 7.28000 26.28600
H  44.61000 10.54300 26.94100
H  42.26500 8.80400 35.05800
H  39.52200 9.43100 34.24600
H  40.59800 7.43400 35.95200
H  39.99700 6.46500 34.48600
H  38.94700 7.50000 35.44600
H  40.41300 11.08800 35.15100
H  41.93600 11.39400 34.22900
H  43.13500 11.62000 36.23000
H  42.54900 10.05100 36.75300
H  36.37900 5.09300 30.67500
H  35.91600 6.85200 30.67400
H  36.84300 6.08000 31.96600
H  35.86500 4.60900 28.55300
H  35.07700 5.24200 26.95600
H  35.02000 6.14000 28.37500
H  40.65000 8.98900 24.74200
H  43.59800 8.89100 25.20400
H  41.47900 7.19100 23.42100
H  40.85700 6.40200 24.88900
H  42.60800 6.77300 24.64400
H  42.02800 10.58300 23.82800
H  43.45000 11.21800 24.63800
H  41.74700 11.77600 26.57800
H  40.53100 11.60200 25.27500
H  41.89100 12.75400 25.28100
H  46.88000 10.55600 28.20900
H  47.36600 11.38900 29.66900
H  46.52000 12.35700 28.50100
H  44.11200 11.66700 33.80400
H  45.69700 10.18300 37.49000
H  46.73700 9.13900 36.48300
H  44.93500 9.02200 36.63800

