158

Mg 4.57500 55.21800 41.00000
C  3.85000 51.81500 41.09100
C  7.81000 54.34000 40.05900
C  5.05500 58.41900 39.80200
C  1.15800 55.86000 41.58000
N  5.57700 53.33600 40.37500
C  5.10400 52.06600 40.62600
C  6.20500 51.00600 40.37900
C  7.50000 51.86600 40.28700
C  6.93700 53.25800 40.24900
C  8.47500 51.63900 41.50800
C  5.99200 49.97600 39.16100
C  5.56500 50.61400 37.81600
H  6.55700 50.57400 36.71900
N  6.17200 56.23500 40.16200
C  7.40600 55.70300 39.89700
C  8.29800 56.74700 39.51800
C  7.50200 57.94600 39.27200
C  6.17200 57.58700 39.75200
C  9.80600 56.48100 39.42700
C  8.04200 59.21700 38.73400
O  9.25700 59.29700 38.65700
C  7.19400 60.45900 38.45500
N  3.23300 56.83900 40.42300
C  3.72900 58.10300 40.16000
C  2.72900 59.18900 40.58300
C  1.43500 58.33000 40.98400
C  1.95400 56.90700 41.04000
C  3.23100 60.16400 41.67700
C  0.25200 58.37700 39.88700
C  -1.20700 58.32700 40.38000
N  2.89100 54.12900 41.50600
C  1.63300 54.51900 41.84200
C  0.86200 53.43100 42.34700
C  1.63400 52.28700 42.02000
C  2.89200 52.80700 41.53700
C  -0.51100 53.58100 42.93600
C  1.67700 50.85400 42.05000
O  0.85900 50.04300 42.32600
C  3.08400 50.48400 41.45900
C  3.01300 49.47100 40.36000
O  2.71200 49.74900 39.21300
O  3.34800 48.27800 40.83200
C  3.12500 47.17200 39.91600
H  8.78900 53.86700 39.94700
H  5.23300 59.46800 39.55300
H  0.12200 56.09900 41.83300
H  6.21100 50.43900 41.30900
H  7.94400 51.66300 39.31200
H  8.77400 52.56000 42.00800
H  9.45000 51.24900 41.21700
H  8.02600 50.91400 42.18600
H  5.28500 49.22100 39.50600
H  6.91600 49.43500 38.95700
H  5.21300 51.62400 38.02700
H  4.67100 50.08800 37.48100
H  10.30800 57.04100 40.21500
H  10.13400 56.57400 38.39200
H  10.08000 55.43700 39.57500
H  7.78500 61.13100 37.83300
H  7.09400 60.88400 39.45400
H  6.33800 60.10200 37.88300
H  2.58500 59.87900 39.75100
H  0.98600 58.70200 41.90500
H  4.22600 59.90100 42.03500
H  2.65400 60.15500 42.60200
H  3.21800 61.19000 41.30800
H  0.35100 57.48500 39.26800
H  0.38200 59.15200 39.13100
H  -1.74900 57.38100 40.39900
H  -1.79700 59.03000 39.79300
H  -1.34400 58.64900 41.41200
H  -1.03600 52.62700 42.89900
H  -1.04200 54.34100 42.36200
H  -0.50800 54.03100 43.92900
H  3.56300 49.96500 42.28900
H  2.10500 46.78900 39.94600
H  3.71000 46.43500 40.46700
H  3.55500 47.31600 38.92400
Mg -10.53400 17.15700 41.19100
C  -7.12000 16.80800 41.07100
C  -10.04800 20.54500 40.47900
C  -13.80200 17.36800 40.36100
C  -10.80500 13.63400 41.09100
N  -8.84700 18.50400 40.92700
C  -7.48500 18.10200 40.84600
C  -6.56200 19.25300 40.54600
C  -7.52700 20.50100 40.77000
C  -8.87000 19.81200 40.68800
C  -7.48000 21.24000 42.16500
C  -6.03100 19.31000 39.08700
C  -4.50100 19.19900 38.99700
H  -3.85900 18.23000 37.95600
N  -11.78500 18.77500 40.65300
C  -11.43700 20.05300 40.53100
C  -12.59500 20.88200 40.37400
C  -13.67600 20.01600 40.04800
C  -13.13700 18.62900 40.37300
C  -12.51100 22.44900 40.27000
C  -15.15300 20.37600 39.64600
O  -15.53300 21.50700 39.66300
C  -16.14800 19.25800 39.39700
N  -12.01600 15.69100 40.56300
C  -13.32700 16.06400 40.53900
C  -14.20900 14.87500 40.70500
C  -13.20000 13.70200 40.35600
C  -11.92800 14.36200 40.75300
C  -14.83200 14.72900 42.08800
C  -13.21200 13.33400 38.90700
C  -14.19700 12.19000 38.43700
N  -9.22100 15.55800 41.23300
C  -9.48400 14.14800 41.24600
C  -8.23500 13.43500 41.45200
C  -7.26300 14.43100 41.28500
C  -7.93600 15.68100 41.27100
C  -8.19700 12.01100 41.57300
C  -5.84700 14.66600 41.24800
O  -4.92600 13.84300 41.27400
C  -5.66400 16.28800 41.23300
C  -4.97400 16.72100 42.52000
O  -3.94900 17.30200 42.50400
O  -5.71800 16.46300 43.62900
C  -5.25200 17.02500 44.89600
H  -9.86400 21.61500 40.36200
H  -14.89000 17.29400 40.30200
H  -10.97200 12.55600 41.04600
H  -5.77100 19.39200 41.28200
H  -7.42600 21.29400 40.02800
H  -6.73400 20.73000 42.77500
H  -8.45100 21.39700 42.63400
H  -7.07900 22.24200 42.01600
H  -6.28100 20.25500 38.60500
H  -6.47400 18.49000 38.52100
H  -4.03500 18.90700 39.93800
H  -4.20900 20.22500 38.77200
H  -13.51100 22.88400 40.29100
H  -12.06500 22.58800 39.28500
H  -11.87100 22.77700 41.08900
H  -15.68200 18.48500 38.78500
H  -17.01800 19.68100 38.89600
H  -16.39700 18.77000 40.33900
H  -15.01700 14.92500 39.97400
H  -13.31600 12.73300 40.84300
H  -14.56700 13.78500 42.56500
H  -15.92100 14.69300 42.09900
H  -14.37300 15.50800 42.69800
H  -12.20500 12.99200 38.66600
H  -13.46500 14.22300 38.33000
H  -14.92700 12.53600 37.70600
H  -14.86900 11.81000 39.20600
H  -13.60300 11.36400 38.04400
H  -8.38900 11.69900 40.54600
H  -9.04600 11.55100 42.07800
H  -7.26500 11.59900 41.95900
H  -5.06500 16.52100 40.35300
H  -4.21000 16.73000 45.02000
H  -5.86600 16.67400 45.72600
H  -5.29000 18.11200 44.95800

