158

Mg 0.68900 -2.01800 45.29900
C  4.19100 -1.16100 44.49500
C  -0.30900 0.70000 43.54700
C  -2.41400 -3.24700 45.42600
C  2.04300 -5.18400 46.33800
N  1.83900 -0.50900 44.08200
C  3.21800 -0.25000 43.92900
C  3.46200 1.17600 43.42200
C  2.00100 1.70300 43.15800
C  1.07600 0.56800 43.66600
C  1.71000 3.04700 43.93100
C  4.42100 1.29600 42.14800
C  5.24600 2.68800 42.06000
H  5.41700 3.19300 40.57000
N  -1.16100 -1.36700 44.61600
C  -1.37300 -0.20800 43.93500
C  -2.79800 -0.06900 43.59200
C  -3.44900 -1.26400 44.08600
C  -2.32800 -2.01700 44.72700
C  -3.46300 1.10500 42.82000
C  -4.97100 -1.58300 44.06400
O  -5.74900 -0.83100 43.48100
C  -5.55000 -2.81900 44.75300
N  -0.01300 -3.97800 45.69700
C  -1.41600 -4.08000 45.92100
C  -1.71500 -5.42500 46.62700
C  -0.28800 -6.11900 46.83700
C  0.61500 -5.04200 46.28200
C  -2.58300 -5.35700 47.90900
C  -0.18300 -7.39600 45.96300
C  -0.29500 -8.72200 46.73400
N  2.69800 -2.95700 45.54300
C  3.06500 -4.24600 45.95200
C  4.47500 -4.37600 46.09700
C  5.00400 -3.24200 45.52700
C  3.88400 -2.40100 45.14600
C  5.19100 -5.53200 46.88100
C  6.21300 -2.50600 45.31500
O  7.38300 -2.79900 45.56300
C  5.76800 -1.10300 44.64000
C  6.25400 -0.01400 45.52000
O  6.17800 0.00000 46.71800
O  6.91300 0.97900 44.79500
C  7.53900 2.05400 45.65500
H  -0.62600 1.72700 43.35300
H  -3.38200 -3.70900 45.63000
H  2.20800 -6.16700 46.78400
H  3.80700 1.65700 44.33700
H  1.81800 1.87200 42.09700
H  1.96300 3.79200 43.17600
H  2.41600 3.12000 44.75800
H  0.67200 3.12500 44.25500
H  3.87100 1.36000 41.20900
H  5.10100 0.44500 42.18100
H  6.26300 2.68400 42.45200
H  4.68500 3.43200 42.62500
H  -2.88800 2.03100 42.79500
H  -4.29300 1.56500 43.35600
H  -3.82500 0.74600 41.85700
H  -5.18800 -2.72500 45.77700
H  -5.20900 -3.67700 44.17200
H  -6.63800 -2.84500 44.79600
H  -2.31200 -5.86600 45.82900
H  -0.17700 -6.50400 47.85100
H  -3.22000 -4.47300 47.86800
H  -1.90600 -5.16400 48.74100
H  -3.14400 -6.27200 48.10200
H  0.82000 -7.54600 45.56500
H  -0.87000 -7.43100 45.11700
H  -1.06100 -9.41800 46.39300
H  -0.79000 -8.35000 47.63100
H  0.56000 -9.39500 46.79600
H  5.44300 -5.00500 47.80200
H  6.08800 -5.69200 46.28400
H  4.52600 -6.38100 47.04000
H  6.29900 -0.93700 43.70300
H  8.30600 1.59000 46.27500
H  6.88300 2.63400 46.30400
H  8.08700 2.73900 45.00700
Mg 49.24100 46.24400 41.77500
C  45.87000 46.58100 40.72600
C  49.07200 42.93500 40.32200
C  52.31200 45.88700 42.60900
C  49.32500 49.64400 42.48800
N  47.70100 44.97500 40.60300
C  46.41300 45.36600 40.31200
C  45.57500 44.31000 39.57400
C  46.52400 43.00800 39.85700
C  47.88000 43.66400 40.25600
C  46.00400 42.02200 40.82500
C  45.60300 44.76300 38.09000
C  44.25600 45.01500 37.45800
H  44.01100 44.64600 36.03000
N  50.51300 44.70000 41.46600
C  50.28300 43.50100 40.84600
C  51.57900 42.82500 40.76900
C  52.49400 43.54400 41.57500
C  51.80900 44.80700 41.93000
C  51.78500 41.55000 39.94400
C  53.87600 43.05300 41.96300
O  54.31400 42.00800 41.43000
C  54.73400 43.79400 42.96500
N  50.64000 47.65200 42.19700
C  51.81500 47.19500 42.73600
C  52.79400 48.25200 43.26200
C  51.89300 49.48100 43.06600
C  50.55200 48.93300 42.55400
C  53.29700 48.06600 44.69300
C  52.44500 50.56200 42.09400
C  52.59000 51.99500 42.72600
N  47.88500 47.81100 41.74000
C  48.06700 49.14300 42.08600
C  46.76900 49.85900 41.88600
C  45.86100 48.84300 41.46000
C  46.60200 47.63900 41.30800
C  46.60800 51.32000 42.06800
C  44.54800 48.61200 41.01800
O  43.58900 49.31500 40.95600
C  44.49900 47.12500 40.55100
C  43.35400 46.59900 41.31900
O  43.37500 46.08700 42.45500
O  42.20700 46.73600 40.54200
C  41.01400 45.98400 41.02700
H  49.12600 42.04500 39.69200
H  53.37800 45.85600 42.84500
H  49.45000 50.72800 42.54200
H  44.64700 44.18800 40.13200
H  46.80300 42.51000 38.92800
H  45.69600 41.11700 40.30200
H  45.16000 42.45500 41.36200
H  46.76500 41.67100 41.52100
H  46.13400 43.99200 37.53100
H  46.26900 45.61500 37.95100
H  44.04900 46.08300 37.53300
H  43.45500 44.71800 38.13500
H  51.29900 41.62700 38.97200
H  51.57800 40.63600 40.50100
H  52.84000 41.44700 39.69100
H  54.18700 44.04300 43.87500
H  55.23500 44.71000 42.65200
H  55.49100 43.07600 43.27800
H  53.60200 48.21900 42.53100
H  51.68200 49.99300 44.00500
H  54.15900 47.41500 44.84200
H  52.44000 47.71200 45.26600
H  53.64900 49.00400 45.12000
H  51.66500 50.71500 41.34800
H  53.30900 50.24000 41.51400
H  53.39700 52.22200 43.42300
H  51.64300 52.28800 43.18000
H  52.71700 52.63600 41.85400
H  47.19200 51.78500 41.27400
H  46.85500 51.64400 43.07900
H  45.55900 51.58600 41.93600
H  44.24400 47.21500 39.49500
H  40.80500 46.11900 42.08800
H  41.16000 44.90800 40.93700
H  40.16100 46.35600 40.45800

