158

Mg 51.40600 45.73500 41.88700
C  48.68500 47.02600 40.29200
C  50.48000 42.47800 41.06500
C  54.72000 44.67800 42.41000
C  52.64600 48.97700 42.47500
N  49.73600 44.84900 40.79700
C  48.68900 45.62600 40.35900
C  47.61300 44.67200 39.91600
C  48.10900 43.19900 40.28600
C  49.52900 43.46900 40.81800
C  47.28500 42.36300 41.27400
C  47.26100 44.91800 38.37600
C  45.78800 44.68000 38.11200
H  45.31700 43.40400 37.35200
N  52.47300 43.74800 41.85400
C  51.88700 42.61900 41.43700
C  52.85800 41.56600 41.40900
C  54.11900 42.14600 41.82700
C  53.83800 43.54300 42.08100
C  52.48700 40.05700 41.07400
C  55.34400 41.33900 42.02400
O  55.30200 40.13100 41.71400
C  56.52400 41.98600 42.62700
N  53.40100 46.71100 42.17600
C  54.46500 46.05300 42.59900
C  55.59400 46.97400 43.02200
C  54.93900 48.30000 43.23800
C  53.56700 48.00100 42.57800
C  56.47800 46.50100 44.17900
C  55.66000 49.57800 42.62600
C  56.10100 50.65600 43.70400
N  50.78300 47.60800 41.47500
C  51.39900 48.79400 41.84600
C  50.54000 49.87400 41.39000
C  49.42000 49.21900 40.84400
C  49.64900 47.85100 40.89400
C  50.85700 51.35700 41.38100
C  48.17700 49.40900 40.14100
O  47.60500 50.44100 39.74300
C  47.64900 47.95800 39.69600
C  46.22200 47.87500 40.16700
O  45.77700 47.69200 41.26700
O  45.45400 47.89500 39.08600
C  44.03700 47.76400 39.32600
H  50.18900 41.43900 40.89600
H  55.79200 44.47300 42.35600
H  52.92200 49.97400 42.82300
H  46.79600 44.99000 40.56300
H  48.13400 42.71500 39.31000
H  46.40000 42.93300 41.55800
H  47.86100 42.23700 42.19100
H  46.95000 41.43500 40.81100
H  47.78900 44.14600 37.81600
H  47.52300 45.88500 37.94700
H  45.45100 45.55200 37.55200
H  45.26600 44.76100 39.06500
H  52.84400 39.48000 41.92700
H  52.94400 39.63900 40.17800
H  51.42800 39.90000 40.86900
H  56.25400 42.66000 43.43900
H  56.94400 42.54800 41.79300
H  57.33400 41.29400 42.86000
H  56.28000 46.90000 42.17800
H  54.70700 48.47900 44.28800
H  56.46500 47.29500 44.92500
H  57.48900 46.32200 43.81300
H  56.05000 45.55000 44.49700
H  55.02200 50.11000 41.91900
H  56.55200 49.20900 42.12000
H  55.60900 51.58400 43.41100
H  57.18400 50.69400 43.82100
H  55.69800 50.31600 44.65800
H  50.25900 51.89200 40.64300
H  51.92100 51.47600 41.17400
H  50.66300 51.75800 42.37600
H  47.73900 47.91200 38.61000
H  43.47800 47.36000 38.48200
H  43.62500 48.76800 39.43100
H  43.66100 47.14500 40.14100
Mg 48.16100 34.54200 26.50300
C  45.94200 33.67900 29.22000
C  48.61400 37.63500 27.97500
C  49.62300 35.46900 23.71400
C  47.02000 31.60700 24.80700
N  47.29900 35.57400 28.42600
C  46.57100 34.94700 29.42000
C  46.36700 35.95500 30.58200
C  46.80100 37.33700 29.97300
C  47.61800 36.86900 28.70100
C  45.55700 38.20200 29.62900
C  47.35000 35.49400 31.81000
C  46.67500 35.61100 33.19400
H  46.09500 36.94300 33.68500
N  49.10700 36.26600 25.98800
C  49.34300 37.36000 26.79300
C  50.23700 38.23400 26.09500
C  50.56200 37.66300 24.81800
C  49.74500 36.36700 24.75600
C  50.66600 39.55800 26.72500
C  51.55400 38.15900 23.71800
O  51.72400 37.54000 22.65400
C  52.37200 39.46200 23.96100
N  48.03500 33.72400 24.47900
C  48.84200 34.31500 23.57300
C  49.10600 33.40300 22.28400
C  48.36900 32.12200 22.68700
C  47.76400 32.46100 24.03700
C  48.66100 34.05000 20.90700
C  49.35900 30.88700 22.93200
C  48.62400 29.49600 22.75100
N  46.78400 33.02700 26.86800
C  46.49200 31.92400 26.10900
C  45.51600 31.14400 26.77600
C  45.37800 31.69700 28.02100
C  46.11700 32.89900 28.04400
C  44.81500 29.89900 26.28500
C  44.67900 31.55200 29.34200
O  43.85400 30.70200 29.70500
C  44.99500 32.89900 30.18500
C  45.62000 32.49600 31.45500
O  46.76000 32.03800 31.51300
O  44.67100 32.60700 32.50000
C  45.07800 31.92400 33.70300
H  48.69500 38.64200 28.38900
H  50.17800 35.72200 22.80800
H  46.92700 30.57700 24.45800
H  45.34300 35.97600 30.95600
H  47.46100 37.89100 30.64100
H  45.38300 38.35200 28.56300
H  45.73400 39.20900 30.00600
H  44.67200 37.77700 30.10400
H  48.27100 36.07100 31.73200
H  47.66900 34.45500 31.72600
H  47.39800 35.21800 33.90800
H  45.86900 34.87700 33.20100
H  50.43500 40.37800 26.04500
H  51.72100 39.53200 26.99700
H  50.32800 39.68300 27.75300
H  51.60800 40.20900 24.17800
H  52.93200 39.65400 23.04600
H  53.09800 39.27600 24.75200
H  50.18000 33.25700 22.16800
H  47.62700 31.87300 21.92900
H  47.78200 33.69000 20.37100
H  49.56700 33.94700 20.30900
H  48.51000 35.12600 20.99800
H  49.73900 30.89400 23.95400
H  50.24300 30.99200 22.30400
H  47.62700 29.45600 22.31300
H  48.68800 28.88100 23.64800
H  49.15200 28.94600 21.97200
H  45.07900 29.66000 25.25500
H  43.76600 30.19500 26.30100
H  45.08700 29.09800 26.97300
H  44.03200 33.36700 30.38500
H  44.85100 32.45400 34.62800
H  46.12000 31.60700 33.65900
H  44.50500 31.01300 33.87500

