158

Mg 6.60500 53.81100 40.79600
C  6.66600 50.19000 40.71300
C  9.72900 53.65000 39.58600
C  6.26700 57.02800 39.82700
C  3.29300 53.60800 41.53300
N  7.95100 52.05300 40.06900
C  7.85700 50.69600 40.22000
C  9.18500 50.03500 39.86100
C  10.05000 51.19000 39.78200
C  9.20700 52.41900 39.79700
C  11.14900 51.37000 40.96100
C  9.28200 49.14700 38.60500
C  8.94800 49.72900 37.16500
H  7.85700 49.08000 36.47300
N  7.84400 55.21200 39.93200
C  9.12100 54.92700 39.54300
C  9.79700 56.12400 39.19100
C  8.86300 57.18300 39.34800
C  7.54900 56.48600 39.66200
C  11.22800 56.06800 38.76800
C  9.11000 58.71700 39.09700
O  10.24400 59.07500 38.73200
C  8.09300 59.73600 39.37500
N  4.87600 55.15500 40.55500
C  5.02300 56.50100 40.29200
C  3.78100 57.28800 40.75400
C  2.90100 56.19200 41.38600
C  3.72100 54.90800 41.22600
C  4.18300 58.50900 41.71500
C  1.54100 56.14600 40.73300
C  0.29700 56.02600 41.65100
N  5.29500 52.29600 41.30700
C  3.99300 52.36900 41.58200
C  3.40600 51.08100 41.94400
C  4.47900 50.19900 41.66200
C  5.63400 50.99300 41.21900
C  1.95100 50.78500 42.16600
C  4.84600 48.83100 41.47800
O  4.18000 47.80800 41.61200
C  6.28900 48.73600 41.04300
C  6.28400 47.85400 39.83500
O  5.87300 48.20300 38.76200
O  6.68000 46.63400 40.19300
C  6.69000 45.59100 39.09400
H  10.81100 53.65800 39.43700
H  5.99700 58.05200 39.56100
H  2.23700 53.59500 41.81200
H  9.44400 49.39800 40.70600
H  10.64900 51.22900 38.87300
H  11.14100 52.37800 41.37400
H  12.13000 51.22900 40.50700
H  10.98000 50.66900 41.77800
H  8.59900 48.31100 38.75600
H  10.26500 48.67700 38.64200
H  9.83200 49.87200 36.54400
H  8.58100 50.70100 37.49500
H  11.48000 56.83600 38.03700
H  11.39200 55.09900 38.29800
H  11.84700 56.18500 39.65700
H  7.35600 59.78200 38.57200
H  8.63500 60.67700 39.28400
H  7.53800 59.75000 40.31300
H  3.36200 57.68000 39.82700
H  2.80700 56.41500 42.44900
H  3.67500 58.46600 42.67800
H  3.84400 59.42200 41.22400
H  5.25400 58.65100 41.85900
H  1.55000 55.25100 40.11100
H  1.38800 56.94100 40.00300
H  -0.17800 57.00300 41.74400
H  0.50500 55.60200 42.63400
H  -0.46100 55.42100 41.15500
H  1.49500 51.60300 41.60800
H  1.69400 50.90600 43.21800
H  1.51500 49.86000 41.79100
H  6.98700 48.50500 41.84800
H  7.42900 44.87100 39.44500
H  6.79600 46.04700 38.10900
H  5.75300 45.03200 39.09100
Mg -5.65600 25.85000 26.20200
C  -4.30600 26.98500 29.28400
C  -7.82200 23.82800 28.13800
C  -6.54400 24.36800 23.36100
C  -3.20800 27.75900 24.50800
N  -6.03800 25.41100 28.40900
C  -5.31800 25.97800 29.43000
C  -5.83800 25.59000 30.79800
C  -6.87200 24.44400 30.42500
C  -6.99400 24.63800 28.87600
C  -6.43900 23.00200 30.73000
C  -6.48500 26.86700 31.49400
C  -6.42700 27.13400 32.98400
H  -6.17700 25.88500 33.90400
N  -7.04400 24.34900 25.81400
C  -7.80400 23.62700 26.76200
C  -8.64100 22.64800 25.99000
C  -8.23500 22.78700 24.58800
C  -7.22800 23.83700 24.54400
C  -9.51500 21.71600 26.69100
C  -8.80400 22.02700 23.33300
O  -8.34100 22.20500 22.19800
C  -9.85900 20.93500 23.45600
N  -4.90600 26.01900 24.23800
C  -5.57200 25.40500 23.25900
C  -4.94300 25.74700 21.82700
C  -4.03600 26.93700 22.23400
C  -3.98100 26.84700 23.74600
C  -4.20100 24.51500 21.20800
C  -4.64700 28.30300 21.84100
C  -3.66100 29.48500 21.69200
N  -4.10900 27.12800 26.72800
C  -3.18300 27.82200 25.93000
C  -2.32800 28.64500 26.77700
C  -2.75200 28.27800 28.13400
C  -3.82200 27.45600 28.02500
C  -1.15200 29.50900 26.37100
C  -2.44000 28.54000 29.53400
O  -1.63600 29.35300 30.03200
C  -3.48100 27.78700 30.32500
C  -2.66200 26.99100 31.34600
O  -2.28900 25.82000 31.16600
O  -2.69400 27.61900 32.53200
C  -2.14600 26.81600 33.64000
H  -8.65200 23.39900 28.70200
H  -6.70600 23.91900 22.37900
H  -2.59200 28.55600 24.08500
H  -5.02500 25.13900 31.36700
H  -7.85100 24.64700 30.85900
H  -5.63900 22.98300 31.47000
H  -6.10200 22.64000 29.75900
H  -7.27100 22.43900 31.15300
H  -7.48900 26.89500 31.06900
H  -6.04300 27.73800 31.01100
H  -7.37100 27.58500 33.29000
H  -5.64200 27.87800 33.12200
H  -10.55300 22.04300 26.62500
H  -9.39300 21.56200 27.76300
H  -9.29900 20.71200 26.32800
H  -10.36400 20.95100 22.49000
H  -10.60400 21.14000 24.22500
H  -9.36300 19.98900 23.67000
H  -5.77600 26.06500 21.20100
H  -3.06600 26.83700 21.74700
H  -4.16500 23.75700 21.99000
H  -3.16600 24.81100 21.03700
H  -4.68400 24.12600 20.31100
H  -5.36900 28.32600 22.65700
H  -5.23800 28.23900 20.92700
H  -3.87600 30.13200 22.54300
H  -4.00900 30.00800 20.80100
H  -2.60100 29.24200 21.62600
H  -1.44000 30.50700 26.70300
H  -1.05400 29.30900 25.30400
H  -0.26200 29.20400 26.92100
H  -4.08100 28.49500 30.89700
H  -1.11300 26.56900 33.39200
H  -2.62000 25.84000 33.74400
H  -2.21100 27.35100 34.58700

