158

Mg 26.96200 50.86100 26.77100
C  25.04100 51.86300 29.44300
C  29.57600 50.21500 28.95500
C  28.93200 50.04400 24.10900
C  24.54400 52.05500 24.63400
N  27.29900 51.13600 28.89200
C  26.27700 51.37400 29.76700
C  26.73300 51.24400 31.26200
C  28.26200 50.92900 31.08000
C  28.42800 50.75200 29.56500
C  29.26000 51.98900 31.58100
C  25.85600 50.14800 31.97100
C  25.40100 50.41900 33.42900
H  26.50500 50.85100 34.38200
N  29.04900 50.11500 26.57000
C  29.92400 49.97900 27.62200
C  31.13300 49.44000 26.99400
C  31.02900 49.51200 25.60600
C  29.66000 49.85100 25.36200
C  32.28400 48.95400 27.95700
C  32.15200 49.33100 24.55200
O  32.02000 49.53600 23.36500
C  33.47800 48.81900 25.07100
N  26.78800 51.14100 24.64500
C  27.65900 50.62400 23.79000
C  27.12600 50.65500 22.37900
C  25.73700 51.39900 22.45300
C  25.66400 51.49700 23.96900
C  28.01800 51.33400 21.23100
C  24.66300 50.54100 21.69700
C  23.95300 49.41200 22.46300
N  25.14100 51.83100 26.92400
C  24.31200 52.25200 25.95900
C  23.10800 52.78400 26.55400
C  23.33600 52.70400 27.94400
C  24.56300 52.05000 28.13500
C  21.84600 53.36200 25.86600
C  22.73200 52.88200 29.25000
O  21.60700 53.33900 29.46800
C  23.84800 52.42900 30.32300
C  24.22300 53.54500 31.24700
O  25.02600 54.42200 30.92000
O  23.49300 53.45000 32.39800
C  23.78200 54.58400 33.34900
H  30.31800 49.95900 29.71500
H  29.36800 49.76200 23.14800
H  23.71100 52.27400 23.96200
H  26.53600 52.15700 31.82300
H  28.52400 49.95800 31.50100
H  28.75100 52.74900 32.17300
H  29.60300 52.60500 30.74900
H  30.11000 51.57100 32.12200
H  26.27200 49.14100 32.01000
H  24.96500 50.00800 31.36000
H  24.96200 49.55500 33.92800
H  24.57800 51.13300 33.39400
H  33.14000 49.62200 27.86400
H  32.62500 47.93000 27.80600
H  31.90500 48.87200 28.97500
H  34.03900 49.39200 25.80900
H  34.11800 48.76000 24.19100
H  33.14700 47.86000 25.47000
H  26.94000 49.63500 22.04200
H  25.76900 52.46200 22.21500
H  27.48300 51.95400 20.51300
H  28.31900 50.48300 20.62100
H  28.92600 51.84300 21.55300
H  25.18000 50.03500 20.88100
H  24.00800 51.16500 21.08900
H  24.12600 49.15900 23.50900
H  24.22600 48.49600 21.94100
H  22.93900 49.78100 22.31000
H  21.41800 54.14500 26.49200
H  21.13500 52.54700 25.73200
H  22.20300 53.78400 24.92600
H  23.52100 51.63200 30.99000
H  23.92200 55.46200 32.71800
H  24.71100 54.29000 33.83700
H  22.97500 54.73100 34.06800
Mg -5.74300 24.91200 25.75900
C  -4.12300 26.06700 28.68600
C  -7.66700 22.72000 27.71700
C  -6.62500 23.29600 23.00100
C  -3.25000 26.73200 23.95200
N  -5.80500 24.34500 27.90100
C  -5.12000 25.06300 28.92500
C  -5.66100 24.61000 30.31700
C  -6.58500 23.37400 29.99000
C  -6.75700 23.48000 28.46100
C  -5.98000 21.97300 30.32200
C  -6.51000 25.83000 30.92800
C  -6.30000 26.02500 32.52200
H  -5.49200 24.95200 33.28600
N  -7.14600 23.37000 25.36300
C  -7.82000 22.59500 26.28300
C  -8.67400 21.67600 25.60400
C  -8.44200 21.87400 24.21000
C  -7.37900 22.87200 24.13700
C  -9.58700 20.72500 26.28400
C  -9.02500 21.14700 22.95800
O  -8.68400 21.40500 21.81500
C  -10.12200 20.12400 23.07500
N  -4.98300 25.03300 23.71400
C  -5.57100 24.22200 22.77500
C  -4.93200 24.46400 21.40100
C  -4.05000 25.70500 21.64400
C  -4.02200 25.85400 23.19400
C  -4.11800 23.27200 20.88600
C  -4.57100 26.97400 20.88200
C  -3.65600 27.62200 19.74200
N  -4.11600 26.20800 26.19400
C  -3.26900 26.96800 25.33000
C  -2.46700 27.93700 26.14400
C  -2.80600 27.54600 27.47900
C  -3.76200 26.51700 27.46300
C  -1.40300 28.96700 25.69000
C  -2.37900 27.81200 28.87400
O  -1.54300 28.51900 29.35400
C  -3.36000 26.86400 29.68500
C  -2.57100 26.13000 30.66600
O  -1.99900 25.06900 30.46000
O  -2.65100 26.77400 31.88700
C  -1.73800 26.11100 32.82800
H  -8.17800 21.97100 28.32500
H  -6.81300 22.87000 22.01300
H  -2.67300 27.42800 23.33900
H  -4.79000 24.40000 30.93700
H  -7.60800 23.40600 30.36600
H  -4.96400 21.93100 30.71300
H  -5.99600 21.38900 29.40300
H  -6.77600 21.60000 30.96700
H  -7.57400 25.66700 30.76200
H  -6.26600 26.74900 30.39500
H  -7.31400 26.21900 32.87300
H  -5.75000 26.96300 32.59700
H  -10.58100 20.78100 25.84000
H  -9.81300 20.98200 27.31800
H  -9.27100 19.68200 26.25100
H  -10.25600 19.73900 22.06500
H  -11.02200 20.61500 23.44600
H  -9.73800 19.30700 23.68600
H  -5.74200 24.67300 20.70200
H  -3.05000 25.46000 21.28500
H  -3.62100 22.65200 21.63300
H  -3.30900 23.63200 20.25000
H  -4.69400 22.56500 20.28800
H  -4.60200 27.73500 21.66200
H  -5.59700 26.84000 20.54200
H  -2.74000 27.04100 19.63500
H  -3.32600 28.62300 20.02100
H  -4.16700 27.74700 18.78700
H  -0.64500 29.15100 26.45100
H  -1.82600 29.95000 25.48300
H  -1.06000 28.61500 24.71700
H  -4.09200 27.39300 30.29600
H  -1.86500 26.65000 33.76700
H  -0.73900 26.07900 32.39300
H  -2.00000 25.05500 32.88000

