158

Mg 0.96600 8.07600 26.32400
C  1.71700 10.28400 29.05000
C  1.24500 5.40000 28.68900
C  0.69400 5.99500 23.80600
C  1.02600 10.76200 24.26100
N  1.45100 7.88200 28.60300
C  1.62600 8.95800 29.48700
C  1.76700 8.47500 30.92100
C  1.87200 6.91100 30.75500
C  1.47900 6.70400 29.27100
C  3.30300 6.35900 30.98400
C  0.53400 8.91700 31.74900
C  0.85000 9.27900 33.24100
H  1.96100 8.60900 34.11900
N  0.90300 5.99600 26.24300
C  0.99400 5.07100 27.28800
C  0.82700 3.78400 26.77600
C  0.70700 3.88400 25.38000
C  0.82100 5.34600 25.06500
C  0.73500 2.53000 27.68500
C  0.67900 2.81700 24.31600
O  0.64500 2.99700 23.07000
C  0.74900 1.43300 24.74100
N  0.95700 8.36300 24.31100
C  0.77900 7.32800 23.47200
C  0.82300 7.81700 22.04400
C  0.53200 9.32000 22.22100
C  0.86200 9.51700 23.70400
C  2.22400 7.51400 21.38400
C  -0.91000 9.75200 22.05700
C  -1.21800 10.38600 20.75000
N  1.34400 10.17800 26.53500
C  1.33300 11.13500 25.64000
C  1.65100 12.51800 26.21800
C  1.80100 12.18200 27.58000
C  1.57200 10.77700 27.73700
C  1.64600 13.77000 25.45300
C  2.07500 12.72600 28.83600
O  2.40400 13.87500 29.10000
C  2.00000 11.53300 29.86400
C  3.30900 11.50500 30.61400
O  4.41100 11.29700 30.14400
O  3.00900 11.72500 31.90200
C  4.10800 11.99900 32.83200
H  1.39100 4.60400 29.42100
H  0.67600 5.38900 22.89800
H  0.91000 11.56700 23.53100
H  2.66100 8.97200 31.29800
H  1.05800 6.52200 31.36700
H  3.99300 7.12200 31.34700
H  3.65000 5.83100 30.09600
H  3.15500 5.61600 31.76800
H  -0.24800 8.16200 31.67400
H  0.07700 9.72400 31.17600
H  -0.03600 9.41200 33.86100
H  1.20800 10.30400 33.13800
H  -0.04100 1.79100 27.49000
H  0.59100 2.75900 28.74100
H  1.68000 1.99500 27.78200
H  1.63200 1.31500 25.36900
H  0.91100 0.81200 23.85900
H  -0.15600 1.04600 25.21000
H  -0.08500 7.38900 21.61800
H  1.16100 9.90100 21.54700
H  2.99100 7.59900 22.15400
H  2.41000 8.12600 20.50200
H  2.03000 6.47700 21.10800
H  -1.24500 10.47700 22.79800
H  -1.62300 8.93200 22.14000
H  -0.36200 10.15600 20.11600
H  -1.44600 11.43900 20.91200
H  -2.02600 9.96400 20.15300
H  0.59800 13.90200 25.18300
H  2.32900 13.75200 24.60400
H  1.97400 14.60400 26.07400
H  1.20000 11.82300 30.54400
H  4.86900 12.50100 32.23400
H  4.70000 11.18900 33.25800
H  3.81600 12.70800 33.60700
Mg 41.46600 40.54900 26.96200
C  40.92400 43.06700 29.41100
C  42.22800 38.42300 29.45000
C  42.70700 38.46900 24.59400
C  41.20300 43.10500 24.51500
N  41.59600 40.82400 29.16800
C  41.19900 41.87900 30.01400
C  41.08500 41.45800 31.52400
C  41.67900 39.97100 31.41600
C  41.87800 39.72800 29.86600
C  43.00200 39.60200 32.25300
C  39.63400 41.51200 32.11500
C  39.34200 42.76700 33.02500
H  38.62100 42.59300 34.38700
N  42.13700 38.59700 27.06600
C  42.31400 37.86900 28.15100
C  42.59100 36.51500 27.74500
C  42.99600 36.49600 26.36900
C  42.60600 37.91100 25.95100
C  42.60000 35.31400 28.73600
C  43.72200 35.48800 25.56100
O  44.14000 35.64000 24.37800
C  43.98900 34.15300 26.13800
N  41.93000 40.74200 24.90000
C  42.32000 39.69100 24.11000
C  42.18300 39.95500 22.66400
C  41.46300 41.38100 22.62000
C  41.56100 41.78700 24.09500
C  43.44800 39.83100 21.92000
C  40.02400 41.50900 22.01200
C  38.93700 40.66200 22.63100
N  41.19000 42.62500 26.90100
C  40.93700 43.45100 25.80500
C  40.34500 44.68300 26.36000
C  40.39800 44.58700 27.72900
C  40.93000 43.35200 28.00400
C  39.71800 45.83300 25.56400
C  40.00900 45.32100 28.87400
O  39.67000 46.45400 29.11800
C  40.31500 44.29300 30.05800
C  41.30400 44.92400 31.00900
O  42.49200 44.71500 30.90000
O  40.68300 45.65600 32.00400
C  41.53700 46.24000 33.03700
H  42.42300 37.68300 30.22900
H  42.88700 37.66500 23.87700
H  40.84300 43.73700 23.70000
H  41.83100 42.00900 32.09700
H  40.97700 39.21700 31.77100
H  43.88600 39.57900 31.61600
H  42.85900 38.61800 32.69800
H  43.05300 40.39200 33.00200
H  39.33800 40.67200 32.74300
H  38.97400 41.65000 31.25900
H  38.62900 43.43900 32.54700
H  40.29300 43.28900 33.13200
H  43.63300 35.01800 28.92100
H  42.06800 34.47000 28.29700
H  42.14300 35.42000 29.72100
H  44.50500 34.25800 27.09200
H  44.51300 33.37800 25.57800
H  43.01900 33.74700 26.42400
H  41.49400 39.22200 22.24400
H  42.08400 42.02300 21.99600
H  43.38300 40.54400 21.09800
H  43.46300 38.80700 21.54500
H  44.32300 40.08500 22.51800
H  40.04700 41.23800 20.95700
H  39.83600 42.58200 21.97500
H  38.52000 39.99000 21.88000
H  38.19000 41.36700 22.99400
H  39.18700 39.89600 23.36600
H  39.33700 45.45900 24.61400
H  40.52500 46.54900 25.40700
H  38.87500 46.27800 26.09200
H  39.34500 44.15200 30.53400
H  42.37500 46.66500 32.48400
H  41.72000 45.40800 33.71700
H  40.91800 47.06800 33.38300

