158

Mg -1.09400 18.10700 26.81000
C  -1.64200 15.76000 29.52500
C  -1.44000 20.62400 29.25800
C  -0.59100 20.19000 24.41800
C  -0.96300 15.29000 24.75900
N  -1.39600 18.12700 29.19600
C  -1.58700 17.10400 30.03500
C  -1.77400 17.62800 31.43400
C  -1.93800 19.16100 31.19200
C  -1.46200 19.38000 29.79800
C  -3.40900 19.58500 31.50400
C  -0.64100 17.30800 32.45200
C  -1.18500 16.99000 33.85300
H  -0.07100 16.72500 34.92300
N  -0.92100 20.12600 26.87500
C  -1.11100 20.95300 27.93900
C  -0.98200 22.33800 27.38300
C  -0.66700 22.23000 25.98000
C  -0.79400 20.80100 25.68100
C  -0.93200 23.57400 28.25400
C  -0.50800 23.26900 24.89100
O  -0.33200 23.08000 23.69200
C  -0.44100 24.66800 25.41600
N  -0.72800 17.77900 24.84500
C  -0.59600 18.83700 24.01300
C  -0.58600 18.40200 22.49900
C  -0.49500 16.82000 22.64500
C  -0.74500 16.56300 24.13500
C  -1.84800 18.93400 21.72500
C  0.78000 16.22700 22.03200
C  1.94600 15.85200 22.96400
N  -1.30900 16.01300 27.04500
C  -1.25100 15.02800 26.05200
C  -1.58800 13.77500 26.60400
C  -1.75400 14.01600 27.93900
C  -1.54300 15.38100 28.17200
C  -1.92500 12.56600 25.74100
C  -2.04300 13.34900 29.21600
O  -2.27200 12.21300 29.45100
C  -1.95400 14.48600 30.32900
C  -0.95100 14.09500 31.45800
O  0.28300 14.11900 31.42700
O  -1.60300 13.75400 32.67600
C  -0.75200 13.25000 33.68300
H  -1.75500 21.48600 29.84900
H  -0.49600 20.82700 23.53700
H  -0.89200 14.53300 23.97500
H  -2.65200 17.22100 31.93400
H  -1.29700 19.67600 31.90700
H  -3.83800 20.25400 30.75800
H  -3.41200 20.17500 32.42000
H  -4.16400 18.83000 31.72500
H  0.09600 18.09100 32.63100
H  -0.01700 16.49500 32.08300
H  -1.83100 16.12600 33.70000
H  -1.77500 17.83100 34.21700
H  0.06300 23.99800 28.38800
H  -1.33900 23.37500 29.24500
H  -1.61600 24.29200 27.79900
H  -1.36300 25.08800 25.81700
H  -0.23000 25.33900 24.58300
H  0.34100 24.73700 26.17200
H  0.34400 18.78000 22.07400
H  -1.30700 16.33300 22.10500
H  -2.34000 18.24600 21.03700
H  -1.45500 19.76200 21.13500
H  -2.64900 19.32900 22.34900
H  1.20100 16.86000 21.25100
H  0.49200 15.29200 21.55300
H  1.92100 16.52800 23.81900
H  2.85300 16.13000 22.42700
H  2.09900 14.80300 23.21800
H  -2.69000 12.78500 24.99700
H  -2.41900 11.85000 26.39800
H  -1.08700 12.05500 25.26700
H  -2.91600 14.63800 30.81800
H  -0.42500 14.13600 34.22800
H  0.14500 12.71800 33.36600
H  -1.19500 12.52500 34.36500
Mg 46.02400 16.59200 28.21600
C  44.00800 16.13200 30.99700
C  47.95500 18.71900 30.10500
C  47.91000 16.96200 25.56000
C  43.59400 14.91000 26.28300
N  46.04400 17.24400 30.35500
C  45.14100 16.90400 31.32200
C  45.55000 17.38900 32.66500
C  46.65400 18.40900 32.31100
C  46.80900 18.26000 30.78000
C  46.37600 19.85000 32.67300
C  45.98900 16.25900 33.60100
C  45.66100 16.35600 35.08100
H  45.79500 17.82000 35.67800
N  47.81400 17.59400 27.88400
C  48.44500 18.39200 28.77100
C  49.80900 18.59600 28.34200
C  49.84100 17.92100 27.01400
C  48.49200 17.42300 26.79700
C  50.93800 19.11000 29.30100
C  50.95600 17.71300 26.01500
O  50.87200 16.92600 25.07200
C  52.35000 18.26200 26.33400
N  45.64400 16.27600 26.14100
C  46.66800 16.38700 25.30900
C  46.25000 16.09400 23.85900
C  44.89500 15.31000 24.09800
C  44.72300 15.41500 25.61000
C  46.11600 17.34800 22.99400
C  44.85900 13.75600 23.71500
C  43.56800 13.32000 23.08100
N  44.12300 15.76400 28.55600
C  43.35700 15.04400 27.65400
C  42.18400 14.54900 28.37600
C  42.38800 14.94000 29.70700
C  43.61500 15.61200 29.79700
C  41.04000 13.82300 27.84600
C  41.83400 14.94400 31.04500
O  40.83500 14.46600 31.49300
C  42.93900 15.69300 31.90600
C  42.24900 16.75200 32.70000
O  41.63900 17.65100 32.20700
O  42.40100 16.58200 34.05200
C  41.77500 17.57100 34.89700
H  48.58500 19.27400 30.80500
H  48.54100 16.99400 24.66900
H  42.91800 14.32800 25.65400
H  44.70100 17.91200 33.10700
H  47.58700 18.05000 32.74600
H  47.37100 20.13100 33.01700
H  45.58900 19.93900 33.42200
H  46.15800 20.49700 31.82300
H  47.04400 16.15500 33.35000
H  45.49700 15.35100 33.25100
H  46.32400 15.71200 35.65900
H  44.67300 15.96000 35.31300
H  50.97600 20.19100 29.16900
H  51.97700 18.88200 29.06300
H  50.63600 18.85100 30.31600
H  52.93000 18.13300 25.42000
H  52.79100 17.70700 27.16200
H  52.29900 19.29900 26.66600
H  47.01000 15.40000 23.50000
H  43.91800 15.64800 23.75100
H  45.05300 17.56100 23.11400
H  46.40300 17.27800 21.94500
H  46.70500 18.20500 23.31900
H  45.00500 13.11100 24.58100
H  45.66000 13.42600 23.05400
H  43.78700 12.76700 22.16700
H  42.85200 14.13600 22.98600
H  43.06700 12.49700 23.59000
H  41.18300 13.64600 26.78000
H  40.06800 14.30300 27.96400
H  41.02400 12.88900 28.40800
H  43.40000 14.95200 32.56000
H  41.94600 17.26300 35.92900
H  40.70200 17.66600 34.72800
H  42.25200 18.54500 34.79400

