158

Mg 0.39100 7.93000 25.65400
C  1.17100 9.53100 28.65600
C  0.06000 4.93100 27.45700
C  0.42700 6.16800 22.78600
C  1.41000 10.74200 23.84100
N  0.73200 7.30600 27.80000
C  0.84800 8.18200 28.88500
C  0.76000 7.47600 30.24100
C  0.63100 6.01600 29.72700
C  0.39700 6.08600 28.22500
C  1.79600 5.10900 30.14000
C  -0.46600 7.83800 31.17300
C  -0.45600 7.41000 32.67900
H  0.76900 6.69600 33.30100
N  0.08400 5.88100 25.18500
C  -0.00300 4.80300 26.06600
C  -0.24400 3.60600 25.33000
C  -0.09300 3.90700 23.94300
C  0.18200 5.38100 23.94200
C  -0.49200 2.33400 26.11900
C  -0.22100 2.97000 22.73200
O  0.03000 3.32400 21.58300
C  -0.45500 1.46200 23.00600
N  0.90000 8.43400 23.60800
C  0.67700 7.49800 22.60300
C  0.92500 8.09700 21.20500
C  1.22500 9.57800 21.52500
C  1.10900 9.65700 23.10200
C  2.10000 7.27900 20.50500
C  0.13800 10.55700 20.89200
C  -1.23600 10.87100 21.56200
N  1.17900 9.78800 26.11700
C  1.47200 10.87100 25.27000
C  1.81800 12.01100 26.17100
C  1.72400 11.54900 27.46900
C  1.32400 10.18900 27.38300
C  2.04500 13.46900 25.75900
C  1.78000 11.93900 28.82200
O  2.22000 13.01100 29.23200
C  1.44800 10.65200 29.69100
C  2.55000 10.34600 30.58800
O  3.49800 9.62000 30.29200
O  2.37900 10.88200 31.81300
C  3.55800 10.65200 32.71100
H  -0.14200 4.00400 27.99800
H  0.22800 5.69200 21.82300
H  1.54300 11.71400 23.36100
H  1.63500 7.63000 30.87200
H  -0.22300 5.53400 30.20200
H  1.43700 4.15100 30.51500
H  2.38000 5.57700 30.93200
H  2.45900 5.06000 29.27700
H  -1.38200 7.48900 30.69700
H  -0.58800 8.92100 31.18100
H  -1.37600 6.84900 32.84000
H  -0.51400 8.28200 33.33000
H  -1.01200 2.54700 27.05300
H  0.45300 1.82100 26.29900
H  -1.07100 1.60900 25.54900
H  -0.65200 0.87100 22.11100
H  -1.38400 1.42600 23.57400
H  0.45400 1.10000 23.48600
H  0.02300 7.99000 20.60300
H  2.18800 9.94400 21.16900
H  2.63200 6.77700 21.31300
H  2.81900 7.99200 20.09900
H  1.70900 6.56600 19.77800
H  -0.08200 10.04800 19.95300
H  0.63800 11.47600 20.58600
H  -1.17900 11.80500 22.12100
H  -1.55800 10.14600 22.30900
H  -2.08200 10.99900 20.88600
H  1.42300 13.55800 24.86900
H  3.08300 13.61500 25.45700
H  1.68700 14.13800 26.54200
H  0.53800 10.92200 30.22800
H  4.49700 10.73300 32.16400
H  3.50200 9.62800 33.08000
H  3.47700 11.36000 33.53600
Mg 40.29700 9.49200 29.26100
C  42.60400 10.75000 31.88500
C  38.32700 8.18100 31.74500
C  38.42100 8.16200 26.80400
C  42.78200 10.14300 27.00600
N  40.48500 9.45800 31.56800
C  41.34500 10.18400 32.38100
C  40.80300 10.20300 33.88100
C  39.57300 9.21600 33.80700
C  39.40400 8.95400 32.26300
C  39.65500 7.95900 34.70400
C  40.62100 11.65500 34.38400
C  41.09800 12.09900 35.74800
H  39.90300 12.36000 36.70400
N  38.54900 8.46200 29.35500
C  37.86900 7.94600 30.44800
C  36.81600 7.11200 30.00100
C  36.75200 7.19300 28.51600
C  37.91500 7.94000 28.17400
C  35.99900 6.29600 30.97300
C  35.75300 6.54900 27.60200
O  35.77800 6.60500 26.35800
C  34.72100 5.71100 28.19800
N  40.46900 9.37900 27.15000
C  39.54500 8.85300 26.30100
C  39.98000 8.96400 24.82100
C  41.51500 9.35400 24.99700
C  41.64200 9.63900 26.48700
C  39.72700 7.70800 24.04800
C  41.84600 10.52900 24.08300
C  41.48800 11.99100 24.49900
N  42.19600 10.30300 29.35200
C  43.10900 10.45100 28.29300
C  44.33300 11.15400 28.81700
C  44.10600 11.19500 30.13400
C  42.85100 10.63500 30.43800
C  45.46200 11.61600 27.91700
C  44.77800 11.60300 31.41500
O  45.90500 12.09000 31.60400
C  43.71700 11.50600 32.48700
C  44.30100 10.85200 33.69500
O  44.52400 9.64200 33.83500
O  44.54200 11.77500 34.70900
C  44.75000 11.45200 36.10600
H  37.70400 7.76800 32.54200
H  37.94700 7.52800 26.05200
H  43.54600 10.45600 26.29100
H  41.58600 9.67200 34.42200
H  38.67100 9.69500 34.18800
H  39.57800 7.07600 34.06900
H  38.79500 7.91400 35.37200
H  40.50200 7.98500 35.38900
H  39.56100 11.90200 34.43200
H  40.99000 12.34000 33.62100
H  41.61300 13.01300 35.45200
H  41.78000 11.31500 36.07700
H  35.92400 5.29100 30.55700
H  35.08100 6.87900 31.04600
H  36.34300 6.20500 32.00400
H  34.28500 6.16900 29.08600
H  35.21600 4.78600 28.49700
H  33.93300 5.47600 27.48200
H  39.51300 9.80700 24.31300
H  42.13500 8.49900 24.72700
H  38.75500 7.78800 23.56000
H  39.69600 6.95800 24.83900
H  40.52000 7.47900 23.33600
H  41.43600 10.32200 23.09400
H  42.93000 10.47400 23.98300
H  41.25600 12.01000 25.56300
H  40.68800 12.38900 23.87500
H  42.31300 12.70300 24.45500
H  44.85400 12.05900 27.12800
H  46.06800 10.86500 27.41100
H  46.02900 12.33100 28.51400
H  43.37500 12.44400 32.92400
H  45.27100 10.51400 36.30200
H  43.88000 11.41800 36.76200
H  45.50300 12.20800 36.32800

