158

Mg 26.47800 49.79800 25.95800
C  24.20900 50.93200 28.47100
C  28.60700 48.78100 28.45100
C  28.64900 48.78800 23.65600
C  24.28600 50.96000 23.62800
N  26.46600 50.01800 28.13100
C  25.41700 50.38000 29.02600
C  25.85300 50.26400 30.50900
C  27.23100 49.49600 30.43100
C  27.46500 49.51300 28.93100
C  28.31800 50.12500 31.30100
C  24.72600 49.75400 31.42800
C  25.07800 48.84300 32.63600
H  25.76200 49.62800 33.84100
N  28.40800 48.93900 26.00400
C  29.03400 48.48400 27.12800
C  30.18400 47.71100 26.67700
C  30.25300 47.79300 25.30500
C  29.11400 48.58300 24.93600
C  31.14000 46.98100 27.67300
C  31.24900 47.23200 24.35900
O  31.27400 47.33100 23.16600
C  32.39800 46.45200 24.98900
N  26.50300 50.03400 23.97000
C  27.44400 49.37900 23.20500
C  27.02500 49.26700 21.69200
C  25.49300 49.61500 21.85200
C  25.43300 50.24900 23.20500
C  27.73000 50.34900 20.82100
C  24.56400 48.27000 21.72200
C  23.93200 48.12400 20.28400
N  24.69200 50.88900 26.02900
C  23.93000 51.29000 24.93900
C  22.70800 51.81200 25.41400
C  22.72500 51.73000 26.77800
C  23.96400 51.16000 27.11400
C  21.59400 52.32400 24.59300
C  22.07800 51.91800 28.01800
O  21.04500 52.43500 28.21600
C  23.03600 51.43300 29.17500
C  23.31300 52.56600 30.12400
O  24.28400 53.35100 30.08300
O  22.41500 52.57700 31.14000
C  22.77000 53.42900 32.34000
H  29.30100 48.31500 29.15300
H  29.31900 48.57500 22.82000
H  23.40200 51.23500 23.04900
H  26.13200 51.28600 30.76700
H  27.10500 48.44300 30.68300
H  29.22100 50.23100 30.69900
H  28.63700 49.36000 32.00900
H  28.26800 51.15500 31.65400
H  24.04000 49.20000 30.78800
H  24.17400 50.62300 31.78400
H  25.70300 48.01000 32.31400
H  24.14000 48.36400 32.91600
H  32.19000 47.23900 27.53500
H  30.95000 45.93500 27.43300
H  30.87300 47.07400 28.72600
H  33.12000 46.13800 24.23500
H  31.86400 45.63800 25.48000
H  33.05900 47.03700 25.62900
H  27.27400 48.25400 21.37700
H  25.11000 50.34400 21.13800
H  27.15400 51.11500 20.30100
H  28.18600 49.86600 19.95700
H  28.47900 50.86000 21.42600
H  23.81000 48.28100 22.50900
H  25.24500 47.43000 21.86000
H  24.11100 47.09000 19.99100
H  24.44400 48.69000 19.50600
H  22.87100 48.36100 20.20900
H  21.04200 51.45100 24.24500
H  22.08800 52.78000 23.73500
H  20.95300 53.03400 25.11500
H  22.65900 50.60700 29.77700
H  22.89000 54.49100 32.12700
H  23.77000 53.11000 32.63200
H  22.18800 53.20100 33.23300
Mg 5.98600 54.45500 39.87500
C  5.57000 50.96300 40.24400
C  9.15400 53.82400 38.69400
C  6.18900 57.71200 39.27900
C  2.52500 54.84400 40.68300
N  7.13600 52.47400 39.32700
C  6.73900 51.23200 39.55100
C  7.69200 50.28700 38.85200
C  9.01600 51.19600 38.75700
C  8.44900 52.60400 38.98500
C  10.10300 50.94800 39.93300
C  7.30500 49.65900 37.47100
C  6.38900 50.47400 36.58800
H  6.86400 51.40500 35.47500
N  7.47700 55.61300 39.03600
C  8.70900 55.23300 38.66000
C  9.44900 56.31800 38.10700
C  8.59500 57.46700 38.17100
C  7.34200 56.96800 38.88100
C  10.81800 56.14300 37.38700
C  8.85300 58.80300 37.65800
O  9.80700 59.00400 36.99400
C  8.08400 60.07500 38.09600
N  4.54500 56.07300 39.93100
C  4.91300 57.30400 39.80600
C  3.88600 58.34500 40.16900
C  2.66500 57.41600 40.49600
C  3.25300 56.01700 40.36100
C  4.34800 59.28100 41.27000
C  1.35600 57.76200 39.63000
C  0.39500 58.77300 40.28400
N  4.38700 53.20700 40.52000
C  3.06600 53.53800 40.83000
C  2.49500 52.36500 41.41500
C  3.43900 51.30200 41.21900
C  4.54600 51.86700 40.60200
C  1.09700 52.12600 41.93600
C  3.69400 49.81600 41.24900
O  3.01500 48.83800 41.55800
C  5.02800 49.60900 40.60800
C  4.76300 48.67200 39.52300
O  4.46100 48.95600 38.32300
O  4.82000 47.38900 39.97400
C  4.45700 46.26200 39.06200
H  10.19200 53.66800 38.39200
H  6.22900 58.80200 39.23100
H  1.58600 54.96000 41.22800
H  7.73000 49.38200 39.45800
H  9.57300 51.10000 37.82500
H  11.11800 51.01500 39.54000
H  9.94400 49.96800 40.38200
H  9.97400 51.82400 40.56900
H  6.99800 48.62100 37.60300
H  8.23900 49.47000 36.94200
H  5.69800 51.10600 37.14600
H  5.67000 49.89600 36.00700
H  10.93700 56.90700 36.61800
H  10.88400 55.19300 36.85700
H  11.59700 56.37900 38.11100
H  7.06100 60.15200 37.72600
H  8.61700 61.01300 37.93700
H  7.99900 60.06700 39.18300
H  3.71400 58.95300 39.28100
H  2.53900 57.56400 41.56900
H  4.37500 60.30600 40.90000
H  5.37900 59.09200 41.56900
H  3.75900 59.15700 42.17900
H  0.82900 56.83900 39.38700
H  1.59000 58.14100 38.63400
H  -0.67800 58.59800 40.20200
H  0.49800 59.75700 39.82800
H  0.66500 58.81800 41.33900
H  0.70600 51.30000 41.34200
H  0.43900 52.99400 41.90300
H  1.20700 51.76700 42.95900
H  5.64200 49.12500 41.36800
H  3.38000 46.26800 38.89200
H  4.68700 45.38900 39.67200
H  4.97000 46.32400 38.10200

