158

Mg 0.08600 7.35800 27.54100
C  1.15400 9.76900 29.93800
C  0.12500 5.06200 30.05100
C  -0.92000 5.18300 25.31200
C  0.43900 9.74200 25.10300
N  0.86000 7.42200 29.67900
C  1.04600 8.50500 30.47300
C  0.78700 8.04100 32.03800
C  0.98900 6.53000 31.96300
C  0.62100 6.31500 30.45800
C  2.27400 5.88600 32.58200
C  -0.65800 8.45500 32.62000
C  -0.79200 8.84800 34.12100
H  0.35300 8.32500 35.01000
N  -0.31200 5.38200 27.63000
C  -0.23600 4.58200 28.78100
C  -0.61900 3.27900 28.36100
C  -0.98500 3.29700 27.02600
C  -0.85600 4.67700 26.60400
C  -0.48700 2.11600 29.28700
C  -1.53900 2.10500 26.09800
O  -1.81100 2.15900 24.89700
C  -1.76100 0.79100 26.79600
N  -0.05200 7.42600 25.40100
C  -0.49800 6.39100 24.74300
C  -0.66000 6.63400 23.25800
C  -0.11300 8.05000 23.11100
C  0.13800 8.47600 24.63200
C  0.10100 5.53800 22.38300
C  -0.79400 9.17600 22.20900
C  -2.04800 9.70200 22.82900
N  0.80300 9.33100 27.43700
C  0.80400 10.16300 26.37900
C  1.36200 11.42600 26.79700
C  1.37000 11.36500 28.23600
C  1.08000 10.05400 28.59100
C  1.55700 12.61300 25.88900
C  1.66500 12.04800 29.50400
O  1.98600 13.24000 29.73600
C  1.33500 11.05300 30.65400
C  2.50400 10.98800 31.57700
O  3.68800 10.72500 31.24500
O  2.08000 11.42700 32.81000
C  3.05500 11.54000 33.89200
H  0.00400 4.44600 30.94500
H  -1.19400 4.40800 24.59300
H  0.40400 10.54100 24.35900
H  1.61700 8.45100 32.61300
H  0.13200 6.19200 32.54600
H  2.52200 6.62900 33.34000
H  3.12200 5.82900 31.90000
H  2.13200 5.00700 33.21200
H  -1.39700 7.72700 32.28400
H  -0.95500 9.31400 32.01900
H  -1.66200 8.31400 34.50200
H  -0.79000 9.93300 34.22900
H  -0.16600 1.16500 28.86300
H  -1.50200 1.86000 29.59200
H  -0.00000 2.24600 30.25400
H  -0.88500 0.27500 27.19000
H  -2.12700 0.04900 26.08700
H  -2.42300 0.86800 27.65800
H  -1.68800 6.60300 22.89800
H  0.88500 7.89400 22.70200
H  0.51800 6.00200 21.49000
H  -0.59500 4.79500 21.99300
H  0.89700 5.04300 22.93900
H  -0.94300 8.83500 21.18500
H  -0.17500 10.06600 22.09400
H  -1.92500 10.74700 23.11300
H  -2.39300 9.11700 23.68100
H  -2.86100 9.69400 22.10300
H  2.59000 12.96100 25.86600
H  0.91000 13.42000 26.23400
H  1.26000 12.37000 24.86900
H  0.46400 11.43500 31.18700
H  2.86100 10.91100 34.76100
H  3.06300 12.56900 34.25100
H  4.03700 11.27500 33.50100
Mg 8.28100 3.85300 27.72600
C  9.59400 2.41400 30.52400
C  6.01800 5.63900 29.81500
C  6.93100 5.31600 24.99000
C  10.02400 1.60000 25.65500
N  7.77000 3.91100 30.01400
C  8.61600 3.35400 30.91100
C  8.26600 3.95900 32.29300
C  6.99400 4.89400 32.04000
C  6.84600 4.75800 30.52000
C  5.63100 4.43100 32.76700
C  9.52900 4.47300 33.15300
C  9.12600 5.25800 34.37000
H  9.30100 4.73700 35.83300
N  6.72600 5.31300 27.41200
C  5.94000 5.86100 28.41300
C  5.05300 6.79400 27.79700
C  5.38200 6.84400 26.41400
C  6.41900 5.79900 26.22000
C  3.92900 7.51700 28.57700
C  4.84500 7.75300 25.31300
O  5.08200 7.48800 24.15900
C  4.04800 8.94000 25.76800
N  8.40700 3.45500 25.57400
C  7.71000 4.19300 24.68900
C  7.94200 3.64000 23.27600
C  8.99400 2.43800 23.49200
C  9.15800 2.45200 24.99200
C  6.73900 3.21000 22.42600
C  10.28300 2.54900 22.66400
C  10.55600 1.33000 21.80600
N  9.52100 2.27500 27.97500
C  10.23500 1.50000 27.07200
C  10.85600 0.44400 27.78600
C  10.80000 0.82500 29.13500
C  9.89200 1.90300 29.23000
C  11.49200 -0.81600 27.18600
C  11.29000 0.52100 30.49100
O  12.09100 -0.32200 30.90100
C  10.57900 1.59500 31.45700
C  9.97100 0.75400 32.43900
O  9.02000 0.01800 32.17000
O  10.54200 0.97700 33.63700
C  9.82300 0.35800 34.72600
H  5.58700 6.31100 30.56000
H  6.70000 5.94200 24.12500
H  10.53100 0.86000 25.03200
H  7.91500 3.13400 32.91200
H  7.14800 5.91800 32.37900
H  4.88000 4.03900 32.08100
H  5.07200 5.25500 33.21000
H  5.82400 3.68400 33.53700
H  10.20700 4.95600 32.44900
H  9.88400 3.52000 33.54700
H  8.08600 5.58000 34.39200
H  9.61500 6.23100 34.39700
H  3.80100 7.08200 29.56800
H  2.97200 7.49600 28.05500
H  4.19300 8.56500 28.72000
H  4.44200 9.42700 26.66000
H  3.11800 8.39900 25.94100
H  3.99600 9.61700 24.91500
H  8.44300 4.47300 22.78200
H  8.56800 1.44700 23.33600
H  5.90200 3.59100 23.01000
H  6.67000 2.19900 22.02500
H  6.79500 3.89200 21.57700
H  11.15400 2.53900 23.32000
H  10.31800 3.47500 22.09000
H  9.63200 0.91100 21.41000
H  11.19600 0.70500 22.42900
H  11.18300 1.57900 20.95000
H  11.82700 -0.65300 26.16200
H  10.80700 -1.66200 27.22900
H  12.41400 -1.04500 27.72200
H  11.22500 2.31000 31.96700
H  9.06000 -0.34000 34.38300
H  9.35500 1.06900 35.40700
H  10.62300 -0.21100 35.20000

