158

Mg 0.14600 7.70800 26.93400
C  0.59900 9.74500 29.73700
C  0.22000 4.92200 28.97000
C  0.10800 5.85900 24.15200
C  0.76600 10.52800 24.96300
N  0.20800 7.37200 29.03800
C  0.37400 8.35800 30.01500
C  0.34800 7.77300 31.40800
C  0.40900 6.20800 31.17900
C  0.29600 6.16600 29.60400
C  1.66300 5.51800 31.67000
C  -0.86600 8.17100 32.18100
C  -0.67400 8.49700 33.63100
H  0.56800 7.93700 34.31100
N  0.02600 5.62000 26.60100
C  0.03200 4.65900 27.58800
C  -0.10900 3.33900 26.92800
C  -0.04700 3.56500 25.49100
C  -0.04300 5.08500 25.33100
C  -0.24200 2.05300 27.77600
C  -0.02600 2.59700 24.34600
O  0.08700 2.94200 23.20500
C  -0.04700 1.09800 24.65900
N  0.18600 8.16800 24.89200
C  0.10300 7.22200 23.97300
C  0.42500 7.79400 22.60000
C  0.27000 9.33100 22.82300
C  0.40600 9.40100 24.31500
C  1.74000 7.49100 22.03500
C  -1.17700 9.84800 22.28700
C  -1.16200 10.06700 20.80700
N  0.56800 9.82300 27.23500
C  0.85500 10.80000 26.35200
C  1.16700 12.04700 26.98200
C  1.11900 11.67900 28.39100
C  0.69100 10.31200 28.44300
C  1.53600 13.38100 26.31800
C  1.42700 12.12700 29.80500
O  1.93100 13.16700 30.24300
C  0.89900 10.90400 30.72300
C  2.11800 10.54800 31.60800
O  3.15700 9.96900 31.22600
O  1.91300 11.03100 32.81000
C  3.00300 11.06600 33.72500
H  0.25900 4.05900 29.63900
H  0.03700 5.22100 23.26900
H  0.80800 11.40600 24.31500
H  1.22200 8.14500 31.94300
H  -0.44300 5.66700 31.59000
H  1.42900 4.65200 32.28900
H  2.19100 6.22600 32.30800
H  2.29700 5.20100 30.84200
H  -1.61900 7.38900 32.09200
H  -1.27000 9.09800 31.77200
H  -1.51100 8.09700 34.20300
H  -0.56200 9.56200 33.83500
H  -0.96000 2.14700 28.59000
H  0.76500 1.73100 28.04100
H  -0.72900 1.26400 27.20300
H  0.82800 1.04500 25.30600
H  0.15500 0.57800 23.72200
H  -1.01900 0.80400 25.05300
H  -0.30800 7.58000 21.82200
H  1.02700 9.97800 22.37900
H  2.43600 8.27700 22.32700
H  1.57500 7.43500 20.95900
H  2.16900 6.54900 22.37500
H  -1.41600 10.77600 22.80500
H  -1.94700 9.09800 22.47000
H  -0.23300 9.70200 20.36800
H  -1.23200 11.13100 20.58500
H  -1.96600 9.41600 20.46300
H  2.31100 13.39200 25.55200
H  1.84200 14.21800 26.94500
H  0.62600 13.67900 25.79700
H  0.03100 11.21000 31.30600
H  3.11600 12.13300 33.92000
H  3.96500 10.62700 33.46200
H  2.60000 10.72300 34.67800
Mg 10.12400 48.12100 26.07100
C  8.21600 48.16100 29.01900
C  12.57500 49.59400 27.63300
C  11.74900 48.32400 23.10100
C  7.27900 47.10300 24.30800
N  10.29000 48.84400 28.06600
C  9.53000 48.61900 29.15700
C  10.17200 49.08700 30.43100
C  11.32800 49.97500 29.82100
C  11.42600 49.46200 28.43500
C  11.06700 51.52200 29.82200
C  10.76000 47.92800 31.37900
C  10.85400 48.24300 32.90000
H  10.32200 47.25400 33.90500
N  11.97300 48.83900 25.44500
C  12.86500 49.42400 26.25300
C  14.14900 49.66800 25.59900
C  13.88900 49.20800 24.23000
C  12.48800 48.81200 24.17300
C  15.35800 50.10700 26.23500
C  14.90400 49.13400 23.08000
O  14.59600 48.58700 22.04000
C  16.29100 49.59800 23.24000
N  9.57700 47.86100 23.92800
C  10.46000 47.87700 22.91800
C  9.86400 47.28100 21.57700
C  8.43100 46.88400 22.07800
C  8.43700 47.26700 23.52100
C  9.96200 48.12000 20.27300
C  8.36900 45.34000 21.88300
C  9.18000 44.41600 22.80200
N  8.19300 47.73200 26.47300
C  7.13200 47.28000 25.69600
C  5.92600 47.10300 26.50200
C  6.34500 47.40300 27.80900
C  7.65900 47.73300 27.79700
C  4.56900 46.87300 26.07500
C  5.92700 47.37600 29.14000
O  4.83000 47.09400 29.68300
C  7.12800 47.73500 30.03600
C  7.39700 46.48900 30.88900
O  8.41900 45.79400 30.77800
O  6.45800 46.30200 31.82400
C  6.65900 45.12900 32.73800
H  13.32100 50.07600 28.26900
H  12.19200 48.44600 22.11100
H  6.39500 46.81900 23.73300
H  9.50100 49.59300 31.12500
H  12.21000 49.67700 30.38800
H  11.06900 51.85700 28.78500
H  11.86700 52.08300 30.30600
H  10.13500 51.91300 30.23200
H  11.81200 47.83800 31.10600
H  10.31700 46.96300 31.13200
H  10.38700 49.22500 32.96400
H  11.89000 48.38800 33.20800
H  15.18500 49.98300 27.30400
H  15.55000 51.16400 26.05400
H  16.19000 49.49100 25.89300
H  16.94800 49.61100 22.37100
H  16.68500 48.77800 23.84000
H  16.24100 50.61000 23.64200
H  10.44200 46.37700 21.38700
H  7.68000 47.42200 21.49900
H  8.97600 48.34700 19.86800
H  10.54300 47.51700 19.57500
H  10.43800 49.08600 20.44100
H  8.75800 45.18600 20.87600
H  7.33800 45.01800 22.03200
H  8.42600 43.76200 23.24000
H  9.83800 44.77300 23.59500
H  9.80700 43.76900 22.18800
H  4.03200 47.80900 25.91900
H  3.99800 46.19800 26.71200
H  4.65700 46.30600 25.14800
H  7.05900 48.61200 30.67900
H  5.92400 44.36900 32.47000
H  6.34400 45.49100 33.71600
H  7.68400 44.76000 32.72200

