158

Mg -1.62300 17.76900 25.99600
C  -1.74200 15.54000 28.87200
C  -2.55800 20.21900 27.97100
C  -1.65400 19.64100 23.29200
C  -1.46900 14.78000 23.96500
N  -2.25000 17.75500 28.13300
C  -2.05300 16.84600 29.17500
C  -2.58400 17.39700 30.52400
C  -2.93100 18.85400 30.07800
C  -2.58000 18.97000 28.61200
C  -4.25600 19.44300 30.59400
C  -1.57000 17.07600 31.66400
C  -1.36200 18.13400 32.65800
H  -0.79300 17.63200 33.98600
N  -1.77800 19.68800 25.75900
C  -2.25100 20.58700 26.68300
C  -2.21500 21.97000 26.09900
C  -1.70500 21.79800 24.79500
C  -1.62800 20.33500 24.58000
C  -2.70800 23.08000 26.82200
C  -1.34100 22.83300 23.71800
O  -1.11500 22.45800 22.57300
C  -1.15300 24.25000 24.17200
N  -1.82900 17.32800 23.96100
C  -1.72400 18.30900 22.99000
C  -2.05600 17.80800 21.57700
C  -1.58600 16.33400 21.80800
C  -1.61200 16.12100 23.32700
C  -3.53800 18.04400 21.18200
C  -0.19900 15.94600 21.12500
C  1.03700 16.32000 21.91800
N  -1.34800 15.58700 26.32600
C  -1.42000 14.55200 25.39700
C  -1.45400 13.24600 26.06900
C  -1.50300 13.59200 27.44900
C  -1.50700 15.05800 27.54200
C  -1.57000 11.91100 25.50900
C  -1.60100 13.00900 28.79200
O  -1.73600 11.83900 29.13400
C  -1.68100 14.25300 29.81800
C  -0.51300 14.13400 30.64900
O  0.63200 14.57100 30.40200
O  -0.94000 13.61800 31.84100
C  0.02000 13.36200 32.92300
H  -2.73800 21.00000 28.71300
H  -1.58700 20.22600 22.37300
H  -1.58200 13.85800 23.39000
H  -3.54200 16.89000 30.63700
H  -2.15700 19.49200 30.50400
H  -4.81600 18.63500 31.06500
H  -4.78800 20.00100 29.82300
H  -4.01500 20.15500 31.38400
H  -0.61000 16.96200 31.16100
H  -1.75700 16.12600 32.16500
H  -2.23400 18.76900 32.81700
H  -0.65300 18.87500 32.29100
H  -3.48700 22.94500 27.57100
H  -3.06900 23.85400 26.14500
H  -1.83400 23.43900 27.36600
H  -0.30500 24.21900 24.85600
H  -2.07800 24.63500 24.60200
H  -0.95000 24.73700 23.21800
H  -1.36500 18.23800 20.85100
H  -2.40200 15.69400 21.47300
H  -4.12000 17.97900 22.10200
H  -3.91300 17.28800 20.49200
H  -3.80100 19.03100 20.79900
H  -0.08300 16.64600 20.29700
H  -0.19000 14.95300 20.67700
H  0.80500 17.01400 22.72600
H  1.79900 16.90300 21.40000
H  1.44000 15.37800 22.29000
H  -1.03800 11.89500 24.55800
H  -2.59100 11.55200 25.38100
H  -1.02700 11.22800 26.16300
H  -2.50600 14.15300 30.52300
H  1.05100 13.47700 32.58800
H  -0.16100 12.33600 33.24600
H  -0.09600 13.96700 33.82200
Mg 6.67100 54.97500 40.56300
C  5.88700 51.52700 40.39000
C  9.96600 54.19000 40.07800
C  7.33900 58.29800 40.40000
C  3.26100 55.69800 40.67500
N  7.76600 53.02300 40.07200
C  7.22700 51.73200 40.11700
C  8.41800 50.63300 40.11700
C  9.67900 51.58300 40.33100
C  9.14900 52.99400 40.16400
C  10.50800 51.35800 41.56400
C  8.44400 49.75300 38.79700
C  8.32200 50.47700 37.43700
H  7.02100 50.81000 36.82900
N  8.42600 56.08200 40.30100
C  9.66400 55.54700 40.10200
C  10.63100 56.57700 39.86700
C  9.92800 57.76900 40.05700
C  8.48100 57.41800 40.29800
C  12.06400 56.44100 39.55100
C  10.51600 59.15800 40.02000
O  11.73400 59.29900 39.85500
C  9.77800 60.37000 40.50100
N  5.51400 56.72200 40.31900
C  6.01700 58.00500 40.45500
C  4.95100 59.09600 40.54000
C  3.65200 58.18200 40.47900
C  4.12800 56.76400 40.49000
C  5.07000 60.07400 41.72000
C  2.65500 58.59400 39.39500
C  1.94700 59.93600 39.52000
N  4.88200 53.92100 40.58500
C  3.56500 54.36300 40.68900
C  2.74300 53.27200 40.95500
C  3.55200 52.14700 40.82900
C  4.88700 52.57000 40.57100
C  1.26800 53.26900 41.28000
C  3.58300 50.72900 40.89900
O  2.72400 49.89700 41.23300
C  5.13700 50.29700 40.69900
C  5.06600 49.27600 39.60200
O  4.74300 49.45700 38.44300
O  5.27300 48.03000 40.18500
C  5.11600 46.90300 39.18800
H  10.99300 53.85400 39.92100
H  7.54700 59.36700 40.31500
H  2.19800 55.89700 40.82400
H  8.21700 50.01400 40.99100
H  10.29600 51.38600 39.45400
H  10.36500 52.23900 42.19100
H  11.53400 51.22800 41.22000
H  10.12900 50.60300 42.25300
H  7.70100 48.95800 38.87600
H  9.40800 49.25600 38.68700
H  8.93400 49.88500 36.75600
H  8.77600 51.44900 37.63100
H  12.37300 55.43300 39.27400
H  12.58800 56.76100 40.45100
H  12.31300 57.13400 38.74700
H  9.19600 60.87100 39.72800
H  10.59600 61.05500 40.72500
H  9.26900 60.27500 41.46000
H  4.93500 59.67900 39.61900
H  3.12400 58.32800 41.42200
H  5.96100 60.01600 42.34500
H  4.21100 59.80900 42.33700
H  4.89500 61.04600 41.25900
H  1.88400 57.82300 39.40200
H  3.19200 58.49600 38.45200
H  2.25100 60.53300 38.66000
H  2.35100 60.34600 40.44500
H  0.89700 59.85100 39.80100
H  0.88800 52.25500 41.40700
H  0.67800 53.75700 40.50400
H  1.08600 53.78200 42.22400
H  5.53300 49.82200 41.59600
H  5.70500 47.07000 38.28600
H  4.06600 46.79500 38.91600
H  5.45700 45.99400 39.68300

