158

Mg 8.98900 2.62000 26.92800
C  10.52000 1.00700 29.70400
C  7.07500 4.49800 29.23700
C  7.68000 4.22900 24.38900
C  10.59900 0.44300 24.81800
N  8.79500 2.66600 29.25800
C  9.60600 1.99000 30.12600
C  9.23000 2.33400 31.58000
C  8.13300 3.55000 31.42100
C  7.86900 3.53600 29.89500
C  6.84600 3.41800 32.26400
C  10.46100 2.76200 32.42500
C  10.32900 3.79200 33.55300
H  11.33800 3.65100 34.70900
N  7.61100 4.20000 26.83200
C  7.04800 4.80800 27.86600
C  6.43500 6.03500 27.36600
C  6.51200 6.04900 25.93900
C  7.23100 4.78700 25.64000
C  5.70200 6.95800 28.36800
C  5.93400 6.96900 24.84800
O  6.12800 6.75300 23.66800
C  5.20300 8.21400 25.21900
N  9.01100 2.26600 24.88400
C  8.35700 3.05100 24.01200
C  8.58800 2.60000 22.53100
C  9.75500 1.58200 22.74900
C  9.71800 1.31000 24.22200
C  7.36700 2.05600 21.77600
C  11.18400 1.98600 22.24300
C  11.28600 2.11300 20.65900
N  10.21400 0.94000 27.19900
C  10.77400 0.13900 26.19000
C  11.65700 -0.72800 26.81800
C  11.56700 -0.43800 28.22500
C  10.66200 0.61500 28.38900
C  12.45500 -1.67200 26.13000
C  12.00000 -0.85800 29.57600
O  12.77800 -1.73900 29.88900
C  11.45000 0.14300 30.50400
C  10.77700 -0.64700 31.56400
O  9.71200 -1.25800 31.46900
O  11.64700 -0.63800 32.68800
C  11.00200 -0.94400 33.98300
H  6.53500 5.14200 29.93500
H  7.40500 4.88300 23.55900
H  11.07700 -0.24400 24.11600
H  8.77200 1.45400 32.03000
H  8.57100 4.51200 31.68700
H  6.88000 2.52700 32.88900
H  5.96800 3.47700 31.62000
H  6.74000 4.33300 32.84800
H  11.27400 2.93100 31.71900
H  10.77500 1.82100 32.87600
H  9.31700 3.79800 33.95700
H  10.70500 4.77200 33.25700
H  6.34300 7.29400 29.18300
H  4.77800 6.57900 28.80600
H  5.63100 7.89800 27.82100
H  4.96500 8.67800 24.26200
H  5.94600 8.78100 25.78000
H  4.31200 7.97700 25.80200
H  8.98400 3.45900 21.98900
H  9.58900 0.66600 22.18100
H  6.57000 2.02700 22.51900
H  7.63400 1.16200 21.21400
H  7.09300 2.74800 20.98000
H  11.92700 1.26300 22.57800
H  11.45200 2.96500 22.63900
H  10.37700 1.97800 20.07300
H  11.90500 1.28300 20.31600
H  11.74900 3.03700 20.31300
H  13.34200 -2.01900 26.66000
H  12.77600 -1.35700 25.13700
H  11.94100 -2.61600 25.94900
H  12.22900 0.76100 30.95000
H  10.59400 -1.94700 33.85900
H  10.15000 -0.28700 34.15800
H  11.85700 -0.78000 34.63900
Mg -10.92900 16.44500 42.94100
C  -7.46500 17.40000 42.88400
C  -11.65000 19.90100 42.45100
C  -14.03500 15.64000 42.69000
C  -9.86700 13.16600 42.66700
N  -9.65600 18.48600 42.56700
C  -8.27600 18.56000 42.73800
C  -7.86300 20.01000 42.49300
C  -9.17200 20.80800 42.59000
C  -10.24500 19.73700 42.45100
C  -9.25000 21.53800 43.99100
C  -7.00200 20.18400 41.20200
C  -5.56700 20.68700 41.22400
H  -4.64400 20.06300 40.20100
N  -12.61500 17.54800 42.75200
C  -12.72900 18.96000 42.57600
C  -14.10300 19.32300 42.39400
C  -14.84400 18.13400 42.69100
C  -13.85400 17.03700 42.78200
C  -14.66900 20.72700 42.05400
C  -16.38900 18.03800 42.70500
O  -17.07600 18.97600 42.31100
C  -17.01400 16.80200 43.33700
N  -11.83200 14.65200 42.69600
C  -13.17200 14.55200 42.66000
C  -13.62500 13.09000 42.91600
C  -12.27600 12.32500 42.57100
C  -11.21300 13.40900 42.64100
C  -14.35500 12.92700 44.29500
C  -12.38300 11.58400 41.13400
C  -12.86700 10.11500 41.08300
N  -9.09800 15.49500 42.74400
C  -8.84400 14.16100 42.74700
C  -7.41400 13.89300 42.83300
C  -6.82600 15.15500 42.97500
C  -7.91200 16.09300 42.87300
C  -6.84000 12.51200 42.74900
C  -5.56600 15.79400 43.14300
O  -4.38000 15.40100 43.29500
C  -5.94300 17.30400 43.25100
C  -5.69200 17.64000 44.63500
O  -5.94400 16.96100 45.61000
O  -5.12600 18.85600 44.64100
C  -4.88500 19.48200 46.01100
H  -11.93000 20.92300 42.18700
H  -15.04400 15.22200 42.67800
H  -9.62800 12.10700 42.79000
H  -7.20900 20.14000 43.35500
H  -9.27900 21.60100 41.84900
H  -8.31200 21.74900 44.50600
H  -9.76500 20.92200 44.72800
H  -9.90400 22.40400 43.88800
H  -7.57100 20.87100 40.57600
H  -7.04400 19.21400 40.70600
H  -5.05400 20.45100 42.15700
H  -5.50500 21.77300 41.15800
H  -14.83200 20.84800 40.98300
H  -13.98000 21.54000 42.28100
H  -15.56900 21.09500 42.54600
H  -18.03600 17.00200 43.66000
H  -16.35400 16.38100 44.09500
H  -17.03600 16.10000 42.50300
H  -14.42300 12.99000 42.18000
H  -12.02700 11.59800 43.34300
H  -14.36200 13.91800 44.74900
H  -13.83700 12.25300 44.97700
H  -15.41200 12.67000 44.23400
H  -11.59100 11.88300 40.44800
H  -13.27800 12.00100 40.67300
H  -12.13900 9.36900 40.76500
H  -13.76100 10.14400 40.46000
H  -13.27200 9.93400 42.07800
H  -7.54000 11.77600 42.35400
H  -6.61200 12.05200 43.71000
H  -5.88900 12.44300 42.22100
H  -5.32600 17.90500 42.58400
H  -3.99600 20.04800 45.73400
H  -4.57000 18.71700 46.72000
H  -5.71500 20.10800 46.34100

