158

Mg -1.87300 17.37900 27.23500
C  -2.45100 15.36000 30.08000
C  -2.71900 20.12600 29.24300
C  -1.97600 19.19100 24.34300
C  -1.73100 14.35700 25.30600
N  -2.36700 17.67800 29.42900
C  -2.58700 16.73100 30.38200
C  -2.95700 17.35000 31.76200
C  -3.29200 18.83400 31.39200
C  -2.75300 18.89600 29.96800
C  -4.78600 19.15200 31.59500
C  -1.83600 17.16500 32.81600
C  -2.47600 16.62000 34.17100
H  -1.63000 17.02900 35.36800
N  -2.19700 19.34300 26.87600
C  -2.36900 20.34600 27.81600
C  -2.49000 21.61400 27.11300
C  -2.18900 21.36500 25.71600
C  -2.13000 19.92900 25.60800
C  -2.71200 22.92800 27.80700
C  -1.94300 22.44500 24.56600
O  -1.73800 22.11100 23.42100
C  -2.03000 23.99300 24.81900
N  -1.72900 16.87800 25.15000
C  -1.90500 17.78100 24.18200
C  -1.83300 17.13000 22.80900
C  -1.51600 15.67100 23.14500
C  -1.63400 15.59900 24.65500
C  -3.07300 17.32700 21.90400
C  -0.11400 15.21400 22.76000
C  1.15600 16.01000 23.29100
N  -1.91300 15.33000 27.59300
C  -1.94000 14.21800 26.71200
C  -2.13600 13.00500 27.44500
C  -2.38300 13.45100 28.75500
C  -2.20100 14.86500 28.82700
C  -2.10100 11.64800 26.77400
C  -2.66400 12.95500 30.03200
O  -2.93000 11.84800 30.47900
C  -2.63200 14.17300 30.97600
C  -1.58500 13.90300 32.02700
O  -0.42500 14.01800 31.83300
O  -2.17800 13.35100 33.14700
C  -1.21500 12.99000 34.14400
H  -3.06600 21.01400 29.77500
H  -2.09200 19.56900 23.32500
H  -1.76100 13.46800 24.67300
H  -3.86100 16.86100 32.12600
H  -2.66100 19.50000 31.98000
H  -4.71600 20.12500 32.08300
H  -5.18200 18.41400 32.29300
H  -5.37600 19.14000 30.67900
H  -1.38800 18.12600 33.07000
H  -1.04100 16.56500 32.37500
H  -2.34000 15.53900 34.14500
H  -3.53200 16.85700 34.30100
H  -1.95800 23.66500 27.53000
H  -2.81300 22.84600 28.88900
H  -3.63400 23.38900 27.45200
H  -1.89100 24.62300 23.94000
H  -1.30700 24.33800 25.55900
H  -3.00900 24.35300 25.13500
H  -0.96000 17.60800 22.36300
H  -2.25000 15.01300 22.68000
H  -3.56300 18.26900 22.14800
H  -3.85800 16.58400 22.04800
H  -2.84500 17.44100 20.84400
H  -0.09900 15.15800 21.67200
H  -0.10300 14.21400 23.19300
H  0.89600 16.93900 23.79900
H  1.88300 16.25100 22.51500
H  1.81700 15.47200 23.97000
H  -1.11700 11.42300 26.36300
H  -2.78300 11.67700 25.92500
H  -2.56600 10.99500 27.51300
H  -3.62000 14.28000 31.42300
H  -0.57000 13.84400 34.35400
H  -0.55500 12.16400 33.88100
H  -1.67600 12.71000 35.09100
Mg 7.88200 3.45100 27.25700
C  9.34300 1.85200 30.02600
C  6.10100 5.45200 29.37300
C  6.68400 5.02600 24.46300
C  9.06000 0.80200 25.18600
N  7.81100 3.65300 29.46300
C  8.63200 3.02500 30.39500
C  8.44700 3.55300 31.89200
C  7.37300 4.73000 31.62100
C  7.09100 4.66900 30.04800
C  6.10000 4.42200 32.44300
C  9.78200 3.89800 32.54000
C  9.74400 4.83400 33.72500
H  10.56600 4.57400 34.96600
N  6.55600 5.03800 26.98300
C  5.98100 5.72300 27.97100
C  5.18300 6.78200 27.39400
C  5.57500 6.82200 25.97000
C  6.29000 5.58400 25.73200
C  4.35600 7.77400 28.12300
C  5.29600 7.85300 24.93000
O  5.76200 7.78500 23.79400
C  4.67400 9.14500 25.35800
N  7.95500 3.07700 25.13800
C  7.36200 3.82700 24.20800
C  7.39500 3.26900 22.81500
C  7.96600 1.89200 23.03800
C  8.39300 1.93100 24.52700
C  5.93900 3.21500 22.15600
C  9.19800 1.48700 22.13300
C  8.97900 0.16700 21.39600
N  8.94400 1.67300 27.51600
C  9.36200 0.74800 26.59000
C  10.15900 -0.19800 27.31300
C  10.19400 0.12800 28.63000
C  9.45100 1.33500 28.71200
C  10.93000 -1.29600 26.70600
C  10.73500 -0.16700 29.91100
O  11.37300 -1.15400 30.30700
C  10.23800 0.99500 30.84700
C  9.55100 0.29300 31.93300
O  8.50600 -0.33700 31.94000
O  10.39800 0.41400 33.02900
C  9.85600 -0.05900 34.28200
H  5.45200 6.07100 29.99600
H  6.19300 5.50200 23.61100
H  9.27200 -0.07500 24.57200
H  8.04800 2.73700 32.49500
H  7.79100 5.67000 31.98300
H  6.08800 3.43800 32.91300
H  5.22500 4.42400 31.79300
H  5.97100 5.27600 33.10800
H  10.40400 4.37300 31.78000
H  10.18100 2.95400 32.91000
H  8.73500 5.10100 34.04100
H  10.07400 5.75200 33.23900
H  4.10200 7.45400 29.13300
H  3.39500 8.00100 27.66100
H  4.85800 8.74000 28.17100
H  3.71700 9.03000 25.86800
H  4.51600 9.64000 24.40000
H  5.42000 9.69600 25.93200
H  7.95500 3.96500 22.19000
H  7.17300 1.14500 22.99100
H  5.70900 2.23300 21.74200
H  5.78800 4.05800 21.48200
H  5.27100 3.39600 22.99700
H  10.13600 1.49400 22.68900
H  9.22300 2.24700 21.35100
H  8.21500 -0.47400 21.83600
H  9.88700 -0.40100 21.59900
H  8.88700 0.38400 20.33200
H  11.85900 -1.43400 27.25900
H  11.19500 -1.19300 25.65300
H  10.31200 -2.18000 26.86300
H  11.12000 1.55400 31.16000
H  9.70900 0.84000 34.88000
H  10.53500 -0.67900 34.86700
H  8.90400 -0.58900 34.29600

