158

Mg 25.89700 1.37300 29.14000
C  27.72400 1.06900 32.12100
C  23.06900 1.83700 31.02300
C  23.99100 1.45600 26.24900
C  28.69000 0.68900 27.27900
N  25.39500 1.05200 31.37800
C  26.32400 1.19500 32.42100
C  25.68000 1.59800 33.74800
C  24.20500 1.78800 33.30500
C  24.17100 1.53300 31.84900
C  23.12400 0.91300 34.06700
C  26.30800 2.86500 34.43600
C  26.91400 2.59900 35.83000
H  26.42000 3.49000 36.92200
N  23.88500 1.63900 28.70700
C  22.86300 1.76500 29.65100
C  21.58100 1.91200 29.00500
C  21.80900 1.78800 27.59700
C  23.30100 1.63800 27.50100
C  20.32300 2.16300 29.80800
C  20.76300 1.83700 26.51300
O  21.08500 1.80300 25.30300
C  19.31400 2.08100 26.83100
N  26.32100 1.11000 27.15000
C  25.37000 1.19300 26.15300
C  25.92800 0.94000 24.71900
C  27.42500 0.77300 25.04500
C  27.51700 0.84200 26.58200
C  25.34500 -0.24600 24.00300
C  28.39800 1.80000 24.35500
C  29.01600 1.24900 23.05500
N  27.84200 0.94300 29.49700
C  28.88700 0.71900 28.65300
C  30.03500 0.36800 29.43600
C  29.62100 0.55300 30.77100
C  28.27200 0.87000 30.80400
C  31.40200 -0.17900 28.94400
C  30.11900 0.54600 32.15500
O  31.25300 0.45100 32.66100
C  28.90700 0.94000 33.09600
C  28.77100 -0.11000 34.12600
O  28.38300 -1.24400 33.92300
O  29.12000 0.35700 35.39100
C  29.20100 -0.49700 36.55800
H  22.25500 2.30300 31.58300
H  23.32500 1.60600 25.39800
H  29.59000 0.33600 26.77000
H  25.80500 0.72700 34.39200
H  23.96500 2.83300 33.49900
H  22.45400 0.38800 33.38600
H  22.55000 1.48700 34.79400
H  23.55200 0.11100 34.66800
H  25.61600 3.70700 34.42200
H  27.18500 3.23400 33.90500
H  27.97600 2.82900 35.91600
H  26.81100 1.58400 36.21400
H  19.82100 1.26600 30.17000
H  19.55800 2.69500 29.24200
H  20.58300 2.83500 30.62600
H  18.68800 1.94700 25.95000
H  19.17900 3.14900 27.00200
H  18.91200 1.47600 27.64400
H  25.59100 1.73100 24.05000
H  27.74800 -0.22200 24.74000
H  25.64500 -0.40200 22.96600
H  24.26500 -0.13800 24.10600
H  25.71700 -1.11200 24.55000
H  29.22100 1.99400 25.04300
H  27.89900 2.75200 24.17500
H  28.82900 1.84000 22.15800
H  28.49400 0.32800 22.80100
H  30.05800 0.93500 23.11800
H  31.11400 -0.94100 28.22000
H  31.94000 -0.72100 29.72100
H  32.02900 0.55300 28.43500
H  29.15600 1.86000 33.62400
H  28.38100 -0.17800 37.20200
H  30.12500 -0.34000 37.11400
H  29.20300 -1.57100 36.37000
Mg 36.54200 49.06900 26.30800
C  36.38000 46.98500 29.22000
C  35.61900 51.64000 28.29200
C  35.89000 50.76000 23.48900
C  36.91000 46.09500 24.39000
N  36.17500 49.22800 28.44000
C  36.27800 48.33700 29.44800
C  36.18900 48.94700 30.84700
C  35.53100 50.34800 30.56600
C  35.75100 50.44000 28.94000
C  33.97400 50.47500 30.85900
C  37.47100 49.12300 31.65600
C  37.36400 48.72500 33.13100
H  37.21600 49.83100 34.13600
N  36.04800 51.01100 25.95600
C  35.70500 51.94900 26.90900
C  35.63100 53.28600 26.24700
C  35.70200 53.06200 24.82000
C  35.88900 51.55400 24.69600
C  35.45300 54.57200 26.96700
C  35.53700 54.00300 23.63800
O  35.74500 53.64300 22.46500
C  35.22600 55.40200 23.94500
N  36.35900 48.58200 24.23500
C  36.17300 49.43600 23.25500
C  36.26900 48.84600 21.85600
C  36.87900 47.38000 22.17700
C  36.73100 47.34500 23.69900
C  34.80400 48.79800 21.11000
C  38.37300 47.13500 21.70800
C  38.62500 45.86600 20.94200
N  36.61700 46.98600 26.65100
C  36.79100 45.93100 25.78200
C  36.83000 44.67900 26.53700
C  36.63100 45.04400 27.87000
C  36.53700 46.44500 27.92300
C  37.01800 43.26800 25.96300
C  36.41700 44.51100 29.22000
O  36.35200 43.37000 29.66500
C  36.43400 45.80100 30.10900
C  35.19300 45.74800 30.94700
O  34.07000 45.72700 30.56200
O  35.61400 45.80600 32.31400
C  34.52400 45.95200 33.29500
H  35.28100 52.52100 28.84200
H  35.54200 51.38900 22.66600
H  37.10000 45.21500 23.77200
H  35.45200 48.39500 31.43000
H  36.08600 51.17300 31.01200
H  33.48900 49.50400 30.96200
H  33.53600 51.11000 30.08900
H  33.76600 51.04800 31.76300
H  37.83100 50.15100 31.63500
H  38.23700 48.49900 31.19600
H  38.18300 48.05000 33.38200
H  36.49400 48.07100 33.18500
H  34.52500 54.91100 26.50800
H  36.22500 55.32700 26.82000
H  35.37900 54.44600 28.04700
H  35.17100 55.90400 22.97900
H  35.99600 55.89100 24.54200
H  34.29800 55.36300 24.51600
H  36.92400 49.51600 21.29900
H  36.26000 46.57300 21.78600
H  34.05600 49.16800 21.81100
H  34.44900 47.80900 20.81900
H  34.80500 49.45800 20.24300
H  39.00600 47.16400 22.59500
H  38.65200 48.02800 21.14800
H  37.80900 45.15300 21.05500
H  39.55300 45.41600 21.29500
H  38.71300 46.15300 19.89400
H  38.09000 43.23100 25.77100
H  36.45400 43.14800 25.03800
H  36.63600 42.45900 26.58500
H  37.42000 45.80400 30.57400
H  33.57000 45.90700 32.77000
H  34.70600 46.77000 33.99200
H  34.61700 45.04100 33.88600

