158

Mg 25.58300 -6.84200 47.51900
C  26.98200 -4.08900 45.55100
C  22.79300 -6.66700 45.51100
C  24.72700 -9.67800 48.95400
C  28.88800 -7.14200 48.94100
N  25.03700 -5.65700 45.59500
C  25.69000 -4.55900 45.08000
C  24.82400 -3.86000 44.00400
C  23.42700 -4.57500 44.15500
C  23.78100 -5.75600 45.12500
C  22.30900 -3.52500 44.61500
C  25.40500 -3.84500 42.53500
C  25.87600 -2.53300 41.99100
H  25.07000 -2.07100 40.72900
N  24.00100 -8.01600 47.30700
C  22.93700 -7.78600 46.41700
C  21.98600 -8.86400 46.67200
C  22.51800 -9.77400 47.60100
C  23.81300 -9.20000 48.00500
C  20.73800 -8.89900 45.87000
C  21.90600 -11.09700 48.03800
O  20.84000 -11.44200 47.65100
C  22.66100 -12.08300 48.85200
N  26.69300 -8.28300 48.65400
C  26.02200 -9.34500 49.25100
C  26.81500 -10.04900 50.32000
C  28.19300 -9.32600 50.19400
C  27.93800 -8.20900 49.20000
C  26.17700 -10.12600 51.75800
C  29.45100 -10.11600 49.69100
C  30.75900 -9.71900 50.23100
N  27.47900 -5.80300 47.39800
C  28.66200 -6.02800 48.13100
C  29.53100 -4.92700 47.87200
C  28.98300 -4.24400 46.83100
C  27.69800 -4.70800 46.58400
C  30.83800 -4.63100 48.53300
C  29.15200 -3.14300 45.93200
O  30.13900 -2.39400 45.79200
C  27.83300 -2.92300 45.18700
C  27.08700 -1.65100 45.44600
O  27.16000 -0.72900 44.68100
O  26.47400 -1.53800 46.66700
C  25.61400 -0.41100 46.97200
H  21.93500 -6.58000 44.84100
H  24.32300 -10.55700 49.46100
H  29.84200 -7.09500 49.47100
H  24.79700 -2.86300 44.44400
H  23.22800 -4.96300 43.15600
H  21.37500 -3.70400 44.08300
H  22.68200 -2.51900 44.42700
H  22.07900 -3.58600 45.67900
H  24.67800 -4.27100 41.84400
H  26.18700 -4.59800 42.43200
H  26.93700 -2.60000 41.75000
H  25.77800 -1.80600 42.79700
H  20.90400 -9.46200 44.95100
H  20.45800 -7.87200 45.63800
H  19.86800 -9.33300 46.36500
H  23.62200 -12.25600 48.36800
H  22.16900 -13.04000 48.67700
H  22.64100 -11.96100 49.93500
H  26.88100 -11.08500 49.98900
H  28.52100 -8.82700 51.10600
H  25.30600 -9.48400 51.88700
H  26.90000 -9.77900 52.49600
H  25.93600 -11.16300 51.99200
H  29.33300 -10.03500 48.61100
H  29.29800 -11.17500 49.89800
H  31.41200 -9.34700 49.44300
H  31.20500 -10.51800 50.82400
H  30.51100 -9.02200 51.03200
H  30.92900 -3.58600 48.82900
H  31.64300 -4.75300 47.80900
H  31.09300 -5.23500 49.40400
H  28.04400 -3.03500 44.12300
H  24.65100 -0.74800 47.35400
H  25.39900 0.21100 46.10300
H  26.04800 0.29000 47.68600
Mg 35.65800 48.74300 24.53400
C  35.80200 46.92100 27.60000
C  34.68000 51.54400 26.16700
C  35.01300 50.01100 21.61700
C  36.82000 45.74900 23.07900
N  35.24000 49.18500 26.66400
C  35.41100 48.32200 27.71200
C  35.08200 49.03700 29.03000
C  34.53800 50.45800 28.51000
C  34.84600 50.45800 27.03100
C  33.06000 50.71400 28.85500
C  36.40000 49.05900 29.90900
C  36.27000 48.81300 31.39000
H  34.86200 48.83100 32.03000
N  35.03400 50.53800 23.92800
C  34.66800 51.60900 24.74800
C  34.49400 52.80800 23.84800
C  34.39300 52.33500 22.51600
C  34.84900 50.93800 22.64300
C  34.28200 54.13300 24.42100
C  33.95700 53.02600 21.29100
O  33.99900 52.47100 20.21600
C  33.55900 54.50000 21.29900
N  35.83700 47.98300 22.64800
C  35.58200 48.75100 21.58000
C  35.65400 47.94100 20.30200
C  36.60900 46.78600 20.75700
C  36.36400 46.75600 22.32300
C  34.40000 47.36400 19.64300
C  38.00200 47.04600 20.27500
C  38.80600 45.81800 19.74300
N  36.06600 46.62500 25.11900
C  36.70400 45.61100 24.48900
C  36.89900 44.45000 25.28800
C  36.47500 44.89300 26.54700
C  36.09000 46.27000 26.41000
C  37.46100 43.10900 25.00700
C  36.48200 44.57400 28.00200
O  36.82900 43.55000 28.60200
C  35.99600 45.84400 28.66500
C  34.72400 45.53400 29.37600
O  33.56100 45.36200 28.87800
O  35.09500 45.42800 30.71400
C  33.98800 44.98900 31.51100
H  34.40200 52.43100 26.74000
H  34.87100 50.35200 20.59000
H  37.35300 44.92400 22.60100
H  34.24000 48.54600 29.52000
H  35.11500 51.28600 28.92300
H  32.64300 49.95800 29.52000
H  32.44200 50.79700 27.96100
H  32.84900 51.68600 29.30200
H  36.79300 50.07600 29.88100
H  37.08400 48.28700 29.55800
H  36.82900 49.55600 31.96000
H  36.69300 47.83300 31.61000
H  33.23700 54.39600 24.58700
H  34.70000 54.95000 23.83200
H  34.69200 54.13100 25.43100
H  34.46500 55.00500 21.63600
H  32.72000 54.55200 21.99300
H  33.23100 54.76300 20.29400
H  36.07600 48.58200 19.52800
H  36.18600 45.84700 20.40000
H  34.57400 46.35500 19.27000
H  34.29100 48.03000 18.78700
H  33.46800 47.39700 20.20700
H  38.59000 47.41900 21.11400
H  37.92600 47.73600 19.43400
H  39.04800 45.84700 18.68000
H  38.31900 44.86800 19.96200
H  39.68500 45.83400 20.38800
H  36.76900 42.55200 24.37500
H  37.53000 42.54600 25.93800
H  38.43100 43.13400 24.51000
H  36.88500 46.05300 29.25900
H  33.70700 44.01300 31.11500
H  33.22700 45.73500 31.28100
H  34.20200 45.05700 32.57800

