158

Mg 17.47600 -1.36600 27.56500
C  16.35700 0.77900 30.00400
C  19.54000 -2.90200 30.03500
C  18.57300 -3.55500 25.16400
C  15.59800 0.31100 25.24400
N  17.93500 -0.98400 29.70600
C  17.27100 -0.23000 30.54300
C  17.52700 -0.45400 32.01200
C  18.63500 -1.59100 31.96000
C  18.76700 -1.85200 30.46400
C  19.93300 -1.29300 32.64100
C  16.25300 -0.77400 32.93900
C  16.02800 0.15600 34.21400
H  17.22100 0.55200 34.93400
N  18.92900 -2.89300 27.58200
C  19.63000 -3.39600 28.68500
C  20.45800 -4.47700 28.25500
C  20.21200 -4.69900 26.83500
C  19.21700 -3.65700 26.46200
C  21.53500 -5.03700 29.13300
C  20.86300 -5.57100 25.82500
O  20.71300 -5.41100 24.64300
C  21.84200 -6.65500 26.20400
N  17.25300 -1.53500 25.47100
C  17.77300 -2.50700 24.76200
C  17.01900 -2.53600 23.32500
C  15.90200 -1.45100 23.55000
C  16.28500 -0.81900 24.82300
C  18.02300 -2.36100 22.16300
C  14.42500 -1.94000 23.46700
C  13.60300 -1.12600 22.47300
N  16.30700 0.30300 27.56000
C  15.54200 0.88700 26.53800
C  14.73700 1.92300 27.07900
C  15.00900 1.93800 28.41500
C  15.98500 0.93800 28.66200
C  13.87200 2.83800 26.25000
C  14.75500 2.67000 29.64400
O  13.91300 3.59900 29.82000
C  15.51500 1.91600 30.70900
C  16.43800 2.84600 31.38600
O  17.54800 3.02700 30.98800
O  15.78200 3.48500 32.46300
C  16.60300 4.63100 32.93800
H  20.15700 -3.49200 30.71600
H  18.58700 -4.47400 24.57400
H  14.85400 0.72900 24.56200
H  17.99400 0.41100 32.48300
H  18.19900 -2.52100 32.32600
H  20.69700 -1.30500 31.86400
H  20.07500 -2.04100 33.42000
H  19.97300 -0.28100 33.04300
H  16.16300 -1.81200 33.25900
H  15.41100 -0.51100 32.29900
H  15.44200 -0.36200 34.97300
H  15.48400 1.07300 33.98800
H  20.86700 -5.68800 29.69800
H  22.05500 -4.42700 29.87100
H  22.33000 -5.48000 28.53300
H  21.97000 -7.38000 25.40000
H  21.31600 -7.16000 27.01500
H  22.77900 -6.32400 26.65000
H  16.59100 -3.52700 23.16800
H  16.05900 -0.67800 22.79800
H  18.34300 -3.34400 21.81700
H  18.92900 -1.78000 22.33500
H  17.33200 -1.96600 21.41800
H  14.01900 -1.93700 24.47800
H  14.32600 -2.97400 23.13700
H  14.14800 -0.22400 22.19600
H  12.71200 -0.78800 23.00200
H  13.20800 -1.56500 21.55600
H  12.83300 2.51000 26.28000
H  14.24400 2.83500 25.22500
H  13.81800 3.86200 26.62000
H  14.82500 1.50700 31.44700
H  15.92100 4.99400 33.70700
H  16.78900 5.42600 32.21600
H  17.48600 4.27500 33.46800
Mg 45.45200 4.32300 47.55600
C  43.37800 7.03800 47.51400
C  42.61400 2.26800 47.11900
C  47.54600 1.71400 46.74400
C  48.25100 6.44100 47.42700
N  43.28100 4.63400 47.18600
C  42.66600 5.85600 47.19400
C  41.12400 5.82800 47.00600
C  40.90600 4.25100 47.07600
C  42.35000 3.66100 47.08400
C  39.94600 3.78100 48.22500
C  40.52100 6.38500 45.65000
C  41.43400 6.22000 44.48900
H  40.65200 5.57300 43.31000
N  45.12800 2.33800 47.07500
C  43.85300 1.66800 47.10700
C  44.13700 0.23100 47.05200
C  45.52100 0.04700 46.84500
C  46.12100 1.42300 46.83800
C  42.97700 -0.76700 47.14800
C  46.18300 -1.38900 46.63500
O  45.62800 -2.42400 46.87600
C  47.71700 -1.53100 46.32500
N  47.62700 4.16000 47.07100
C  48.20700 2.88900 47.01900
C  49.69600 2.92300 47.09200
C  49.86600 4.47100 47.39200
C  48.53600 5.07800 47.27700
C  50.22000 1.95600 48.21300
C  50.88600 5.20100 46.52200
C  52.31600 4.84000 46.97400
N  45.83900 6.37200 47.44200
C  47.04200 7.10700 47.47400
C  46.72200 8.50700 47.51400
C  45.31600 8.52800 47.58400
C  44.83400 7.19700 47.44600
C  47.70000 9.61600 47.55500
C  44.21700 9.34800 47.74500
O  44.20900 10.55200 47.82000
C  42.95000 8.51400 47.62000
C  42.09200 8.74100 48.74300
O  42.40600 8.52200 49.88800
O  40.90500 9.17200 48.34400
C  39.81600 9.26700 49.35100
H  41.70000 1.72400 46.86900
H  48.19700 0.83800 46.69100
H  49.10700 7.11600 47.48800
H  40.59000 6.17700 47.89000
H  40.40200 3.81300 46.21500
H  40.52500 3.27300 48.99600
H  39.24000 3.11700 47.72500
H  39.36500 4.58100 48.68500
H  40.35500 7.46100 45.71500
H  39.52700 6.03600 45.37200
H  42.25300 5.52800 44.68600
H  41.92700 7.14100 44.17800
H  42.04400 -0.35400 47.53000
H  43.18400 -1.68900 47.69000
H  42.61400 -1.05300 46.16100
H  47.87600 -2.50700 45.86700
H  48.29500 -1.40700 47.24100
H  47.96300 -0.85200 45.50900
H  50.12100 2.57800 46.14900
H  50.16800 4.59600 48.43200
H  50.71600 1.12600 47.71000
H  49.41000 1.57100 48.83200
H  50.93600 2.53100 48.80000
H  50.90100 6.29000 46.53900
H  50.92500 4.89400 45.47600
H  52.33900 3.96500 47.62400
H  52.81200 5.72100 47.37900
H  52.90000 4.61900 46.08100
H  48.16300 9.75200 48.53200
H  47.27200 10.60100 47.36900
H  48.51400 9.45200 46.84900
H  42.42100 8.78300 46.70500
H  40.20400 10.10600 49.92800
H  39.86900 8.34700 49.93200
H  38.80300 9.44800 48.99100

