158

Mg 35.97700 49.01200 25.67100
C  36.16000 47.06000 28.66800
C  34.77600 51.67800 27.53500
C  35.05700 50.49600 22.84800
C  36.67800 46.10600 23.89900
N  35.36700 49.26300 27.85000
C  35.70900 48.43000 28.91500
C  35.37100 49.14600 30.20400
C  34.79500 50.50700 29.79500
C  35.03500 50.49500 28.28600
C  33.24800 50.66200 30.07000
C  36.57200 49.31700 31.12800
C  36.38500 48.69800 32.55700
H  36.36100 49.71600 33.66900
N  35.19800 50.83900 25.26200
C  34.85500 51.85500 26.14700
C  34.34400 53.03700 25.38100
C  34.53200 52.71800 23.99500
C  34.91500 51.29300 24.02300
C  33.78800 54.31700 26.01400
C  34.35700 53.59900 22.71600
O  34.63300 53.27000 21.54100
C  33.77300 54.90300 22.87800
N  35.98300 48.44100 23.60500
C  35.47600 49.15700 22.60500
C  35.64900 48.54400 21.27600
C  36.48100 47.25800 21.63200
C  36.40200 47.19700 23.09600
C  34.34000 48.23800 20.54300
C  37.91600 47.14100 21.12700
C  38.26000 45.96600 20.24900
N  36.30800 46.99300 26.12900
C  36.62900 45.94100 25.31200
C  36.91500 44.78000 26.11400
C  36.66800 45.12800 27.44400
C  36.30400 46.53800 27.39700
C  37.34300 43.48100 25.65200
C  36.63100 44.65300 28.81200
O  36.78900 43.51600 29.27600
C  36.37900 46.00400 29.72600
C  35.17700 45.81800 30.71300
O  33.94300 45.87200 30.41100
O  35.68300 45.61400 31.92000
C  34.78800 45.24700 33.01100
H  34.62700 52.63400 28.04100
H  34.83700 50.98300 21.89500
H  37.12700 45.23600 23.41500
H  34.53100 48.58500 30.61200
H  35.21700 51.42500 30.20500
H  32.69200 50.48500 29.14900
H  33.03400 51.61500 30.55400
H  32.92800 49.85900 30.73400
H  36.73900 50.38600 31.26100
H  37.48000 48.92300 30.67200
H  37.12800 47.92000 32.73300
H  35.52100 48.03300 32.55900
H  32.91100 54.61800 25.44000
H  34.43400 55.19100 25.92800
H  33.55500 54.16600 27.06800
H  33.75600 55.52000 21.98000
H  34.49700 55.42200 23.50600
H  32.74600 54.81000 23.23200
H  36.17300 49.32200 20.72100
H  36.01800 46.34000 21.26900
H  33.49700 48.84500 20.87100
H  34.03600 47.21700 20.77400
H  34.51100 48.26400 19.46700
H  38.53500 47.18900 22.02200
H  38.15500 48.00600 20.50900
H  38.80500 46.29300 19.36300
H  37.37200 45.49000 19.83200
H  38.89000 45.29200 20.83000
H  37.65000 43.50100 24.60700
H  36.55700 42.72700 25.69900
H  38.26700 43.15000 26.12500
H  37.23700 46.18900 30.37200
H  34.46600 46.14100 33.54500
H  35.28000 44.50700 33.64200
H  33.89500 44.73500 32.65200
Mg 0.93800 44.30300 24.75100
C  2.91200 43.92200 27.63300
C  -1.87800 43.78700 26.92200
C  -0.95100 43.80100 22.15800
C  3.73600 44.33100 22.77600
N  0.59800 43.88300 26.98200
C  1.52400 43.88800 27.92500
C  0.93800 43.89200 29.35000
C  -0.58100 43.59800 29.07100
C  -0.66200 43.75200 27.55000
C  -1.10300 42.15500 29.49500
C  1.19500 45.14300 30.22200
C  1.21800 44.94600 31.74900
H  1.09700 43.54000 32.35000
N  -1.14400 44.00800 24.55000
C  -2.12400 43.83300 25.52600
C  -3.47200 43.75900 24.86400
C  -3.22600 43.93800 23.41800
C  -1.69300 43.90600 23.35300
C  -4.78800 43.63900 25.65100
C  -4.12700 44.12700 22.20100
O  -3.67400 44.47100 21.12200
C  -5.61900 44.03800 22.40000
N  1.28700 44.16000 22.70200
C  0.39800 43.86800 21.83500
C  0.93800 43.79900 20.38100
C  2.38300 44.29100 20.54600
C  2.48900 44.38500 22.10000
C  0.64300 42.42500 19.72400
C  2.78700 45.54500 19.88200
C  4.18300 45.56200 19.13400
N  2.98800 44.30200 25.09400
C  4.05500 44.41300 24.19600
C  5.35500 44.40400 25.00600
C  4.89300 44.20900 26.33100
C  3.47800 44.10500 26.34500
C  6.70000 44.55800 24.35000
C  5.34200 44.05500 27.65900
O  6.51800 44.07000 28.08100
C  4.15100 43.89300 28.54700
C  4.34500 42.65200 29.29600
O  4.06400 41.49900 28.94300
O  4.74500 43.00400 30.52000
C  4.74300 41.90500 31.55500
H  -2.73700 43.80400 27.59600
H  -1.49200 43.67800 21.21800
H  4.59400 44.33100 22.10100
H  1.44900 43.06300 29.84000
H  -1.20200 44.40000 29.47000
H  -1.21800 41.53900 28.60300
H  -2.04700 42.29800 30.02100
H  -0.41400 41.66400 30.18200
H  0.39000 45.87000 30.11600
H  2.18200 45.53800 29.97900
H  0.43600 45.61600 32.10600
H  2.15800 45.38800 32.07900
H  -5.44600 44.50000 25.53600
H  -4.74800 43.63700 26.74100
H  -5.35200 42.74900 25.37500
H  -5.77500 43.01800 22.75100
H  -6.01800 44.13600 21.39100
H  -6.03100 44.77300 23.09200
H  0.31600 44.39500 19.71300
H  3.09200 43.52100 20.24200
H  0.22100 41.85400 20.55100
H  1.64100 42.05300 19.49200
H  -0.06000 42.38600 18.89200
H  2.93300 46.29800 20.65700
H  2.02100 45.91500 19.20100
H  4.01400 45.62300 18.05900
H  4.85700 44.73800 19.37000
H  4.85500 46.38000 19.39400
H  6.87800 44.24300 23.32200
H  7.25200 43.85300 24.97200
H  7.10000 45.57200 24.35300
H  4.26000 44.72500 29.24200
H  5.76900 41.55400 31.65800
H  3.96800 41.15100 31.41800
H  4.48300 42.44400 32.46600

