158

Mg 15.98800 -2.08400 28.68400
C  14.84500 0.06200 31.20900
C  18.08700 -3.52300 31.16700
C  17.81500 -3.60700 26.33200
C  14.20400 -0.25300 26.32000
N  16.43000 -1.69900 30.79500
C  15.81800 -0.82100 31.63300
C  16.23600 -1.01900 33.07100
C  17.38800 -1.94500 32.98400
C  17.29100 -2.46400 31.57400
C  18.85600 -1.37400 33.41000
C  15.08800 -1.37800 33.99400
C  15.06900 -0.81800 35.46100
H  16.34600 -0.12700 36.00300
N  17.65500 -3.48500 28.78100
C  18.33900 -3.94400 29.81400
C  19.33000 -4.97000 29.46000
C  19.15600 -5.12100 28.00000
C  18.21200 -4.05000 27.65000
C  20.17400 -5.71500 30.43600
C  19.88000 -6.13900 27.07000
O  19.60700 -6.02900 25.91500
C  20.92700 -7.10200 27.54400
N  15.96000 -1.98900 26.71000
C  16.83400 -2.72100 25.90200
C  16.63300 -2.36500 24.36000
C  15.40000 -1.40600 24.38900
C  15.14700 -1.23800 25.93000
C  17.90600 -1.81400 23.68900
C  14.18800 -1.98100 23.58700
C  13.49800 -0.93400 22.68600
N  14.62100 -0.51100 28.66200
C  13.95300 0.13700 27.66400
C  13.19600 1.24800 28.20800
C  13.44800 1.20400 29.60800
C  14.37100 0.18200 29.83900
C  12.39900 2.20300 27.41000
C  13.13200 1.85800 30.93400
O  12.36300 2.77700 31.17200
C  14.05400 1.13700 32.03400
C  14.86400 2.18000 32.78600
O  16.03200 2.42500 32.61200
O  14.04800 2.76400 33.72100
C  14.68300 3.86900 34.51700
H  18.69700 -3.94100 31.97100
H  18.28700 -4.10700 25.48300
H  13.72800 0.32200 25.52300
H  16.55700 -0.03300 33.40900
H  17.31600 -2.80000 33.65500
H  19.05500 -1.90500 34.34100
H  18.71300 -0.32500 33.67000
H  19.60700 -1.45600 32.62500
H  14.89200 -2.45000 33.97300
H  14.15000 -0.97600 33.61200
H  14.88700 -1.62600 36.16900
H  14.16900 -0.23000 35.64000
H  21.11500 -6.00700 29.96900
H  19.65100 -6.63100 30.70800
H  20.41000 -5.12500 31.32100
H  20.52500 -7.86000 28.21500
H  21.74600 -6.58000 28.03900
H  21.34000 -7.64800 26.69600
H  16.32900 -3.30700 23.90400
H  15.78400 -0.44000 24.06100
H  18.63100 -1.49300 24.43600
H  17.59900 -1.07000 22.95300
H  18.34300 -2.65600 23.15200
H  13.42100 -2.43400 24.21600
H  14.44200 -2.87600 23.01900
H  13.41300 -1.44000 21.72500
H  14.18700 -0.09100 22.62700
H  12.57300 -0.58600 23.14700
H  11.66500 1.74500 26.74800
H  13.00500 2.79700 26.72600
H  11.86600 2.72300 28.20600
H  13.29200 0.79200 32.73300
H  15.19200 4.55900 33.84500
H  15.35800 3.50600 35.29200
H  13.88200 4.35500 35.07500
Mg -2.08100 34.15200 27.19000
C  -3.99600 32.17400 29.76000
C  -1.14900 36.10700 29.74000
C  -0.95000 35.98100 24.97100
C  -4.02000 32.25300 24.81800
N  -2.54700 34.08600 29.43500
C  -3.33000 33.30000 30.25500
C  -3.27100 33.75200 31.71100
C  -2.64200 35.22400 31.63200
C  -2.10700 35.15400 30.16600
C  -3.63800 36.39100 31.83600
C  -2.29000 32.76100 32.46400
C  -2.83700 31.70000 33.44100
H  -2.11600 31.73800 34.79600
N  -1.06300 35.82300 27.36200
C  -0.59800 36.41500 28.47200
C  0.37400 37.40400 28.10400
C  0.45900 37.33900 26.68300
C  -0.57800 36.39000 26.27500
C  1.14200 38.15300 29.12700
C  1.41300 38.00900 25.65300
O  1.40000 37.90400 24.47400
C  2.59900 38.80000 26.29900
N  -2.75700 34.31100 25.18900
C  -1.90600 35.05900 24.43900
C  -2.08000 34.92100 22.91800
C  -2.99800 33.65300 22.83000
C  -3.34600 33.37100 24.39700
C  -2.49600 36.14500 22.19100
C  -2.41900 32.36000 22.14200
C  -3.31000 31.85100 21.06000
N  -3.54400 32.45000 27.22400
C  -4.16100 31.82300 26.15400
C  -4.98700 30.75400 26.61200
C  -4.98100 30.90400 27.99600
C  -4.04500 31.90200 28.34200
C  -5.79200 29.85200 25.82900
C  -5.53700 30.36600 29.29900
O  -6.39000 29.50100 29.50600
C  -4.96400 31.20200 30.41100
C  -6.06700 31.96300 31.01600
O  -6.59800 32.96900 30.59800
O  -6.41100 31.35200 32.16100
C  -7.33400 32.13100 33.04700
H  -0.85000 36.79800 30.53100
H  -0.29200 36.45600 24.24000
H  -4.51900 31.64500 24.06100
H  -4.23800 33.73900 32.21500
H  -1.81000 35.29100 32.33300
H  -4.64700 36.03000 32.03900
H  -3.62900 37.10400 31.01200
H  -3.27800 36.93900 32.70700
H  -1.52900 33.23700 33.08200
H  -1.75600 32.12900 31.75500
H  -2.72200 30.65900 33.14000
H  -3.88900 31.93200 33.61000
H  2.19900 38.03500 28.88900
H  1.06900 37.70600 30.11900
H  0.88400 39.21100 29.09300
H  2.81900 39.54300 25.53300
H  3.40200 38.11900 26.58200
H  2.29700 39.45900 27.11200
H  -1.14300 34.50200 22.55200
H  -3.98600 33.89200 22.43800
H  -3.49100 35.98100 21.77600
H  -1.96200 36.29700 21.25300
H  -2.34700 37.00700 22.84100
H  -2.19200 31.54300 22.82700
H  -1.48600 32.64800 21.65700
H  -2.81900 31.91300 20.08900
H  -4.22500 32.44200 21.02000
H  -3.56400 30.83800 21.37300
H  -6.80300 30.23200 25.68200
H  -5.88600 28.90900 26.36700
H  -5.32700 29.67300 24.86000
H  -4.50900 30.65600 31.23800
H  -8.29700 32.18600 32.54100
H  -7.10500 33.14300 33.38200
H  -7.54000 31.60600 33.97900

