158

Mg 1.90900 -2.91200 44.70000
C  5.13000 -1.76300 43.93000
C  0.75400 -0.54100 42.38200
C  -1.28600 -4.19900 44.96000
C  3.15500 -5.53100 46.44800
N  2.91400 -1.36300 43.23200
C  4.21300 -1.13100 43.15100
C  4.48600 0.01100 42.15000
C  3.05400 0.62900 42.04800
C  2.17500 -0.53100 42.52800
C  2.72300 1.83600 42.93700
C  5.19900 -0.54300 40.90700
C  6.53100 0.12400 40.56600
H  6.64200 1.07600 39.34100
N  -0.04300 -2.38700 43.83800
C  -0.25800 -1.35200 42.91400
C  -1.70800 -1.21400 42.70200
C  -2.30400 -2.26300 43.47300
C  -1.21300 -2.99700 44.21600
C  -2.32700 -0.11700 41.87200
C  -3.85700 -2.49600 43.56700
O  -4.65000 -1.78700 42.99800
C  -4.38700 -3.64900 44.21400
N  1.09100 -4.68300 45.43600
C  -0.31300 -4.95400 45.52800
C  -0.53400 -6.31000 46.23500
C  0.92300 -6.67300 46.77500
C  1.79100 -5.55200 46.14900
C  -1.76800 -6.32500 47.21600
C  1.37600 -8.13800 46.38300
C  2.04600 -9.00300 47.44000
N  3.76300 -3.54100 45.14200
C  4.12300 -4.60800 45.94300
C  5.61800 -4.63600 46.04900
C  6.04100 -3.50600 45.28500
C  4.89000 -2.79400 44.80000
C  6.47500 -5.71600 46.61400
C  7.18400 -2.71400 44.88100
O  8.38100 -2.85300 45.13400
C  6.62600 -1.55400 43.96700
C  6.92700 -0.28800 44.57200
O  6.26400 0.24200 45.46500
O  8.00700 0.26400 43.93000
C  8.33400 1.66400 44.30700
H  0.38400 0.38100 41.92700
H  -2.21700 -4.75800 45.07300
H  3.52300 -6.39400 47.00500
H  5.14800 0.70100 42.67300
H  2.85900 0.79300 40.98800
H  3.64800 2.38500 43.10700
H  2.19300 1.46000 43.81200
H  2.11600 2.51700 42.33900
H  4.48100 -0.43400 40.09500
H  5.53800 -1.56500 41.07400
H  7.23200 -0.68000 40.33900
H  6.83500 0.66800 41.46100
H  -1.68900 0.76500 41.92400
H  -3.31500 0.22700 42.18100
H  -2.43000 -0.56800 40.88500
H  -4.25500 -3.63100 45.29500
H  -3.83000 -4.51400 43.85300
H  -5.43300 -3.79800 43.94400
H  -0.72100 -7.00900 45.42000
H  0.98000 -6.40300 47.82900
H  -1.44300 -6.30000 48.25600
H  -2.42000 -7.16900 46.99300
H  -2.41800 -5.49200 46.94600
H  2.20000 -8.02700 45.67800
H  0.58800 -8.69600 45.87700
H  1.77700 -10.05900 47.44100
H  1.83400 -8.63600 48.44500
H  3.12400 -8.88900 47.33100
H  6.34400 -5.65300 47.69400
H  7.50300 -5.58800 46.27400
H  6.26100 -6.70500 46.21000
H  6.96700 -1.65000 42.93600
H  7.51000 2.37700 44.26600
H  9.15800 2.13300 43.76900
H  8.72300 1.71000 45.32400
Mg -1.97100 34.67500 26.12000
C  -3.73500 32.49800 28.42700
C  -0.60800 36.26900 28.80800
C  -0.58900 36.77700 23.92300
C  -3.86300 33.16200 23.54000
N  -2.18700 34.38400 28.42600
C  -2.86800 33.42800 29.08900
C  -2.61000 33.46900 30.61900
C  -1.68900 34.73500 30.75800
C  -1.50700 35.24100 29.25500
C  -2.05300 35.75000 31.84100
C  -1.97200 32.10900 31.09700
C  -2.63300 31.60100 32.40900
H  -1.83500 31.76100 33.69500
N  -0.72900 36.22100 26.32200
C  -0.27100 36.70600 27.50100
C  0.71600 37.67500 27.20200
C  0.81500 37.83700 25.77300
C  -0.16100 36.87900 25.26700
C  1.52100 38.44700 28.29300
C  1.70300 38.76100 24.89600
O  1.57400 38.82200 23.69300
C  2.76600 39.42700 25.51600
N  -2.31100 34.99600 24.04300
C  -1.58700 35.92900 23.32300
C  -1.77600 35.82600 21.82600
C  -2.49300 34.47800 21.79200
C  -2.89900 34.16100 23.22400
C  -2.48000 37.03000 21.12100
C  -1.72500 33.38800 21.12100
C  -0.50900 32.68400 21.74900
N  -3.42200 33.21600 25.97400
C  -4.01700 32.64900 24.86700
C  -4.81700 31.54700 25.24200
C  -4.76700 31.44900 26.66200
C  -3.86500 32.52300 27.02100
C  -5.66500 30.63600 24.30800
C  -5.21500 30.76800 27.84400
O  -5.94600 29.78200 28.00600
C  -4.60900 31.46500 29.07000
C  -5.66000 32.08600 30.05000
O  -6.31700 33.05800 29.77800
O  -5.58300 31.43500 31.25600
C  -6.49500 31.75800 32.37400
H  -0.16600 36.70000 29.70900
H  0.02200 37.22400 23.13600
H  -4.30300 32.75500 22.62700
H  -3.60900 33.67200 31.00400
H  -0.65300 34.51200 31.01600
H  -2.66200 36.58400 31.49400
H  -1.10800 36.07400 32.27800
H  -2.57500 35.24200 32.65200
H  -0.91700 32.23700 31.33800
H  -2.03000 31.34200 30.32500
H  -2.87600 30.54600 32.28400
H  -3.55000 32.15500 32.61200
H  1.36200 39.52300 28.22700
H  2.58300 38.23900 28.16100
H  1.35000 38.13200 29.32200
H  3.44800 39.71200 24.71500
H  3.25400 38.75700 26.22400
H  2.38300 40.28400 26.06900
H  -0.84100 35.77500 21.26800
H  -3.46200 34.69800 21.34500
H  -3.45600 37.11900 21.59700
H  -2.55900 37.03600 20.03400
H  -1.81300 37.85500 21.37300
H  -1.31700 33.76100 20.18100
H  -2.39300 32.56500 20.87000
H  -0.47700 33.04400 22.77700
H  0.41500 32.71700 21.17100
H  -0.64700 31.60300 21.77800
H  -5.51700 29.58800 24.56800
H  -5.47500 30.75900 23.24200
H  -6.71000 30.86800 24.51300
H  -4.13000 30.66100 29.62900
H  -5.94900 32.22800 33.19300
H  -6.94800 30.84700 32.76400
H  -7.18900 32.57800 32.18700

