158

Mg 16.95800 -2.04300 28.05800
C  15.67900 0.03700 30.54100
C  18.78700 -3.72100 30.44000
C  18.31300 -3.78900 25.50500
C  15.32700 0.02400 25.64200
N  17.25900 -1.76300 30.19400
C  16.62800 -0.88400 31.01900
C  16.98400 -1.14100 32.48900
C  18.10000 -2.26900 32.35300
C  18.02400 -2.61400 30.86200
C  19.48200 -1.75800 32.74200
C  15.83300 -1.72700 33.38200
C  15.87500 -1.41800 34.85600
H  17.10800 -0.90300 35.45200
N  18.26300 -3.57700 28.00200
C  18.92400 -4.12800 29.11800
C  19.62000 -5.29300 28.63800
C  19.47300 -5.38800 27.23100
C  18.65200 -4.21500 26.84200
C  20.55500 -6.11300 29.50100
C  19.94500 -6.39800 26.27100
O  19.91000 -6.24200 25.06900
C  20.68300 -7.69100 26.77500
N  16.72600 -2.04100 25.82800
C  17.40600 -2.83200 25.05300
C  17.12300 -2.53800 23.54900
C  16.12900 -1.39100 23.56700
C  16.05500 -1.03300 25.09500
C  18.49500 -2.31000 22.75600
C  14.77700 -1.75000 22.91500
C  14.57500 -1.34500 21.40700
N  15.59300 -0.54700 28.03400
C  15.01200 0.20800 26.98500
C  14.13500 1.19500 27.48900
C  14.45500 1.19400 28.91300
C  15.31700 0.08300 29.13900
C  13.41400 2.25000 26.67000
C  14.16900 1.92500 30.09200
O  13.43900 2.88400 30.30900
C  14.95100 1.07800 31.29700
C  15.78000 2.10000 32.01800
O  16.65500 2.79200 31.48700
O  15.36200 2.29400 33.36800
C  16.13600 3.30900 34.14900
H  19.34000 -4.20600 31.24800
H  18.93000 -4.26900 24.74300
H  14.76600 0.65500 24.95000
H  17.39400 -0.20500 32.86900
H  17.90900 -3.13400 32.98800
H  19.41600 -0.81500 33.28400
H  20.16500 -1.70100 31.89400
H  19.97000 -2.35300 33.51400
H  15.82100 -2.80600 33.23200
H  14.89600 -1.40800 32.92500
H  15.72700 -2.36200 35.38000
H  15.08500 -0.70500 35.09200
H  21.59900 -6.03400 29.19800
H  20.20800 -7.14700 29.48400
H  20.60300 -5.83600 30.55400
H  21.71600 -7.39100 26.95300
H  20.76400 -8.41600 25.96500
H  20.25400 -8.04400 27.71200
H  16.67800 -3.47000 23.20000
H  16.55100 -0.48300 23.13900
H  18.49400 -1.34000 22.25900
H  18.63800 -3.00100 21.92500
H  19.26300 -2.34000 23.53000
H  14.01500 -1.24300 23.50800
H  14.64200 -2.82300 23.05200
H  14.22000 -0.31400 21.38800
H  13.95900 -1.97800 20.76800
H  15.61200 -1.30800 21.07500
H  12.51000 1.73500 26.34600
H  13.99600 2.54300 25.79700
H  13.31000 3.23400 27.12900
H  14.20300 0.59900 31.93000
H  16.03100 4.30700 33.72500
H  17.20500 3.14900 34.29200
H  15.57400 3.26700 35.08200
Mg 46.48800 44.18100 43.47500
C  43.15300 43.46100 43.30400
C  47.10800 40.75600 42.73500
C  49.77100 44.92500 43.24200
C  45.73500 47.57600 43.26500
N  45.18800 42.33600 42.67700
C  43.85400 42.27500 42.94800
C  43.32200 40.91600 42.58600
C  44.62300 40.02800 42.36600
C  45.76600 41.06300 42.61200
C  44.58600 38.65100 42.92100
C  42.20900 40.77400 41.44300
C  42.22600 41.75800 40.31100
H  42.13200 41.19200 38.90100
N  48.19100 42.96300 43.28600
C  48.25100 41.62900 43.02600
C  49.60100 41.16100 42.91600
C  50.41700 42.37800 43.18500
C  49.45800 43.50200 43.25700
C  50.07700 39.81200 42.65600
C  51.92500 42.49800 43.35200
O  52.62900 41.58000 43.12100
C  52.68900 43.74400 43.70500
N  47.56100 45.95400 43.15400
C  48.89600 45.98900 43.28400
C  49.46200 47.47200 42.97200
C  48.15100 48.31100 43.36800
C  47.10700 47.23300 43.19900
C  50.71200 47.88700 43.75300
C  48.00000 49.60500 42.54800
C  47.68500 50.93800 43.23700
N  44.79500 45.31200 43.20500
C  44.59800 46.68700 43.17600
C  43.22600 47.01600 43.20700
C  42.57500 45.79800 43.31300
C  43.57500 44.76200 43.30900
C  42.60800 48.38000 43.21500
C  41.37100 45.09400 43.47000
O  40.23700 45.56500 43.52900
C  41.64700 43.57300 43.29900
C  40.96100 42.96000 44.51100
O  40.13800 42.02200 44.45100
O  41.52200 43.52500 45.63200
C  41.27100 42.99100 46.99300
H  47.22800 39.72900 42.38400
H  50.80000 45.16300 42.96500
H  45.50900 48.64400 43.27100
H  42.74600 40.53700 43.43100
H  44.70600 39.88500 41.28900
H  45.47200 38.39300 43.50100
H  44.34100 37.90700 42.16300
H  43.78400 38.58200 43.65600
H  41.18300 40.86000 41.80100
H  42.35800 39.83500 40.90900
H  42.98200 42.53800 40.39500
H  41.27000 42.28200 40.33700
H  49.35900 39.10300 43.06700
H  51.06100 39.59900 43.07200
H  50.12200 39.70100 41.57200
H  51.89900 44.16700 44.32600
H  52.89000 44.37800 42.84200
H  53.62800 43.61700 44.24400
H  49.58000 47.51900 41.88900
H  48.02200 48.62000 44.40500
H  50.38700 48.59700 44.51400
H  51.51000 48.17200 43.06800
H  51.16800 47.06300 44.30100
H  47.21200 49.41800 41.81800
H  48.88600 49.70600 41.92100
H  48.29300 51.80900 42.99200
H  47.59300 50.84600 44.32000
H  46.63600 51.07800 42.97800
H  41.68900 48.46100 43.79600
H  42.39500 48.66700 42.18500
H  43.24900 49.14100 43.66200
H  41.15500 43.34600 42.35400
H  42.16000 43.01500 47.62300
H  40.93100 41.96000 46.89400
H  40.51300 43.43800 47.63500

