158

Mg 46.57300 44.65900 43.13200
C  43.10500 43.84300 43.22600
C  47.27100 41.32700 42.77300
C  49.72800 45.52300 42.63700
C  45.57000 48.00600 43.64500
N  45.26300 42.82900 42.91600
C  43.92200 42.72600 43.09200
C  43.47300 41.28800 42.85500
C  44.80200 40.50200 43.03000
C  45.89500 41.58100 42.97100
C  44.93600 39.65200 44.24900
C  42.72600 40.96500 41.50600
C  43.01500 41.89000 40.22500
H  42.99700 41.23300 38.89600
N  48.22500 43.60800 42.73000
C  48.35000 42.20900 42.67100
C  49.69100 41.80400 42.60900
C  50.48400 43.01000 42.48400
C  49.47800 44.14700 42.61200
C  50.18400 40.42100 42.40300
C  52.04700 43.04000 42.33500
O  52.65300 42.00000 42.31400
C  52.79100 44.35100 42.25900
N  47.51400 46.51600 43.12200
C  48.81900 46.64000 42.85500
C  49.23200 48.06300 42.88600
C  47.87800 48.90600 42.97400
C  46.94100 47.76400 43.27800
C  50.34500 48.44900 43.90500
C  47.53300 49.92400 41.83400
C  47.65400 51.37300 42.28400
N  44.76200 45.77100 43.45200
C  44.49200 47.10100 43.57400
C  43.10600 47.33000 43.53800
C  42.48900 46.09000 43.42300
C  43.53300 45.16800 43.40800
C  42.50700 48.70300 43.70800
C  41.26500 45.40500 43.27700
O  40.11900 45.84400 43.27500
C  41.65600 43.88100 43.21700
C  40.93400 42.97900 44.23000
O  40.43800 41.91100 44.01400
O  40.82200 43.62200 45.43500
C  39.85300 42.98700 46.37200
H  47.56400 40.27700 42.83900
H  50.74900 45.77500 42.34200
H  45.29300 49.06200 43.68000
H  42.82500 41.14400 43.71900
H  45.04500 39.90900 42.14800
H  45.24800 38.64100 43.98600
H  43.98400 39.57100 44.77300
H  45.57000 40.12300 45.00000
H  41.69800 41.17100 41.80500
H  43.01300 39.93600 41.28800
H  43.93400 42.45800 40.36200
H  42.17600 42.57700 40.10900
H  50.56500 40.12500 41.42600
H  49.29800 39.79000 42.47800
H  50.91000 40.06800 43.13500
H  52.70700 44.80300 43.24700
H  52.33300 45.04700 41.55600
H  53.85000 44.14600 42.10200
H  49.60800 48.22000 41.87500
H  47.87100 49.40600 43.94200
H  50.47900 47.59400 44.56700
H  50.15400 49.38200 44.43500
H  51.32900 48.43200 43.43700
H  46.55100 49.74200 41.39700
H  48.14500 49.78900 40.94300
H  47.74600 51.45100 43.36700
H  46.80700 51.94700 41.90900
H  48.48900 51.83600 41.75700
H  43.29100 49.40800 43.43200
H  42.12700 48.82400 44.72200
H  41.66200 48.77900 43.02300
H  41.28000 43.41700 42.30500
H  39.17700 43.65700 46.90400
H  40.38100 42.38300 47.11000
H  39.21000 42.25600 45.87900
Mg 15.89600 52.95900 25.07900
C  17.31100 51.72900 28.04600
C  13.10300 53.83000 26.96900
C  14.44500 53.98400 22.25800
C  18.54600 51.72100 23.22700
N  15.44400 52.95500 27.23400
C  16.13500 52.48200 28.26200
C  15.52500 52.79900 29.59900
C  14.11000 53.22000 29.17900
C  14.17400 53.24700 27.68200
C  12.87900 52.33700 29.60500
C  16.29400 53.84800 30.40100
C  16.52100 53.57200 31.94200
H  15.72700 52.46700 32.63400
N  14.08100 53.86800 24.66400
C  13.00900 54.11000 25.58600
C  11.94500 54.71500 24.82600
C  12.32700 54.80700 23.42100
C  13.61100 54.17700 23.41500
C  10.65100 55.07000 25.52400
C  11.59200 55.34100 22.24900
O  12.09300 55.41600 21.12700
C  10.21700 55.85500 22.36700
N  16.43600 52.88300 23.03200
C  15.69500 53.45100 22.00600
C  16.48200 53.34000 20.61300
C  17.83500 52.87700 21.05800
C  17.60700 52.41800 22.45800
C  15.77200 52.45400 19.48100
C  19.00700 53.95100 20.97300
C  20.13000 53.70200 19.89100
N  17.46300 51.74000 25.45000
C  18.47800 51.35600 24.65500
C  19.35800 50.42500 25.40600
C  18.95400 50.57500 26.77700
C  17.82200 51.37700 26.69900
C  20.62400 49.75300 24.81800
C  19.23500 50.25500 28.15000
O  20.16300 49.56800 28.60700
C  18.28000 51.04100 29.05100
C  17.55300 50.18800 30.02900
O  16.49100 49.56400 29.87000
O  18.50300 49.77700 30.93000
C  18.34700 48.72000 31.89000
H  12.30400 54.13900 27.64600
H  14.03000 54.30200 21.29900
H  19.32600 51.32400 22.57400
H  15.37300 51.84500 30.10500
H  13.89700 54.23100 29.52800
H  12.66000 51.73600 28.72300
H  12.04900 52.86000 30.08100
H  13.21800 51.63900 30.37000
H  15.86100 54.84000 30.27700
H  17.25200 53.83800 29.88100
H  16.21900 54.52500 32.37700
H  17.57700 53.37500 32.12800
H  9.88100 54.75700 24.81900
H  10.60200 56.11100 25.84400
H  10.59500 54.41400 26.39200
H  10.08100 56.57200 23.17700
H  9.43300 55.09700 22.38400
H  10.14100 56.42100 21.43900
H  16.72600 54.26300 20.08600
H  18.03600 52.07300 20.35000
H  16.41000 51.88200 18.80800
H  15.18600 53.10200 18.83000
H  15.07400 51.75600 19.94200
H  19.54000 54.07600 21.91500
H  18.57600 54.94500 20.84500
H  21.09800 53.86200 20.36400
H  20.00300 54.36300 19.03400
H  20.01900 52.64200 19.66200
H  21.34000 50.57400 24.82200
H  20.40600 49.48700 23.78300
H  20.89900 48.90200 25.44100
H  18.91400 51.73800 29.59800
H  19.01600 47.89600 31.64100
H  17.36100 48.25500 31.87000
H  18.45800 49.15400 32.88400

