158

Mg -2.25000 17.61700 26.67800
C  -2.90400 15.86800 29.61500
C  -3.02500 20.47900 28.60500
C  -2.19600 19.52500 23.88700
C  -2.46400 14.83200 24.79100
N  -3.03100 18.10000 28.90000
C  -3.00900 17.23400 29.92700
C  -3.34800 17.88800 31.26700
C  -3.90500 19.29600 30.83600
C  -3.29600 19.37200 29.32800
C  -5.37100 19.63800 30.97800
C  -2.11600 17.93000 32.23800
C  -2.39100 17.47900 33.65300
H  -1.20500 17.41200 34.53200
N  -2.30700 19.72200 26.32100
C  -2.57900 20.67800 27.24600
C  -2.46900 22.01000 26.59900
C  -2.16500 21.82500 25.21900
C  -2.14700 20.30300 25.03900
C  -2.80600 23.34100 27.19000
C  -1.90000 22.81100 24.08000
O  -1.69500 22.44000 22.95300
C  -2.05900 24.30400 24.39600
N  -2.56400 17.32800 24.57400
C  -2.37500 18.18800 23.58200
C  -2.01200 17.56700 22.25300
C  -2.20700 16.06300 22.58300
C  -2.38100 16.02500 24.12300
C  -2.93000 18.15000 21.12200
C  -1.08700 15.17400 21.95200
C  0.37400 15.43000 22.40800
N  -2.53200 15.72300 27.03000
C  -2.60000 14.66000 26.20100
C  -2.67500 13.43000 27.00400
C  -2.77600 13.85400 28.32400
C  -2.73700 15.25800 28.33000
C  -2.53200 12.08000 26.38100
C  -2.88300 13.45800 29.71400
O  -3.02300 12.28900 30.12800
C  -2.86200 14.66900 30.56300
C  -1.65100 14.63800 31.46100
O  -0.55800 15.15200 31.23700
O  -1.97500 13.82900 32.56200
C  -0.94900 13.53500 33.55000
H  -3.19500 21.36400 29.22200
H  -2.16700 20.12300 22.97400
H  -2.31100 13.93400 24.18900
H  -4.17200 17.33300 31.71600
H  -3.53000 20.14700 31.40400
H  -5.44800 20.43800 31.71500
H  -5.99900 18.85300 31.40100
H  -5.73900 20.04800 30.03800
H  -1.90700 18.99800 32.30700
H  -1.23400 17.51200 31.75400
H  -2.82600 16.48000 33.66300
H  -3.13100 18.12300 34.12900
H  -3.05200 23.26300 28.24900
H  -3.55600 23.88900 26.61900
H  -1.85000 23.85500 27.09000
H  -1.93600 24.76500 23.41600
H  -1.38100 24.68100 25.16200
H  -3.05100 24.47700 24.81400
H  -0.95700 17.76000 22.05800
H  -3.13300 15.69100 22.14300
H  -3.61800 18.90900 21.49300
H  -3.62800 17.40200 20.74800
H  -2.21700 18.44400 20.35100
H  -1.21300 15.37800 20.88900
H  -1.19000 14.09800 22.09300
H  0.35700 15.87700 23.40200
H  0.94800 15.97400 21.65800
H  0.80000 14.43700 22.54800
H  -1.85900 11.41000 26.91700
H  -1.96700 12.23800 25.46200
H  -3.46000 11.51700 26.28300
H  -3.77300 14.85200 31.13200
H  -1.07900 13.97100 34.54000
H  0.01300 13.90400 33.19500
H  -0.93300 12.44500 33.54900
Mg 30.51100 57.98700 40.45500
C  27.65700 55.99900 39.46400
C  32.51000 55.60000 39.12500
C  33.01000 60.04400 40.72500
C  28.19500 60.46300 41.30400
N  30.13700 56.03700 39.48800
C  28.94800 55.44500 39.19700
C  29.13600 54.03600 38.56500
C  30.70900 53.92400 38.49400
C  31.18400 55.25100 39.15400
C  31.35200 52.66700 39.20300
C  28.52300 53.79000 37.19400
C  28.68100 54.89500 36.12300
H  27.43000 55.38000 35.33000
N  32.53000 57.82100 40.04400
C  33.16700 56.76800 39.49300
C  34.59000 57.05100 39.36900
C  34.81900 58.30200 39.97700
C  33.43500 58.82600 40.26600
C  35.52600 56.07600 38.77500
C  36.14600 58.99700 40.10300
O  37.20500 58.42000 39.81700
C  36.15100 60.43100 40.63000
N  30.60000 59.97000 40.80200
C  31.74600 60.60700 41.01900
C  31.41800 62.06400 41.44500
C  29.92200 62.06500 41.88600
C  29.54100 60.71200 41.28800
C  32.38800 62.59100 42.43000
C  29.07800 63.21900 41.18900
C  27.98500 63.89200 42.12900
N  28.33900 58.28200 40.44000
C  27.55700 59.29100 40.82300
C  26.14700 59.05100 40.60600
C  26.15800 57.69100 40.12500
C  27.49300 57.32300 39.98700
C  25.07600 60.05600 40.85000
C  25.23300 56.59900 39.66300
O  24.05600 56.41700 39.51600
C  26.23500 55.45200 39.19800
C  25.95200 54.16200 39.90100
O  26.50000 53.74900 40.89300
O  24.84200 53.58600 39.38700
C  24.36600 52.37100 40.09300
H  33.22500 54.87600 38.72800
H  33.84800 60.68400 41.01000
H  27.46600 61.24300 41.53200
H  28.66800 53.29300 39.21000
H  31.00600 54.05800 37.45300
H  32.08700 52.96600 39.95100
H  31.74100 51.97000 38.46200
H  30.59200 52.10400 39.74400
H  27.51000 53.42600 37.36600
H  29.11300 52.94600 36.83800
H  29.52300 54.60400 35.49500
H  29.02100 55.84700 36.53000
H  36.35400 56.56300 38.25900
H  35.10600 55.50800 37.94500
H  36.01600 55.37600 39.45200
H  35.64100 61.10800 39.94400
H  37.20000 60.71800 40.70100
H  35.83600 60.46200 41.67300
H  31.58400 62.50700 40.46300
H  29.75000 62.24400 42.94700
H  33.07300 61.82300 42.78900
H  31.91100 62.98300 43.32800
H  32.98800 63.40400 42.02200
H  28.51200 62.97400 40.29000
H  29.76300 63.98900 40.83400
H  27.22800 64.42500 41.55400
H  28.41700 64.64400 42.79000
H  27.61400 63.14800 42.83300
H  25.26400 60.80600 41.61800
H  24.11900 59.54400 40.95700
H  24.90000 60.50800 39.87400
H  26.09600 55.12300 38.16800
H  24.39000 51.43200 39.53900
H  23.30800 52.59900 40.22300
H  24.57600 52.14400 41.13900

