158

Mg 26.37600 0.16900 29.40100
C  28.21800 -0.54600 32.32900
C  23.69500 0.69000 31.18900
C  24.84000 0.96800 26.51900
C  29.24100 -0.79400 27.53200
N  26.03500 -0.02800 31.54100
C  26.91800 -0.13000 32.53400
C  26.17500 0.10100 33.87900
C  24.67800 0.36800 33.52900
C  24.76000 0.21800 31.97900
C  23.72800 -0.63300 34.20300
C  26.90100 1.22200 34.77200
C  26.03000 1.60200 35.99000
H  26.79500 2.20700 37.19900
N  24.45300 0.74200 28.98300
C  23.41000 0.81600 29.83200
C  22.20900 1.13300 29.10200
C  22.54600 1.30600 27.74000
C  24.03400 1.05400 27.72000
C  20.90100 1.07900 29.86300
C  21.67700 1.55300 26.49000
O  22.16100 1.71700 25.35900
C  20.20700 1.47400 26.65000
N  26.99500 -0.01700 27.32500
C  26.12500 0.54800 26.38100
C  26.83500 0.62700 25.00600
C  28.28300 0.06000 25.30700
C  28.16000 -0.34500 26.80900
C  26.12700 -0.25500 23.86000
C  29.37200 1.04100 25.01300
C  30.81600 0.51500 24.64700
N  28.33400 -0.67600 29.77100
C  29.29900 -1.00600 28.89500
C  30.47900 -1.51000 29.61900
C  30.15500 -1.30000 31.03000
C  28.80000 -0.76500 31.02900
C  31.81600 -1.91800 29.08700
C  30.59400 -1.36500 32.42700
O  31.69300 -1.58500 32.92600
C  29.35400 -0.87300 33.29300
C  29.01900 -1.84000 34.28800
O  28.32300 -2.83300 34.12900
O  29.67100 -1.49500 35.42800
C  29.84100 -2.55900 36.47900
H  22.83900 0.99100 31.79700
H  24.50400 1.53600 25.65000
H  30.15700 -1.00700 26.97600
H  26.37500 -0.80800 34.44600
H  24.35000 1.38100 33.76100
H  23.97900 -0.67500 35.26300
H  23.76100 -1.65700 33.83300
H  22.70100 -0.29400 34.06900
H  27.19500 2.11200 34.21600
H  27.82400 0.80900 35.18100
H  25.38800 0.78200 36.31200
H  25.41600 2.37900 35.53500
H  20.25200 0.35000 29.37700
H  20.54300 2.10800 29.85000
H  20.97200 0.78700 30.91100
H  19.90600 0.55400 27.15100
H  19.75900 1.51600 25.65800
H  19.80000 2.34400 27.16600
H  26.81900 1.64400 24.61400
H  28.46400 -0.83900 24.71700
H  25.82600 -1.20800 24.29400
H  26.91000 -0.50100 23.14200
H  25.30700 0.30700 23.41200
H  29.40700 1.74800 25.84200
H  28.99500 1.59800 24.15500
H  31.14800 1.23000 23.89400
H  30.79800 -0.54100 24.38100
H  31.46900 0.53700 25.51900
H  32.05700 -1.20000 28.30200
H  31.95500 -2.93000 28.70800
H  32.52900 -1.55200 29.82500
H  29.72900 -0.02900 33.87200
H  30.66500 -3.10600 36.02100
H  28.96100 -3.19500 36.57600
H  30.21800 -2.17100 37.42400
Mg 24.85800 49.89500 27.18900
C  22.95100 51.22100 29.89400
C  27.36700 49.38500 29.42700
C  26.95100 49.30700 24.62900
C  22.42400 51.10100 24.97700
N  25.07600 50.25300 29.34500
C  24.12400 50.63900 30.34000
C  24.64100 50.61900 31.77400
C  26.14200 50.04800 31.51500
C  26.23100 49.98400 29.97700
C  27.37300 50.78000 32.16200
C  23.82300 49.84800 32.85500
C  24.47300 49.62500 34.24000
H  23.88200 50.22300 35.61600
N  26.90300 49.34500 27.09900
C  27.64600 48.97800 28.14000
C  28.84700 48.34700 27.56400
C  28.80200 48.33200 26.14800
C  27.51200 49.04600 25.87000
C  29.90300 47.82700 28.47700
C  29.78600 47.93400 25.13500
O  29.71900 48.22500 23.98000
C  30.95500 47.09100 25.57400
N  24.68900 50.16100 25.11300
C  25.68800 49.87400 24.26700
C  25.46400 50.44200 22.89700
C  23.95200 50.85800 22.91800
C  23.63700 50.80000 24.40800
C  26.46500 51.63800 22.68700
C  23.04100 49.99900 21.96700
C  22.46700 48.63100 22.57600
N  23.01900 50.94500 27.34600
C  22.15200 51.34200 26.36200
C  21.04400 52.03900 26.97600
C  21.27200 51.96100 28.33300
C  22.48400 51.32500 28.54000
C  19.91400 52.66100 26.21200
C  20.77900 52.34400 29.59800
O  19.69700 52.89300 29.89000
C  21.89200 51.98900 30.61600
C  22.26000 53.30300 31.12900
O  22.64700 54.24300 30.53000
O  22.02500 53.30700 32.53500
C  22.18300 54.62300 33.25300
H  28.14900 49.05800 30.11600
H  27.47500 48.96200 23.73600
H  21.71500 51.44800 24.22200
H  24.80200 51.63400 32.13700
H  26.11300 49.03700 31.92300
H  27.99200 49.94900 32.50100
H  26.95200 51.35600 32.98700
H  27.92800 51.34600 31.41400
H  23.46600 48.93300 32.38200
H  22.90000 50.41500 32.98100
H  25.48200 50.02900 34.16100
H  24.39900 48.54100 34.33000
H  30.03900 46.81000 28.11000
H  29.66900 47.87100 29.54100
H  30.92600 48.17800 28.33900
H  30.64400 46.11700 25.95200
H  31.52600 47.69600 26.27900
H  31.64800 46.90500 24.75400
H  25.57400 49.60500 22.20800
H  23.86600 51.87800 22.54300
H  27.50800 51.38900 22.88000
H  26.06900 52.53200 23.16800
H  26.35500 51.77100 21.61000
H  23.69500 49.81500 21.11400
H  22.18600 50.63600 21.73900
H  22.93500 48.37700 23.52600
H  22.56200 47.84000 21.83200
H  21.39800 48.75700 22.75200
H  19.81900 52.41500 25.15500
H  20.05000 53.73900 26.30000
H  18.93800 52.44800 26.64800
H  21.44500 51.37300 31.39600
H  22.92200 55.17600 32.67400
H  22.58600 54.49100 34.25700
H  21.29900 55.25700 33.30700

