158

Mg 41.34500 41.28500 26.55400
C  40.76600 43.43800 29.38300
C  43.03500 39.11600 28.74500
C  42.31700 39.52700 23.94500
C  40.41800 44.07000 24.49200
N  41.90300 41.31000 28.78200
C  41.39900 42.22100 29.68100
C  41.94400 41.83900 31.07700
C  42.98000 40.66800 30.75700
C  42.52500 40.25000 29.36200
C  44.44500 41.02600 30.82600
C  40.91400 41.46000 32.18100
C  41.09200 42.05500 33.62000
H  39.78900 42.27400 34.35300
N  42.37900 39.48000 26.36900
C  42.96700 38.77300 27.40600
C  43.26900 37.47600 26.82400
C  43.19600 37.61500 25.40500
C  42.67200 38.96500 25.17100
C  43.62100 36.30000 27.65200
C  43.54400 36.61300 24.30100
O  43.29100 36.83800 23.12900
C  44.10700 35.23900 24.63900
N  41.41100 41.78500 24.57900
C  41.70200 40.79400 23.65500
C  41.48400 41.21800 22.21600
C  40.67600 42.50300 22.42500
C  40.87600 42.80700 23.93400
C  42.73800 41.48800 21.33000
C  39.14300 42.39600 22.07100
C  38.40500 41.05700 22.36100
N  40.81600 43.30300 26.80000
C  40.45700 44.30700 25.84300
C  39.91800 45.42200 26.52100
C  40.05500 45.15700 27.92300
C  40.51100 43.81100 28.00700
C  39.29400 46.72900 25.87000
C  39.85200 45.71300 29.27900
O  39.49600 46.82500 29.58200
C  40.26100 44.58000 30.27500
C  41.20800 45.20000 31.24800
O  42.40300 45.41500 30.98600
O  40.58400 45.61700 32.35900
C  41.45700 46.33400 33.25600
H  43.54200 38.39100 29.38400
H  42.62300 38.99800 23.04000
H  39.89200 44.80600 23.88000
H  42.42200 42.75900 31.41600
H  42.78700 39.84100 31.44100
H  44.54800 42.10800 30.90200
H  45.00100 40.91300 29.89500
H  44.91000 40.44900 31.62600
H  40.79800 40.37900 32.11200
H  39.99200 41.91900 31.82200
H  41.73700 42.93100 33.54900
H  41.66600 41.33500 34.20300
H  43.45700 36.34200 28.72900
H  44.69100 36.16000 27.50300
H  42.93200 35.49000 27.41200
H  43.23900 34.72600 25.05500
H  44.87500 35.34700 25.40400
H  44.56600 34.85100 23.73000
H  40.92500 40.43500 21.70400
H  41.16000 43.33600 21.91600
H  43.16300 42.49200 21.36600
H  42.46100 41.35400 20.28500
H  43.55800 40.78400 21.47300
H  39.20700 42.50200 20.98800
H  38.57900 43.25300 22.43800
H  38.07400 40.57500 21.44100
H  37.51100 41.28900 22.94000
H  39.03500 40.36100 22.91500
H  38.75500 46.42900 24.97200
H  40.05100 47.49300 25.69400
H  38.53300 47.06800 26.57300
H  39.36400 44.21100 30.77200
H  41.93400 47.16500 32.73500
H  42.27100 45.71500 33.63300
H  40.89500 46.70900 34.11100
Mg 0.79100 43.96700 25.47500
C  2.58300 43.93800 28.50000
C  -2.10600 43.46700 27.31600
C  -0.87300 43.70600 22.53400
C  3.75400 44.61100 23.75300
N  0.29700 43.56400 27.63000
C  1.21700 43.72700 28.70700
C  0.57400 43.40300 30.03300
C  -0.91200 43.12500 29.57000
C  -0.95700 43.42900 28.09100
C  -1.43300 41.61700 29.77500
C  0.64300 44.65500 31.03500
C  1.33900 44.48900 32.40500
H  1.00000 43.25900 33.19000
N  -1.16400 43.62000 24.99300
C  -2.23200 43.61100 25.87900
C  -3.47900 43.37400 25.12900
C  -3.14400 43.31600 23.75100
C  -1.70000 43.57800 23.71400
C  -4.87600 43.38300 25.67900
C  -4.04300 43.21800 22.54900
O  -3.58400 43.07200 21.42800
C  -5.56900 43.25800 22.64400
N  1.34400 44.15200 23.45300
C  0.50000 43.90600 22.38200
C  1.29300 43.93700 21.04000
C  2.58500 44.72800 21.51500
C  2.60700 44.50200 23.01400
C  1.53200 42.56400 20.61800
C  2.61300 46.18900 21.03900
C  2.85400 46.29300 19.52300
N  2.72000 44.19000 25.96700
C  3.84000 44.42500 25.19800
C  5.09300 44.51800 25.93400
C  4.65200 44.33400 27.28500
C  3.21700 44.14000 27.21700
C  6.44900 44.76700 25.50700
C  5.06400 44.21800 28.71500
O  6.20400 44.16100 29.22400
C  3.72600 44.10200 29.51700
C  3.94800 42.88100 30.34700
O  3.60400 41.71900 30.09800
O  4.57500 43.29600 31.52200
C  4.97200 42.25500 32.55200
H  -3.00500 43.25500 27.89900
H  -1.33500 43.71900 21.54500
H  4.66100 44.79800 23.17400
H  1.05300 42.51800 30.45400
H  -1.67700 43.67500 30.11800
H  -0.64900 41.08900 30.31800
H  -1.72000 41.08500 28.86800
H  -2.32700 41.82600 30.36200
H  -0.35900 44.98700 31.30500
H  1.20300 45.39000 30.45600
H  1.01900 45.35900 32.97900
H  2.42400 44.57200 32.34100
H  -5.52500 44.17900 25.31600
H  -4.97100 43.22400 26.75300
H  -5.35500 42.46200 25.34400
H  -6.03400 42.34900 23.02600
H  -6.01900 43.32600 21.65400
H  -5.78900 44.09100 23.31200
H  0.78400 44.48300 20.24600
H  3.54300 44.25600 21.29600
H  2.26100 42.53100 19.80900
H  0.61200 42.11500 20.24100
H  1.88700 41.87800 21.38600
H  3.51900 46.53000 21.54000
H  1.72000 46.75400 21.30300
H  3.83900 46.70500 19.30300
H  2.23100 47.03700 19.02800
H  2.78700 45.28000 19.12800
H  7.12800 43.99600 25.87100
H  6.71600 45.76300 25.85900
H  6.48700 44.91800 24.42800
H  3.58700 45.03200 30.06900
H  4.55700 42.58200 33.50500
H  6.06100 42.27500 32.51800
H  4.58100 41.26500 32.31900

