158

Mg 24.50500 -5.74000 45.75700
C  27.00900 -3.49900 44.27600
C  22.28600 -4.41700 43.60100
C  22.69900 -8.48000 46.14000
C  27.30900 -7.34400 47.20900
N  24.70500 -4.26600 44.02600
C  25.76000 -3.43900 43.64200
C  25.32500 -2.42500 42.53100
C  23.75100 -2.61000 42.56400
C  23.57600 -3.91700 43.36400
C  22.98100 -1.39300 43.12000
C  26.00500 -2.76800 41.18800
C  26.32400 -1.46500 40.36900
H  25.78100 -1.37100 38.95000
N  22.63100 -6.28300 45.17000
C  21.81100 -5.52600 44.31600
C  20.55700 -6.23900 44.08100
C  20.72900 -7.52300 44.71900
C  22.09600 -7.48600 45.34300
C  19.41900 -5.71600 43.26300
C  19.70700 -8.65000 44.67700
O  18.59700 -8.52300 44.18500
C  20.05800 -10.08100 44.93500
N  24.99100 -7.66000 46.57200
C  24.01900 -8.55500 46.69300
C  24.48600 -9.79000 47.55900
C  25.92500 -9.36400 48.02000
C  26.13300 -8.04200 47.24100
C  23.56200 -10.22900 48.70000
C  27.07900 -10.39300 47.72900
C  27.75500 -10.90400 48.95800
N  26.68800 -5.40500 45.98700
C  27.64700 -6.15400 46.63200
C  28.92300 -5.40100 46.68700
C  28.63900 -4.34300 45.74500
C  27.30300 -4.47800 45.26900
C  30.30500 -5.74500 47.28500
C  29.31500 -3.32000 45.05100
O  30.50200 -3.04800 45.11600
C  28.22500 -2.61100 44.08700
C  27.98600 -1.17100 44.58900
O  27.88700 -0.79500 45.75300
O  28.06200 -0.31100 43.50600
C  27.99600 1.12000 43.82700
H  21.48600 -3.95500 43.01800
H  22.01300 -9.28700 46.40300
H  28.15800 -7.68700 47.80300
H  25.48600 -1.38400 42.81400
H  23.41700 -2.94200 41.58200
H  23.59500 -0.50200 42.99300
H  22.77300 -1.57400 44.17500
H  22.05000 -1.11800 42.62400
H  25.36600 -3.41500 40.58800
H  26.87300 -3.41200 41.32900
H  27.39500 -1.27100 40.43400
H  25.94000 -0.60800 40.92300
H  19.64900 -6.14600 42.28800
H  19.41100 -4.62700 43.21400
H  18.45300 -6.05100 43.64200
H  19.44300 -10.74900 44.33100
H  19.89400 -10.31900 45.98600
H  21.08600 -10.21700 44.59900
H  24.57700 -10.62900 46.87000
H  26.03300 -9.02900 49.05100
H  22.86600 -11.03100 48.45400
H  22.88200 -9.38700 48.82600
H  24.16000 -10.43500 49.58700
H  27.75100 -9.93900 47.00100
H  26.69700 -11.24500 47.16800
H  27.57200 -10.30000 49.84700
H  28.80900 -10.94900 48.68200
H  27.47500 -11.88600 49.33800
H  30.14100 -5.95100 48.34300
H  30.99300 -4.91800 47.11000
H  30.68900 -6.65700 46.82800
H  28.60800 -2.56200 43.06800
H  27.98300 1.78800 42.96600
H  28.91200 1.45200 44.31600
H  27.13800 1.46500 44.40400
Mg -5.07000 25.30700 25.93000
C  -3.94100 26.79500 28.91500
C  -7.09800 23.22900 27.83800
C  -5.71000 23.70800 23.16100
C  -2.66000 27.24600 24.24600
N  -5.44000 25.00000 28.18600
C  -4.97300 25.83100 29.21000
C  -5.66000 25.39500 30.51800
C  -6.32900 24.02700 30.15900
C  -6.28800 24.04900 28.67500
C  -5.66100 22.79600 30.70400
C  -6.73600 26.38600 31.14000
C  -6.83300 26.40900 32.67700
H  -6.18800 25.32800 33.52500
N  -6.23600 23.62800 25.60600
C  -7.07600 22.98900 26.47100
C  -7.76400 21.96900 25.77700
C  -7.34000 22.01900 24.39100
C  -6.36100 23.11500 24.35500
C  -8.76800 21.11500 26.46200
C  -7.78000 21.13900 23.18200
O  -7.31700 21.42800 22.08900
C  -8.82200 20.06900 23.34600
N  -4.54300 25.70300 23.98100
C  -4.85500 24.79400 23.06000
C  -4.12100 25.00600 21.67800
C  -3.40300 26.29500 21.95900
C  -3.47700 26.40900 23.45000
C  -3.27900 23.78700 21.25100
C  -3.86300 27.59500 21.18100
C  -2.80200 28.09500 20.15700
N  -3.65100 26.82500 26.42900
C  -2.74800 27.49300 25.61000
C  -1.97100 28.47500 26.45300
C  -2.45700 28.24000 27.73400
C  -3.42000 27.24700 27.68200
C  -1.04200 29.56900 26.04800
C  -2.43300 28.64500 29.05400
O  -1.79000 29.65800 29.52000
C  -3.40500 27.75700 29.90600
C  -2.48800 27.06400 30.84900
O  -1.64900 26.21100 30.63900
O  -2.83300 27.50400 32.08200
C  -2.25600 26.83600 33.26000
H  -7.79400 22.55100 28.33700
H  -5.81700 23.13700 22.23600
H  -1.96600 27.87100 23.68000
H  -4.96000 25.29300 31.34600
H  -7.35000 23.94700 30.53100
H  -5.04300 22.24500 29.99500
H  -6.44700 22.11400 31.02700
H  -5.07000 22.99300 31.59900
H  -7.72600 26.17700 30.73400
H  -6.54900 27.37200 30.71400
H  -7.89600 26.37800 32.91600
H  -6.52000 27.41200 32.96600
H  -9.01200 21.28000 27.51200
H  -8.58000 20.04200 26.41700
H  -9.62300 21.23300 25.79700
H  -8.87900 19.34500 22.53200
H  -9.82700 20.46100 23.50100
H  -8.47900 19.45900 24.18200
H  -5.02500 25.02600 21.06900
H  -2.34700 26.13000 21.74400
H  -2.25500 23.98800 20.93700
H  -3.87400 23.21200 20.54200
H  -3.09200 23.13700 22.10600
H  -3.91400 28.37400 21.94100
H  -4.89900 27.46900 20.86600
H  -3.28400 28.30000 19.20100
H  -2.04400 27.35600 19.89700
H  -2.35300 29.03800 20.46800
H  -0.81500 29.46200 24.98800
H  -0.19200 29.60700 26.73000
H  -1.49600 30.56000 26.06800
H  -4.26500 28.25600 30.35300
H  -1.43800 27.51700 33.49700
H  -1.78000 25.85800 33.18900
H  -2.98000 26.82700 34.07400

