158

Mg 25.26000 0.72300 29.74200
C  27.27400 0.65700 32.64400
C  22.42500 0.92700 31.76900
C  23.45100 0.17600 26.92900
C  28.15900 -0.00900 27.83900
N  24.93700 0.71700 32.05400
C  25.92400 0.71000 33.05600
C  25.25100 0.83700 34.46900
C  23.70800 0.87200 34.05900
C  23.67400 0.82800 32.52400
C  22.81400 -0.25800 34.71300
C  25.76600 2.10300 35.37900
C  26.40500 1.83600 36.68100
H  26.26700 2.95600 37.74600
N  23.26700 0.69100 29.41300
C  22.23600 0.81400 30.30000
C  21.03000 1.04700 29.58700
C  21.26300 0.84100 28.24600
C  22.74300 0.59300 28.11500
C  19.69400 1.26600 30.18900
C  20.25700 0.75300 27.12000
O  20.56200 0.37900 25.99300
C  18.93400 1.21000 27.31100
N  25.75900 0.23700 27.77600
C  24.78900 -0.01500 26.82500
C  25.37900 -0.26800 25.45100
C  26.86700 -0.42400 25.81000
C  26.97400 0.02900 27.21400
C  24.64300 -1.32700 24.53900
C  27.71900 0.50200 24.86400
C  27.97800 1.97800 25.22800
N  27.36800 0.50800 30.11500
C  28.40400 0.15000 29.21000
C  29.61200 0.03900 30.07200
C  29.19200 0.26200 31.34700
C  27.84800 0.52600 31.36200
C  31.02000 -0.18900 29.55600
C  29.72300 0.42800 32.65700
O  30.91000 0.41000 33.01900
C  28.50700 0.77200 33.54900
C  28.41400 -0.30800 34.61800
O  27.67000 -1.30200 34.48800
O  29.25800 0.01600 35.62400
C  29.26200 -0.98500 36.76500
H  21.51500 0.94700 32.37300
H  22.83900 0.11700 26.02600
H  29.08100 0.01500 27.25500
H  25.59800 0.01200 35.09000
H  23.34400 1.85400 34.36100
H  21.93900 0.10300 35.25400
H  23.34600 -0.93300 35.38300
H  22.41600 -0.91400 33.93900
H  24.93800 2.74000 35.68900
H  26.35400 2.84000 34.83200
H  27.46200 1.57400 36.65100
H  25.94100 0.95800 37.13100
H  19.15000 2.18400 29.96600
H  19.85500 1.23400 31.26600
H  19.07500 0.39600 29.97000
H  18.50800 1.34000 26.31700
H  18.95500 2.22000 27.72000
H  18.20100 0.61600 27.85700
H  25.27700 0.65700 24.88500
H  27.21700 -1.45400 25.74800
H  25.33200 -2.12000 24.24600
H  24.27700 -0.81400 23.65000
H  23.86100 -1.82100 25.11500
H  27.36600 0.44200 23.83500
H  28.69300 0.01300 24.84900
H  27.49000 2.32300 26.13900
H  27.49100 2.49200 24.40000
H  29.05500 2.14600 25.22100
H  31.36800 0.71200 29.05200
H  30.99900 -1.07700 28.92500
H  31.73900 -0.38200 30.35200
H  28.55000 1.73900 34.05000
H  29.34600 -2.03900 36.49800
H  28.28000 -0.85900 37.22200
H  30.06900 -0.95200 37.49700
Mg -12.10300 37.73400 42.05800
C  -9.83200 35.30500 41.31800
C  -10.11900 40.19600 41.04800
C  -14.81200 39.92200 42.32600
C  -14.24000 35.18800 43.49800
N  -10.30100 37.67100 41.05800
C  -9.42900 36.58900 40.95700
C  -8.10300 37.06000 40.43100
C  -8.09600 38.59000 40.74600
C  -9.60200 38.85100 40.96700
C  -7.27100 38.92300 42.03500
C  -8.01700 36.74700 38.88600
C  -6.79000 35.79600 38.40100
H  -5.84700 36.41300 37.26100
N  -12.38400 39.82100 41.70300
C  -11.41500 40.66300 41.26300
C  -11.98700 41.97900 41.22500
C  -13.36900 41.86300 41.37400
C  -13.62600 40.49800 41.79000
C  -11.20100 43.18200 40.81500
C  -14.37400 42.99400 41.23300
O  -13.93300 44.17200 41.05000
C  -15.89500 42.86700 41.41100
N  -14.21500 37.52500 42.77800
C  -15.05600 38.61600 42.82700
C  -16.34100 38.31500 43.56100
C  -16.13900 36.81600 44.00100
C  -14.81600 36.48800 43.44500
C  -16.70400 39.33000 44.69700
C  -17.27000 35.80900 43.44900
C  -18.22300 35.13600 44.48600
N  -12.22100 35.56200 42.16900
C  -13.06600 34.69400 42.90700
C  -12.44500 33.38600 42.88700
C  -11.18400 33.53200 42.22800
C  -11.11400 34.90800 41.80100
C  -13.01300 32.23200 43.65300
C  -9.89200 32.97400 42.00000
O  -9.46300 31.86900 42.26100
C  -8.97500 34.09900 41.35100
C  -7.60500 34.22300 42.04000
O  -6.56300 33.92800 41.42400
O  -7.62500 34.81400 43.27600
C  -6.34500 34.96100 43.94600
H  -9.26400 40.85300 40.87600
H  -15.65600 40.60300 42.45100
H  -14.85300 34.45800 44.03100
H  -7.30700 36.52400 40.94800
H  -7.74000 39.25000 39.95600
H  -7.80400 39.44300 42.83100
H  -6.58700 39.70000 41.69400
H  -6.73200 38.04600 42.39400
H  -7.86800 37.69100 38.36300
H  -8.97600 36.36100 38.54000
H  -7.35300 34.97900 37.95000
H  -6.22700 35.36100 39.22700
H  -11.39000 43.43500 39.77100
H  -10.14000 42.96300 40.93600
H  -11.48700 43.99800 41.47900
H  -16.49800 43.61200 40.89200
H  -16.30200 42.83600 42.42100
H  -16.13600 41.94400 40.88300
H  -17.03300 38.33900 42.71800
H  -16.08500 36.70900 45.08500
H  -17.12800 38.73900 45.51000
H  -17.57000 39.85700 44.29700
H  -15.91700 40.05200 44.91200
H  -16.77300 35.12900 42.75700
H  -17.95700 36.39700 42.84100
H  -19.25500 35.35600 44.21300
H  -17.91200 35.54800 45.44600
H  -18.16100 34.04700 44.47800
H  -13.09000 31.33600 43.03700
H  -13.98700 32.41700 44.10500
H  -12.39300 31.90300 44.48700
H  -8.72400 33.87400 40.31400
H  -5.78600 35.78300 43.49800
H  -5.71300 34.09200 44.13000
H  -6.62500 35.31700 44.93800

