158

Mg 48.60500 36.02600 28.26500
C  46.73400 34.29600 30.60100
C  48.64400 38.73900 30.25300
C  49.94600 37.78700 25.77000
C  48.29500 33.30200 26.07100
N  47.67300 36.44800 30.17700
C  47.12500 35.54300 31.07200
C  46.88100 36.19200 32.45600
C  47.25200 37.69000 32.24300
C  47.86900 37.61900 30.80100
C  46.15300 38.83000 32.38500
C  47.78500 35.47900 33.62000
C  49.08800 36.01200 34.17400
H  49.11500 36.73200 35.54700
N  49.33900 37.95100 28.08200
C  49.29100 38.90900 29.00400
C  50.04400 40.14500 28.61100
C  50.47400 39.85500 27.26400
C  49.91800 38.52500 26.96200
C  50.25700 41.34000 29.41600
C  51.29800 40.65100 26.27000
O  51.71900 40.19300 25.25600
C  51.67400 42.03800 26.65600
N  48.93600 35.59900 26.25400
C  49.44600 36.55000 25.46800
C  49.65100 36.03100 24.02000
C  49.42900 34.44900 24.11100
C  48.81700 34.45600 25.51600
C  48.67600 36.68400 22.99800
C  50.81800 33.73600 23.96500
C  51.50500 33.82500 22.61600
N  47.72400 34.13800 28.25900
C  47.71800 33.14700 27.30900
C  46.98700 32.00200 27.82100
C  46.57500 32.42800 29.09100
C  46.97000 33.75600 29.27600
C  46.84300 30.71000 27.17700
C  45.81800 32.07900 30.26200
O  45.23200 31.01300 30.50000
C  45.77400 33.27500 31.25400
C  46.16500 32.75800 32.58800
O  47.08300 31.98100 32.80100
O  45.19300 33.16900 33.44400
C  45.25200 32.51000 34.79200
H  48.68600 39.58500 30.94200
H  50.41900 38.34400 24.95800
H  48.23600 32.46000 25.37900
H  45.87300 36.06000 32.84800
H  48.06300 37.95400 32.92200
H  46.54200 39.84800 32.34700
H  45.56600 38.66900 33.28900
H  45.50000 38.74000 31.51700
H  48.06600 34.50900 33.21000
H  47.02200 35.25900 34.36700
H  49.55000 36.64900 33.41800
H  49.78000 35.17400 34.09600
H  49.39500 41.99100 29.27200
H  51.22800 41.81600 29.28000
H  50.22200 41.05000 30.46700
H  52.00600 42.45800 25.70700
H  52.38400 42.05400 27.48300
H  50.75200 42.54500 26.94200
H  50.67700 36.29200 23.76000
H  48.62100 34.00100 23.53200
H  49.17900 37.50600 22.48800
H  47.86300 37.07900 23.60600
H  48.30500 35.92900 22.30500
H  50.57300 32.67900 23.85600
H  51.56100 33.73700 24.76300
H  51.66600 34.79700 22.15000
H  50.89600 33.25100 21.91700
H  52.47200 33.32400 22.64300
H  47.59700 30.11200 27.68900
H  47.00300 30.73100 26.09900
H  45.83900 30.36000 27.41700
H  44.71000 33.50600 31.30400
H  45.54700 31.48500 34.56600
H  44.23700 32.45000 35.18400
H  45.92100 32.86800 35.57500
Mg 42.88800 42.10700 26.39600
C  41.82700 44.45700 28.81400
C  44.29500 40.32700 28.84000
C  43.73700 39.94800 24.07800
C  42.00600 44.44000 23.85900
N  43.01900 42.45400 28.61000
C  42.39100 43.32200 29.37600
C  42.46300 42.92400 30.88500
C  43.49400 41.71200 30.82800
C  43.61500 41.47300 29.33400
C  44.93600 41.95200 31.37600
C  41.05700 42.72100 31.51600
C  40.72400 43.32300 32.94600
H  41.73800 43.11600 34.09900
N  43.77400 40.29400 26.46100
C  44.39700 39.72900 27.52900
C  44.85000 38.40000 27.22100
C  44.61400 38.25300 25.84900
C  43.98800 39.51300 25.41700
C  45.56900 37.40500 28.22900
C  44.91900 37.11300 24.95400
O  44.94200 37.16200 23.70700
C  45.32900 35.82900 25.64000
N  42.95200 42.13800 24.32800
C  43.21300 41.09100 23.61700
C  43.08200 41.42500 22.12700
C  42.37000 42.82100 22.05600
C  42.48100 43.18300 23.52600
C  44.45000 41.52200 21.35000
C  40.95200 42.71600 21.51700
C  39.87200 41.93700 22.26400
N  42.13600 44.07600 26.31800
C  41.75700 44.88800 25.22200
C  41.12500 46.12000 25.71500
C  41.14700 46.00500 27.16200
C  41.71800 44.72600 27.45600
C  40.59900 47.09700 24.80800
C  40.84600 46.62300 28.41200
O  40.33500 47.72500 28.65600
C  41.16900 45.62800 29.53400
C  42.05300 46.33400 30.52700
O  43.25400 46.49300 30.55300
O  41.19200 46.73600 31.49900
C  41.71700 47.57400 32.61800
H  44.63700 39.65200 29.62800
H  43.99800 39.26000 23.27100
H  41.64100 45.08400 23.05600
H  42.94000 43.74300 31.42300
H  43.20600 40.90200 31.49700
H  45.13500 42.96500 31.72500
H  45.70700 41.62800 30.67700
H  44.99900 41.30400 32.24900
H  40.81400 41.65800 31.52200
H  40.25900 43.15100 30.91100
H  39.77000 42.86900 33.21300
H  40.70100 44.41200 32.95300
H  46.56900 37.40300 27.79600
H  45.25700 36.37300 28.38900
H  45.53700 37.91800 29.19000
H  46.28300 35.94700 26.15300
H  45.12100 35.00300 24.96000
H  44.71000 35.50500 26.47700
H  42.46200 40.69200 21.61100
H  43.03200 43.49300 21.50900
H  45.12400 40.81500 21.83500
H  44.99700 42.45900 21.45900
H  44.30000 41.34500 20.28500
H  40.96300 42.20900 20.55200
H  40.65700 43.73000 21.24800
H  40.26000 41.47400 23.17100
H  39.41300 41.10700 21.72700
H  39.11200 42.65600 22.57100
H  40.32900 47.86300 25.53400
H  39.81500 46.45100 24.41400
H  41.47000 47.26700 24.17500
H  40.28700 45.31800 30.09400
H  42.44800 48.31400 32.29100
H  42.15800 46.97100 33.41200
H  40.96900 48.22200 33.07500

