158

Mg -1.83200 17.33400 26.12500
C  -2.44800 15.18400 28.88100
C  -3.12700 19.84700 27.99800
C  -1.61100 19.28700 23.56000
C  -1.31300 14.48200 24.12500
N  -2.71900 17.46600 28.22900
C  -2.80900 16.52300 29.17400
C  -3.33500 17.05200 30.53400
C  -3.99300 18.35300 30.03800
C  -3.26600 18.58800 28.66200
C  -5.54400 18.27600 29.93500
C  -2.18200 17.27600 31.52100
C  -2.49900 16.89400 33.00100
H  -1.22900 16.48400 33.87100
N  -1.99900 19.36200 25.95700
C  -2.56700 20.24500 26.80900
C  -2.40600 21.57200 26.29600
C  -1.88800 21.43300 25.00400
C  -1.86300 20.05400 24.74000
C  -2.74700 22.78100 27.13500
C  -1.41500 22.52600 24.10600
O  -0.80600 22.24800 23.07700
C  -1.47700 23.88300 24.55500
N  -1.71900 16.90300 24.18300
C  -1.55400 17.90600 23.26400
C  -1.53100 17.42900 21.85000
C  -1.11900 15.91800 22.03300
C  -1.39100 15.75700 23.54300
C  -2.93000 17.70400 21.26400
C  0.41500 15.58900 21.79900
C  1.46300 16.01500 22.79900
N  -1.86200 15.21600 26.41800
C  -1.60700 14.19300 25.54600
C  -1.67600 12.88600 26.20300
C  -2.01100 13.22300 27.56300
C  -2.11500 14.62800 27.62800
C  -1.52100 11.51200 25.62100
C  -2.23700 12.64300 28.86000
O  -2.24700 11.48800 29.28700
C  -2.55100 13.91500 29.76600
C  -1.57900 13.91600 30.95900
O  -0.37000 13.97200 30.92200
O  -2.31000 13.57000 32.04400
C  -1.53600 13.14900 33.18300
H  -3.55600 20.54400 28.72200
H  -1.57700 19.97000 22.70900
H  -1.02400 13.72700 23.39100
H  -4.02600 16.29300 30.89900
H  -3.74400 19.16100 30.72600
H  -6.08700 19.09100 30.41500
H  -5.84900 17.28800 30.27900
H  -5.81300 18.27000 28.87900
H  -1.85000 18.31300 31.56700
H  -1.42600 16.56000 31.19700
H  -3.25500 16.12400 33.14800
H  -2.86600 17.82400 33.43700
H  -3.12200 22.59600 28.14200
H  -3.48700 23.41000 26.64000
H  -1.81500 23.34700 27.15500
H  -2.47100 24.15000 24.91400
H  -1.23600 24.53600 23.71700
H  -0.68500 24.06100 25.28200
H  -0.74100 17.93400 21.29200
H  -1.75900 15.34200 21.36400
H  -3.40700 16.72500 21.23000
H  -2.82400 18.00300 20.22100
H  -3.54100 18.26900 21.96700
H  0.82500 16.06600 20.90900
H  0.48900 14.54200 21.50600
H  1.90100 15.12100 23.24300
H  1.02200 16.71200 23.51100
H  2.36700 16.40800 22.33400
H  -1.47700 11.49300 24.53300
H  -2.44900 10.99200 25.86100
H  -0.68000 11.00400 26.09200
H  -3.55900 13.73900 30.14200
H  -2.02700 13.66100 34.01100
H  -0.51100 13.51400 33.23700
H  -1.54400 12.06000 33.21900
Mg 35.52300 1.29300 29.64700
C  33.31500 1.95800 32.29700
C  38.14700 1.12400 31.86200
C  37.68300 0.52400 27.06700
C  32.88600 1.34000 27.42800
N  35.64600 1.60500 31.78700
C  34.64500 1.86100 32.69200
C  35.17400 1.86800 34.04700
C  36.68400 1.94400 33.88000
C  36.89400 1.43200 32.41500
C  37.41700 3.31200 34.06700
C  34.74700 0.55100 34.81000
C  34.19400 0.71100 36.28200
H  34.80900 1.77400 37.16600
N  37.58900 0.92700 29.46800
C  38.44000 0.77500 30.58900
C  39.78800 0.38900 30.11100
C  39.77700 0.35900 28.70400
C  38.30000 0.53900 28.35600
C  41.00300 0.07000 31.03600
C  40.85100 0.00800 27.60700
O  40.73300 0.32000 26.45200
C  42.14700 -0.47900 28.03900
N  35.31600 0.94100 27.52100
C  36.39500 0.66500 26.66200
C  35.94300 0.65100 25.21100
C  34.41500 0.76300 25.36300
C  34.16300 1.07100 26.83100
C  36.70100 1.54100 24.16200
C  33.53500 -0.47000 24.82800
C  32.20100 -0.14500 24.05800
N  33.59000 1.74000 29.78600
C  32.66200 1.82300 28.73000
C  31.36800 2.15100 29.27800
C  31.53200 2.06900 30.66300
C  32.90900 1.87300 30.95400
C  30.20100 2.49900 28.45400
C  30.87200 2.16900 31.95100
O  29.68500 2.33600 32.08200
C  31.94200 2.12700 33.00400
C  31.81300 3.37800 33.80500
O  32.20100 4.48700 33.40300
O  31.27500 3.10800 35.03500
C  31.18500 4.29800 35.89600
H  38.97100 1.11900 32.57800
H  38.35000 0.38000 26.21500
H  32.04200 1.30000 26.73700
H  34.77800 2.72700 34.58800
H  37.19000 1.22700 34.52600
H  37.61100 3.68300 33.06000
H  38.30200 3.01700 34.63100
H  36.83100 3.97200 34.70700
H  35.51300 -0.21500 34.92600
H  33.91200 0.27300 34.16700
H  34.32900 -0.23800 36.80000
H  33.16600 1.07000 36.23300
H  40.73800 -0.13900 32.07200
H  41.80900 0.79700 30.94400
H  41.39100 -0.85400 30.60700
H  42.43000 0.17400 28.86500
H  42.85700 -0.35100 27.22200
H  42.09600 -1.51300 28.38000
H  36.16200 -0.32800 24.78500
H  34.03800 1.63200 24.82500
H  35.88300 1.92900 23.55500
H  37.48800 1.03300 23.60400
H  37.18000 2.32200 24.75100
H  33.30700 -1.08800 25.69700
H  34.20100 -0.94200 24.10500
H  32.49000 -0.03800 23.01300
H  31.91300 0.89600 24.19800
H  31.38400 -0.86400 24.11700
H  29.87800 3.46100 28.85300
H  29.52700 1.65100 28.57200
H  30.50800 2.60700 27.41400
H  31.57200 1.34100 33.66200
H  32.16200 4.76200 36.03300
H  30.90900 4.10700 36.93300
H  30.46900 4.93300 35.37400

