158

Mg 26.02200 1.23200 29.24100
C  28.10400 1.30700 32.10600
C  23.41900 1.62400 31.42900
C  24.04500 1.13700 26.53800
C  28.74800 0.62300 27.22600
N  25.84900 1.40300 31.53100
C  26.75700 1.35400 32.54800
C  26.20800 1.60200 33.96900
C  24.71400 1.49000 33.59500
C  24.62400 1.52900 32.07400
C  23.98400 0.29700 34.27600
C  26.74200 2.86500 34.68200
C  27.12500 2.48100 36.13100
H  26.36300 3.25900 37.21700
N  23.92400 1.25800 28.99600
C  23.04500 1.56200 30.01800
C  21.71900 1.70800 29.40000
C  21.80500 1.36900 27.99500
C  23.30000 1.27700 27.76900
C  20.45000 1.91800 30.32700
C  20.76600 1.25500 26.86400
O  21.06100 0.82100 25.78300
C  19.29500 1.63900 27.17600
N  26.36200 1.07000 27.12700
C  25.39000 0.95900 26.19800
C  25.93800 0.78100 24.73200
C  27.49500 0.60600 25.07500
C  27.58000 0.78200 26.54800
C  25.38000 -0.22400 23.73000
C  28.32000 1.63600 24.40300
C  28.68800 1.35300 22.93900
N  28.03100 1.17900 29.49800
C  29.01200 0.75400 28.56000
C  30.21000 0.74300 29.25900
C  29.86500 0.94000 30.59600
C  28.55200 1.19700 30.74900
C  31.63800 0.60000 28.73000
C  30.48400 0.97500 31.94700
O  31.68400 0.84100 32.26800
C  29.35500 1.23400 32.97200
C  29.39900 0.12500 34.03500
O  28.96300 -1.00300 33.93700
O  29.82800 0.68500 35.22500
C  29.66000 -0.17500 36.45000
H  22.57200 1.83100 32.08500
H  23.36800 1.32800 25.70300
H  29.63100 0.41700 26.61700
H  26.51500 0.70400 34.50500
H  24.25900 2.37200 34.04600
H  23.86900 -0.61200 33.68500
H  22.97800 0.62600 34.53600
H  24.41200 0.05400 35.24900
H  26.03800 3.69600 34.63900
H  27.65500 3.25700 34.23300
H  28.19300 2.59700 36.31500
H  26.74400 1.47500 36.30900
H  19.65600 1.23200 30.03100
H  20.11400 2.95200 30.25300
H  20.69500 1.77300 31.37900
H  19.39200 2.67900 27.48800
H  19.02900 0.86500 27.89500
H  18.64800 1.60000 26.29900
H  25.77000 1.76100 24.28500
H  27.76800 -0.39900 24.75300
H  24.71700 -0.80900 24.36800
H  26.15200 -0.88100 23.32900
H  24.85000 0.20200 22.87900
H  29.17500 1.92000 25.01500
H  27.76100 2.54600 24.18600
H  28.27300 0.35700 22.78500
H  29.77100 1.28600 22.84000
H  28.30000 2.03000 22.17800
H  32.22900 0.02200 29.44100
H  31.96100 1.64100 28.76700
H  31.55300 0.32100 27.68000
H  29.49100 2.22300 33.40900
H  29.54000 -1.24400 36.27200
H  28.78600 0.17500 37.00000
H  30.48700 -0.09900 37.15600
Mg 47.39900 25.32500 28.48200
C  48.08200 27.38800 31.22000
C  47.04400 22.75000 30.70300
C  46.99900 23.26900 25.86600
C  48.13900 27.82500 26.30700
N  47.74000 25.06600 30.73600
C  47.73200 26.12400 31.62100
C  47.43400 25.61600 33.00700
C  47.18800 24.06200 32.87000
C  47.39600 23.89100 31.37200
C  48.17500 23.23600 33.76600
C  46.25900 26.40300 33.75600
C  45.86400 26.00700 35.17200
H  45.96300 27.08300 36.24000
N  46.96400 23.34300 28.30900
C  46.87300 22.42100 29.31700
C  46.54500 21.05900 28.83900
C  46.42300 21.23200 27.37500
C  46.71800 22.69900 27.15400
C  46.51700 19.75600 29.67000
C  46.06300 20.21400 26.34000
O  46.13600 20.41900 25.15200
C  45.62500 18.84500 26.85300
N  47.58000 25.53400 26.35900
C  47.47600 24.51300 25.51900
C  47.59500 24.96300 24.05900
C  47.72500 26.52300 24.25600
C  47.80800 26.64000 25.73700
C  48.72000 24.36600 23.24800
C  46.52700 27.26900 23.59400
C  46.98100 28.59800 22.90800
N  48.10300 27.19600 28.68200
C  48.39000 28.08900 27.65200
C  48.84100 29.37000 28.30600
C  48.70200 29.12700 29.71400
C  48.24400 27.78500 29.82800
C  49.52200 30.48800 27.62300
C  48.88700 29.74500 31.04400
O  49.37000 30.79700 31.42100
C  48.25800 28.69800 32.02600
C  49.23900 28.44000 33.12600
O  50.36800 28.04700 32.92700
O  48.75000 28.81200 34.38700
C  49.55000 28.36400 35.54300
H  46.83200 21.98200 31.45000
H  46.76900 22.58100 25.05000
H  48.39100 28.58200 25.56100
H  48.31000 25.77300 33.63700
H  46.14300 23.87800 33.12300
H  47.69100 22.31900 34.10400
H  48.43400 23.69200 34.72200
H  49.07200 23.01800 33.18800
H  45.37400 26.40800 33.12000
H  46.56500 27.44900 33.74200
H  46.50300 25.16200 35.42800
H  44.88200 25.57300 34.98300
H  45.54300 19.45000 30.05100
H  47.17500 19.82200 30.53700
H  46.93300 18.96300 29.04800
H  45.08300 18.36700 26.03700
H  44.93300 18.89300 27.69400
H  46.50900 18.23200 27.03300
H  46.63200 24.61700 23.68300
H  48.63700 26.84900 23.75700
H  49.45900 25.16300 23.15800
H  48.40200 23.94400 22.29500
H  49.15800 23.57800 23.86100
H  45.80300 27.36800 24.40300
H  46.05400 26.74700 22.76200
H  48.04700 28.82400 22.90000
H  46.47300 29.48900 23.27600
H  46.75400 28.56100 21.84300
H  50.39200 30.81300 28.19400
H  48.89300 31.34100 27.87700
H  49.65900 30.20000 26.58100
H  47.38600 29.11600 32.53000
H  50.40900 29.01100 35.71800
H  49.98000 27.37400 35.38800
H  48.93700 28.37100 36.44400

