158

Mg 0.44000 7.93900 25.98400
C  1.41600 9.85000 28.80600
C  0.53200 5.12400 27.92000
C  -0.14100 6.19000 23.25900
C  0.47300 10.98700 24.06300
N  0.82600 7.56900 28.08100
C  1.19400 8.46800 29.01800
C  1.34000 7.80800 30.45100
C  1.48600 6.22600 29.98600
C  0.90200 6.31300 28.59700
C  2.83400 5.52000 30.25300
C  0.24800 8.15900 31.47300
C  0.45300 8.04200 33.02800
H  1.70700 7.32500 33.44500
N  0.32400 5.85100 25.59600
C  0.32800 4.89600 26.55500
C  0.18500 3.64600 25.87700
C  -0.08500 3.90000 24.42200
C  0.02900 5.33600 24.38100
C  0.17300 2.32500 26.58600
C  -0.44600 2.97900 23.28600
O  -0.74400 3.35000 22.13600
C  -0.48900 1.51600 23.49300
N  0.27300 8.60600 23.94000
C  -0.11300 7.62800 23.03500
C  -0.51500 8.29300 21.73700
C  -0.50200 9.80800 22.03200
C  0.01600 9.88000 23.49400
C  0.23300 7.74900 20.41800
C  -1.87300 10.66500 21.88100
C  -2.04100 11.79100 20.81700
N  0.98400 10.00500 26.24400
C  0.90500 11.05000 25.39800
C  1.29300 12.30800 26.09500
C  1.52000 11.82100 27.42400
C  1.26500 10.45100 27.47100
C  1.42200 13.72000 25.60700
C  1.86700 12.27000 28.72700
O  2.07200 13.40400 29.12800
C  1.59100 11.04500 29.71700
C  2.79600 10.88700 30.64600
O  3.90900 10.50800 30.30400
O  2.40900 11.23700 31.88800
C  3.26800 11.05200 33.03500
H  0.59000 4.16600 28.44300
H  -0.49400 5.60400 22.40800
H  0.45000 11.88700 23.44400
H  2.28900 8.16200 30.85200
H  0.91500 5.61000 30.68100
H  3.47500 6.26500 30.72400
H  3.21600 5.23700 29.27200
H  2.72600 4.66400 30.91900
H  -0.62300 7.52600 31.30200
H  -0.05300 9.20400 31.39500
H  -0.42500 7.48200 33.34900
H  0.37600 9.04600 33.44500
H  -0.22100 1.47200 26.03500
H  -0.44100 2.44400 27.47800
H  1.15000 2.17900 27.04800
H  -1.41900 1.28000 24.01000
H  0.27800 0.98000 24.05300
H  -0.51600 1.00500 22.53000
H  -1.54300 7.93200 21.75000
H  0.25200 10.11500 21.30700
H  0.55200 8.51200 19.70700
H  -0.50700 7.05800 20.01300
H  1.06000 7.10000 20.70300
H  -2.24500 11.06500 22.82400
H  -2.62100 9.95000 21.53700
H  -2.78100 11.57900 20.04600
H  -1.04400 11.98900 20.42400
H  -2.26300 12.66700 21.42800
H  2.32100 13.83100 25.00200
H  1.36500 14.43100 26.43200
H  0.58500 13.89800 24.93200
H  0.72900 11.35700 30.30600
H  2.64000 10.70500 33.85600
H  3.79500 11.93700 33.39200
H  3.95000 10.24500 32.76700
Mg 26.71400 50.36600 26.19500
C  24.81100 51.51800 28.88500
C  29.10100 49.38800 28.56700
C  28.62100 49.48200 23.76200
C  24.36300 51.76400 24.03800
N  27.01300 50.63600 28.54200
C  25.94400 50.95400 29.29200
C  26.40500 50.66800 30.76100
C  27.81300 50.09800 30.74000
C  28.05900 50.02200 29.21700
C  29.02600 50.95300 31.31700
C  25.36200 49.89400 31.61800
C  24.81000 50.69600 32.86900
H  24.62500 49.89500 34.14100
N  28.58700 49.54300 26.19700
C  29.35800 49.11200 27.20700
C  30.51100 48.35400 26.71100
C  30.44200 48.40700 25.31500
C  29.20300 49.24300 25.05100
C  31.55200 47.78200 27.49200
C  31.46900 47.92600 24.24900
O  31.35800 48.12200 23.09700
C  32.71900 47.13700 24.66500
N  26.64300 50.84800 24.17400
C  27.44000 50.15600 23.38100
C  27.07000 50.21600 21.87900
C  25.66600 50.93200 22.01500
C  25.49700 51.13000 23.51000
C  27.98200 50.82900 20.91700
C  24.42800 50.18900 21.39700
C  23.75600 51.01800 20.31800
N  24.92700 51.39800 26.40400
C  24.07100 51.92700 25.39700
C  23.05600 52.70100 26.04200
C  23.34300 52.46400 27.41000
C  24.42800 51.75300 27.56900
C  21.99300 53.54000 25.40700
C  22.79000 52.78300 28.75000
O  21.78000 53.44900 29.03600
C  23.73600 52.16300 29.75700
C  24.23400 53.29600 30.56100
O  25.15400 54.01700 30.18200
O  23.45000 53.57500 31.65900
C  24.11300 54.48700 32.63400
H  29.73500 48.81900 29.25100
H  29.21300 49.00200 22.98000
H  23.62000 52.03400 23.28400
H  26.61400 51.65700 31.16800
H  27.74300 49.13500 31.24500
H  28.65100 51.92900 31.62500
H  29.70600 51.36900 30.57400
H  29.60300 50.39600 32.05500
H  25.78400 48.95400 31.97300
H  24.45900 49.59200 31.08700
H  23.84500 51.11400 32.58400
H  25.57200 51.44400 33.08600
H  31.46000 47.93300 28.56700
H  32.52300 48.20700 27.23700
H  31.54200 46.71500 27.27000
H  33.62400 47.68300 24.93300
H  32.93600 46.55900 23.76600
H  32.63600 46.42300 25.48400
H  26.91100 49.16800 21.62700
H  25.81500 51.91200 21.56000
H  28.78600 51.36800 21.41800
H  27.49500 51.48500 20.19600
H  28.34000 49.98700 20.32500
H  23.75700 49.86000 22.19000
H  24.78100 49.30100 20.87200
H  23.69800 50.47800 19.37300
H  24.30200 51.89100 19.96100
H  22.73600 51.27300 20.60700
H  21.99400 53.59800 24.31900
H  21.97200 54.54800 25.82300
H  21.07700 53.00400 25.65900
H  23.21400 51.38100 30.30800
H  23.99800 55.55900 32.47400
H  25.17800 54.27100 32.71600
H  23.74500 54.35300 33.65200

