158

Mg 16.75000 -1.66000 27.73500
C  15.50100 0.39100 30.41300
C  18.53900 -3.41900 30.02200
C  18.44900 -3.32300 25.07500
C  15.05800 0.21200 25.51300
N  16.92800 -1.53800 29.96300
C  16.39100 -0.63200 30.83100
C  16.90900 -0.80100 32.27900
C  17.92500 -2.02100 32.09100
C  17.81100 -2.37200 30.60600
C  19.40600 -1.90800 32.59700
C  15.62400 -1.04200 33.17200
C  15.76000 -0.58100 34.72700
H  17.16200 -0.22200 35.28300
N  18.21000 -3.15900 27.57500
C  18.81300 -3.74200 28.63200
C  19.71500 -4.80500 28.20000
C  19.60700 -4.84600 26.76300
C  18.71400 -3.78200 26.41800
C  20.61200 -5.57700 29.18200
C  20.17500 -5.86500 25.76900
O  19.92400 -5.82700 24.59600
C  21.20400 -6.97000 26.20200
N  16.85200 -1.58900 25.57000
C  17.54400 -2.26500 24.71300
C  17.37600 -1.72400 23.19500
C  16.24500 -0.66000 23.44700
C  16.00200 -0.67500 24.95000
C  18.69500 -1.16200 22.62200
C  14.95800 -0.89600 22.56900
C  14.42900 0.35400 21.97600
N  15.57500 -0.04000 27.90400
C  14.85800 0.61900 26.87000
C  14.04000 1.73400 27.39700
C  14.26800 1.67300 28.78200
C  15.17500 0.56900 29.02300
C  13.20800 2.61000 26.55900
C  13.90900 2.33000 30.04900
O  13.21600 3.31500 30.30700
C  14.69400 1.54500 31.16400
C  15.58400 2.47700 31.96800
O  16.78500 2.73200 31.75300
O  14.85400 3.00900 32.97700
C  15.73200 3.62300 34.03500
H  19.21800 -3.83200 30.77100
H  18.96800 -3.79100 24.23500
H  14.48700 0.76600 24.76500
H  17.42700 0.02700 32.76300
H  17.46500 -2.88000 32.58200
H  19.48900 -0.98400 33.16900
H  20.12200 -1.77600 31.78500
H  19.65100 -2.81800 33.14400
H  15.38400 -2.10100 33.07400
H  14.80500 -0.51700 32.67900
H  15.44200 -1.38700 35.38900
H  15.02000 0.19800 34.90700
H  20.52000 -6.64000 28.95900
H  20.37500 -5.30300 30.21000
H  21.64200 -5.26000 29.01600
H  20.68600 -7.84200 26.60100
H  21.81200 -6.44800 26.94100
H  21.85500 -7.18200 25.35400
H  17.00600 -2.55200 22.58900
H  16.57300 0.37500 23.35000
H  18.39400 -0.51200 21.80100
H  19.28000 -1.93900 22.12900
H  19.20700 -0.44600 23.26500
H  14.19200 -1.24700 23.26000
H  15.22500 -1.66000 21.83900
H  14.30300 0.20400 20.90400
H  15.04700 1.22900 22.18000
H  13.45200 0.60200 22.39000
H  13.74700 3.54900 26.43600
H  12.28500 2.94800 27.03200
H  13.02400 2.21800 25.55900
H  13.96100 1.20700 31.89700
H  15.24100 3.66500 35.00700
H  16.04300 4.59900 33.66100
H  16.53700 2.92300 34.26000
Mg 29.97500 57.68000 38.77100
C  27.15300 55.68800 38.35200
C  31.88900 54.80100 38.26600
C  32.76300 59.73900 38.83600
C  27.92800 60.61400 39.01800
N  29.59800 55.44000 38.35500
C  28.33800 54.93200 38.09900
C  28.42100 53.38700 37.80000
C  29.90600 53.15300 37.86200
C  30.52700 54.51300 38.31000
C  30.40000 51.99100 38.72600
C  27.71300 52.86000 36.57600
C  28.31900 53.36100 35.20300
H  27.49000 53.85600 34.08000
N  32.02100 57.35400 38.54400
C  32.63500 56.08100 38.32900
C  34.04400 56.22800 38.21100
C  34.34100 57.60300 38.37000
C  33.00600 58.29200 38.64600
C  34.99700 55.10700 37.99200
C  35.77200 58.24700 38.26800
O  36.78600 57.53000 38.10700
C  36.01900 59.69900 38.28200
N  30.30900 59.90900 38.76500
C  31.51500 60.41400 38.93600
C  31.41500 61.89000 39.28800
C  29.86200 62.16600 39.29900
C  29.31500 60.78500 39.07800
C  32.12500 62.58900 40.56300
C  29.47400 63.28000 38.16400
C  29.55800 64.77400 38.54400
N  28.00300 58.14100 38.67100
C  27.35200 59.36800 38.70100
C  25.95700 59.03300 38.58300
C  25.84600 57.63500 38.48900
C  27.10800 57.09100 38.46600
C  24.83400 60.04000 38.63000
C  24.86100 56.55000 38.52800
O  23.62100 56.44100 38.69400
C  25.63500 55.24400 38.28900
C  25.12700 54.12900 39.18200
O  25.28900 54.03900 40.39900
O  24.29700 53.22400 38.49000
C  23.55100 52.25300 39.31700
H  32.45900 53.91900 37.96600
H  33.62100 60.39800 38.98500
H  27.21000 61.42000 39.18200
H  27.89000 52.99900 38.66900
H  30.44800 52.99800 36.92900
H  29.56800 51.48200 39.21400
H  31.14200 52.32700 39.45000
H  30.81700 51.17000 38.14300
H  26.67900 53.19200 36.66800
H  27.73300 51.77000 36.58300
H  28.90600 52.53200 34.80600
H  29.00200 54.17200 35.45500
H  35.85500 55.44400 37.41000
H  34.57900 54.24900 37.46400
H  35.31300 54.74000 38.96800
H  35.76400 60.07700 39.27300
H  35.48300 60.19700 37.47400
H  37.05100 59.97400 38.06400
H  31.86000 62.47500 38.48300
H  29.57000 62.62700 40.24300
H  31.45700 62.71200 41.41500
H  32.25500 63.57600 40.11900
H  33.07500 62.11000 40.79900
H  28.48400 63.11200 37.74000
H  30.18600 63.02600 37.37800
H  29.62500 64.97400 39.61300
H  28.72900 65.38300 38.18400
H  30.54700 65.18000 38.33000
H  24.92800 60.70900 39.48500
H  23.93700 59.43300 38.75200
H  24.77100 60.71500 37.77700
H  25.35800 54.98200 37.26800
H  24.32900 51.61200 39.73300
H  22.86300 51.65200 38.72200
H  22.95400 52.73800 40.09000

