158

Mg -10.02600 40.48400 40.95000
C  -9.32800 37.09300 40.06100
C  -7.03900 41.27800 39.66200
C  -11.16200 43.57500 41.07900
C  -13.24200 39.36800 42.00400
N  -8.44700 39.31600 39.92200
C  -8.28300 37.97100 39.72100
C  -6.88800 37.52900 39.27800
C  -6.07900 38.88400 39.35200
C  -7.25400 39.90900 39.63300
C  -4.99300 39.08500 40.47500
C  -6.92300 36.83900 37.85600
C  -5.86000 35.76300 37.65000
H  -4.83900 35.92000 36.54100
N  -9.15100 42.20500 40.51700
C  -7.92000 42.38500 39.90800
C  -7.77000 43.77900 39.60400
C  -8.92300 44.49000 40.04900
C  -9.80500 43.43900 40.62300
C  -6.50100 44.31700 38.87900
C  -9.09800 46.03600 39.97400
O  -8.18000 46.79400 39.49800
C  -10.27900 46.60900 40.66800
N  -11.93100 41.32200 41.62200
C  -12.10300 42.68500 41.59800
C  -13.53700 43.10500 41.85300
C  -14.15000 41.73600 42.35100
C  -13.04300 40.73300 41.96500
C  -13.80800 44.36000 42.73900
C  -15.50900 41.35600 41.57300
C  -16.49900 40.49900 42.45700
N  -11.10600 38.60400 40.99700
C  -12.39200 38.36200 41.50300
C  -12.67100 36.85500 41.48000
C  -11.47500 36.33600 40.91800
C  -10.62100 37.42800 40.57200
C  -13.85400 36.05100 41.83600
C  -10.74400 35.09400 40.60200
O  -10.95500 33.89200 40.79800
C  -9.44500 35.57400 39.90200
C  -8.39500 34.82400 40.62900
O  -8.08500 34.90000 41.78700
O  -7.95200 33.95000 39.68100
C  -7.06500 32.96700 40.23800
H  -6.06200 41.63700 39.33000
H  -11.62300 44.55500 40.94300
H  -14.21000 38.92400 42.24900
H  -6.47000 36.84300 40.01500
H  -5.57900 39.16400 38.42500
H  -5.38900 39.80800 41.18800
H  -4.00500 39.31600 40.07800
H  -4.80200 38.16200 41.02300
H  -6.84400 37.68300 37.17000
H  -7.84400 36.38600 37.48800
H  -6.38200 34.82000 37.48500
H  -5.29500 35.70900 38.58000
H  -5.94100 44.92000 39.59300
H  -6.83300 44.93300 38.04300
H  -5.84800 43.51200 38.54100
H  -10.38500 46.11400 41.63300
H  -11.17900 46.59400 40.05400
H  -10.02400 47.64900 40.87300
H  -13.88000 43.36100 40.85100
H  -14.18000 41.68900 43.44000
H  -12.85400 44.70200 43.14200
H  -14.46300 44.06200 43.55700
H  -14.16000 45.27000 42.25200
H  -15.33000 40.78100 40.66400
H  -16.02700 42.29400 41.37100
H  -17.43100 41.02600 42.66200
H  -16.06900 40.40400 43.45400
H  -16.64900 39.46800 42.13600
H  -13.59400 35.00000 41.71100
H  -14.58000 36.37000 41.08800
H  -14.40400 36.18800 42.76700
H  -9.42900 35.34800 38.83600
H  -6.08200 33.41300 40.39000
H  -6.90800 32.22400 39.45700
H  -7.55500 32.35200 40.99300
Mg 0.48900 43.26400 25.98600
C  2.86600 43.02300 28.44200
C  -1.91000 42.09800 28.05500
C  -1.56400 43.04700 23.24700
C  3.21100 43.99100 23.62400
N  0.57200 42.57500 27.99100
C  1.53900 42.76700 28.86100
C  1.01000 42.69900 30.30200
C  -0.42100 42.11900 30.10300
C  -0.63400 42.19600 28.61100
C  -0.50400 40.58300 30.50700
C  1.14200 44.01400 31.14100
C  1.23800 43.96600 32.66200
H  0.86300 42.60000 33.29100
N  -1.53300 42.73400 25.73500
C  -2.33600 42.37900 26.71900
C  -3.71900 42.17900 26.15100
C  -3.61900 42.43800 24.70600
C  -2.16800 42.72700 24.48500
C  -4.98000 41.86600 27.01500
C  -4.62300 42.35500 23.72600
O  -4.44300 42.76700 22.61400
C  -5.96800 41.87700 24.12300
N  0.81300 43.37700 23.81300
C  -0.25500 43.38600 22.93600
C  0.16200 43.84800 21.51100
C  1.70800 44.08300 21.62300
C  1.93300 43.83200 23.11600
C  -0.15400 42.95400 20.26400
C  2.25900 45.46800 21.12000
C  2.33100 46.67100 22.00600
N  2.60300 43.51800 25.97300
C  3.53300 43.81600 24.98700
C  4.85200 43.81300 25.61000
C  4.64500 43.52100 26.93000
C  3.26400 43.31300 27.11900
C  6.12300 43.92500 24.85900
C  5.30500 43.23500 28.16500
O  6.49600 43.07800 28.46800
C  4.15500 43.05000 29.24900
C  4.43100 41.87200 30.07400
O  4.17900 40.70900 29.79500
O  4.86900 42.30600 31.30000
C  5.10800 41.35300 32.36500
H  -2.61900 41.66300 28.76200
H  -2.21000 43.13900 22.37100
H  3.98800 44.21500 22.89100
H  1.55900 41.94300 30.86400
H  -1.22100 42.63100 30.63600
H  0.40400 40.33100 31.05400
H  -0.48600 39.87100 29.68200
H  -1.43300 40.38500 31.04200
H  0.29400 44.62900 30.83900
H  2.01300 44.53600 30.74600
H  0.78400 44.78700 33.21600
H  2.29400 44.03200 32.92600
H  -4.86700 41.80600 28.09700
H  -5.25000 40.86100 26.68800
H  -5.78900 42.58400 26.88000
H  -5.83000 40.90200 24.58900
H  -6.59800 41.77500 23.23900
H  -6.46000 42.55500 24.82000
H  -0.29000 44.82900 21.36300
H  2.31700 43.34300 21.10400
H  -0.59900 41.98500 20.49300
H  0.70200 42.89300 19.59300
H  -0.88800 43.55100 19.72300
H  1.72700 45.78800 20.22300
H  3.29500 45.32400 20.81200
H  3.29000 46.73900 22.52000
H  1.61000 46.66400 22.82300
H  2.25500 47.50400 21.30800
H  6.31500 44.87300 24.35600
H  6.22500 43.24400 24.01500
H  6.86100 43.66900 25.62000
H  4.05400 43.98100 29.80600
H  5.34100 41.81300 33.32500
H  5.82500 40.57900 32.09200
H  4.20600 40.77900 32.57900

