158

Mg 24.31500 -5.19300 46.08800
C  26.24100 -2.77900 44.10200
C  21.60000 -4.41500 44.07200
C  22.84600 -7.84500 47.20400
C  27.43200 -6.06100 47.47400
N  24.02400 -3.81800 44.27800
C  24.91700 -2.89800 43.67700
C  24.19900 -1.99400 42.71600
C  22.69300 -2.39300 42.84900
C  22.75200 -3.65300 43.79000
C  21.71900 -1.35900 43.35500
C  24.71300 -2.10800 41.21800
C  24.82300 -0.87500 40.35000
H  24.61400 -1.04900 38.79000
N  22.40100 -5.99500 45.71300
C  21.44900 -5.54100 44.89800
C  20.35100 -6.41100 44.98200
C  20.75700 -7.50500 45.75900
C  22.05800 -7.17400 46.28000
C  19.00700 -6.12100 44.35200
C  19.80000 -8.70300 45.99500
O  18.68300 -8.71900 45.53100
C  20.31600 -9.78600 46.82900
N  25.08900 -6.78100 47.11100
C  24.21900 -7.65100 47.62000
C  25.01700 -8.58700 48.61300
C  26.39500 -7.89900 48.82300
C  26.34800 -6.90800 47.69000
C  24.28400 -9.02000 49.87600
C  27.71100 -8.86900 48.94900
C  28.40700 -9.27400 47.63100
N  26.34700 -4.44200 45.94300
C  27.47400 -4.96100 46.58900
C  28.63400 -4.14400 46.18500
C  28.20800 -3.28900 45.23300
C  26.83400 -3.54600 45.10600
C  30.03100 -4.22600 46.80800
C  28.61800 -2.15100 44.40200
O  29.66900 -1.46500 44.33400
C  27.27400 -1.75400 43.65300
C  26.88600 -0.34100 44.08400
O  26.30900 -0.01600 45.08800
O  27.42000 0.53800 43.19700
C  27.31700 2.02100 43.22500
H  20.83800 -4.11400 43.35000
H  22.39700 -8.64500 47.79700
H  28.33900 -6.30400 48.03000
H  24.30100 -1.04500 43.24100
H  22.29300 -2.76000 41.90400
H  21.11700 -0.83700 42.61000
H  22.19200 -0.53100 43.88300
H  21.04200 -1.75900 44.10900
H  24.08300 -2.81500 40.67800
H  25.66200 -2.64200 41.25000
H  25.89000 -0.65500 40.40100
H  24.16000 -0.11100 40.75500
H  18.93700 -6.72700 43.44800
H  18.82300 -5.12300 43.95400
H  18.10700 -6.40900 44.89500
H  20.29800 -9.21300 47.75600
H  21.31500 -10.14700 46.58300
H  19.66500 -10.65100 46.95400
H  25.24200 -9.48200 48.03200
H  26.27400 -7.19400 49.64500
H  24.46400 -10.08700 50.00800
H  23.24400 -8.71100 49.77300
H  24.77000 -8.51200 50.70900
H  27.51800 -9.81700 49.45100
H  28.41700 -8.17400 49.40400
H  28.05500 -10.29000 47.45200
H  29.48300 -9.10400 47.66900
H  28.04500 -8.72500 46.76200
H  30.59600 -3.33500 46.53500
H  30.62300 -5.05600 46.42200
H  30.15900 -4.27700 47.89000
H  27.36000 -1.82400 42.56800
H  26.55000 2.30500 42.50400
H  28.24500 2.49200 42.90200
H  27.13100 2.39200 44.23300
Mg 36.04200 48.59800 24.83600
C  36.04500 46.67500 27.85700
C  34.14200 50.84000 26.47600
C  35.10100 49.93100 21.84000
C  37.13200 45.78800 23.18500
N  35.08500 48.63700 26.95800
C  35.34900 47.88900 28.01700
C  35.05300 48.68300 29.32000
C  34.25000 49.88300 28.76700
C  34.56100 49.82900 27.33000
C  32.69200 49.94600 29.18500
C  36.35000 49.13600 30.02700
C  36.29600 49.64900 31.54300
H  34.96900 49.64700 32.36100
N  34.99700 50.37200 24.22900
C  34.33900 51.14200 25.06300
C  33.83800 52.35900 24.37200
C  34.18400 52.05800 23.02300
C  34.71400 50.69200 22.96700
C  33.00500 53.49900 24.92600
C  34.15300 52.97300 21.83500
O  34.58600 52.60400 20.73700
C  33.68600 54.43300 22.02700
N  35.92500 47.92200 22.87600
C  35.57400 48.66000 21.85400
C  35.72800 47.91100 20.41400
C  36.52800 46.69800 20.87100
C  36.55500 46.76600 22.42400
C  34.31600 47.58000 19.82400
C  37.96100 46.65000 20.22800
C  38.89900 47.83900 20.57400
N  36.47700 46.59500 25.37600
C  37.08000 45.65000 24.59700
C  37.41100 44.51400 25.42200
C  37.09300 44.90100 26.76500
C  36.54300 46.19400 26.61700
C  37.97400 43.20400 24.99300
C  36.99700 44.53900 28.13300
O  37.22100 43.45000 28.64700
C  36.49900 45.77800 28.96600
C  35.54700 45.34600 30.07300
O  34.54800 44.71200 29.90600
O  36.04600 45.89300 31.20600
C  35.15000 45.61000 32.39900
H  33.44900 51.58500 26.87200
H  34.89300 50.36000 20.85800
H  37.47900 44.87500 22.69700
H  34.48500 48.08900 30.03500
H  34.55900 50.85500 29.15100
H  32.47700 49.10000 29.83700
H  32.06600 49.85500 28.29700
H  32.52300 50.90900 29.66600
H  36.78700 49.89000 29.37200
H  37.11800 48.36900 30.13000
H  36.55300 50.70800 31.52300
H  37.12400 49.21600 32.10500
H  33.56400 54.42700 25.04200
H  32.71000 53.30400 25.95700
H  32.10400 53.53400 24.31300
H  33.75600 54.96100 21.07500
H  34.46300 54.78600 22.70500
H  32.69000 54.44300 22.46800
H  36.28400 48.49400 19.67900
H  36.08500 45.74600 20.58000
H  34.33400 46.51100 19.61300
H  34.11300 48.12500 18.90200
H  33.58700 47.82100 20.59700
H  37.97500 46.58700 19.14000
H  38.48900 45.76200 20.57700
H  38.89300 48.51500 19.71900
H  39.88100 47.37500 20.67500
H  38.70300 48.49700 21.42000
H  38.57100 43.42900 24.10900
H  37.13600 42.58300 24.67900
H  38.63900 42.88800 25.79700
H  37.39100 46.09200 29.50800
H  35.22200 44.65100 32.91300
H  34.12500 45.70000 32.04100
H  35.34300 46.36800 33.15700

