158

Mg -1.67200 18.06600 27.53300
C  -2.24400 15.82700 30.06500
C  -2.21200 20.66400 29.55500
C  -1.37500 20.05800 24.81700
C  -1.89000 15.28400 25.22300
N  -2.06300 18.21200 29.64200
C  -2.24300 17.18300 30.52400
C  -2.57000 17.66600 31.94500
C  -2.90700 19.19000 31.69100
C  -2.32500 19.39800 30.22800
C  -4.43400 19.63500 31.89200
C  -1.44500 17.45900 32.94200
C  -1.90100 16.92000 34.24800
H  -0.87200 16.81500 35.38600
N  -1.73500 20.08100 27.20600
C  -1.94100 20.99700 28.22600
C  -1.74200 22.36900 27.74300
C  -1.58100 22.27100 26.34700
C  -1.56300 20.73800 26.08100
C  -1.78500 23.58300 28.58400
C  -1.31900 23.30900 25.34700
O  -1.41100 23.13900 24.11500
C  -0.87700 24.53700 25.84100
N  -1.63200 17.70100 25.32100
C  -1.44100 18.71400 24.42100
C  -1.56700 18.33900 22.96500
C  -1.86600 16.78000 23.08800
C  -1.82400 16.52800 24.60800
C  -2.81200 19.04800 22.30300
C  -0.89900 16.00000 22.15200
C  0.63500 15.97200 22.55900
N  -1.89300 16.02200 27.58100
C  -1.94100 15.01900 26.61300
C  -2.06500 13.68200 27.20900
C  -2.16700 13.97000 28.58000
C  -2.10000 15.38600 28.72200
C  -1.97500 12.40000 26.53100
C  -2.33900 13.35900 29.86600
O  -2.52700 12.18600 30.10100
C  -2.39600 14.52600 30.87900
C  -1.09400 14.29100 31.65900
O  0.05600 14.42100 31.24900
O  -1.37500 13.81300 32.86400
C  -0.23700 13.68300 33.75500
H  -2.30000 21.33400 30.41300
H  -1.20300 20.72500 23.96900
H  -1.96900 14.49000 24.47700
H  -3.48600 17.18800 32.29000
H  -2.32600 19.68400 32.46900
H  -4.79900 20.08100 30.96700
H  -4.49200 20.38200 32.68400
H  -5.10300 18.81300 32.14800
H  -0.95300 18.41600 33.11600
H  -0.62500 16.81700 32.62100
H  -2.45900 15.98700 34.16600
H  -2.63400 17.59700 34.68800
H  -2.25300 23.42300 29.55600
H  -2.13000 24.49900 28.10400
H  -0.75200 23.78400 28.86700
H  -1.67600 25.27400 25.92300
H  -0.35700 25.10900 25.07200
H  -0.23300 24.41600 26.71200
H  -0.65100 18.61300 22.44100
H  -2.85900 16.44600 22.78700
H  -2.82100 18.62600 21.29900
H  -2.68600 20.12800 22.21900
H  -3.73700 18.88300 22.85500
H  -1.00800 16.44400 21.16200
H  -1.31500 14.99500 22.23300
H  0.84600 16.40600 23.53600
H  1.14700 16.65200 21.87800
H  1.17900 15.04600 22.37400
H  -1.20600 11.75900 26.96200
H  -1.65200 12.45900 25.49100
H  -2.98000 12.02800 26.72900
H  -3.28300 14.38200 31.49500
H  0.31300 14.62300 33.81700
H  0.40000 12.89500 33.35200
H  -0.57400 13.33200 34.73000
Mg 30.38900 57.96900 40.09300
C  27.67800 55.78200 39.29400
C  32.57600 55.39800 38.96900
C  32.93900 60.07500 40.22000
C  28.08300 60.39100 40.66700
N  30.13700 55.88600 39.13300
C  28.95400 55.20700 39.00700
C  29.23300 53.81700 38.48000
C  30.80800 53.72000 38.54100
C  31.19500 55.09700 38.94500
C  31.39800 52.66700 39.53900
C  28.69400 53.51900 37.05800
C  28.92200 54.56500 35.92000
H  27.71700 54.82600 34.93200
N  32.47000 57.67000 39.76800
C  33.12800 56.62700 39.28500
C  34.53200 56.95800 39.10500
C  34.69100 58.26000 39.62900
C  33.29700 58.73700 39.88800
C  35.62100 56.01400 38.63700
C  36.06300 59.00700 39.89400
O  37.13800 58.41000 39.91400
C  36.01000 60.50900 40.30500
N  30.47800 60.02400 40.35100
C  31.66200 60.73500 40.32300
C  31.40500 62.28800 40.48500
C  29.91900 62.34800 40.76100
C  29.42100 60.84000 40.56900
C  32.22500 62.90600 41.67800
C  29.15400 63.42900 39.97000
C  28.75500 64.64000 40.76300
N  28.28200 58.09500 40.17900
C  27.49700 59.14600 40.49100
C  26.09000 58.84900 40.35300
C  26.10800 57.50400 39.87800
C  27.47400 57.11000 39.80500
C  24.89900 59.79000 40.54000
C  25.29600 56.39600 39.38700
O  24.07700 56.33100 39.23900
C  26.22000 55.21400 39.09100
C  26.00800 54.08600 40.08000
O  26.76900 53.66900 40.87100
O  24.71400 53.60200 39.86500
C  24.33700 52.51700 40.79600
H  33.23800 54.58500 38.66400
H  33.65400 60.88200 40.39700
H  27.36900 61.20100 40.83200
H  28.88800 53.14300 39.26500
H  31.36200 53.61200 37.60800
H  32.03900 51.91200 39.08300
H  30.62400 52.03300 39.97300
H  31.86500 53.22400 40.35200
H  27.64100 53.23600 37.09300
H  29.25300 52.69700 36.61000
H  29.79800 54.19800 35.38500
H  29.20400 55.54300 36.30800
H  36.44200 56.46500 38.07900
H  35.34600 55.26600 37.89400
H  35.98200 55.42400 39.47900
H  35.46200 61.12700 39.59400
H  37.00000 60.87600 40.57300
H  35.44700 60.48500 41.23800
H  31.59400 62.80500 39.54400
H  29.69800 62.44700 41.82400
H  32.85500 63.69300 41.26400
H  32.80900 62.16900 42.22900
H  31.53500 63.35800 42.39100
H  28.25000 63.11000 39.45300
H  29.69200 63.69800 39.06100
H  29.55600 65.35300 40.95800
H  28.50100 64.23900 41.74400
H  27.95400 65.26500 40.36900
H  24.45000 59.96900 39.56400
H  25.24700 60.68700 41.05300
H  24.15200 59.28700 41.15400
H  26.07100 54.83700 38.07900
H  23.26000 52.35000 40.79300
H  24.60300 52.82700 41.80700
H  24.89300 51.63500 40.48000

