158

Mg 17.07200 -1.45300 28.19600
C  16.45500 0.83800 30.85900
C  19.37000 -3.08500 29.93000
C  18.52300 -2.51600 25.15800
C  15.27200 1.04000 26.12200
N  18.01900 -0.93900 30.06800
C  17.41700 -0.22700 31.12400
C  17.91500 -0.74800 32.44300
C  19.05800 -1.73900 32.05300
C  18.72400 -1.96600 30.59400
C  20.54400 -1.22400 32.36400
C  16.75700 -1.37700 33.32900
C  16.64800 -1.02700 34.84100
H  17.97400 -0.84500 35.62800
N  18.56600 -2.77600 27.64500
C  19.40400 -3.42300 28.54500
C  20.23400 -4.38900 27.88900
C  19.93300 -4.27100 26.49700
C  19.00800 -3.14700 26.33300
C  21.23100 -5.27700 28.62400
C  20.55800 -5.01400 25.37000
O  20.40800 -4.67300 24.21500
C  21.61200 -6.16800 25.51000
N  16.88500 -0.89600 26.00800
C  17.67100 -1.40200 24.99200
C  17.41100 -0.94500 23.63300
C  16.26900 0.10700 23.98600
C  16.15800 0.11400 25.49600
C  18.73500 -0.45900 22.92400
C  14.97200 -0.04900 23.14400
C  13.62400 -0.33700 23.80400
N  15.86000 0.42700 28.40500
C  15.20300 1.21600 27.47400
C  14.53600 2.26800 28.22000
C  14.94500 2.14300 29.54300
C  15.81800 1.05700 29.60500
C  13.83900 3.31900 27.56900
C  14.89100 2.68000 30.86800
O  14.21600 3.69400 31.17500
C  15.77100 1.76300 31.82000
C  16.68900 2.68400 32.57700
O  17.84200 2.90900 32.32100
O  15.97000 3.32200 33.57700
C  16.61200 4.12000 34.57400
H  20.07200 -3.60900 30.58200
H  18.91300 -2.76400 24.16900
H  14.63900 1.66000 25.48200
H  18.39300 0.07400 32.97500
H  18.97600 -2.67300 32.61000
H  20.64600 -0.22400 32.78500
H  21.14300 -1.32700 31.45900
H  21.13100 -1.84800 33.03800
H  16.78600 -2.46600 33.30500
H  15.82100 -1.13800 32.82300
H  16.13000 -1.79500 35.41600
H  15.97000 -0.18500 34.97500
H  21.03000 -6.34100 28.49200
H  21.26400 -5.05100 29.69000
H  22.23300 -5.00000 28.29700
H  21.33100 -6.81700 26.34000
H  22.52700 -5.59400 25.65400
H  21.85500 -6.74600 24.61800
H  16.81400 -1.69700 23.11800
H  16.73300 1.06700 23.76000
H  19.10400 0.51000 23.25900
H  18.39000 -0.31800 21.89900
H  19.55700 -1.17400 22.89500
H  15.15000 -0.70700 22.29400
H  14.86100 0.99700 22.85600
H  13.81500 -0.92300 24.70300
H  13.02400 -0.88200 23.07500
H  13.00000 0.50900 24.09200
H  14.39800 3.89100 26.82800
H  13.52200 4.12500 28.23200
H  12.92100 2.88300 27.17500
H  15.13600 1.26200 32.55100
H  16.58500 3.52400 35.48600
H  16.03900 4.98400 34.91300
H  17.57800 4.57900 34.36600
Mg 25.86900 1.44100 29.10000
C  27.73300 1.03500 31.99800
C  23.00900 1.27900 31.09900
C  24.05500 1.60300 26.31400
C  28.73500 0.50000 27.19700
N  25.48800 1.16000 31.34500
C  26.37800 1.23100 32.34500
C  25.68300 1.31500 33.73300
C  24.17200 1.52200 33.38200
C  24.20400 1.22400 31.85000
C  23.30300 0.74000 34.37900
C  26.32500 2.46100 34.54000
C  25.49500 2.97400 35.76200
H  25.87400 2.63800 37.20900
N  23.83500 1.57200 28.78600
C  22.76700 1.39400 29.71200
C  21.57500 1.60700 29.05800
C  21.81000 1.75100 27.61100
C  23.27100 1.62300 27.48600
C  20.26300 1.65300 29.75600
C  20.86900 1.93800 26.50200
O  21.21600 1.80800 25.33700
C  19.40000 2.13300 26.77800
N  26.33800 0.95200 27.01200
C  25.44800 1.36100 26.02600
C  26.11700 1.49100 24.65800
C  27.56000 1.11500 24.99200
C  27.58900 0.80300 26.47500
C  25.49000 0.76900 23.43700
C  28.56800 2.20700 24.64800
C  30.03200 1.77100 24.20300
N  27.81100 1.01800 29.41000
C  28.83200 0.58800 28.58200
C  30.02700 0.42100 29.34200
C  29.67700 0.68800 30.60700
C  28.29600 0.93200 30.64600
C  31.34000 -0.05500 28.81500
C  30.20400 0.79100 31.95400
O  31.36900 0.62200 32.32000
C  28.97700 0.96400 32.89000
C  28.87000 -0.24600 33.81400
O  28.71900 -1.40800 33.46000
O  28.89900 0.19800 35.11300
C  28.45700 -0.81300 36.11300
H  22.16600 1.42300 31.77900
H  23.46600 1.79300 25.41500
H  29.62500 0.40600 26.57000
H  25.90700 0.40500 34.29000
H  23.74300 2.51300 33.53500
H  22.70000 0.05800 33.78000
H  22.71000 1.47400 34.92400
H  23.91900 0.02500 34.92500
H  26.50700 3.35700 33.94600
H  27.28900 2.21800 34.98700
H  24.46400 2.63200 35.67100
H  25.55800 4.05800 35.66100
H  19.77200 2.61700 29.62600
H  20.38700 1.63500 30.83800
H  19.64100 0.82200 29.42100
H  18.91800 1.21700 27.11800
H  18.91400 2.21500 25.80600
H  19.20200 2.95500 27.46600
H  26.05400 2.51900 24.29900
H  27.79400 0.19300 24.46100
H  24.74800 0.00100 23.65700
H  26.27800 0.41100 22.77400
H  24.79000 1.37000 22.85700
H  28.84100 2.85200 25.48300
H  28.22600 2.81700 23.81200
H  30.35100 2.43400 23.39900
H  29.89600 0.74100 23.87300
H  30.71500 1.83400 25.05100
H  31.93700 -0.40000 29.65900
H  31.85200 0.73200 28.26100
H  31.27300 -0.93400 28.17400
H  29.07400 1.82100 33.55700
H  28.97900 -1.76700 36.03900
H  27.38400 -1.00700 36.11000
H  28.80500 -0.36500 37.04400

