158

Mg 8.86100 3.81000 28.48000
C  10.30900 2.10700 31.24600
C  7.37600 5.88000 30.44800
C  7.55900 5.18600 25.63000
C  9.92300 0.88300 26.48300
N  8.92000 3.96000 30.64200
C  9.57800 3.26200 31.57800
C  9.22500 3.84700 32.96400
C  8.30700 5.09000 32.59700
C  8.22500 4.97600 31.10000
C  6.93700 5.09000 33.34900
C  10.47900 4.16500 33.84800
C  10.37800 5.42000 34.89700
H  10.94500 5.21100 36.26300
N  7.67900 5.38500 28.08200
C  7.05900 6.09900 29.10700
C  6.42500 7.18800 28.47600
C  6.41100 6.99200 27.06100
C  7.27900 5.83300 26.86600
C  5.81700 8.38200 29.27800
C  5.66500 7.76100 25.96900
O  5.75600 7.51900 24.75100
C  4.77200 8.87500 26.29200
N  8.77700 3.07900 26.35300
C  8.22200 3.86000 25.40300
C  8.05500 3.05700 24.10700
C  9.00000 1.78800 24.37600
C  9.26400 1.92500 25.86300
C  6.65200 2.61300 23.61700
C  10.30100 1.67600 23.44700
C  10.61200 0.37200 22.66800
N  9.98200 2.00200 28.72200
C  10.36500 0.95900 27.85900
C  11.16800 0.00400 28.52800
C  11.31000 0.45300 29.81700
C  10.53900 1.66100 29.92300
C  11.83600 -1.21500 27.90300
C  11.86100 0.20200 31.16000
O  12.66500 -0.61500 31.61400
C  11.14000 1.20800 32.11900
C  10.27700 0.32400 32.96500
O  9.38100 -0.37400 32.53200
O  10.53900 0.40000 34.27900
C  9.61500 -0.22700 35.21400
H  6.93300 6.62800 31.10900
H  7.23200 5.67200 24.70800
H  10.07900 -0.01700 25.88500
H  8.62200 3.04700 33.39300
H  8.81700 6.03700 32.77100
H  6.02900 4.94300 32.76400
H  6.73700 6.03300 33.85700
H  6.87700 4.40100 34.19100
H  11.38200 4.36900 33.27100
H  10.76000 3.25900 34.38500
H  9.32400 5.69400 34.93000
H  10.97900 6.23200 34.48800
H  4.75400 8.18900 29.42400
H  5.95500 9.34600 28.78800
H  6.03400 8.47700 30.34200
H  4.33500 8.86700 27.29000
H  3.98800 8.75800 25.54300
H  5.33600 9.79200 26.12300
H  8.54200 3.62700 23.31600
H  8.43000 0.86800 24.24900
H  6.00700 3.32600 24.13100
H  6.38000 1.64600 24.04000
H  6.81400 2.85100 22.56600
H  11.20200 1.88000 24.02600
H  10.40000 2.46000 22.69500
H  9.91800 -0.36400 23.07400
H  11.61400 0.06100 22.96400
H  10.51300 0.58000 21.60300
H  11.23900 -1.59200 27.07200
H  11.89500 -1.94700 28.70900
H  12.84700 -0.90100 27.64400
H  11.80900 1.84500 32.69700
H  9.55400 0.29500 36.16900
H  9.91700 -1.22200 35.54000
H  8.56900 -0.22700 34.91000
Mg 25.85800 0.83600 29.15700
C  27.92500 0.01100 31.85900
C  23.36600 1.20600 31.46000
C  23.84600 1.67000 26.63900
C  28.41300 0.13700 26.91300
N  25.67500 0.63600 31.54800
C  26.69000 0.43300 32.39300
C  26.13300 0.53200 33.81200
C  24.63300 0.94000 33.69700
C  24.50900 0.85500 32.18900
C  23.67000 0.09200 34.47000
C  26.99800 1.49300 34.67600
C  26.41000 2.39000 35.80700
H  27.18600 2.41600 37.11300
N  23.86500 1.28800 29.04300
C  23.00300 1.38600 30.10100
C  21.71500 1.72100 29.54800
C  21.77900 1.96700 28.11800
C  23.20200 1.64500 27.87800
C  20.45600 1.73500 30.46200
C  20.66800 2.32300 27.06800
O  20.87300 2.21300 25.88300
C  19.27900 2.78400 27.45600
N  26.15000 1.08200 26.98200
C  25.10900 1.35800 26.20600
C  25.54000 1.31500 24.71500
C  27.00500 0.85900 24.85900
C  27.20900 0.65900 26.32500
C  24.63300 0.53800 23.76300
C  28.06700 1.80800 24.23300
C  28.14000 3.19200 24.86100
N  27.74400 0.19700 29.30500
C  28.61900 -0.10400 28.29300
C  29.85300 -0.43800 28.95200
C  29.67700 -0.44700 30.29700
C  28.30300 -0.02300 30.49700
C  31.15400 -0.85600 28.20900
C  30.27300 -0.62300 31.62500
O  31.40500 -0.72600 31.97300
C  29.13900 -0.38900 32.62600
C  28.92000 -1.63100 33.35000
O  28.45400 -2.62300 32.88700
O  29.14400 -1.36400 34.71900
C  28.55500 -2.37400 35.61500
H  22.51100 1.41400 32.10800
H  23.12400 1.94900 25.86900
H  29.23900 -0.05300 26.22500
H  26.21900 -0.45300 34.26900
H  24.42700 1.99200 33.89800
H  23.52800 -0.82300 33.89500
H  22.71800 0.53000 34.77000
H  24.13300 -0.21200 35.40900
H  27.31000 2.31400 34.03100
H  27.71800 0.94000 35.27900
H  25.38200 2.06300 35.96500
H  26.33300 3.42500 35.47200
H  20.60900 1.18600 31.39100
H  19.64000 1.22600 29.95000
H  20.17500 2.76800 30.67000
H  19.32900 3.24800 28.44100
H  18.64700 1.90000 27.54100
H  18.97800 3.50800 26.69900
H  25.65600 2.36900 24.46500
H  27.06000 -0.14300 24.43400
H  25.01700 -0.43400 23.45500
H  24.61800 1.16400 22.87100
H  23.68700 0.20000 24.18500
H  27.75000 1.86900 23.19200
H  28.99600 1.27500 24.03500
H  27.51700 3.76500 24.17500
H  29.16200 3.56900 24.89500
H  27.71600 3.28800 25.86100
H  31.42900 -0.12500 27.44900
H  30.93500 -1.78800 27.68700
H  31.89600 -1.15700 28.94900
H  29.40400 0.45500 33.26200
H  29.21000 -2.68200 36.43000
H  28.39800 -3.33600 35.12600
H  27.55000 -2.03900 35.86900

