158

Mg 1.56400 -1.81300 43.83600
C  4.92600 -1.18300 43.23900
C  0.82300 0.95800 41.97100
C  -1.65800 -2.72900 43.76500
C  2.37000 -4.99200 44.97700
N  2.82400 -0.37700 42.60600
C  4.16800 -0.31300 42.55300
C  4.60000 0.89500 41.70300
C  3.24400 1.76300 41.52900
C  2.18300 0.71200 42.03500
C  3.23100 3.19100 42.12800
C  5.28000 0.69200 40.30800
C  6.49400 1.64900 40.05700
H  6.61200 2.29800 38.75600
N  -0.20600 -0.99500 42.91600
C  -0.29300 0.18400 42.31400
C  -1.64500 0.47800 41.93500
C  -2.45500 -0.51500 42.55200
C  -1.45600 -1.43600 43.17200
C  -2.28300 1.74100 41.24800
C  -3.97800 -0.62100 42.41600
O  -4.71000 0.17700 41.78200
C  -4.70700 -1.78600 43.06300
N  0.48100 -3.69500 44.11200
C  -0.81900 -3.67600 44.28200
C  -1.31300 -5.02600 44.83200
C  -0.03700 -5.61800 45.45800
C  1.04400 -4.76000 44.76300
C  -2.52900 -5.10600 45.79600
C  0.08400 -7.06600 44.98600
C  0.75800 -8.02700 46.08000
N  3.24800 -2.88200 44.18800
C  3.49100 -4.12200 44.69600
C  4.86600 -4.32900 44.96100
C  5.45600 -3.19800 44.47100
C  4.44100 -2.36100 43.86500
C  5.44800 -5.50000 45.64400
C  6.70400 -2.46200 44.41000
O  7.86500 -2.66900 44.87300
C  6.40400 -1.13900 43.59000
C  6.78000 0.08100 44.38100
O  6.34900 0.47100 45.48500
O  7.73600 0.76000 43.65600
C  8.19900 2.05300 44.22700
H  0.48200 1.89400 41.52500
H  -2.70000 -3.00700 43.59000
H  2.75100 -5.83100 45.56300
H  5.21700 1.37200 42.46300
H  3.04400 1.89900 40.46600
H  3.07500 3.95300 41.36500
H  4.23900 3.22500 42.54200
H  2.51400 3.22400 42.94800
H  4.63900 0.84300 39.43900
H  5.61200 -0.34600 40.32200
H  7.37100 1.01500 40.18100
H  6.63600 2.35300 40.87700
H  -2.90300 2.33900 41.91700
H  -2.77900 1.39300 40.34200
H  -1.50000 2.38000 40.84100
H  -4.54900 -2.64000 42.40400
H  -5.78400 -1.61400 43.07500
H  -4.31200 -1.93500 44.06800
H  -1.63600 -5.49800 43.90400
H  0.06400 -5.60100 46.54300
H  -3.21900 -4.26800 45.69800
H  -2.17900 -5.10700 46.82800
H  -3.02700 -6.06300 45.64000
H  0.66700 -6.95600 44.07200
H  -0.89200 -7.51500 44.80400
H  1.18700 -7.41900 46.87600
H  1.56900 -8.53300 45.55700
H  0.00500 -8.71600 46.46300
H  4.91000 -5.45600 46.59100
H  6.42800 -5.23500 46.04100
H  5.28100 -6.37400 45.01400
H  7.01300 -0.96700 42.70200
H  7.35300 2.73900 44.27000
H  8.93400 2.48600 43.54700
H  8.62900 1.94600 45.22300
Mg 35.96200 48.63400 24.62500
C  36.41500 46.83700 27.58500
C  34.77600 51.32600 26.44100
C  35.65200 50.32200 21.81500
C  37.31200 45.94500 22.92100
N  35.52600 48.93400 26.80900
C  35.85800 48.10100 27.84200
C  35.59600 48.77500 29.14700
C  34.90400 50.11700 28.74800
C  35.06900 50.17800 27.27200
C  33.36600 50.25900 29.02100
C  36.86000 48.98800 30.04000
C  36.76000 48.73800 31.53500
H  35.43700 48.82200 32.29600
N  35.24100 50.47000 24.19000
C  34.82700 51.42800 25.06500
C  34.54800 52.65700 24.33700
C  34.70300 52.28600 23.00100
C  35.18200 50.95200 22.94000
C  34.18900 53.92600 25.07300
C  34.39900 53.21200 21.78800
O  34.59300 52.89600 20.62200
C  34.02100 54.60500 21.98600
N  36.44600 48.23100 22.67000
C  36.09400 49.04800 21.67900
C  36.46800 48.49900 20.33600
C  37.00500 47.07100 20.66600
C  36.90800 47.06400 22.17600
C  35.40200 48.53900 19.25700
C  38.45800 46.59300 20.13200
C  39.67300 47.05300 20.93300
N  36.72700 46.77700 25.05700
C  37.10800 45.72400 24.29100
C  37.59200 44.64000 25.07600
C  37.31600 45.03600 26.38200
C  36.71800 46.36600 26.30200
C  38.24600 43.41700 24.50200
C  37.44300 44.56500 27.73700
O  37.86700 43.52300 28.16200
C  36.72800 45.66600 28.60500
C  35.46100 45.27600 29.15900
O  34.43800 44.86000 28.57400
O  35.62100 45.35200 30.56400
C  34.54300 44.68000 31.33000
H  34.46000 52.16900 27.05900
H  35.73500 50.95400 20.92800
H  37.72600 45.10500 22.36000
H  35.04600 48.00300 29.68600
H  35.44500 50.97600 29.14700
H  32.86900 49.43600 29.53400
H  32.74300 50.42300 28.14200
H  33.25000 51.03200 29.78100
H  37.27400 49.98500 29.88600
H  37.59400 48.26500 29.68400
H  37.47900 49.41500 31.99700
H  37.03200 47.70300 31.74300
H  33.37400 54.48000 24.60600
H  35.13300 54.45100 25.21900
H  33.75400 53.78200 26.06200
H  34.56700 55.14400 22.76000
H  33.01500 54.57900 22.40400
H  34.00200 55.17100 21.05500
H  37.32900 49.10300 20.04800
H  36.22000 46.42200 20.27800
H  34.43600 48.53800 19.76000
H  35.31900 47.66000 18.61800
H  35.58900 49.44200 18.67500
H  38.54800 46.94900 19.10600
H  38.62500 45.52100 20.02700
H  39.40200 48.00200 21.39600
H  40.59200 47.35100 20.42900
H  39.99900 46.36600 21.71400
H  38.28200 42.52100 25.12200
H  39.10500 43.78500 23.94200
H  37.55300 42.97200 23.78800
H  37.34100 46.03200 29.42900
H  34.86500 44.79600 32.36400
H  34.50400 43.62800 31.04700
H  33.58900 45.18400 31.17700

