158

Mg 49.43700 47.06500 43.39200
C  45.96100 47.36800 42.49900
C  49.48300 44.15100 41.61300
C  52.74500 47.25600 43.50700
C  49.26800 50.48100 44.49100
N  47.92500 45.91600 42.15800
C  46.59000 46.22000 42.00700
C  45.88700 45.25500 41.07700
C  46.91900 44.08800 40.97300
C  48.16000 44.77700 41.58400
C  46.59600 42.69400 41.73400
C  45.54700 45.76900 39.65600
C  44.37900 45.05200 38.98100
H  44.55500 44.20100 37.77000
N  50.91400 45.83300 42.64200
C  50.73000 44.59800 42.06600
C  52.01900 43.90600 41.96300
C  53.03100 44.78500 42.39700
C  52.24600 46.04500 42.90500
C  52.15300 42.59900 41.35400
C  54.49300 44.60700 42.26800
O  55.00000 43.62100 41.65500
C  55.45500 45.64600 42.78400
N  50.81400 48.71900 43.70700
C  52.14100 48.46700 43.83200
C  52.90200 49.69700 44.39700
C  51.77200 50.70200 44.53100
C  50.52400 49.91700 44.25600
C  53.66900 49.43200 45.75600
C  51.84200 51.91400 43.56700
C  51.58100 53.24200 44.28600
N  47.93200 48.65500 43.54000
C  48.03700 49.94700 44.03400
C  46.71600 50.46900 44.16600
C  45.84700 49.50000 43.68600
C  46.67900 48.40600 43.22600
C  46.44000 51.84400 44.75200
C  44.45300 49.09800 43.48500
O  43.42700 49.66700 43.80100
C  44.44800 47.83800 42.49300
C  43.59400 46.82000 43.08900
O  43.61900 46.33700 44.23900
O  42.62800 46.62600 42.09800
C  41.86100 45.38900 42.34000
H  49.53700 43.13000 41.23100
H  53.82100 47.26500 43.69100
H  49.19300 51.52500 44.80400
H  44.98400 44.87900 41.55700
H  47.13000 43.80900 39.94100
H  45.67600 42.77800 42.31300
H  47.29000 42.33900 42.49600
H  46.60000 41.91600 40.97100
H  46.42800 45.77300 39.01400
H  45.35100 46.84000 39.71000
H  43.60400 45.75700 38.68100
H  43.93300 44.38000 39.71500
H  52.41200 42.62000 40.29500
H  51.31400 41.97500 41.66100
H  52.96900 42.08600 41.86500
H  55.28500 46.67600 42.47200
H  56.47400 45.43900 42.45700
H  55.55500 45.58100 43.86700
H  53.61600 49.98400 43.62500
H  51.69800 50.95500 45.58900
H  54.22400 48.49800 45.67600
H  52.94000 49.40900 46.56600
H  54.25900 50.31200 46.01200
H  51.20600 51.87000 42.68300
H  52.88900 51.96800 43.26900
H  50.90400 53.75400 43.60300
H  52.54400 53.73400 44.42400
H  51.10000 53.05900 45.24700
H  46.90100 52.54000 44.05100
H  46.86100 52.10600 45.72300
H  45.35200 51.91200 44.75100
H  44.09600 48.29500 41.56800
H  42.60600 44.61800 42.53500
H  41.39200 45.14800 41.38600
H  41.10800 45.73900 43.04700
Mg 36.25200 48.93500 25.09200
C  36.18200 46.97100 27.89600
C  34.93900 51.63900 26.97100
C  36.33200 50.81700 22.31700
C  37.55200 46.32900 23.16800
N  35.52300 49.20600 27.11000
C  35.67000 48.29200 28.17700
C  35.46100 48.92200 29.50400
C  34.68900 50.24100 29.19600
C  35.06400 50.39700 27.67100
C  33.22200 50.12800 29.22600
C  36.72200 49.07600 30.42000
C  36.56700 48.53400 31.84900
H  35.24000 48.44700 32.62700
N  35.64100 50.92100 24.67100
C  35.14000 51.85300 25.56500
C  34.88800 53.07300 24.89800
C  35.34600 52.92100 23.54200
C  35.72800 51.46700 23.42200
C  34.41600 54.29200 25.51900
C  35.54200 53.92700 22.43500
O  35.66800 53.56900 21.26700
C  35.36300 55.40600 22.69600
N  36.70200 48.62300 23.01400
C  36.61600 49.54000 22.04300
C  37.00700 48.95600 20.59200
C  37.86200 47.80100 21.06100
C  37.29500 47.50100 22.54100
C  35.73300 48.69700 19.77400
C  39.38100 47.94800 20.98200
C  39.97400 47.67600 19.54600
N  36.82300 47.11900 25.40700
C  37.39500 46.17800 24.57800
C  37.52100 44.95800 25.31700
C  37.02900 45.22900 26.58600
C  36.61700 46.56500 26.62100
C  38.09100 43.67600 24.86700
C  36.84800 44.61200 27.92900
O  36.96600 43.42600 28.33800
C  36.38000 45.80200 28.79700
C  35.20100 45.33200 29.62100
O  34.09000 45.61700 29.36800
O  35.58700 44.74300 30.79500
C  34.57600 44.33300 31.69500
H  34.60400 52.41600 27.66200
H  36.28600 51.42200 21.40900
H  38.08500 45.55000 22.62000
H  34.73400 48.23500 29.93500
H  35.14400 51.06400 29.74600
H  32.81500 50.17900 28.21600
H  32.79300 50.99700 29.72700
H  32.89200 49.24500 29.77300
H  36.95500 50.14000 30.38300
H  37.52500 48.57600 29.87800
H  37.13800 49.15300 32.54200
H  36.97500 47.55600 32.10400
H  33.66400 54.10700 26.28700
H  33.93200 55.03400 24.88400
H  35.24500 54.80900 26.00100
H  35.84600 56.02900 21.94400
H  35.89200 55.53300 23.64000
H  34.31700 55.69300 22.80400
H  37.59900 49.74700 20.13100
H  37.63600 46.96000 20.40500
H  34.87600 49.11900 20.29900
H  35.65700 47.61000 19.74300
H  35.72500 49.22100 18.81900
H  39.82300 47.18800 21.62700
H  39.66800 48.97200 21.21800
H  39.24300 47.33600 18.81200
H  40.74000 46.90500 19.63000
H  40.56800 48.53100 19.22300
H  39.12800 43.56500 25.18300
H  37.88700 43.35900 23.84400
H  37.60900 42.87200 25.42400
H  37.22600 45.96700 29.46500
H  34.99600 44.38600 32.70000
H  34.33800 43.33300 31.33300
H  33.70600 44.98500 31.62400

