158

Mg 17.19100 -0.36500 27.68200
C  16.40000 1.47300 30.65800
C  19.13500 -2.36300 29.53300
C  18.38200 -1.64200 24.83100
C  15.68800 2.19900 25.83600
N  17.95700 -0.20000 29.81600
C  17.33600 0.45600 30.87100
C  17.59500 -0.21700 32.22500
C  18.56600 -1.36400 31.81200
C  18.62000 -1.26300 30.29400
C  20.00300 -1.29400 32.49600
C  16.37100 -0.73900 32.98800
C  16.30900 -0.46200 34.51200
H  17.60600 0.03100 35.22500
N  18.54800 -1.87400 27.23200
C  19.19900 -2.70400 28.18700
C  19.81300 -3.82300 27.53200
C  19.58700 -3.56700 26.07200
C  18.78000 -2.34200 25.99900
C  20.41600 -4.96700 28.32100
C  19.84800 -4.48200 24.90700
O  19.43900 -4.28000 23.75300
C  20.68600 -5.70500 25.08800
N  17.16900 0.23200 25.68900
C  17.68100 -0.49300 24.69600
C  17.58300 0.18400 23.27800
C  16.66200 1.39800 23.64100
C  16.41300 1.27300 25.13500
C  18.98900 0.57300 22.66900
C  15.31700 1.31200 22.79500
C  14.27800 0.40800 23.28300
N  16.02800 1.27800 28.10200
C  15.42900 2.25600 27.24600
C  14.71100 3.23500 27.98900
C  15.09600 2.98000 29.30000
C  15.93300 1.77600 29.34700
C  14.04600 4.48900 27.49100
C  14.92700 3.49200 30.67700
O  14.31000 4.46300 31.05700
C  15.83600 2.55300 31.62900
C  16.87600 3.27600 32.30900
O  18.04200 3.31300 31.96900
O  16.40700 3.93500 33.45700
C  17.35400 4.62500 34.36900
H  19.51800 -3.16600 30.16600
H  18.63000 -2.07900 23.86100
H  15.16100 3.01300 25.33300
H  18.16300 0.39800 32.92300
H  18.25600 -2.37600 32.07300
H  19.90000 -2.24500 33.01700
H  20.09000 -0.42600 33.15000
H  20.86600 -1.22900 31.83300
H  16.23700 -1.78100 32.69600
H  15.48500 -0.24500 32.58900
H  16.00800 -1.38700 35.00400
H  15.48400 0.19400 34.78900
H  19.92600 -5.92400 28.14000
H  20.33200 -4.83800 29.40000
H  21.48900 -5.12300 28.21200
H  21.61300 -5.46300 25.60900
H  20.93000 -6.04800 24.08300
H  20.12400 -6.54500 25.49500
H  17.09700 -0.46700 22.55200
H  17.19900 2.34100 23.53900
H  19.00400 1.58000 22.25400
H  19.36600 -0.21200 22.01300
H  19.71900 0.42200 23.46400
H  15.59600 0.97500 21.79700
H  14.89200 2.31100 22.69300
H  13.78400 -0.04900 22.42600
H  13.57700 0.95200 23.91600
H  14.57200 -0.41900 23.93000
H  14.76200 4.89600 26.77800
H  13.80400 5.13900 28.33200
H  13.21000 4.07200 26.93000
H  15.19800 2.04200 32.35000
H  17.16100 4.27800 35.38400
H  17.29300 5.70600 34.24500
H  18.38500 4.31000 34.20600
Mg 48.57500 45.42400 43.43100
C  45.28500 45.83500 42.23400
C  48.40700 42.21900 42.08300
C  51.94000 45.22400 43.82800
C  48.64400 48.70500 44.58400
N  47.07700 44.25900 42.16000
C  45.75600 44.61600 41.87200
C  45.00400 43.56400 41.03300
C  45.90500 42.31200 41.35400
C  47.24600 42.94200 41.93000
C  45.16000 41.38200 42.34600
C  44.86200 43.93900 39.51300
C  43.60100 43.48800 38.73000
H  43.80700 42.40800 37.74500
N  50.00600 43.95200 42.90900
C  49.69700 42.67700 42.44200
C  50.98300 41.94200 42.33300
C  51.99100 42.82200 42.82400
C  51.32500 44.02100 43.24800
C  51.00700 40.41300 41.87400
C  53.44500 42.45200 42.87600
O  53.85700 41.41100 42.36300
C  54.47300 43.35300 43.44500
N  50.04500 46.68100 44.30700
C  51.34600 46.43800 44.22100
C  52.19800 47.60200 44.76000
C  51.09700 48.67200 45.01500
C  49.87600 47.94200 44.71700
C  53.06400 47.29800 46.07400
C  51.21800 50.02400 44.15300
C  50.69100 51.27600 44.85100
N  47.14300 46.98000 43.60100
C  47.35200 48.24800 44.12300
C  46.19900 49.00300 43.88900
C  45.32400 48.06100 43.19200
C  45.97700 46.85000 43.00300
C  45.96300 50.40300 44.34700
C  44.02300 47.94600 42.60500
O  43.08300 48.74400 42.56700
C  43.85000 46.56400 41.80300
C  42.67200 45.79600 42.13900
O  41.84700 45.42700 41.27400
O  42.57600 45.53500 43.45000
C  41.36000 44.87800 43.92100
H  48.28000 41.16200 41.83600
H  53.02500 45.34000 43.80300
H  48.54100 49.74800 44.88900
H  43.96600 43.55800 41.36600
H  46.13100 41.80100 40.41700
H  45.23000 40.40500 41.86700
H  44.17400 41.81100 42.52400
H  45.59800 41.39800 43.34400
H  45.72700 43.51900 38.99900
H  45.06800 45.00400 39.41000
H  43.20200 44.39400 38.27400
H  42.86600 43.04300 39.40100
H  51.79500 40.14800 41.16900
H  50.09600 40.06900 41.38400
H  51.04400 39.83700 42.79900
H  54.05300 43.78300 44.35400
H  54.75500 44.17400 42.78600
H  55.30200 42.64800 43.51900
H  53.03300 47.82200 44.09500
H  50.99200 48.83900 46.08700
H  53.80700 48.06500 46.29400
H  53.59800 46.35800 45.93100
H  52.46800 47.10300 46.96500
H  50.72700 49.74400 43.22100
H  52.26300 50.13600 43.86400
H  51.38700 52.11200 44.78500
H  50.44300 50.94100 45.85800
H  49.73900 51.51900 44.37900
H  44.89900 50.61100 44.46200
H  46.43800 51.06600 43.62400
H  46.38300 50.54000 45.34400
H  44.00500 46.70500 40.73400
H  41.39600 43.79000 43.86000
H  40.52200 45.23400 43.32200
H  41.15500 45.05100 44.97800

