158

Mg 25.37200 -5.76900 46.48700
C  27.13200 -2.88800 45.59500
C  22.79200 -4.84600 44.47200
C  23.98300 -8.82900 46.76600
C  28.23500 -6.84200 48.04000
N  24.97600 -4.04200 45.27600
C  25.93100 -3.04200 44.96600
C  25.44400 -2.12000 43.80200
C  23.87100 -2.57700 43.68800
C  23.82300 -3.88100 44.53600
C  22.98000 -1.51000 44.31600
C  26.22700 -2.19700 42.43500
C  26.40700 -1.01000 41.52200
H  25.55200 -1.04000 40.22600
N  23.57400 -6.69100 45.79800
C  22.57200 -6.10600 45.04800
C  21.50300 -7.03100 44.87400
C  21.79800 -8.18300 45.63800
C  23.12300 -7.89300 46.18300
C  20.21400 -6.79000 43.99300
C  20.90500 -9.31600 45.76400
O  19.87800 -9.35000 45.14400
C  21.27800 -10.46200 46.66800
N  26.06400 -7.60800 47.17100
C  25.26500 -8.74700 47.23400
C  25.90000 -9.87400 48.02900
C  27.34300 -9.23800 48.36500
C  27.24300 -7.83900 47.85300
C  25.09300 -10.50400 49.28200
C  28.53600 -10.05200 47.80500
C  29.52500 -10.77400 48.71600
N  27.25700 -5.02400 46.88500
C  28.33900 -5.55100 47.52700
C  29.47000 -4.67400 47.54900
C  28.98500 -3.60300 46.76800
C  27.61700 -3.84000 46.45300
C  30.82900 -4.87100 48.17100
C  29.41500 -2.28700 46.20500
O  30.39900 -1.63700 46.34200
C  28.24000 -1.88000 45.28900
C  27.86000 -0.53500 45.63800
O  28.23400 0.43000 45.00900
O  27.11400 -0.58300 46.80200
C  26.55100 0.65500 47.26800
H  21.91400 -4.64000 43.85600
H  23.69200 -9.88000 46.82400
H  29.13600 -7.12300 48.59000
H  25.56100 -1.09500 44.15300
H  23.48800 -2.70800 42.67600
H  23.46900 -0.54000 44.22200
H  22.81500 -1.60700 45.38900
H  22.09200 -1.40500 43.69400
H  25.77500 -3.03700 41.90700
H  27.19200 -2.62400 42.70800
H  27.45400 -1.02200 41.22000
H  26.22300 -0.14600 42.16000
H  19.99800 -7.53000 43.22200
H  20.35500 -5.89600 43.38600
H  19.40200 -6.66200 44.71000
H  21.49700 -10.04200 47.65000
H  22.03600 -11.15900 46.31000
H  20.46800 -11.16500 46.86000
H  25.92100 -10.66800 47.28300
H  27.53200 -9.22900 49.43900
H  25.43100 -9.98500 50.17900
H  25.31200 -11.57200 49.31700
H  24.05200 -10.20300 49.16500
H  29.26100 -9.43100 47.27900
H  28.16200 -10.79400 47.10000
H  29.08200 -10.94300 49.69800
H  30.30700 -10.05000 48.94000
H  29.93200 -11.64100 48.19500
H  31.42700 -3.96300 48.10300
H  31.32300 -5.74500 47.74800
H  30.77700 -5.13800 49.22700
H  28.50300 -1.85400 44.23200
H  25.48800 0.48000 47.43700
H  26.58400 1.43300 46.50400
H  27.06100 1.04700 48.14800
Mg 29.73400 58.68000 41.63700
C  26.68400 57.55300 40.53700
C  31.29200 56.06100 40.26300
C  32.68600 60.37800 42.08200
C  28.06700 61.90400 42.26300
N  29.03100 57.04400 40.40900
C  27.76200 56.74000 40.03600
C  27.79400 55.38800 39.22500
C  29.26900 54.79000 39.39300
C  29.90200 56.02600 40.12200
C  29.34300 53.46700 40.13500
C  27.32600 55.68100 37.81000
C  26.33500 54.74200 37.19300
H  26.19700 54.51500 35.74100
N  31.66300 58.20600 41.41700
C  32.15100 56.99600 40.90500
C  33.56400 56.94800 41.03100
C  33.99100 58.18600 41.50300
C  32.71900 59.00600 41.71600
C  34.40900 55.78300 40.58700
C  35.41100 58.59400 41.72600
O  36.31400 57.84900 41.40200
C  35.85400 59.98200 42.11200
N  30.30800 60.90000 42.01100
C  31.62600 61.29000 42.19100
C  31.76000 62.67900 42.79200
C  30.23800 63.16700 42.84800
C  29.46600 61.97900 42.37200
C  32.65500 62.83600 44.05300
C  29.99500 64.46300 42.25200
C  28.83100 65.26300 42.97700
N  27.74600 59.54600 41.51500
C  27.26100 60.75700 41.85800
C  25.80900 60.75100 41.73900
C  25.56000 59.48900 41.25000
C  26.78100 58.82300 41.13100
C  24.95700 61.88800 42.11800
C  24.49400 58.54600 40.80600
O  23.26000 58.60300 40.85100
C  25.21600 57.27900 40.40400
C  24.82600 56.19000 41.30800
O  25.22900 55.95500 42.41600
O  23.69200 55.68000 40.74900
C  22.85100 54.99700 41.68400
H  31.77400 55.15800 39.88200
H  33.65200 60.87400 42.20400
H  27.54200 62.80300 42.59300
H  27.03300 54.81300 39.75300
H  29.81100 54.64100 38.46000
H  29.74700 53.59500 41.14000
H  29.95000 52.76400 39.56400
H  28.30100 53.15300 40.19500
H  28.16400 55.72300 37.11300
H  26.98500 56.70700 37.67100
H  25.35300 55.09800 37.50500
H  26.47600 53.79000 37.70400
H  34.73200 55.95600 39.56100
H  33.87600 54.83500 40.52000
H  35.18400 55.52500 41.30900
H  35.46700 60.62700 41.32300
H  36.94200 60.00000 42.16900
H  35.32900 60.23000 43.03500
H  32.21800 63.30800 42.02900
H  30.05700 63.31200 43.91300
H  32.97300 63.87900 44.05500
H  33.48300 62.13200 44.13800
H  32.04100 62.84100 44.95400
H  29.74200 64.40200 41.19300
H  30.89400 65.05600 42.41900
H  29.11200 66.26000 43.31500
H  28.35400 64.66200 43.75200
H  28.10200 65.64700 42.26400
H  25.27900 62.57800 41.33800
H  25.24600 62.29800 43.08500
H  23.91700 61.57300 42.03000
H  25.03900 57.04700 39.35400
H  22.28100 55.79600 42.15700
H  23.32800 54.30600 42.37900
H  22.10100 54.44000 41.12200

