158

Mg -1.75600 17.82300 26.36400
C  -2.16800 15.74800 29.06900
C  -2.63900 20.56100 28.28300
C  -2.00700 19.71900 23.56900
C  -1.59200 14.97600 24.28500
N  -2.19000 18.04300 28.44100
C  -2.36400 17.07700 29.41700
C  -2.82100 17.65800 30.74700
C  -3.18000 19.09900 30.39800
C  -2.63300 19.31000 28.97500
C  -4.72100 19.31500 30.38600
C  -1.75300 17.51900 31.76100
C  -2.13800 16.93200 33.04900
H  -1.07300 16.37900 33.88700
N  -1.96700 19.84900 26.02100
C  -2.25500 20.81900 26.93800
C  -2.00800 22.14000 26.36500
C  -1.84800 21.93400 24.97400
C  -1.92000 20.41200 24.79500
C  -2.20000 23.36700 27.18100
C  -1.61300 22.98900 23.84700
O  -1.52800 22.69900 22.64300
C  -1.28100 24.48900 24.27600
N  -2.00800 17.43500 24.20300
C  -2.13100 18.41100 23.28500
C  -2.09200 17.90100 21.84100
C  -1.68700 16.36400 22.12800
C  -1.72700 16.23500 23.61700
C  -3.40700 17.97600 21.03400
C  -0.32900 15.99200 21.48800
C  0.86400 16.56700 22.15900
N  -1.74800 15.73600 26.59600
C  -1.66600 14.68200 25.62300
C  -1.73300 13.43400 26.34700
C  -1.99200 13.79500 27.68600
C  -1.87800 15.22200 27.79700
C  -1.85700 12.08000 25.68900
C  -2.39700 13.27600 28.95400
O  -2.55600 12.12400 29.33500
C  -2.35900 14.48000 29.98900
C  -1.51700 14.12800 31.14900
O  -0.32300 14.11000 31.06500
O  -2.20200 13.72900 32.29500
C  -1.44700 12.95400 33.28300
H  -3.02900 21.33700 28.94500
H  -2.00200 20.27000 22.62600
H  -1.51800 14.16600 23.55600
H  -3.63000 16.98500 31.03300
H  -2.70600 19.74100 31.14100
H  -5.13100 19.73700 29.46900
H  -4.99400 19.97100 31.21300
H  -5.26900 18.43400 30.72400
H  -1.30700 18.49100 31.97400
H  -0.97700 16.89800 31.31400
H  -2.95500 16.22300 32.91600
H  -2.51200 17.82100 33.55700
H  -2.54300 23.07500 28.17300
H  -3.03700 23.96600 26.82300
H  -1.35400 24.01400 27.41100
H  -2.09800 24.88600 24.87800
H  -1.13000 25.13700 23.41300
H  -0.33900 24.50800 24.82500
H  -1.26800 18.46100 21.39800
H  -2.43900 15.70400 21.69500
H  -4.15500 18.54900 21.58400
H  -3.74600 16.96100 20.82800
H  -3.35000 18.56300 20.11800
H  -0.33900 16.32100 20.44900
H  -0.26500 14.90700 21.57800
H  1.55800 15.90200 22.67200
H  0.49600 17.34000 22.83400
H  1.47400 17.05400 21.39900
H  -1.00000 11.90400 25.03900
H  -2.74600 11.98600 25.06400
H  -1.88100 11.31100 26.46100
H  -3.37100 14.64000 30.36200
H  -1.57200 13.51700 34.20800
H  -0.36200 12.90800 33.19400
H  -1.82300 11.93600 33.38600
Mg 35.74800 49.59500 25.33900
C  35.39700 47.64300 28.30700
C  34.45600 52.24700 27.07500
C  35.29300 51.03900 22.44800
C  36.79100 46.59000 23.75800
N  35.04500 49.88900 27.40800
C  35.09000 49.00000 28.46500
C  34.67900 49.66500 29.78500
C  34.45800 51.20000 29.40600
C  34.64000 51.13200 27.87700
C  33.19100 51.82900 29.90900
C  35.72400 49.53000 30.91300
C  35.24200 49.10800 32.26800
H  33.78500 49.49100 32.64100
N  35.04600 51.37600 24.80800
C  34.59000 52.44600 25.69400
C  34.23400 53.63500 24.88900
C  34.47500 53.27300 23.50500
C  34.88900 51.80500 23.50900
C  33.73900 54.91500 25.44900
C  34.32800 54.07000 22.19800
O  34.71700 53.67800 21.12000
C  33.48300 55.35000 22.18300
N  36.10700 48.89700 23.41300
C  35.81200 49.70600 22.32600
C  36.39800 49.14000 20.99400
C  36.88900 47.75300 21.52100
C  36.59500 47.72600 22.97500
C  35.58300 49.21900 19.70800
C  38.32000 47.36100 21.13000
C  39.44200 47.93400 21.98200
N  35.97000 47.51000 25.85000
C  36.43700 46.43700 25.12000
C  36.33800 45.15900 25.87900
C  36.01400 45.61900 27.18300
C  35.83400 47.04300 27.09400
C  36.59900 43.71200 25.32500
C  35.80800 45.28600 28.55600
O  35.94500 44.18500 29.07700
C  35.40600 46.56500 29.35000
C  34.08200 46.26800 30.03400
O  32.97000 46.15900 29.58200
O  34.32500 45.97100 31.36300
C  33.36700 45.48600 32.33500
H  34.20900 53.13700 27.65800
H  35.13700 51.38200 21.42300
H  37.01300 45.68400 23.19000
H  33.71800 49.22300 30.04900
H  35.29800 51.78100 29.78800
H  33.49500 52.39500 30.79000
H  32.37900 51.14400 30.15200
H  32.78700 52.46400 29.12000
H  36.22100 50.45700 31.19800
H  36.56300 48.92500 30.56900
H  35.97500 49.47200 32.98800
H  35.33600 48.02200 32.30300
H  32.66700 54.79600 25.60600
H  34.14300 55.72500 24.84100
H  34.09300 55.09300 26.46400
H  34.01800 56.24500 22.49900
H  32.67400 55.17000 22.89200
H  33.04100 55.40100 21.18700
H  37.30900 49.67400 20.72400
H  36.34500 46.94200 21.03500
H  36.12600 49.64400 18.86300
H  34.63000 49.74300 19.78300
H  35.35000 48.21100 19.36500
H  38.47700 47.77800 20.13500
H  38.49100 46.30800 20.90400
H  39.84600 47.11400 22.57500
H  39.20700 48.60400 22.80900
H  40.27700 48.37400 21.43800
H  37.59700 43.64800 24.89000
H  35.84200 43.20300 24.72800
H  36.70700 43.18200 26.27100
H  36.15000 46.83900 30.09800
H  33.67800 44.49300 32.65800
H  32.40700 45.52300 31.82100
H  33.28700 46.07900 33.24600

