158

Mg 24.46600 -4.75700 45.92100
C  26.89700 -2.68900 44.45200
C  22.26500 -3.73700 43.36100
C  22.54800 -7.56000 46.33700
C  27.06600 -6.31600 47.55700
N  24.61500 -3.37600 44.03600
C  25.66400 -2.57400 43.78500
C  25.25500 -1.52800 42.71100
C  23.77100 -1.82200 42.43600
C  23.48700 -3.04300 43.30600
C  22.86400 -0.68600 42.85200
C  26.08600 -1.60500 41.40000
C  25.94600 -0.73800 40.14600
H  25.50100 -1.23600 38.78500
N  22.66800 -5.45900 45.04800
C  21.89800 -4.90900 44.05600
C  20.65400 -5.67400 43.88300
C  20.65700 -6.70600 44.80500
C  21.99800 -6.57300 45.48000
C  19.65200 -5.31000 42.74400
C  19.62700 -7.81100 44.93700
O  18.75700 -7.81200 44.10700
C  19.60200 -8.72600 46.16900
N  24.71200 -6.61100 46.77000
C  23.76500 -7.69300 46.89800
C  24.33800 -8.87800 47.57300
C  25.70600 -8.40700 48.06000
C  25.86700 -6.98100 47.47100
C  23.45900 -9.47000 48.74300
C  26.87100 -9.41200 47.68500
C  27.92900 -9.75900 48.77000
N  26.44400 -4.42600 46.26300
C  27.39200 -5.11800 46.95900
C  28.64400 -4.46000 46.97700
C  28.47500 -3.45600 46.03000
C  27.18900 -3.51900 45.52000
C  29.87700 -4.88100 47.72100
C  29.18000 -2.36800 45.34100
O  30.32700 -1.93300 45.50300
C  28.17500 -1.85200 44.29000
C  27.86300 -0.38900 44.44100
O  27.22600 0.13400 45.36600
O  28.30800 0.17300 43.29100
C  28.09800 1.67800 43.18900
H  21.52300 -3.40300 42.63200
H  22.02900 -8.50800 46.49200
H  27.80000 -6.83000 48.18100
H  25.53300 -0.52100 43.02400
H  23.63800 -1.93000 41.36000
H  22.08700 -0.45500 42.12200
H  23.53800 0.14500 43.05800
H  22.39700 -1.03100 43.77400
H  25.70700 -2.51000 40.92700
H  27.14400 -1.72700 41.63200
H  26.86700 -0.16000 40.06800
H  25.14600 -0.09300 40.50700
H  19.96200 -5.92400 41.89900
H  19.55400 -4.24700 42.52500
H  18.68100 -5.57500 43.16200
H  18.60500 -9.15800 46.24900
H  19.78100 -8.14200 47.07200
H  20.35700 -9.49600 46.01200
H  24.44600 -9.59800 46.76200
H  25.68700 -8.28600 49.14300
H  23.83200 -9.54700 49.76500
H  23.51100 -10.53900 48.54000
H  22.43100 -9.11200 48.68900
H  27.46200 -8.92600 46.90900
H  26.43500 -10.31500 47.25600
H  27.83600 -10.81600 49.02000
H  27.66900 -9.07600 49.57900
H  28.95000 -9.58500 48.43300
H  30.57400 -5.38400 47.05000
H  29.65600 -5.43100 48.63600
H  30.42000 -3.96900 47.96500
H  28.70400 -2.04900 43.35800
H  28.47900 2.16900 44.08400
H  27.04400 1.88100 43.00000
H  28.62900 2.04800 42.31100
Mg 8.91700 48.81600 26.12900
C  7.11600 49.13100 28.93800
C  11.70000 49.98900 27.56600
C  10.58300 48.46200 23.08200
C  5.83100 48.63400 24.18900
N  9.32400 49.49500 28.05600
C  8.50800 49.40800 29.13700
C  9.26900 49.96200 30.42400
C  10.58500 50.57800 29.84700
C  10.51800 50.05700 28.33800
C  10.77900 52.06200 30.01400
C  9.62700 48.81500 31.39300
C  9.01300 48.90700 32.73700
H  8.99000 47.64400 33.49300
N  10.88400 48.99600 25.45200
C  11.92000 49.48800 26.27200
C  13.17200 49.31600 25.50500
C  12.89500 48.78600 24.17000
C  11.37500 48.67800 24.19600
C  14.54000 49.43300 26.16400
C  13.82100 48.23800 23.09800
O  13.36000 47.76200 22.03500
C  15.29700 48.32500 23.26000
N  8.25700 48.62300 23.85000
C  9.16800 48.48200 22.83500
C  8.45100 48.15200 21.46000
C  7.00300 48.60800 21.79800
C  6.94600 48.59600 23.36300
C  8.96400 48.71800 20.10400
C  5.98800 47.52800 21.22400
C  5.27100 47.94800 19.97600
N  6.90300 48.84700 26.44800
C  5.78300 48.62700 25.61100
C  4.55000 48.71000 26.45800
C  5.05400 48.91100 27.77900
C  6.45300 48.96500 27.69700
C  3.21100 48.46600 25.96500
C  4.69100 48.98800 29.12400
O  3.56100 48.89700 29.65000
C  6.00400 49.13100 29.94900
C  6.05200 47.99000 30.92900
O  6.78200 47.00300 30.82100
O  5.13100 48.24300 31.92700
C  4.83900 47.05100 32.72700
H  12.60600 50.37600 28.03700
H  11.08900 48.43300 22.11400
H  4.87700 48.46700 23.68400
H  8.69600 50.63000 31.06500
H  11.48100 50.10400 30.24900
H  10.11800 52.46200 30.78200
H  10.63800 52.62800 29.09300
H  11.78400 52.19100 30.41600
H  10.68500 48.77800 31.65100
H  9.30800 47.86400 30.96600
H  8.05700 49.43000 32.76300
H  9.54400 49.66400 33.31400
H  14.97100 48.43100 26.15500
H  14.33100 49.74000 27.18800
H  15.12200 50.23800 25.71500
H  15.64300 49.35800 23.23000
H  15.79900 47.90900 22.38600
H  15.71200 47.72700 24.07000
H  8.52500 47.06600 21.39700
H  6.80400 49.62300 21.45700
H  9.83100 49.31900 20.37900
H  8.24100 49.44000 19.72400
H  9.21800 47.96900 19.35400
H  5.19500 47.17500 21.88400
H  6.50500 46.59200 21.01100
H  5.39600 49.02200 19.83500
H  4.20800 47.72600 20.06600
H  5.83600 47.48500 19.16800
H  2.49100 48.99500 26.59000
H  2.93600 47.41200 26.00900
H  3.06700 48.76700 24.92700
H  5.95900 50.06100 30.51700
H  3.76600 46.85800 32.74000
H  5.09900 47.35500 33.74000
H  5.40300 46.16000 32.45000

