158

Mg 25.78600 0.90000 29.58300
C  27.83700 0.83200 32.39200
C  23.12700 1.45500 31.53000
C  23.96200 1.21900 26.79900
C  28.57000 0.22600 27.49700
N  25.51600 1.00000 31.69600
C  26.48500 1.05500 32.70200
C  25.85700 1.23500 34.10200
C  24.32100 1.28700 33.75600
C  24.27700 1.16100 32.25000
C  23.30700 0.41600 34.53500
C  26.53500 2.47000 34.85400
C  25.66200 2.95500 36.08000
H  26.45300 3.16300 37.34400
N  23.79400 1.27300 29.16400
C  22.83600 1.48900 30.11100
C  21.62300 1.88500 29.49200
C  21.76300 1.65700 28.08600
C  23.22300 1.38400 27.94000
C  20.26600 2.07700 30.28500
C  20.75900 1.81900 26.97000
O  20.98300 1.68500 25.79000
C  19.33000 2.28800 27.26600
N  26.19400 0.76600 27.43500
C  25.30200 0.94600 26.47500
C  25.79200 0.86600 25.10200
C  27.26200 0.45700 25.27000
C  27.38100 0.55200 26.83700
C  24.95900 0.04100 24.06800
C  28.18400 1.46000 24.53700
C  29.50800 0.78100 23.96400
N  27.83400 0.43200 29.87300
C  28.79500 0.06500 28.91900
C  30.06000 -0.14000 29.65600
C  29.69800 0.22300 31.04800
C  28.35000 0.51300 31.08200
C  31.36600 -0.40200 29.00200
C  30.21300 0.46500 32.34700
O  31.36800 0.35000 32.69500
C  29.03800 0.87700 33.28700
C  28.91800 0.01200 34.39500
O  28.24700 -1.00900 34.40600
O  29.53700 0.59300 35.47800
C  29.39300 -0.13900 36.69200
H  22.23400 1.72800 32.09600
H  23.24900 1.15000 25.97500
H  29.40300 0.05500 26.81200
H  26.16400 0.37300 34.69500
H  24.05700 2.30500 34.04100
H  22.91500 -0.35600 33.87200
H  22.47600 0.99700 34.93600
H  23.79500 -0.04000 35.39600
H  26.57600 3.24600 34.08900
H  27.50900 2.18000 35.24900
H  24.89600 2.19000 36.20600
H  25.32600 3.95200 35.79500
H  19.75300 3.03700 30.22800
H  20.32100 2.04500 31.37300
H  19.60900 1.29500 29.90600
H  18.62100 1.97000 26.50100
H  19.34100 3.37700 27.24400
H  18.95100 1.81200 28.17100
H  25.63200 1.86100 24.68600
H  27.48200 -0.51600 24.83100
H  24.30500 -0.62500 24.63000
H  25.60500 -0.52700 23.39900
H  24.36300 0.69100 23.42800
H  28.28900 2.29700 25.22700
H  27.70600 1.83100 23.63000
H  30.41200 1.13100 24.46300
H  29.62900 1.01100 22.90600
H  29.48600 -0.30100 24.10000
H  31.69400 0.47700 28.44800
H  31.26900 -1.23700 28.30700
H  32.10800 -0.50800 29.79300
H  29.17200 1.94400 33.46300
H  30.26100 0.18400 37.26700
H  29.58000 -1.20800 36.59000
H  28.49600 0.21900 37.19800
Mg 47.76200 24.50500 29.15000
C  48.85400 26.91400 31.41500
C  46.81000 22.47600 31.66900
C  46.90700 22.22600 26.84800
C  49.14700 26.56200 26.56500
N  47.69300 24.77500 31.24300
C  48.16900 25.80900 31.96700
C  47.68300 25.66700 33.44400
C  47.22200 24.19700 33.58100
C  47.24800 23.79700 32.07800
C  47.99000 23.16800 34.45700
C  46.55600 26.70800 33.81600
C  46.85500 27.78200 34.86500
H  45.79800 28.04000 35.99000
N  46.87200 22.66300 29.23700
C  46.58600 21.92400 30.39300
C  46.06800 20.62200 30.11300
C  46.00100 20.56000 28.67400
C  46.57600 21.85300 28.16700
C  45.55700 19.67100 31.15500
C  45.47400 19.49400 27.83900
O  45.33400 19.70700 26.63900
C  45.03000 18.18700 28.42000
N  48.03100 24.40700 26.97800
C  47.53200 23.38200 26.26000
C  47.84200 23.52800 24.73100
C  48.19500 24.99000 24.66900
C  48.39600 25.38900 26.11400
C  49.05500 22.61700 24.32000
C  47.05700 25.78800 24.03400
C  46.91300 25.72000 22.50800
N  48.84100 26.32800 28.99900
C  49.38100 27.00900 27.84800
C  50.10500 28.14300 28.34600
C  49.96500 28.14100 29.75300
C  49.17100 27.07700 30.07100
C  50.89100 29.17700 27.61900
C  50.27400 28.76100 30.98300
O  50.97800 29.76600 31.25600
C  49.47400 28.06100 32.13500
C  50.44600 27.67900 33.17900
O  51.20300 26.73700 33.20600
O  50.20800 28.58200 34.21100
C  51.13800 28.32800 35.33100
H  46.53400 21.96000 32.59100
H  46.68700 21.53300 26.03300
H  49.55100 27.08900 25.69800
H  48.58700 25.71500 34.05000
H  46.18900 24.24500 33.92600
H  48.94000 23.56000 34.82200
H  48.27100 22.31100 33.84500
H  47.40400 22.78600 35.29200
H  45.63400 26.23000 34.14700
H  46.22900 27.07600 32.84400
H  47.05700 28.73700 34.38000
H  47.76500 27.43500 35.35500
H  45.85800 18.68100 30.81200
H  44.46700 19.64200 31.13800
H  45.94500 19.94800 32.13500
H  45.83900 17.51500 28.71000
H  44.47300 17.57700 27.70900
H  44.29700 18.37700 29.20400
H  47.01700 23.26200 24.07100
H  49.07500 25.27900 24.09500
H  49.62500 22.09500 25.08900
H  49.82400 23.19000 23.80100
H  48.54700 21.78700 23.83000
H  47.19400 26.83000 24.32500
H  46.20000 25.49300 24.64000
H  47.62100 25.03200 22.04600
H  47.12700 26.73200 22.16300
H  45.85400 25.47300 22.43500
H  50.52700 29.21400 26.59200
H  51.96800 29.01200 27.59300
H  50.68400 30.13000 28.10500
H  48.59200 28.59200 32.49400
H  52.17300 28.09500 35.08200
H  50.73000 27.49000 35.89700
H  51.22900 29.19900 35.98000

