158

Mg 8.91800 3.71300 27.79700
C  10.48700 2.03600 30.51100
C  6.83800 5.19700 29.89900
C  7.47500 4.99500 25.12100
C  10.84300 1.49700 25.74400
N  8.70900 3.59200 29.84500
C  9.51000 3.02100 30.83000
C  9.19200 3.60100 32.26900
C  7.94200 4.46600 32.07000
C  7.84600 4.44300 30.50100
C  6.74500 3.84300 32.84100
C  10.37500 4.07000 33.14700
C  10.09400 5.17300 34.25000
H  10.47800 4.79000 35.69000
N  7.32700 4.92200 27.54600
C  6.55600 5.47500 28.53300
C  5.48000 6.23100 27.96700
C  5.77900 6.38000 26.57500
C  6.88900 5.38600 26.33100
C  4.42800 6.86000 28.71500
C  5.13400 7.17300 25.45900
O  5.50300 7.12400 24.28200
C  4.15800 8.21100 25.89500
N  9.10200 3.16600 25.73500
C  8.46200 4.03800 24.84400
C  8.83000 3.71000 23.41200
C  9.91300 2.57100 23.61300
C  9.93100 2.31900 25.10400
C  7.55700 3.19700 22.59900
C  11.31600 2.88600 23.08600
C  11.79500 1.78900 22.16600
N  10.31100 2.07100 28.04100
C  11.01000 1.25300 27.09900
C  11.81200 0.29500 27.77700
C  11.69600 0.64200 29.11300
C  10.71100 1.63700 29.21400
C  12.68900 -0.76600 27.13000
C  12.11600 0.28800 30.47000
O  12.96900 -0.51300 30.89100
C  11.37400 1.19900 31.38900
C  10.60700 0.42200 32.43500
O  9.45700 -0.01700 32.31400
O  11.33500 0.42600 33.59900
C  10.59600 0.27300 34.87100
H  6.10900 5.59700 30.60700
H  7.24800 5.48600 24.17200
H  11.43400 0.79800 25.14900
H  8.92300 2.71100 32.83800
H  8.16500 5.48900 32.37400
H  5.97900 3.63000 32.09600
H  6.29000 4.60100 33.47700
H  6.75600 2.94800 33.46300
H  11.19400 4.41900 32.51800
H  10.71100 3.17400 33.66800
H  9.07500 5.55900 34.24100
H  10.68200 6.07200 34.06300
H  4.26900 6.51100 29.73500
H  3.43500 6.90800 28.26800
H  4.73600 7.89700 28.84200
H  3.29400 7.63300 26.22300
H  3.85900 8.91700 25.12000
H  4.50400 8.80800 26.73900
H  9.32100 4.60900 23.03900
H  9.51500 1.67300 23.14200
H  6.68500 3.22400 23.25300
H  7.66800 2.16800 22.25800
H  7.36500 3.75200 21.68000
H  11.98200 3.10000 23.92100
H  11.28600 3.82400 22.53100
H  12.21600 2.34900 21.33100
H  11.05000 1.11700 21.74100
H  12.56300 1.23000 22.70200
H  12.02300 -1.31100 26.46100
H  13.09700 -1.46300 27.86100
H  13.54200 -0.31200 26.62600
H  12.14000 1.86700 31.78300
H  9.90500 -0.56200 34.98800
H  10.10700 1.23100 35.05100
H  11.31400 0.09600 35.67200
Mg 0.93300 43.54200 25.76700
C  3.08900 43.36500 28.43200
C  -1.68300 43.52700 28.02800
C  -1.04600 42.73900 23.32200
C  3.57600 43.96300 23.65700
N  0.73200 43.41900 27.97200
C  1.75700 43.31000 28.85000
C  1.29300 43.39200 30.29700
C  -0.30400 43.23700 30.16600
C  -0.38100 43.45300 28.64200
C  -0.94600 41.79900 30.50700
C  1.67900 44.66700 31.08300
C  1.76000 44.68200 32.65900
H  1.27100 43.46700 33.39200
N  -1.07000 43.31500 25.64300
C  -1.99600 43.38600 26.64100
C  -3.29700 43.16000 26.11400
C  -3.23700 42.77600 24.71400
C  -1.76600 42.92400 24.48300
C  -4.50100 43.12200 27.05800
C  -4.32800 42.22900 23.82400
O  -4.06700 41.79700 22.71700
C  -5.75000 42.06300 24.29500
N  1.22900 43.16300 23.67500
C  0.22400 42.89800 22.85900
C  0.81000 42.76800 21.40000
C  2.13000 43.66800 21.59900
C  2.35000 43.60700 23.07300
C  1.12100 41.24100 20.96800
C  2.02900 45.12000 21.23100
C  3.31000 45.72800 20.48100
N  2.92200 43.59000 25.95700
C  3.94300 43.85300 25.05100
C  5.26700 43.78900 25.65000
C  4.91400 43.49900 26.97500
C  3.57000 43.45500 27.11800
C  6.59800 43.89600 24.92900
C  5.49700 43.29800 28.26800
O  6.65000 43.10600 28.64900
C  4.25300 43.39200 29.31500
C  4.39000 42.17600 30.19500
O  4.06700 41.04700 29.82200
O  5.01000 42.43900 31.38400
C  5.07300 41.26900 32.24400
H  -2.43900 43.70200 28.79600
H  -1.67800 42.44000 22.48300
H  4.42800 44.19800 23.01600
H  1.83500 42.57400 30.77300
H  -0.86400 44.02000 30.67800
H  -1.56400 41.42900 29.68900
H  -1.63500 41.89200 31.34700
H  -0.08800 41.15600 30.70300
H  0.95100 45.45700 30.90000
H  2.68600 44.95600 30.78100
H  1.36300 45.60600 33.07800
H  2.79600 44.76100 32.98800
H  -5.24400 43.74000 26.55400
H  -4.36100 43.60100 28.02700
H  -4.89100 42.11100 27.17400
H  -5.79200 41.31000 25.08200
H  -6.27500 41.67800 23.42100
H  -6.10600 43.00900 24.70500
H  0.15400 43.23200 20.66400
H  2.91000 43.18400 21.01100
H  2.18700 41.11000 20.78300
H  0.48500 41.02600 20.10900
H  0.88700 40.52500 21.75600
H  1.65800 45.69900 22.07700
H  1.29100 45.21900 20.43600
H  3.24500 46.78900 20.72100
H  3.41500 45.49600 19.42100
H  4.19000 45.30200 20.96300
H  7.42100 43.56900 25.56500
H  6.69100 44.90700 24.53400
H  6.53900 43.27800 24.03300
H  4.50300 44.24000 29.95200
H  5.65600 40.54000 31.68200
H  4.04500 40.96100 32.43200
H  5.62500 41.61800 33.11700

