158

Mg 47.06000 24.46900 27.48800
C  48.09800 26.71100 29.99100
C  46.29500 22.34800 30.00300
C  46.29500 22.25700 25.23800
C  48.57400 26.40600 25.21400
N  47.06700 24.54800 29.71500
C  47.46900 25.58700 30.50700
C  47.16100 25.30600 32.02800
C  46.76600 23.81300 31.95100
C  46.73600 23.55700 30.45800
C  47.78700 22.90800 32.61400
C  46.21700 26.42700 32.67600
C  45.60100 26.01300 33.94100
H  45.70600 26.90900 35.15800
N  46.35100 22.58700 27.55400
C  46.12600 21.84300 28.69000
C  45.55000 20.56500 28.33300
C  45.41900 20.57700 26.90800
C  46.04000 21.83900 26.51500
C  45.28600 19.47300 29.41900
C  44.79800 19.47400 25.99100
O  44.89600 19.51300 24.77500
C  44.11900 18.27100 26.54600
N  47.46700 24.38500 25.50300
C  46.85500 23.43900 24.74500
C  47.18500 23.64400 23.23400
C  47.82000 25.09800 23.25700
C  47.94400 25.34500 24.74800
C  48.08600 22.53200 22.59800
C  46.88400 26.17700 22.58600
C  47.10200 26.37200 21.01200
N  48.19500 26.18500 27.55200
C  48.67600 26.90500 26.50700
C  49.23600 28.14800 27.01200
C  49.04400 28.15700 28.38100
C  48.42300 26.94600 28.63800
C  49.55300 29.36800 26.09300
C  49.10900 28.91500 29.56500
O  49.49000 30.05600 29.75800
C  48.58100 27.94600 30.66800
C  49.51200 27.84900 31.76300
O  50.44400 27.09000 31.82400
O  49.02000 28.62300 32.80800
C  49.77400 28.52700 34.06700
H  45.85400 21.69000 30.75500
H  45.77900 21.74900 24.42100
H  49.02400 27.04900 24.45500
H  48.13200 25.36300 32.51900
H  45.75100 23.62200 32.29900
H  48.40700 23.40700 33.36000
H  48.48100 22.39400 31.95000
H  47.26200 22.13200 33.17100
H  45.41200 26.60700 31.96400
H  46.71900 27.34100 32.99500
H  45.86500 25.00000 34.24400
H  44.56500 26.05600 33.60400
H  44.39000 18.88300 29.23100
H  45.09700 19.86800 30.41800
H  46.16700 18.83600 29.50400
H  43.23800 18.60200 27.09600
H  44.80700 17.80000 27.24800
H  43.91400 17.54900 25.75600
H  46.26500 23.72800 22.65500
H  48.77000 25.20900 22.73500
H  48.31400 21.84500 23.41200
H  49.07900 22.89200 22.32700
H  47.54600 22.04100 21.78900
H  46.89900 27.16200 23.05500
H  45.85500 25.81900 22.60000
H  46.41200 25.59600 20.68100
H  48.17200 26.33400 20.80800
H  46.77900 27.32500 20.59400
H  49.89000 29.11000 25.08900
H  50.42100 29.85500 26.53700
H  48.59300 29.88000 26.04200
H  47.63500 28.42700 30.91600
H  49.67400 27.46000 34.27100
H  49.25800 28.97600 34.91600
H  50.77400 28.94400 33.94900
Mg -10.63100 17.07500 40.28800
C  -7.16700 16.50900 40.66300
C  -9.97100 20.52800 40.06400
C  -13.94600 17.58500 39.34400
C  -11.03900 13.72500 39.33200
N  -8.78600 18.32000 40.33100
C  -7.46000 17.85600 40.37700
C  -6.51800 18.99200 40.12500
C  -7.35200 20.28600 40.32300
C  -8.80600 19.70300 40.27100
C  -7.11200 21.18500 41.63800
C  -5.83800 18.99200 38.72200
C  -4.30400 18.90800 38.76900
H  -3.69600 18.01700 37.74900
N  -11.82200 18.80400 39.82800
C  -11.32700 20.09200 39.81400
C  -12.40100 20.95800 39.54700
C  -13.63700 20.19500 39.43200
C  -13.21400 18.79800 39.54200
C  -12.28900 22.48400 39.42600
C  -15.13700 20.80100 39.33200
O  -15.24000 22.00100 39.30800
C  -16.28100 19.89400 39.31800
N  -12.22800 15.87800 39.39700
C  -13.52300 16.24400 39.32700
C  -14.48700 15.10500 39.04900
C  -13.50900 13.88900 38.85600
C  -12.15900 14.54300 39.15300
C  -15.50100 14.96200 40.28200
C  -13.66800 13.37000 37.44800
C  -13.35900 14.50500 36.45100
N  -9.44200 15.38600 40.36400
C  -9.70700 14.09000 39.82400
C  -8.59100 13.24400 40.04500
C  -7.57600 14.12000 40.43400
C  -8.10100 15.47800 40.48500
C  -8.40300 11.73400 39.62400
C  -6.15200 14.28100 40.79300
O  -5.31500 13.43100 40.98000
C  -5.85600 15.82000 40.88800
C  -5.17100 16.19500 42.09500
O  -4.11700 16.78600 42.03200
O  -5.77900 15.75500 43.27100
C  -5.02300 16.03500 44.48700
H  -9.63800 21.56500 40.14500
H  -15.00100 17.56900 39.06300
H  -11.15100 12.66500 39.09500
H  -5.69600 19.01300 40.84000
H  -7.21800 21.06500 39.57300
H  -6.10100 21.33200 42.01800
H  -7.72000 20.78600 42.45100
H  -7.59200 22.12200 41.35700
H  -6.06300 19.98100 38.32200
H  -6.26100 18.37600 37.92800
H  -3.81100 18.65400 39.70700
H  -3.83800 19.83500 38.43600
H  -12.69100 22.66300 38.42800
H  -11.29700 22.92800 39.51000
H  -12.87800 23.00400 40.18100
H  -17.19600 20.46900 39.45500
H  -16.27000 19.43000 40.30400
H  -16.37000 19.05400 38.62800
H  -15.10900 15.22800 38.16200
H  -13.71500 13.08500 39.56300
H  -14.95100 15.08200 41.21500
H  -15.96800 13.97800 40.25500
H  -16.31000 15.68400 40.39400
H  -14.61100 12.82800 37.38200
H  -12.84200 12.66400 37.35100
H  -14.13200 14.67800 35.70300
H  -12.43500 14.23200 35.94000
H  -13.03700 15.44800 36.89400
H  -8.13000 11.70800 38.56900
H  -9.32300 11.16300 39.75300
H  -7.71700 11.24200 40.31400
H  -5.20700 16.13300 40.07100
H  -5.12100 17.12100 44.50400
H  -3.98100 15.73400 44.38300
H  -5.45300 15.61300 45.39500

