158

Mg 2.86400 -0.70600 44.38700
C  6.34900 0.10400 43.91400
C  2.15000 2.13200 42.68200
C  -0.21800 -1.92500 43.93800
C  3.93800 -3.88800 45.54700
N  4.17100 0.96600 43.35300
C  5.50700 1.11500 43.39400
C  5.87500 2.56900 43.10400
C  4.56800 3.27700 42.87300
C  3.56500 2.09300 42.96200
C  4.20900 4.42300 43.87800
C  7.00100 2.89800 42.06100
C  6.70300 2.43600 40.61900
H  6.30900 3.53600 39.61800
N  1.16000 0.05200 43.54000
C  1.04500 1.24300 42.85200
C  -0.31500 1.44700 42.47200
C  -1.03300 0.23400 42.77900
C  -0.02000 -0.61600 43.46800
C  -0.76100 2.70200 41.83000
C  -2.46300 0.05200 42.36600
O  -3.09800 0.84500 41.77700
C  -3.12100 -1.27500 42.52000
N  1.95800 -2.58400 44.90300
C  0.63300 -2.75200 44.64600
C  0.24700 -4.21900 45.04500
C  1.55200 -4.94200 45.42500
C  2.57200 -3.75100 45.37600
C  -0.89600 -4.30200 46.14700
C  1.90600 -6.17100 44.45500
C  2.72900 -7.36300 44.96000
N  4.71700 -1.60200 44.94800
C  4.94400 -2.91700 45.36700
C  6.33300 -3.15400 45.37100
C  6.95600 -2.01000 44.88600
C  5.91000 -1.10100 44.53000
C  7.02600 -4.39500 45.90000
C  8.27100 -1.38800 44.68800
O  9.39500 -1.86500 44.88400
C  7.87600 -0.02300 43.99600
C  8.39200 1.13100 44.81700
O  9.17300 1.97500 44.47500
O  7.83900 0.99300 46.07800
C  8.31600 2.01700 47.03600
H  1.83800 3.14800 42.42900
H  -1.21500 -2.36800 43.89800
H  4.16300 -4.92300 45.81300
H  6.40700 2.98600 43.96000
H  4.40300 3.68500 41.87600
H  5.15200 4.91400 44.12000
H  3.74000 4.18000 44.83100
H  3.63400 5.17600 43.33800
H  7.92700 2.45500 42.42800
H  7.19800 3.97000 42.02100
H  5.97000 1.63500 40.52100
H  7.64200 1.97800 40.30900
H  -0.40600 3.61200 42.31300
H  -1.82000 2.87700 42.02100
H  -0.62600 2.68000 40.74800
H  -3.55800 -1.33100 43.51700
H  -2.47700 -2.12300 42.28500
H  -3.98000 -1.37100 41.85600
H  -0.08900 -4.70600 44.12900
H  1.59400 -5.39800 46.41400
H  -1.68200 -4.95200 45.76500
H  -1.38500 -3.36000 46.39400
H  -0.40500 -4.71500 47.02900
H  2.48000 -5.86800 43.57900
H  0.99000 -6.64400 44.10400
H  2.94700 -7.36900 46.02800
H  3.71500 -7.39700 44.49800
H  2.30700 -8.32300 44.66200
H  6.40900 -4.96800 46.59100
H  7.87000 -4.15000 46.54400
H  7.32500 -5.12100 45.14300
H  8.26300 0.11800 42.98600
H  7.65700 2.88600 47.05200
H  9.29100 2.48700 46.90700
H  8.25000 1.57000 48.02800
Mg -9.03500 41.15900 42.46100
C  -8.39400 37.84600 41.59800
C  -6.34400 42.22800 40.83900
C  -10.47800 44.26900 42.47600
C  -12.19400 39.91900 43.84800
N  -7.63300 40.18300 41.20200
C  -7.49100 38.76100 41.09600
C  -6.21600 38.53800 40.29100
C  -5.41600 39.85600 40.56100
C  -6.53700 40.82100 40.85800
C  -4.34500 39.88900 41.69200
C  -6.60900 38.23700 38.76400
C  -6.04400 36.89800 38.20400
H  -5.07300 37.08700 37.05900
N  -8.39600 42.97800 41.86500
C  -7.24100 43.22900 41.14100
C  -7.20700 44.64200 40.75800
C  -8.31200 45.27700 41.38700
C  -9.15400 44.19000 41.91200
C  -6.13300 45.34500 39.85000
C  -8.61100 46.79500 41.31200
O  -7.90900 47.55600 40.57800
C  -9.69700 47.38300 42.00700
N  -11.10500 41.94100 42.95100
C  -11.28300 43.29600 42.96000
C  -12.59100 43.65000 43.69000
C  -13.17800 42.29400 44.17900
C  -12.09200 41.28100 43.62000
C  -12.35500 44.78600 44.72600
C  -14.63100 42.11200 43.53300
C  -15.60700 42.76100 44.44100
N  -10.01400 39.35000 42.87700
C  -11.25600 38.99700 43.45100
C  -11.30400 37.52400 43.62800
C  -10.25200 37.11900 42.87500
C  -9.56300 38.20300 42.34900
C  -12.46400 36.68500 44.24900
C  -9.69700 35.87700 42.28700
O  -9.98200 34.71000 42.35200
C  -8.49200 36.36500 41.39900
C  -7.26300 35.66500 41.88300
O  -6.66500 35.91700 42.86800
O  -6.99400 34.62200 41.07200
C  -6.05900 33.52100 41.52100
H  -5.31500 42.53400 40.63900
H  -11.04300 45.19400 42.34200
H  -13.05900 39.48700 44.35500
H  -5.63800 37.75800 40.78700
H  -4.90000 40.08200 39.62800
H  -4.56700 40.79300 42.26000
H  -3.33300 39.94600 41.29000
H  -4.56100 38.98300 42.25700
H  -6.27500 39.11100 38.20400
H  -7.68000 38.34700 38.59600
H  -6.97800 36.42800 37.89500
H  -5.60400 36.31400 39.01200
H  -6.52900 45.84700 38.96700
H  -5.38600 44.58800 39.61500
H  -5.59400 46.02000 40.51600
H  -9.61000 48.46400 42.11700
H  -9.60800 46.99200 43.02100
H  -10.63300 47.07400 41.54200
H  -13.24800 44.14700 42.97600
H  -13.30300 42.19100 45.25700
H  -11.38300 45.27300 44.65200
H  -12.38900 44.27900 45.69000
H  -13.19100 45.48400 44.67000
H  -14.63100 41.02200 43.54300
H  -14.69000 42.49000 42.51300
H  -16.46800 43.07400 43.85000
H  -15.15700 43.53300 45.06500
H  -15.88300 41.96900 45.13600
H  -12.06400 35.73500 44.60200
H  -13.18100 36.29000 43.52900
H  -12.98600 37.30000 44.98200
H  -8.72000 36.00200 40.39600
H  -6.70700 32.80300 42.02300
H  -5.33700 33.90800 42.24000
H  -5.43300 33.04700 40.76500

