158

Mg 23.86200 -7.51100 47.17000
C  26.49600 -5.32600 46.08900
C  21.90700 -6.16400 44.85000
C  21.74300 -9.94700 47.93700
C  26.41400 -9.26800 49.08400
N  24.26700 -5.92900 45.47200
C  25.29000 -5.05700 45.41500
C  25.00600 -3.96600 44.35600
C  23.45900 -4.21100 44.10800
C  23.19900 -5.56400 44.79300
C  22.55300 -3.08000 44.59700
C  25.89500 -4.06700 43.03500
C  26.24600 -2.76200 42.44200
H  27.00800 -2.79300 41.09100
N  22.04400 -8.00400 46.46200
C  21.34400 -7.18700 45.61900
C  19.93800 -7.56600 45.74500
C  19.89500 -8.71700 46.57600
C  21.22700 -8.92900 47.07000
C  18.98500 -6.82100 44.90200
C  18.62900 -9.47800 47.01900
O  17.54000 -9.11800 46.60700
C  18.57100 -10.45100 48.06900
N  24.06700 -9.30700 48.36900
C  22.94100 -10.10700 48.50100
C  23.24500 -11.31700 49.34200
C  24.82000 -11.19500 49.58000
C  25.17600 -9.85700 48.98100
C  22.37600 -11.42000 50.67000
C  25.79500 -12.37400 49.15900
C  26.77700 -12.82000 50.28000
N  25.91900 -7.19000 47.65900
C  26.79800 -8.06900 48.36500
C  28.13800 -7.53600 48.38800
C  28.01800 -6.30200 47.53300
C  26.68600 -6.27300 47.05900
C  29.39200 -7.96300 49.13000
C  28.78600 -5.29700 46.87700
O  29.97600 -4.99000 46.87500
C  27.86000 -4.63800 45.93400
C  27.76300 -3.17500 46.11400
O  27.08100 -2.61800 46.93600
O  28.56500 -2.55900 45.14000
C  28.81400 -1.16200 45.25100
H  21.16200 -5.61100 44.27400
H  21.04900 -10.78100 48.05700
H  27.26300 -9.67300 49.63900
H  25.07300 -3.01200 44.88000
H  23.25400 -4.26300 43.03800
H  21.81000 -2.94500 43.81100
H  23.08500 -2.15000 44.79600
H  22.15500 -3.37800 45.56700
H  25.38800 -4.67900 42.28800
H  26.74800 -4.74300 43.09900
H  26.79300 -2.30700 43.26800
H  25.24700 -2.42100 42.17000
H  19.09000 -5.74700 45.05700
H  17.94500 -7.06600 45.11400
H  19.14500 -6.98500 43.83700
H  19.07100 -11.35600 47.72600
H  17.53600 -10.63900 48.35300
H  19.05700 -10.10700 48.98200
H  23.08000 -12.11400 48.61700
H  24.99900 -11.17300 50.65500
H  21.55100 -10.72600 50.82900
H  22.97500 -11.25600 51.56600
H  21.99200 -12.42300 50.85700
H  26.37300 -12.09500 48.27800
H  25.20600 -13.25600 48.90800
H  27.56000 -13.40100 49.79300
H  26.27500 -13.50400 50.96400
H  27.21600 -12.04900 50.91300
H  29.19900 -8.86800 49.70600
H  29.70100 -7.16800 49.80900
H  30.21900 -8.13400 48.44200
H  28.21800 -4.87100 44.93100
H  29.55600 -0.81400 44.53200
H  29.26200 -0.95200 46.22200
H  27.87000 -0.63200 45.12200
Mg 47.18000 14.59900 27.65500
C  44.94000 14.74700 30.43700
C  49.08400 16.85300 29.00300
C  48.93300 14.67600 24.67400
C  44.56600 13.06300 25.81300
N  46.90500 15.77500 29.47500
C  46.04400 15.60900 30.50100
C  46.56000 16.27300 31.78800
C  47.72200 17.20400 31.29100
C  47.99700 16.48200 29.88500
C  47.33800 18.71300 31.10400
C  47.12600 15.29500 32.96600
C  46.94800 15.79100 34.46700
H  47.98100 15.58800 35.56000
N  48.83900 15.67200 26.96600
C  49.62200 16.48900 27.76300
C  50.74700 16.98700 27.04200
C  50.67600 16.36600 25.69900
C  49.42500 15.49300 25.72600
C  51.76800 17.88500 27.63300
C  51.58700 16.56900 24.53400
O  51.44500 15.92100 23.55800
C  52.63200 17.60800 24.58800
N  46.74700 14.07800 25.54300
C  47.71700 14.08600 24.54800
C  47.19900 13.57200 23.24500
C  45.92100 12.81900 23.68200
C  45.73700 13.34800 25.14300
C  47.03000 14.78100 22.22700
C  45.95100 11.22800 23.60600
C  46.89700 10.47300 24.55100
N  45.22900 13.90400 28.06200
C  44.30700 13.34300 27.18900
C  43.13900 12.99300 27.92500
C  43.33400 13.48900 29.29500
C  44.58600 14.06700 29.27100
C  41.93600 12.30000 27.39900
C  42.84700 13.62500 30.68200
O  41.78900 13.22700 31.07300
C  43.94300 14.38400 31.52400
C  43.26800 15.58400 32.04100
O  42.74700 16.39400 31.31800
O  43.48900 15.65000 33.35400
C  42.97300 16.91200 34.05700
H  49.82400 17.57000 29.36500
H  49.62300 14.55400 23.83700
H  43.88800 12.43400 25.23200
H  45.86900 16.99200 32.22800
H  48.62800 17.20200 31.89800
H  46.45900 19.08000 31.63400
H  47.18600 18.93900 30.04900
H  48.14700 19.36100 31.44200
H  48.18100 15.15300 32.73100
H  46.62100 14.32900 32.97900
H  46.14200 15.18600 34.88300
H  46.59800 16.82300 34.47300
H  51.68100 17.95500 28.71700
H  51.67100 18.89700 27.24000
H  52.77900 17.52600 27.44200
H  53.38100 17.53000 25.37500
H  52.15400 18.56300 24.80800
H  53.14100 17.54900 23.62600
H  47.92500 12.81800 22.94100
H  44.97100 13.00500 23.18100
H  47.13800 15.78200 22.64500
H  46.07400 14.62000 21.73000
H  47.83000 14.76100 21.48800
H  46.39100 11.01200 22.63200
H  44.92100 10.88100 23.52200
H  47.55900 9.80000 24.00500
H  46.43800 9.92600 25.37300
H  47.63600 11.10800 25.04100
H  42.22100 11.75700 26.49700
H  41.12500 12.97400 27.12500
H  41.51900 11.61400 28.13600
H  44.25200 13.71100 32.32500
H  42.27800 17.53400 33.49300
H  43.90300 17.40700 34.33500
H  42.43100 16.53200 34.92400

