158

Mg 1.38200 8.13800 26.99300
C  1.97600 9.77400 29.81800
C  1.33900 5.09700 28.68400
C  0.97800 6.43500 24.02900
C  2.01300 10.95800 25.12500
N  1.56100 7.54700 29.07900
C  1.60100 8.43600 30.10700
C  1.60100 7.73200 31.45600
C  1.45900 6.22900 31.06400
C  1.40300 6.26900 29.52400
C  2.62500 5.34500 31.63400
C  0.43300 8.28300 32.31500
C  0.06000 7.60300 33.65300
H  1.07400 7.57400 34.84200
N  1.05400 6.05700 26.41000
C  1.14600 5.01700 27.23800
C  0.85400 3.77200 26.55200
C  0.67800 4.19300 25.19800
C  0.85000 5.62800 25.18200
C  0.77700 2.38900 27.27800
C  0.34600 3.39700 24.01000
O  0.21800 3.89700 22.89400
C  0.25600 1.85900 24.13500
N  1.55200 8.64600 24.88300
C  1.26100 7.80100 23.87300
C  1.37600 8.50300 22.53800
C  1.45800 10.03800 22.92600
C  1.68200 9.86400 24.38400
C  2.66100 8.04800 21.83100
C  0.17400 10.93200 22.53100
C  -1.16600 10.21200 22.64600
N  1.98000 10.03600 27.36500
C  2.20800 11.09000 26.51900
C  2.50800 12.26800 27.29500
C  2.52900 11.80500 28.63300
C  2.11000 10.46300 28.58000
C  2.85900 13.68900 26.83800
C  2.74800 12.13600 30.00700
O  2.96000 13.25200 30.44800
C  2.25100 10.92700 30.85500
C  3.35300 10.64700 31.85000
O  4.18000 9.74700 31.73600
O  3.34500 11.60700 32.85200
C  4.21700 11.25500 33.94100
H  1.19400 4.16500 29.23400
H  0.93500 5.98400 23.03500
H  2.35900 11.83800 24.57900
H  2.50500 7.97300 32.01400
H  0.52300 5.77300 31.38800
H  3.21900 5.08100 30.75900
H  2.21500 4.42000 32.04000
H  3.33400 5.87100 32.27400
H  -0.52100 8.28100 31.78800
H  0.57300 9.27400 32.74800
H  -0.10200 6.54700 33.43800
H  -0.92700 7.92400 33.98500
H  1.47400 1.61800 26.95000
H  -0.26800 2.16300 27.06900
H  0.90600 2.40500 28.36100
H  -0.60800 1.57000 24.73300
H  1.14100 1.46700 24.63500
H  0.19900 1.30800 23.19600
H  0.63500 8.29000 21.76800
H  2.34900 10.54300 22.55200
H  3.39200 8.85400 21.76600
H  2.55300 7.92300 20.75400
H  3.02700 7.16500 22.35600
H  0.21600 11.16300 21.46600
H  0.17500 11.85500 23.11000
H  -1.02800 9.14600 22.82500
H  -1.81700 10.33700 21.78000
H  -1.72500 10.58300 23.50500
H  3.47600 14.24000 27.54800
H  1.94200 14.25500 26.67400
H  3.36900 13.63700 25.87700
H  1.34000 11.17000 31.40400
H  3.70300 10.52700 34.56900
H  4.34800 12.16200 34.53200
H  5.16300 10.83700 33.59700
Mg -4.59000 25.49800 26.49200
C  -3.41100 26.82100 29.54100
C  -6.31500 23.09600 28.42000
C  -5.47400 23.86500 23.67900
C  -2.38500 27.44900 24.82700
N  -4.64500 24.90900 28.69800
C  -4.15200 25.67900 29.68600
C  -4.65800 25.13700 31.02800
C  -5.34500 23.77300 30.69700
C  -5.47800 23.92300 29.21800
C  -4.53700 22.52100 31.18600
C  -5.70200 26.15600 31.59200
C  -5.57200 26.47800 33.09100
H  -5.17200 25.40600 34.06100
N  -5.81300 23.81900 26.06800
C  -6.51800 22.99000 26.99800
C  -7.38200 22.06800 26.36700
C  -7.11100 22.22900 24.92200
C  -6.03400 23.29500 24.84000
C  -8.26900 21.09700 26.99300
C  -7.70800 21.42000 23.76900
O  -7.37300 21.61400 22.59800
C  -8.71600 20.36800 23.94600
N  -4.02200 25.64300 24.43000
C  -4.56200 24.89400 23.41200
C  -3.83200 25.24500 22.04900
C  -3.05600 26.52600 22.48000
C  -3.16700 26.60600 24.03200
C  -2.98300 24.01000 21.52400
C  -3.53800 27.85700 21.76800
C  -3.06200 28.22500 20.30400
N  -3.09100 26.86000 27.03800
C  -2.32900 27.71100 26.24200
C  -1.68000 28.74000 26.99400
C  -2.05500 28.45500 28.33500
C  -2.90100 27.32400 28.29300
C  -0.76100 29.74800 26.46200
C  -2.02700 28.88200 29.69700
O  -1.51400 29.86200 30.21400
C  -2.88700 27.87100 30.54400
C  -1.81100 27.29400 31.40700
O  -1.33600 26.21600 31.22400
O  -1.84100 27.88400 32.64600
C  -1.00600 27.15600 33.68200
H  -6.93900 22.45700 29.04800
H  -5.87600 23.37400 22.79000
H  -1.87300 28.22400 24.25200
H  -3.88300 25.04700 31.79000
H  -6.33000 23.81300 31.16100
H  -3.63300 22.95200 31.61600
H  -4.28300 21.97700 30.27600
H  -5.12000 21.99100 31.93900
H  -6.73400 25.88900 31.36700
H  -5.44400 27.12400 31.16100
H  -6.53900 26.85600 33.42200
H  -4.92500 27.33000 33.30200
H  -8.20400 21.23600 28.07200
H  -7.90200 20.09200 26.78400
H  -9.31900 21.17600 26.71300
H  -9.62500 20.76600 24.39800
H  -8.28900 19.59800 24.58900
H  -9.03400 19.97000 22.98200
H  -4.61300 25.51900 21.34000
H  -1.98400 26.40300 22.32300
H  -1.98300 24.34300 21.24600
H  -3.43200 23.57800 20.63000
H  -2.90700 23.17500 22.22100
H  -3.19000 28.59700 22.48900
H  -4.62700 27.85800 21.78400
H  -3.89600 28.39200 19.62300
H  -2.45200 27.42700 19.88000
H  -2.38400 29.07700 20.24700
H  -0.28000 29.33100 25.57700
H  -0.01000 30.11000 27.16400
H  -1.42100 30.60800 26.34900
H  -3.76600 28.30600 31.01900
H  0.02300 27.08900 33.33000
H  -1.39200 26.18000 33.97500
H  -0.94300 27.85700 34.51400

