158

Mg 1.54500 7.71400 25.00900
C  2.00700 9.56900 27.83400
C  1.57200 4.81100 26.89100
C  1.30100 5.92900 22.14600
C  1.49100 10.63700 23.05300
N  1.72200 7.22900 27.13700
C  1.89500 8.19500 28.13100
C  1.93600 7.45000 29.49900
C  1.99000 5.96900 29.15000
C  1.64000 5.96100 27.68300
C  3.27600 5.09100 29.49000
C  0.82400 7.84100 30.50100
C  1.18100 7.60600 31.99600
H  2.39600 6.70500 32.38600
N  1.53100 5.56900 24.57200
C  1.44200 4.56200 25.44600
C  1.32400 3.26600 24.73400
C  1.27300 3.61500 23.36300
C  1.42700 5.12900 23.25600
C  1.28400 1.95900 25.43400
C  1.25500 2.61800 22.20400
O  1.09300 2.90700 20.97700
C  1.29100 1.11200 22.39900
N  1.20600 8.24600 22.91500
C  1.28500 7.31800 21.95700
C  1.00900 7.98600 20.58300
C  0.76200 9.46500 20.95000
C  1.18200 9.43500 22.34500
C  2.12000 7.80200 19.48300
C  -0.69400 10.06400 20.80100
C  -0.82000 11.57500 20.76200
N  1.68800 9.66400 25.29700
C  1.68100 10.75400 24.40400
C  1.85700 11.98600 25.19500
C  2.03000 11.52400 26.50800
C  1.93300 10.13500 26.53100
C  1.84700 13.38200 24.67700
C  2.24500 12.07100 27.86200
O  2.50700 13.21000 28.23400
C  2.16100 10.77000 28.78300
C  3.26600 10.67600 29.80300
O  4.31500 10.02500 29.61800
O  2.94200 11.39300 30.94500
C  3.94300 11.13400 32.01300
H  1.55700 3.85600 27.42000
H  1.18200 5.43400 21.18000
H  1.64000 11.50000 22.40100
H  2.85900 7.70800 30.01800
H  1.07900 5.58000 29.60500
H  2.90500 4.14800 29.89200
H  3.99800 5.58400 30.14100
H  3.94500 4.85300 28.66300
H  -0.09700 7.32800 30.22400
H  0.69800 8.89500 30.25000
H  0.42300 6.95000 32.42400
H  1.25400 8.56200 32.51400
H  1.94000 1.26400 24.91000
H  0.23700 1.65600 25.45600
H  1.63000 2.05200 26.46400
H  2.32700 0.90100 22.66400
H  1.22700 0.64800 21.41500
H  0.65800 0.70700 23.18900
H  0.05500 7.56400 20.26800
H  1.44900 10.08000 20.36900
H  1.53000 7.62600 18.58400
H  2.71400 6.92600 19.74300
H  2.78900 8.64800 19.32700
H  -1.30500 9.74700 21.64500
H  -1.17100 9.59700 19.94000
H  -0.96300 11.93000 19.74100
H  0.11300 11.95900 21.17400
H  -1.53000 11.88600 21.52800
H  2.80400 13.87300 24.85200
H  1.11300 13.94800 25.25100
H  1.50200 13.47500 23.64700
H  1.23400 10.92700 29.33500
H  4.93900 11.37300 31.64000
H  3.81100 10.22500 32.60000
H  3.88100 11.94800 32.73500
Mg 6.84700 55.10300 42.08700
C  6.08400 51.64600 41.49200
C  10.07900 54.33800 41.01200
C  7.45200 58.43200 41.97900
C  3.62200 55.57800 42.72300
N  7.96800 53.23300 41.34400
C  7.51900 51.92100 41.29600
C  8.60600 50.94300 40.97700
C  9.90300 51.73800 41.21500
C  9.31200 53.19600 41.20300
C  10.61900 51.40700 42.59200
C  8.56000 50.29200 39.50500
C  8.71100 51.29900 38.29100
H  8.00100 51.14700 36.96700
N  8.57100 56.26700 41.57700
C  9.73800 55.73900 41.08100
C  10.64500 56.89900 40.68700
C  9.91800 58.14200 41.08500
C  8.56900 57.64400 41.61900
C  11.93300 56.68800 39.92500
C  10.39600 59.58300 40.85800
O  11.52100 59.73100 40.42400
C  9.60100 60.77600 41.08000
N  5.79200 56.67800 42.42900
C  6.14000 58.02100 42.40500
C  5.03700 59.02700 42.74700
C  3.85400 58.02100 43.00200
C  4.45200 56.66000 42.62600
C  5.52500 59.95800 43.91700
C  2.53000 58.52200 42.26200
C  1.41400 59.04400 43.12300
N  5.13200 53.88800 42.17200
C  3.89600 54.25000 42.53300
C  3.08500 53.00700 42.68300
C  3.96900 51.94600 42.37500
C  5.14600 52.54600 42.00100
C  1.57700 52.94900 43.05800
C  4.04200 50.50200 42.28100
O  3.26800 49.58300 42.60500
C  5.43200 50.29000 41.62000
C  5.26100 49.60300 40.34100
O  4.60100 49.94900 39.34700
O  6.10800 48.54000 40.28200
C  5.97000 47.65800 39.09900
H  11.04000 54.07200 40.56500
H  7.55900 59.51700 41.90300
H  2.55800 55.75400 42.89200
H  8.41800 50.17400 41.72600
H  10.56000 51.53200 40.37000
H  10.16700 50.55300 43.09700
H  10.44000 52.23300 43.28000
H  11.68700 51.29400 42.40100
H  7.62900 49.75500 39.32200
H  9.35000 49.55000 39.39400
H  9.74500 51.15400 37.97900
H  8.74100 52.36500 38.51900
H  11.88300 55.90600 39.16800
H  12.70400 56.45100 40.65800
H  12.11100 57.62000 39.38800
H  8.81200 60.85600 40.33200
H  10.10400 61.72500 40.89500
H  9.21500 60.85200 42.09600
H  4.84100 59.62800 41.86000
H  3.82300 58.07200 44.09000
H  6.43600 59.81900 44.49900
H  4.58800 60.04300 44.46600
H  5.54800 60.97100 43.51300
H  2.21700 57.66300 41.66800
H  2.80900 59.35300 41.61500
H  1.47500 60.13200 43.11300
H  1.51200 58.66400 44.14000
H  0.38600 58.80000 42.85800
H  1.15700 53.85700 43.48900
H  1.34900 52.11900 43.72700
H  1.08300 52.66100 42.13000
H  6.01500 49.66200 42.29400
H  5.99500 48.19500 38.15100
H  5.08200 47.08100 39.35400
H  6.77100 46.91800 39.12100

