158

Mg 43.53500 2.99100 46.77200
C  42.88700 6.24900 45.52700
C  40.32100 2.18200 45.88000
C  44.34700 -0.26200 47.44500
C  47.01800 3.93200 47.04100
N  41.88900 4.02100 45.75000
C  41.81400 5.37300 45.43400
C  40.37500 5.79900 44.94800
C  39.60500 4.49300 45.19000
C  40.65000 3.55600 45.75100
C  38.32900 4.67100 46.02800
C  40.49400 6.12400 43.45100
C  39.73800 7.30500 42.93100
H  38.73500 7.09900 41.73800
N  42.53900 1.16300 46.72000
C  41.21700 1.05700 46.28500
C  40.88200 -0.31800 46.26400
C  41.94800 -1.08300 46.69700
C  43.01500 -0.08900 47.03300
C  39.70100 -0.88400 45.57100
C  42.02000 -2.57500 46.76000
O  40.98500 -3.18900 46.60000
C  43.25400 -3.22700 47.10500
N  45.34900 2.00100 47.16000
C  45.39200 0.63500 47.52500
C  46.69800 0.27900 48.13100
C  47.62600 1.53700 47.84000
C  46.63300 2.60000 47.35500
C  46.59500 -0.06700 49.64100
C  48.81300 1.24900 46.88400
C  48.65200 0.44200 45.59600
N  44.79100 4.70500 46.36700
C  46.12200 4.91500 46.51400
C  46.35800 6.33000 46.15400
C  45.10900 6.92700 45.91400
C  44.21400 5.88400 45.96700
C  47.69600 6.99400 45.97900
C  44.47700 8.19700 45.58200
O  44.96600 9.28900 45.40100
C  42.98800 7.76200 45.27700
C  42.13900 8.49000 46.25900
O  41.90300 8.09700 47.37300
O  41.74800 9.67100 45.73500
C  40.79700 10.44300 46.51300
H  39.26600 1.93900 45.74000
H  44.88300 -1.20400 47.57300
H  48.04700 4.29400 47.07600
H  40.02100 6.67000 45.49900
H  39.25100 4.11700 44.23100
H  37.45200 4.79100 45.39200
H  38.32600 5.53600 46.69000
H  38.12800 3.78000 46.62300
H  40.08900 5.31500 42.84300
H  41.54000 6.29700 43.19900
H  40.45800 8.07000 42.63900
H  39.09600 7.78600 43.66900
H  38.96900 -1.36100 46.22400
H  39.98900 -1.50100 44.71900
H  39.02900 -0.11300 45.19300
H  43.30100 -3.17600 48.19300
H  44.07800 -2.78400 46.54600
H  43.24700 -4.25200 46.73300
H  47.11200 -0.59600 47.63000
H  48.00700 1.93300 48.78100
H  45.62700 0.23700 50.03900
H  47.40900 0.45200 50.14600
H  46.76700 -1.13800 49.75600
H  49.66900 0.85900 47.43400
H  49.11100 2.25900 46.60200
H  49.11500 0.87400 44.70800
H  47.59300 0.58800 45.38200
H  49.05200 -0.56100 45.74100
H  48.29500 6.82900 46.87400
H  47.56900 8.05400 45.75700
H  48.22200 6.60800 45.10600
H  42.82300 8.11300 44.25800
H  41.23200 11.09200 47.27300
H  40.06900 9.78300 46.98600
H  40.16400 11.00500 45.82700
Mg 47.63000 46.71800 44.50700
C  44.26500 46.29100 43.17800
C  48.49500 43.77500 43.09000
C  50.76300 47.65900 44.95100
C  46.47600 50.16300 45.15700
N  46.45900 45.25900 43.13500
C  45.15500 45.30100 42.74100
C  44.89400 43.95200 41.95600
C  46.13100 43.07300 42.19700
C  47.14500 44.10400 42.82700
C  45.90500 41.84900 43.09400
C  44.47800 44.19700 40.46400
C  43.07500 43.62800 39.95400
H  42.96900 42.31600 39.16000
N  49.40600 45.77300 44.24700
C  49.57600 44.51900 43.73000
C  50.99900 44.14600 43.90200
C  51.69800 45.31100 44.43600
C  50.65900 46.32600 44.53500
C  51.51000 42.81000 43.58300
C  53.21600 45.32000 44.74000
O  53.87200 44.28700 44.66600
C  53.85500 46.68600 44.95700
N  48.47100 48.64500 44.85800
C  49.84300 48.73800 44.95600
C  50.23000 50.14200 45.59800
C  48.85300 50.88200 45.72100
C  47.86400 49.83200 45.19700
C  50.91700 50.08100 46.97900
C  48.73900 52.24500 44.97900
C  48.45500 53.49600 45.82600
N  45.76500 47.90900 44.33000
C  45.52800 49.27300 44.61400
C  44.11700 49.48100 44.58400
C  43.52100 48.39600 43.95000
C  44.59100 47.49100 43.82300
C  43.43800 50.63500 45.16200
C  42.27800 47.69200 43.53500
O  41.11100 48.06000 43.56000
C  42.74900 46.26300 43.10000
C  42.18200 45.19700 43.94300
O  41.67800 44.18900 43.45900
O  42.23200 45.29500 45.27700
C  41.99000 44.11300 46.16700
H  48.79300 42.75100 42.85600
H  51.75300 48.02900 45.22400
H  46.15900 51.09400 45.63100
H  44.07600 43.43100 42.45200
H  46.59700 42.68300 41.29200
H  45.10700 41.15100 42.84100
H  45.65100 42.29700 44.05500
H  46.76000 41.18700 43.23200
H  45.25500 43.84900 39.78500
H  44.35700 45.28000 40.43200
H  42.88400 44.42800 39.24000
H  42.28500 43.68200 40.70400
H  51.80800 42.44000 44.56400
H  52.40400 42.91600 42.96800
H  50.81900 42.17400 43.03000
H  53.73800 47.43300 44.17200
H  54.91200 46.48800 45.13500
H  53.55300 47.05000 45.93900
H  50.83500 50.72900 44.90700
H  48.56500 50.94100 46.77000
H  51.93800 50.46100 46.93300
H  50.80700 49.05800 47.33700
H  50.45000 50.73000 47.72000
H  47.94800 52.24300 44.22900
H  49.66500 52.50600 44.46700
H  48.15700 53.22300 46.83800
H  47.74800 54.12600 45.28600
H  49.38100 54.04800 45.98800
H  43.89800 50.93400 46.10400
H  42.40600 50.31900 45.31100
H  43.29900 51.50200 44.51600
H  42.38300 46.03200 42.10000
H  40.99400 44.31000 46.56500
H  42.75800 43.93200 46.91900
H  41.80600 43.16800 45.65800

