158

Mg 41.09600 9.00900 29.35900
C  42.88500 10.09600 32.20600
C  38.78100 7.57900 31.36900
C  39.54800 7.94800 26.56000
C  43.72100 10.21100 27.39100
N  40.88400 8.84400 31.63100
C  41.68600 9.41400 32.59900
C  41.12600 9.19300 34.02200
C  39.91800 8.25700 33.69500
C  39.86700 8.15000 32.15800
C  40.15000 6.88200 34.34600
C  40.70600 10.54400 34.73700
C  40.33700 10.37700 36.19500
H  41.02700 11.26300 37.25100
N  39.38300 7.89500 28.99200
C  38.52000 7.46200 29.98400
C  37.41600 6.82100 29.31900
C  37.58300 6.90400 27.85200
C  38.88300 7.65400 27.72200
C  36.32400 6.15100 30.09300
C  36.72700 6.44900 26.69600
O  36.93800 6.59000 25.52600
C  35.49300 5.84000 27.01800
N  41.67200 8.96100 27.35300
C  40.82400 8.53000 26.36800
C  41.38400 8.70700 24.90000
C  42.62800 9.64700 25.19600
C  42.70000 9.55200 26.76200
C  41.58100 7.44400 24.04900
C  42.55600 11.06100 24.60000
C  41.61400 11.98400 25.40400
N  42.96600 9.85400 29.74200
C  43.89300 10.41200 28.79200
C  44.85600 11.14000 29.45200
C  44.54900 11.00100 30.83700
C  43.38900 10.23700 30.88900
C  46.10900 11.83000 28.90200
C  45.05700 11.32100 32.12700
O  46.07400 11.91300 32.48900
C  43.89000 10.86400 33.12700
C  44.45300 9.94900 34.18100
O  45.33100 9.17700 34.04500
O  43.76700 10.16300 35.39200
C  44.03200 9.10800 36.42300
H  38.07600 7.19200 32.10800
H  39.05200 7.73500 25.61100
H  44.42300 10.75900 26.75900
H  41.77100 8.54600 34.61700
H  38.96400 8.63400 34.06300
H  40.33100 6.19200 33.52200
H  39.29600 6.55300 34.93800
H  40.95000 6.76700 35.07900
H  39.78000 10.81800 34.23100
H  41.43800 11.34000 34.60500
H  40.56600 9.33500 36.41700
H  39.27500 10.61900 36.23800
H  36.47000 5.09300 29.87700
H  35.32100 6.44800 29.78700
H  36.37100 6.38300 31.15700
H  34.87100 6.59600 27.49800
H  35.70600 4.99100 27.66600
H  35.01200 5.52800 26.09100
H  40.53400 9.22400 24.45400
H  43.59000 9.17800 24.98900
H  42.60500 7.46000 23.67600
H  40.93400 7.46900 23.17200
H  41.27500 6.54600 24.58600
H  42.10200 10.85900 23.63000
H  43.55500 11.44600 24.39500
H  41.63200 11.81600 26.48100
H  40.58100 11.85300 25.08200
H  41.78200 13.01600 25.09300
H  45.87400 12.22900 27.91500
H  46.96800 11.17400 29.04200
H  46.25900 12.66500 29.58500
H  43.28700 11.70800 33.46000
H  45.09800 9.20200 36.62800
H  43.88500 8.06700 36.13700
H  43.54800 9.40800 37.35300
Mg 48.28100 34.77800 26.96400
C  46.48100 33.43400 29.69500
C  49.00100 37.58600 28.86600
C  49.79400 36.08200 24.28900
C  47.39800 31.94400 25.10000
N  47.86000 35.35400 29.03900
C  47.19300 34.64000 30.02200
C  47.42100 35.24100 31.41200
C  47.92200 36.66800 31.04100
C  48.30900 36.52800 29.54900
C  47.01100 37.80800 31.33000
C  48.49300 34.46400 32.28300
C  48.15000 34.32200 33.74800
H  47.09200 35.32700 34.33700
N  49.22400 36.61900 26.60100
C  49.47500 37.58700 27.52200
C  50.37200 38.54300 26.98100
C  50.63100 38.13600 25.67100
C  49.83600 36.93300 25.44200
C  50.99200 39.78300 27.74800
C  51.45900 38.81700 24.55300
O  51.45100 38.43000 23.42700
C  52.34200 40.00500 24.87700
N  48.48800 34.06900 24.95800
C  49.16400 34.91500 24.08100
C  49.36600 34.19500 22.72100
C  48.70900 32.74800 22.97700
C  48.06700 32.90000 24.40500
C  48.90600 34.95700 21.47500
C  49.65600 31.49600 22.99000
C  49.02800 30.22000 22.50800
N  47.26700 33.00600 27.27300
C  46.98200 31.90100 26.45400
C  46.21700 30.95800 27.16100
C  45.94800 31.53100 28.39500
C  46.61800 32.71900 28.49800
C  45.77800 29.61000 26.66400
C  45.24300 31.27300 29.67000
O  44.57800 30.31600 30.00500
C  45.65200 32.48700 30.65100
C  46.57400 31.86700 31.75300
O  47.64400 31.25900 31.63000
O  45.93100 32.03100 32.90900
C  46.39100 31.04400 34.01600
H  49.28000 38.46300 29.45400
H  50.43600 36.41600 23.47100
H  47.37300 31.02100 24.51700
H  46.48900 35.42100 31.94900
H  48.76900 36.99500 31.64400
H  46.56200 38.25700 30.44400
H  47.67700 38.55200 31.76700
H  46.14400 37.63000 31.96500
H  49.46000 34.96600 32.24100
H  48.71000 33.46500 31.90500
H  49.07500 34.51600 34.29000
H  47.74600 33.34800 34.02300
H  52.07700 39.70700 27.82600
H  50.59600 39.95600 28.74900
H  50.62800 40.62300 27.15600
H  52.78500 40.44200 23.98200
H  53.14300 39.79800 25.58700
H  51.71700 40.80500 25.27300
H  50.45100 34.09500 22.70800
H  47.97700 32.42100 22.23900
H  49.82100 35.16100 20.91800
H  48.32700 35.85700 21.68400
H  48.18700 34.35500 20.91800
H  50.05000 31.36500 23.99800
H  50.57100 31.71300 22.44000
H  49.48000 29.91100 21.56600
H  47.97300 30.32600 22.25200
H  49.03800 29.43600 23.26600
H  46.57800 29.13500 26.09600
H  44.96600 29.81300 25.96500
H  45.48100 29.10600 27.58300
H  44.80400 33.06500 31.01800
H  46.41800 30.00700 33.68100
H  45.87700 31.10000 34.97600
H  47.43100 31.32500 34.17600

