158

Mg 53.35000 23.99500 45.50700
C  50.56700 26.21900 44.65600
C  51.24900 21.30200 44.78100
C  55.99200 22.05200 45.65100
C  55.28100 26.86400 45.92500
N  51.29000 23.85500 44.59900
C  50.28500 24.86000 44.51900
C  48.85900 24.21400 44.43200
C  49.11900 22.76900 44.87600
C  50.65800 22.59900 44.72100
C  48.73700 22.55200 46.41700
C  48.16400 24.40800 43.07400
C  49.02700 24.28900 41.79900
H  48.33500 23.62900 40.49000
N  53.55100 21.90500 45.28700
C  52.62500 21.00200 44.90400
C  53.29400 19.69500 44.85700
C  54.69000 19.89100 44.86300
C  54.81400 21.33400 45.29200
C  52.53600 18.42700 44.52800
C  55.74300 18.81200 44.61900
O  55.49800 17.80800 43.94500
C  57.19600 18.98200 44.98600
N  55.37300 24.44900 45.55100
C  56.26700 23.40200 45.76800
C  57.74200 24.04300 45.91600
C  57.48800 25.61000 45.96500
C  55.99500 25.70800 45.79800
C  58.70800 23.40400 46.91500
C  58.31500 26.43600 44.94900
C  57.51300 26.92900 43.74500
N  53.06000 26.06800 45.37400
C  53.91200 27.10800 45.60400
C  53.31900 28.43600 45.40900
C  51.92100 28.07000 45.11800
C  51.86400 26.65800 44.95800
C  53.99700 29.77100 45.62800
C  50.62800 28.62800 44.94600
O  50.26800 29.80500 44.86300
C  49.76600 27.50600 44.62200
C  49.25900 27.85800 43.28600
O  49.94600 27.83400 42.23700
O  47.93300 28.17900 43.33100
C  47.37200 28.81000 42.17300
H  50.66000 20.38300 44.74600
H  56.89900 21.44600 45.72000
H  55.90300 27.70300 46.24400
H  48.15300 24.73300 45.08000
H  48.56900 22.10600 44.20800
H  48.20300 23.39500 46.85500
H  49.60900 22.46900 47.06500
H  48.20600 21.60100 46.45100
H  47.67600 25.37800 42.97500
H  47.31800 23.72700 42.98900
H  49.89400 23.67200 42.03800
H  49.41700 25.27500 41.54700
H  53.07000 17.51700 44.80000
H  52.27000 18.18900 43.49900
H  51.65400 18.31100 45.15800
H  57.89600 18.16900 44.79000
H  57.11300 19.32800 46.01600
H  57.55600 19.79800 44.36000
H  58.20200 23.82100 44.95300
H  57.74600 25.89700 46.98400
H  59.13200 24.16600 47.56900
H  59.50700 22.97100 46.31400
H  58.27200 22.56700 47.46000
H  59.20100 25.93500 44.55600
H  58.55400 27.35600 45.48200
H  58.23300 26.96700 42.92700
H  57.07800 27.92800 43.77300
H  56.75800 26.19900 43.45400
H  54.22600 29.96700 46.67500
H  53.43700 30.65300 45.31600
H  54.89400 29.69800 45.01200
H  49.00100 27.35300 45.38400
H  46.43900 29.28100 42.48400
H  47.14700 28.10700 41.37200
H  48.00100 29.63300 41.83400
Mg -9.52200 40.72400 42.79100
C  -8.44800 37.44700 41.64800
C  -7.05100 41.89800 40.62800
C  -10.63800 43.69200 43.30600
C  -12.35600 39.18800 44.10200
N  -7.95900 39.75600 41.32500
C  -7.59400 38.42200 41.17000
C  -6.46500 38.25700 40.16500
C  -5.94400 39.72600 39.98600
C  -7.06000 40.51900 40.71200
C  -4.48200 40.00900 40.53100
C  -6.67500 37.45300 38.81200
C  -5.68600 36.41000 38.48600
H  -4.76100 36.55200 37.32800
N  -8.86400 42.64100 42.14600
C  -7.84900 42.87800 41.19800
C  -7.72700 44.29900 41.16400
C  -8.65000 44.87800 42.09400
C  -9.45600 43.78000 42.51100
C  -6.60400 44.97400 40.47200
C  -8.73400 46.35800 42.48800
O  -7.90400 47.11500 42.11200
C  -9.84000 46.87800 43.33000
N  -11.23200 41.31700 43.54900
C  -11.39100 42.63600 43.75200
C  -12.71800 42.96100 44.50400
C  -13.25900 41.51700 44.84700
C  -12.29000 40.61000 44.08500
C  -12.61400 44.01700 45.67900
C  -14.73500 41.17400 44.72800
C  -15.46900 40.55500 45.94400
N  -10.26800 38.70900 43.04500
C  -11.45700 38.26600 43.58100
C  -11.52400 36.81900 43.52000
C  -10.33300 36.48900 42.81700
C  -9.63200 37.64600 42.47500
C  -12.68300 35.97100 44.00800
C  -9.59800 35.33800 42.30700
O  -10.05400 34.21000 42.25300
C  -8.37800 35.92800 41.50600
C  -7.15600 35.33700 42.20800
O  -6.92300 35.37600 43.40200
O  -6.35700 34.82300 41.28000
C  -4.97700 34.44400 41.70400
H  -6.22200 42.29200 40.03600
H  -11.03300 44.63500 43.69100
H  -13.23400 38.63500 44.44400
H  -5.72600 37.74600 40.78300
H  -5.89000 40.00700 38.93400
H  -4.59300 40.76700 41.30600
H  -3.76600 40.31600 39.76900
H  -4.04900 39.11500 40.98100
H  -6.65600 38.21000 38.02800
H  -7.71600 37.13000 38.78900
H  -6.16100 35.43500 38.37300
H  -5.07100 36.31500 39.38100
H  -6.81600 45.94800 40.03200
H  -5.98600 44.41400 39.77100
H  -5.86200 45.11600 41.25800
H  -9.77300 46.31500 44.26200
H  -10.81400 46.78000 42.85200
H  -9.68400 47.94600 43.48100
H  -13.39600 43.38100 43.76100
H  -13.01200 41.49500 45.90900
H  -13.25300 44.85700 45.40700
H  -11.55100 44.25000 45.73500
H  -12.88200 43.51200 46.60600
H  -14.86600 40.51000 43.87400
H  -15.12500 42.16200 44.48200
H  -15.82200 39.53600 45.78500
H  -16.35300 41.18500 46.03500
H  -14.88900 40.61800 46.86500
H  -12.92200 36.30500 45.01800
H  -12.46100 34.90700 43.93300
H  -13.56600 36.13600 43.39100
H  -8.49200 35.54800 40.49100
H  -4.47100 35.29200 42.16500
H  -4.38200 34.11000 40.85400
H  -4.89500 33.58600 42.37100

