158

Mg 23.90200 -4.52400 45.60800
C  26.18200 -2.43400 44.06800
C  21.35500 -3.33800 43.53200
C  22.10300 -7.31200 46.13500
C  26.68100 -6.14100 47.10400
N  23.85700 -3.10800 43.89900
C  24.93600 -2.36200 43.52700
C  24.46100 -1.33900 42.42300
C  22.92400 -1.30300 42.67500
C  22.64900 -2.68800 43.40600
C  22.46700 -0.07300 43.55700
C  24.90700 -1.96500 41.04500
C  25.71300 -1.07400 40.05500
H  25.45200 -1.16800 38.55200
N  21.90200 -5.10600 45.09100
C  21.01300 -4.47600 44.20200
C  19.80000 -5.22700 44.14600
C  19.95300 -6.39300 44.93300
C  21.34100 -6.32800 45.46000
C  18.52900 -4.71800 43.29600
C  18.84900 -7.35600 45.31700
O  17.69100 -7.20400 44.82700
C  19.02100 -8.55700 46.30700
N  24.34700 -6.40500 46.45500
C  23.40500 -7.38200 46.67300
C  24.04000 -8.70100 47.10100
C  25.44200 -8.23300 47.62800
C  25.53500 -6.85000 47.08900
C  23.27700 -9.29500 48.30400
C  26.57100 -9.12900 47.02000
C  27.68100 -9.62300 48.00400
N  26.00000 -4.19100 45.84100
C  26.97900 -4.93200 46.49500
C  28.24400 -4.20100 46.35400
C  27.96900 -3.19000 45.43000
C  26.62500 -3.26900 45.11600
C  29.57300 -4.36900 47.08500
C  28.48600 -2.01500 44.84300
O  29.57800 -1.50700 44.97100
C  27.36000 -1.42900 43.89100
C  27.14700 -0.01700 44.24000
O  26.47900 0.34300 45.22400
O  27.71100 0.85400 43.36200
C  27.45600 2.34200 43.54500
H  20.64400 -2.71300 42.98800
H  21.44000 -8.15200 46.35300
H  27.57500 -6.49800 47.62100
H  24.93200 -0.35700 42.39300
H  22.36300 -1.31600 41.74000
H  23.33600 0.41800 43.99600
H  21.89400 -0.34200 44.44400
H  21.89100 0.67000 43.00500
H  23.97600 -2.14500 40.50900
H  25.38700 -2.92000 41.26000
H  26.76900 -1.28100 40.22600
H  25.60700 -0.03000 40.34700
H  18.86000 -4.15700 42.42200
H  17.78200 -4.17000 43.86900
H  18.06900 -5.60700 42.86300
H  19.57200 -9.34100 45.78900
H  18.02100 -8.85700 46.62100
H  19.43800 -8.12800 47.21800
H  24.19300 -9.42600 46.30100
H  25.54400 -8.14600 48.71000
H  22.39500 -8.73800 48.62000
H  23.94500 -9.50500 49.13900
H  22.85700 -10.25600 48.00700
H  26.97700 -8.56400 46.18000
H  26.22500 -10.00200 46.46600
H  27.31700 -9.39900 49.00700
H  28.50400 -8.91500 47.90300
H  28.03200 -10.64600 47.86700
H  29.49400 -5.37400 47.49900
H  29.64500 -3.58200 47.83500
H  30.30600 -4.33700 46.27800
H  27.72300 -1.43300 42.86400
H  26.78500 2.44200 44.39900
H  27.06600 2.73800 42.60800
H  28.43400 2.71800 43.84500
Mg 25.28000 2.04600 29.73300
C  27.02600 1.63900 32.74200
C  22.44900 1.60200 31.66900
C  23.51200 2.10300 26.87900
C  28.19800 1.64500 27.92400
N  24.82400 1.78700 31.98600
C  25.65200 1.75900 32.98800
C  25.01000 1.90200 34.38600
C  23.47200 1.81800 34.00800
C  23.54800 1.67100 32.45100
C  22.69600 0.56500 34.53100
C  25.44500 3.25100 35.15600
C  26.45200 3.05200 36.34800
H  26.32100 4.20600 37.37800
N  23.28600 2.00200 29.32800
C  22.28200 1.74400 30.25400
C  20.96500 1.75400 29.52600
C  21.26600 1.90700 28.14200
C  22.77500 2.03000 28.09600
C  19.65700 1.29800 30.21700
C  20.31900 1.75700 26.87200
O  20.67400 1.64200 25.71300
C  18.89300 1.77300 27.09900
N  25.78200 1.79200 27.66600
C  24.90500 2.00400 26.72000
C  25.56300 2.01200 25.30100
C  27.08500 1.94100 25.62400
C  27.06300 1.74500 27.12000
C  25.04500 0.89100 24.37900
C  27.87800 3.19200 25.17100
C  27.44200 4.61500 25.67900
N  27.23600 1.71500 30.15800
C  28.31400 1.57500 29.32700
C  29.44800 1.28900 30.18900
C  29.04400 1.41800 31.48600
C  27.63900 1.63500 31.45300
C  30.86700 1.00200 29.78700
C  29.46700 1.30900 32.88300
O  30.63000 1.31200 33.32600
C  28.20400 1.58100 33.74600
C  28.21800 0.56300 34.86000
O  27.77800 -0.56500 34.78500
O  28.88400 1.15500 35.93000
C  28.87200 0.29700 37.15300
H  21.54500 1.57600 32.28200
H  22.95700 2.16400 25.94100
H  29.16500 1.64800 27.41600
H  25.23200 1.01600 34.98100
H  23.04300 2.78200 34.28200
H  21.78700 0.91400 35.02200
H  23.31500 0.02200 35.24500
H  22.50400 -0.06000 33.65900
H  24.57600 3.73200 35.60500
H  26.05000 3.74800 34.39900
H  27.47000 3.18500 35.98200
H  26.41200 2.05400 36.78300
H  19.77100 1.39800 31.29600
H  19.46300 0.23800 30.05100
H  18.74900 1.82400 29.92200
H  18.62900 2.43200 27.92600
H  18.45100 0.78200 27.20000
H  18.39800 2.02300 26.16100
H  25.27700 2.96300 24.85100
H  27.50900 1.04500 25.17100
H  25.06200 1.21000 23.33700
H  24.07300 0.64300 24.80600
H  25.69900 0.02800 24.49900
H  27.81300 3.25800 24.08500
H  28.89900 3.07200 25.53400
H  28.31200 5.10900 26.11100
H  26.62400 4.62300 26.40000
H  27.07900 5.23900 24.86200
H  31.44700 1.47400 30.58000
H  31.13100 1.52500 28.86800
H  31.12700 -0.04900 29.91300
H  28.37500 2.50700 34.29600
H  29.04400 -0.77000 37.01100
H  27.92400 0.38600 37.68300
H  29.81100 0.48100 37.67500

