158

Mg 17.07500 -1.26500 27.92100
C  16.12800 0.57400 30.61100
C  19.18000 -3.24600 29.87600
C  18.65500 -2.56900 25.06100
C  15.47000 1.08500 25.82000
N  17.64900 -1.23900 30.01900
C  16.95700 -0.53600 30.95600
C  17.46500 -0.95000 32.40300
C  18.64800 -1.79700 32.05600
C  18.45600 -2.19700 30.58900
C  20.07900 -1.23500 32.31800
C  16.31500 -1.64800 33.11400
C  16.05200 -1.44000 34.65800
H  17.04800 -0.57400 35.42500
N  18.58600 -2.74200 27.58400
C  19.22600 -3.56100 28.48000
C  20.00800 -4.57100 27.78700
C  19.93000 -4.30000 26.40800
C  18.99800 -3.13900 26.28500
C  20.82800 -5.60600 28.64400
C  20.71900 -4.90800 25.18200
O  20.46300 -4.61000 24.05400
C  21.69200 -5.97300 25.34600
N  16.94500 -0.94700 25.78000
C  17.75500 -1.52900 24.81300
C  17.61600 -0.88500 23.38000
C  16.39700 0.13300 23.64500
C  16.23500 0.07000 25.20100
C  18.91300 -0.33800 22.73800
C  15.06600 -0.22900 22.89100
C  13.91500 -0.97600 23.58200
N  15.79900 0.38300 28.10800
C  15.30900 1.25600 27.21000
C  14.66800 2.42000 27.90900
C  14.93600 2.14400 29.25700
C  15.72200 0.94100 29.33000
C  13.89900 3.51100 27.28400
C  14.73800 2.52400 30.63000
O  14.08100 3.50000 31.02500
C  15.42300 1.53600 31.61400
C  16.28100 2.34100 32.49100
O  17.46600 2.59600 32.29300
O  15.54300 2.68800 33.52000
C  16.00000 3.72100 34.43000
H  19.91400 -3.84400 30.42000
H  19.09400 -2.81200 24.09100
H  15.16800 1.85800 25.11100
H  17.63200 0.05500 32.79100
H  18.69000 -2.72500 32.62700
H  20.78000 -1.28100 31.48400
H  20.49500 -1.82500 33.13400
H  20.04700 -0.17500 32.56900
H  16.36000 -2.70300 32.84300
H  15.39200 -1.25000 32.69200
H  15.99000 -2.46100 35.03400
H  15.10100 -0.91900 34.76800
H  20.43200 -5.71900 29.65300
H  21.84900 -5.24400 28.77000
H  20.85000 -6.62800 28.26300
H  21.44300 -6.66300 26.15200
H  22.70400 -5.56700 25.34100
H  21.58000 -6.67500 24.52000
H  17.29300 -1.72700 22.76800
H  16.77000 1.11800 23.36300
H  18.81600 0.69800 22.41500
H  19.23300 -0.86700 21.84000
H  19.70300 -0.48100 23.47700
H  15.25200 -0.44700 21.83900
H  14.62700 0.76900 22.88600
H  13.23900 -0.34000 24.15400
H  14.32000 -1.69000 24.29900
H  13.40200 -1.67500 22.92200
H  14.27800 3.84700 26.31900
H  13.95800 4.42300 27.87800
H  12.84000 3.25400 27.26400
H  14.67900 1.07700 32.26500
H  16.64800 4.42500 33.90900
H  16.43200 3.15600 35.25600
H  15.11800 4.25300 34.78700
Mg 26.10500 50.51400 27.55400
C  23.85600 51.91600 29.89900
C  28.21400 49.77800 29.99100
C  28.30600 49.74500 25.16200
C  23.93300 51.95800 25.00900
N  25.93100 50.72200 29.77900
C  25.00500 51.33200 30.56700
C  25.21100 51.02800 32.09000
C  26.69100 50.42200 32.04200
C  27.00100 50.34300 30.54500
C  27.86000 51.12300 32.84500
C  24.16000 50.10100 32.80600
C  23.78800 50.45600 34.24100
H  24.80600 50.76500 35.27500
N  28.02300 49.62100 27.59700
C  28.75300 49.51300 28.68100
C  30.09200 49.03900 28.35400
C  30.11700 48.90200 26.88800
C  28.77700 49.41000 26.45700
C  31.20600 48.86000 29.38700
C  31.24000 48.34300 25.98300
O  31.14100 48.37800 24.79800
C  32.41600 47.47400 26.55400
N  26.19100 50.91300 25.38100
C  27.16900 50.36800 24.60600
C  26.75000 50.40200 23.14000
C  25.23700 50.73300 23.22800
C  25.10000 51.27500 24.65600
C  27.73500 51.21100 22.37000
C  24.20200 49.64800 22.77900
C  24.25700 49.02700 21.38000
N  24.32800 51.80300 27.41800
C  23.56000 52.23200 26.37200
C  22.39100 52.88900 26.82500
C  22.51600 52.83200 28.24000
C  23.70700 52.14600 28.52900
C  21.27400 53.30100 25.87600
C  21.86200 53.24400 29.46700
O  20.76700 53.71800 29.76200
C  22.67500 52.60400 30.61400
C  23.07100 53.70700 31.57100
O  23.82900 54.59800 31.43400
O  22.42800 53.36400 32.75800
C  22.74900 54.27000 33.88000
H  28.95200 49.56300 30.76700
H  28.97800 49.63600 24.30800
H  23.33100 52.27200 24.15400
H  25.14900 51.99600 32.58700
H  26.59100 49.42700 32.47600
H  28.79000 51.14500 32.27700
H  27.94100 50.89900 33.90800
H  27.46300 52.13800 32.88600
H  24.51200 49.08200 32.96500
H  23.24800 49.95000 32.22800
H  23.17300 49.68500 34.70500
H  23.17500 51.35700 34.25800
H  32.22200 48.68600 29.03400
H  31.08500 47.89000 29.87000
H  31.19200 49.66900 30.11700
H  33.14100 48.22500 26.86900
H  32.68600 46.92100 25.65500
H  31.96200 46.85600 27.32900
H  26.68100 49.37300 22.78800
H  25.05400 51.60000 22.59300
H  27.39500 52.19300 22.04000
H  27.92600 50.61000 21.48100
H  28.73000 51.27300 22.81100
H  23.26500 50.19800 22.86600
H  24.13100 48.87000 23.53800
H  24.36900 47.95500 21.54800
H  25.05500 49.42600 20.75500
H  23.36300 49.38500 20.86800
H  21.12000 52.52500 25.12500
H  21.45300 54.26400 25.39800
H  20.47400 53.47500 26.59500
H  22.07100 51.86200 31.13700
H  22.97300 55.29700 33.59100
H  23.61900 53.80400 34.34300
H  21.94900 54.25800 34.62000

