158

Mg 24.46000 -4.86500 45.37800
C  27.04800 -2.66300 43.93500
C  22.19300 -3.33600 43.25200
C  22.52900 -7.48300 45.88900
C  27.08300 -6.23500 47.41300
N  24.65800 -3.16100 43.78400
C  25.76600 -2.37900 43.39500
C  25.36000 -1.30500 42.45500
C  23.80000 -1.52300 42.39100
C  23.48500 -2.77000 43.21500
C  22.91300 -0.31700 42.91000
C  25.95900 -1.33600 40.96900
C  26.00600 0.00900 40.13800
H  25.20300 -0.06100 38.80300
N  22.54300 -5.35100 44.62700
C  21.75900 -4.55800 43.81100
C  20.62200 -5.34400 43.57800
C  20.69200 -6.55900 44.26800
C  21.97000 -6.56000 44.95400
C  19.49400 -4.92800 42.63700
C  19.58600 -7.68400 44.21700
O  18.61300 -7.57800 43.46100
C  19.72600 -8.94100 45.06000
N  24.69900 -6.47000 46.63400
C  23.72700 -7.44700 46.63500
C  24.14500 -8.57700 47.61200
C  25.40600 -7.99200 48.30700
C  25.79300 -6.85800 47.39500
C  23.08300 -9.11700 48.57500
C  26.52000 -8.96900 48.58400
C  26.97600 -9.21600 50.04900
N  26.56700 -4.54700 45.68100
C  27.53500 -5.19000 46.55100
C  28.81800 -4.53300 46.44700
C  28.58700 -3.51900 45.48500
C  27.27500 -3.62400 44.95000
C  30.10500 -4.86700 47.25900
C  29.30800 -2.45700 44.81000
O  30.42400 -2.08800 45.03600
C  28.30700 -1.87300 43.77400
C  28.15600 -0.44400 44.02300
O  28.06600 0.03000 45.14800
O  28.13500 0.22400 42.85700
C  28.10600 1.69200 42.98900
H  21.44700 -2.81900 42.64500
H  22.00100 -8.43800 45.90000
H  27.83500 -6.62100 48.10400
H  25.50400 -0.36600 42.98900
H  23.53100 -1.59500 41.33700
H  23.55000 0.53700 43.13800
H  22.48200 -0.67200 43.84700
H  22.15100 -0.06400 42.17200
H  25.40500 -2.09800 40.42100
H  26.99500 -1.67300 40.96700
H  27.03400 0.31000 39.93800
H  25.69900 0.86900 40.73200
H  19.49100 -5.47500 41.69400
H  19.55800 -3.84800 42.50300
H  18.55400 -5.16000 43.13700
H  19.73900 -8.79600 46.14100
H  20.58400 -9.48400 44.66300
H  18.84600 -9.55200 44.86400
H  24.53200 -9.39900 47.00900
H  25.13800 -7.44500 49.21100
H  22.19200 -8.50600 48.42800
H  23.33500 -9.07200 49.63400
H  22.81800 -10.16100 48.41000
H  27.46300 -8.73000 48.09300
H  26.33900 -10.00400 48.29300
H  26.40500 -10.01700 50.51900
H  26.90900 -8.25600 50.56100
H  28.02800 -9.49800 50.06000
H  30.73600 -3.97800 47.25700
H  30.59900 -5.72000 46.79400
H  29.67700 -5.08000 48.23900
H  28.70700 -2.03300 42.77300
H  29.09400 2.15200 43.02300
H  27.60900 2.06800 43.88300
H  27.64900 2.04600 42.06500
Mg 17.06400 51.19200 25.96900
C  18.86800 49.96500 28.69700
C  14.76400 52.43600 28.16700
C  15.21500 52.23600 23.38200
C  19.50000 49.93700 23.91100
N  16.89100 51.18700 28.18200
C  17.71800 50.66400 29.09500
C  17.21100 50.94600 30.58700
C  15.73700 51.48600 30.32800
C  15.82800 51.78500 28.82700
C  14.63400 50.59400 30.79100
C  18.22900 51.92300 31.27100
C  17.90700 52.52100 32.63600
H  16.92200 51.74400 33.51600
N  15.33800 52.32600 25.80700
C  14.54100 52.75700 26.82300
C  13.40300 53.43300 26.31700
C  13.49500 53.45900 24.87900
C  14.75000 52.65000 24.59000
C  12.42900 54.01700 27.17100
C  12.71900 54.23700 23.83800
O  13.00100 54.11300 22.66200
C  11.36700 54.92900 24.16900
N  17.30400 51.07500 23.99400
C  16.35200 51.52500 23.10600
C  16.97900 51.37200 21.66700
C  18.48400 51.04900 21.83500
C  18.45600 50.69900 23.35300
C  16.10200 50.46700 20.73600
C  19.59400 52.16000 21.52600
C  20.78600 51.59300 20.72100
N  18.83200 50.12000 26.17200
C  19.66400 49.62500 25.25700
C  20.79300 48.88000 25.93000
C  20.48400 48.99900 27.31700
C  19.35500 49.78300 27.40400
C  21.98900 48.35200 25.39500
C  20.90700 48.61900 28.62800
O  21.77500 47.87400 28.96800
C  19.87700 49.32700 29.64600
C  19.29000 48.27800 30.50000
O  18.58800 47.29500 30.13800
O  19.54300 48.57300 31.80500
C  18.92200 47.76600 32.88200
H  13.95800 52.79900 28.80800
H  14.68400 52.66400 22.53000
H  20.16800 49.55500 23.13600
H  17.23800 49.98800 31.10500
H  15.53900 52.43200 30.83200
H  14.24700 50.07700 29.91300
H  13.88500 51.22100 31.27500
H  15.04500 49.73900 31.32700
H  18.75700 52.50300 30.51400
H  19.06500 51.27700 31.53900
H  17.38200 53.47100 32.53700
H  18.74700 52.55200 33.33000
H  11.48700 53.47600 27.27000
H  12.23200 55.01700 26.78400
H  12.77900 54.29700 28.16400
H  11.66600 55.80500 24.74600
H  10.81500 54.33200 24.89400
H  10.83900 55.15300 23.24200
H  17.06900 52.31700 21.13100
H  18.70000 50.17300 21.22400
H  15.70500 51.04400 19.90100
H  15.24500 50.09700 21.29900
H  16.69700 49.66100 20.30800
H  19.96100 52.64600 22.43000
H  19.06200 52.91400 20.94700
H  20.73000 51.81200 19.65400
H  20.95100 50.51700 20.67900
H  21.68800 52.10200 21.05800
H  22.84700 49.00400 25.55600
H  21.83000 48.04500 24.36100
H  22.19700 47.39800 25.87900
H  20.32400 50.12200 30.24400
H  19.53400 46.98200 33.32700
H  18.04000 47.28800 32.45400
H  18.52600 48.40900 33.66700

