158

Mg 8.09600 4.18200 27.60800
C  9.40800 2.50400 30.37700
C  6.37500 6.20300 29.77600
C  6.87300 5.66400 24.95000
C  9.57800 1.61100 25.57600
N  7.72000 4.16600 29.76300
C  8.51500 3.55600 30.71600
C  8.30300 4.07400 32.14800
C  7.24900 5.22100 31.94800
C  7.03300 5.16000 30.42600
C  6.01400 5.26000 32.82900
C  9.65400 4.57600 32.88000
C  9.45500 5.36800 34.21500
H  10.32800 4.92200 35.41400
N  6.80500 5.72400 27.40000
C  6.20300 6.45900 28.41000
C  5.39000 7.46800 27.75500
C  5.61100 7.35400 26.33700
C  6.41100 6.19300 26.16500
C  4.47200 8.42200 28.51000
C  5.06300 8.25800 25.21800
O  5.32700 7.99200 24.04600
C  4.38000 9.61000 25.47200
N  8.02400 3.61200 25.51900
C  7.58100 4.51600 24.58000
C  7.99400 4.10500 23.20200
C  8.82400 2.83000 23.46700
C  8.89000 2.69300 24.99500
C  6.70100 3.78400 22.39500
C  10.24100 2.95000 22.76200
C  10.96100 1.56100 22.56700
N  9.19300 2.44500 27.84100
C  9.74700 1.54200 26.98300
C  10.49300 0.50600 27.67400
C  10.41500 0.92500 29.06200
C  9.63400 2.01800 29.10800
C  11.27900 -0.66100 27.08400
C  10.89800 0.58600 30.42400
O  11.79000 -0.20400 30.76000
C  10.25900 1.73900 31.36100
C  9.52800 1.04600 32.52100
O  8.43100 0.40100 32.64800
O  10.49500 1.09400 33.53700
C  10.18000 0.23500 34.71800
H  5.84800 6.92400 30.40400
H  6.69000 6.20300 24.01700
H  10.13400 0.93800 24.91800
H  7.82700 3.26700 32.70500
H  7.83900 6.13500 32.02200
H  5.77300 6.10000 33.48200
H  6.06600 4.49700 33.60600
H  5.07000 5.28200 32.28400
H  10.27800 5.22300 32.26500
H  10.34400 3.73600 32.96700
H  8.42700 5.40500 34.57800
H  9.69200 6.41700 34.04200
H  4.80800 9.45200 28.38400
H  4.36300 8.13500 29.55600
H  3.46600 8.40100 28.09100
H  3.80900 9.91300 24.59500
H  5.16200 10.26400 25.85800
H  3.62600 9.44700 26.24200
H  8.66200 4.82100 22.72400
H  8.33000 1.92000 23.12800
H  6.57100 4.47000 21.55800
H  5.86500 4.00500 23.05900
H  6.79400 2.76900 22.01100
H  10.88700 3.61800 23.33200
H  10.12700 3.49500 21.82500
H  11.43600 1.52000 21.58600
H  10.25100 0.74800 22.71300
H  11.71400 1.34600 23.32600
H  11.87800 -0.35000 26.22800
H  10.60800 -1.44500 26.73200
H  11.78800 -1.20400 27.88000
H  11.15200 2.30600 31.62300
H  9.21500 -0.26900 34.77700
H  10.19600 0.95900 35.53200
H  11.10400 -0.27500 34.99200
Mg 41.36700 9.45700 29.76700
C  43.18100 10.61900 32.43500
C  39.17800 7.81400 32.08300
C  39.56500 8.27500 27.30900
C  43.86300 10.32000 27.62500
N  41.27600 9.15900 32.04500
C  42.03100 9.89000 32.88000
C  41.50000 9.90900 34.29500
C  40.56000 8.64000 34.14500
C  40.30100 8.50300 32.63500
C  40.85300 7.23800 34.78000
C  40.82600 11.32000 34.70400
C  40.37300 11.41600 36.20800
H  41.10900 12.41200 37.18700
N  39.57100 8.33400 29.65400
C  38.81800 7.80600 30.69100
C  37.59300 7.24800 30.10600
C  37.58700 7.52200 28.72000
C  38.95700 8.03600 28.51600
C  36.52900 6.59300 30.89100
C  36.52400 7.28000 27.68100
O  36.79700 7.29200 26.47600
C  35.04400 7.10600 28.01900
N  41.72100 9.38000 27.71800
C  40.73200 8.91400 26.89900
C  41.15500 9.00000 25.44200
C  42.58400 9.70500 25.59300
C  42.75900 9.79900 27.03800
C  41.30500 7.50900 24.83800
C  42.62400 10.97900 24.70800
C  43.07400 10.73000 23.29600
N  43.22400 10.28400 29.96000
C  44.13400 10.61700 29.01600
C  45.30400 11.30200 29.65700
C  45.01200 11.35200 31.03500
C  43.72000 10.78700 31.13000
C  46.46600 11.86300 28.90200
C  45.40200 11.77600 32.30000
O  46.42900 12.37000 32.60000
C  44.23600 11.29600 33.31900
C  44.79300 10.34900 34.39900
O  44.97000 9.17000 34.23700
O  45.01600 10.96700 35.60500
C  45.22700 10.08400 36.76600
H  38.31300 7.55400 32.69600
H  38.98900 7.91300 26.45500
H  44.68700 10.64300 26.98500
H  42.27200 9.72400 35.04200
H  39.67000 8.96900 34.68200
H  41.82900 7.27700 35.26300
H  40.94200 6.46600 34.01600
H  40.03500 7.04600 35.47600
H  39.94000 11.32500 34.07000
H  41.52400 12.10600 34.41300
H  40.37200 10.44200 36.69700
H  39.34100 11.76800 36.20300
H  36.80200 6.35800 31.91900
H  36.26000 5.62300 30.47200
H  35.58500 7.13300 30.96300
H  34.91500 6.44500 28.87600
H  34.57000 6.62300 27.16500
H  34.56400 8.07100 28.17900
H  40.46000 9.58200 24.83700
H  43.39500 9.07000 25.23800
H  40.53200 7.21300 24.13000
H  41.25500 6.70400 25.57100
H  42.25200 7.39900 24.30900
H  43.29900 11.78000 25.00800
H  41.61700 11.34200 24.50400
H  42.38700 9.98800 22.88800
H  44.07700 10.30300 23.28100
H  43.03500 11.60500 22.64800
H  46.23600 11.75000 27.84300
H  47.37000 11.35700 29.24200
H  46.57500 12.93900 29.04000
H  43.65800 12.07100 33.82200
H  45.63000 9.09600 36.54600
H  44.24500 9.93800 37.21700
H  46.00200 10.60000 37.33300

