158

Mg -0.21900 6.95100 26.66400
C  1.13200 9.66100 28.67900
C  0.06800 4.98100 29.50000
C  -2.01100 4.66200 25.13800
C  0.31500 8.87100 23.89800
N  0.41100 7.34100 28.82500
C  0.87000 8.48500 29.39600
C  0.97400 8.28500 30.90200
C  1.15300 6.82300 31.03700
C  0.60600 6.31200 29.66100
C  2.57700 6.32300 31.45500
C  -0.30900 8.84700 31.62000
C  -0.21100 9.25100 33.12400
H  0.94600 8.81300 33.93700
N  -0.80700 5.11900 27.19900
C  -0.62000 4.48000 28.33200
C  -1.27800 3.23400 28.35800
C  -1.97700 3.10000 27.17000
C  -1.60300 4.28000 26.44600
C  -1.25800 2.32500 29.54300
C  -2.92900 2.08800 26.70400
O  -3.42700 2.11400 25.57700
C  -3.17000 0.84200 27.46400
N  -0.57200 6.62900 24.76300
C  -1.44800 5.67900 24.28500
C  -1.77800 5.74500 22.74300
C  -1.19600 7.18200 22.46700
C  -0.29700 7.57100 23.75300
C  -1.09700 4.60000 21.90000
C  -2.35100 8.13500 22.16900
C  -2.25700 8.96400 20.81500
N  0.44100 8.90400 26.31100
C  0.60700 9.52400 25.11000
C  1.14100 10.85700 25.29600
C  1.30800 10.99800 26.73900
C  0.95500 9.75500 27.28300
C  1.60700 11.81100 24.18800
C  1.68600 11.90900 27.80400
O  2.07700 13.13000 27.74100
C  1.41500 11.09800 29.13600
C  2.67100 11.13800 29.90100
O  3.73000 10.62200 29.54500
O  2.59000 11.88300 31.04800
C  3.80800 11.88200 31.91500
H  0.24500 4.39400 30.40400
H  -2.53500 3.88500 24.57800
H  0.44300 9.53800 23.04300
H  1.84500 8.82100 31.27900
H  0.48700 6.51500 31.84300
H  2.74600 5.99300 32.48000
H  3.28000 7.13900 31.28900
H  2.95700 5.53900 30.80000
H  -1.20300 8.25600 31.42200
H  -0.38500 9.78900 31.07800
H  -1.03600 8.77300 33.65300
H  -0.32800 10.32600 33.25700
H  -2.25500 2.15700 29.95000
H  -0.52300 2.55700 30.31400
H  -0.98800 1.34600 29.14900
H  -3.72900 0.16000 26.82300
H  -3.81100 1.00400 28.33100
H  -2.23500 0.34400 27.71900
H  -2.84800 5.53700 22.73200
H  -0.54100 7.16500 21.59600
H  -0.34000 4.11700 22.51900
H  -0.66300 5.01200 20.99000
H  -1.89200 3.88200 21.69800
H  -2.47400 8.95200 22.88000
H  -3.28800 7.58000 22.12200
H  -2.53200 9.99700 21.02600
H  -3.09500 8.59600 20.22300
H  -1.27300 9.05900 20.35500
H  0.84800 11.58300 23.43900
H  2.59600 11.63300 23.76600
H  1.57500 12.89100 24.33600
H  0.56300 11.44500 29.72100
H  3.87500 12.90600 32.28100
H  4.76200 11.92000 31.39000
H  3.82800 11.12200 32.69700
Mg 35.84300 48.01500 25.90300
C  36.03000 46.12200 28.81900
C  34.17600 50.42600 27.60800
C  35.36500 49.59500 22.85800
C  37.38000 45.41900 24.19700
N  35.08700 48.18600 27.91000
C  35.42500 47.36800 28.99400
C  34.98900 48.01800 30.34000
C  34.29600 49.29100 29.96000
C  34.53000 49.28900 28.41100
C  32.76600 49.47400 30.47100
C  36.18300 48.13200 31.31900
C  35.89800 47.87400 32.72800
H  35.92800 49.14600 33.66500
N  34.88500 49.73500 25.29800
C  34.38200 50.69700 26.20500
C  34.09600 51.93100 25.44600
C  34.49600 51.70200 24.09700
C  34.95800 50.28900 23.97900
C  33.49800 53.13300 26.14900
C  34.62300 52.72200 23.00000
O  35.00900 52.47200 21.90400
C  34.37900 54.19000 23.33600
N  36.12300 47.48600 23.77500
C  35.90100 48.29000 22.76400
C  36.50700 47.69500 21.44300
C  37.20600 46.41700 21.87500
C  36.96800 46.48100 23.42400
C  35.57700 47.31200 20.30400
C  38.72800 46.36300 21.48900
C  39.02700 45.79200 20.11000
N  36.59700 46.13200 26.39000
C  37.13200 45.15300 25.57300
C  37.42900 43.94600 26.30300
C  36.99500 44.24900 27.68400
C  36.48100 45.60800 27.61900
C  38.07200 42.67600 25.82800
C  36.94200 43.75200 29.02600
O  37.27500 42.68200 29.50300
C  36.35300 45.01300 29.85400
C  35.19100 44.51000 30.64600
O  34.24800 43.87800 30.11700
O  35.31500 44.75500 32.02300
C  34.16600 44.42100 32.87600
H  33.88700 51.30200 28.19300
H  35.31200 50.09400 21.88800
H  37.95300 44.64600 23.68100
H  34.22500 47.37600 30.77900
H  34.90700 50.08800 30.38200
H  32.78100 50.24200 31.24400
H  32.39100 48.57000 30.95100
H  32.11600 49.83400 29.67300
H  36.63300 49.11500 31.18000
H  37.01200 47.50400 30.99200
H  36.72100 47.23100 33.03800
H  34.93200 47.38500 32.85800
H  33.92100 54.07400 25.79700
H  33.77800 53.25500 27.19500
H  32.41600 53.14500 26.01900
H  33.32900 54.46100 23.44800
H  34.64400 54.74400 22.43600
H  35.08000 54.59200 24.06700
H  37.12300 48.48700 21.01700
H  36.74100 45.48800 21.54400
H  35.50100 48.05400 19.50900
H  34.61200 46.95500 20.66500
H  36.00700 46.50800 19.70600
H  39.34200 45.75000 22.15000
H  39.09100 47.37800 21.65500
H  38.08600 45.49500 19.64800
H  39.75400 44.98100 20.14100
H  39.53700 46.54100 19.50400
H  39.08800 42.62200 26.22000
H  38.13800 42.60500 24.74200
H  37.46900 41.83200 26.16600
H  37.07600 45.35800 30.59300
H  33.95000 45.22300 33.58100
H  34.38000 43.53700 33.47700
H  33.22600 44.32900 32.33200

