158

Mg 35.52300 1.29300 29.64700
C  33.31500 1.95800 32.29700
C  38.14700 1.12400 31.86200
C  37.68300 0.52400 27.06700
C  32.88600 1.34000 27.42800
N  35.64600 1.60500 31.78700
C  34.64500 1.86100 32.69200
C  35.17400 1.86800 34.04700
C  36.68400 1.94400 33.88000
C  36.89400 1.43200 32.41500
C  37.41700 3.31200 34.06700
C  34.74700 0.55100 34.81000
C  34.19400 0.71100 36.28200
H  34.80900 1.77400 37.16600
N  37.58900 0.92700 29.46800
C  38.44000 0.77500 30.58900
C  39.78800 0.38900 30.11100
C  39.77700 0.35900 28.70400
C  38.30000 0.53900 28.35600
C  41.00300 0.07000 31.03600
C  40.85100 0.00800 27.60700
O  40.73300 0.32000 26.45200
C  42.14700 -0.47900 28.03900
N  35.31600 0.94100 27.52100
C  36.39500 0.66500 26.66200
C  35.94300 0.65100 25.21100
C  34.41500 0.76300 25.36300
C  34.16300 1.07100 26.83100
C  36.70100 1.54100 24.16200
C  33.53500 -0.47000 24.82800
C  32.20100 -0.14500 24.05800
N  33.59000 1.74000 29.78600
C  32.66200 1.82300 28.73000
C  31.36800 2.15100 29.27800
C  31.53200 2.06900 30.66300
C  32.90900 1.87300 30.95400
C  30.20100 2.49900 28.45400
C  30.87200 2.16900 31.95100
O  29.68500 2.33600 32.08200
C  31.94200 2.12700 33.00400
C  31.81300 3.37800 33.80500
O  32.20100 4.48700 33.40300
O  31.27500 3.10800 35.03500
C  31.18500 4.29800 35.89600
H  38.97100 1.11900 32.57800
H  38.35000 0.38000 26.21500
H  32.04200 1.30000 26.73700
H  34.77800 2.72700 34.58800
H  37.19000 1.22700 34.52600
H  37.61100 3.68300 33.06000
H  38.30200 3.01700 34.63100
H  36.83100 3.97200 34.70700
H  35.51300 -0.21500 34.92600
H  33.91200 0.27300 34.16700
H  34.32900 -0.23800 36.80000
H  33.16600 1.07000 36.23300
H  40.73800 -0.13900 32.07200
H  41.80900 0.79700 30.94400
H  41.39100 -0.85400 30.60700
H  42.43000 0.17400 28.86500
H  42.85700 -0.35100 27.22200
H  42.09600 -1.51300 28.38000
H  36.16200 -0.32800 24.78500
H  34.03800 1.63200 24.82500
H  35.88300 1.92900 23.55500
H  37.48800 1.03300 23.60400
H  37.18000 2.32200 24.75100
H  33.30700 -1.08800 25.69700
H  34.20100 -0.94200 24.10500
H  32.49000 -0.03800 23.01300
H  31.91300 0.89600 24.19800
H  31.38400 -0.86400 24.11700
H  29.87800 3.46100 28.85300
H  29.52700 1.65100 28.57200
H  30.50800 2.60700 27.41400
H  31.57200 1.34100 33.66200
H  32.16200 4.76200 36.03300
H  30.90900 4.10700 36.93300
H  30.46900 4.93300 35.37400
Mg 47.65500 15.78400 28.35500
C  45.78900 15.36200 31.20300
C  49.72500 17.95500 30.11200
C  49.31400 16.48900 25.45400
C  45.20900 14.13000 26.54900
N  47.68400 16.59700 30.30300
C  46.94600 16.09700 31.31500
C  47.36600 16.76700 32.66000
C  48.42100 17.83600 32.29400
C  48.61600 17.45800 30.78500
C  47.99000 19.27900 32.62300
C  47.91300 15.75400 33.73000
C  47.40100 16.09500 35.14400
H  48.20700 15.73700 36.37600
N  49.37900 16.97500 27.89500
C  50.06700 17.76300 28.72100
C  51.26200 18.27700 28.03800
C  51.17000 17.94500 26.70600
C  49.93100 17.08500 26.64100
C  52.35400 19.07500 28.73500
C  52.03500 18.29000 25.55600
O  51.83100 17.90800 24.42700
C  53.24500 19.21400 25.81400
N  47.33100 15.34400 26.37200
C  48.17900 15.65400 25.32300
C  47.78700 15.00800 23.98000
C  46.45900 14.27600 24.28900
C  46.29800 14.64400 25.82700
C  47.56500 16.03800 22.76200
C  46.42500 12.78900 23.93100
C  45.83900 12.42100 22.58800
N  45.88400 14.80400 28.69600
C  44.96900 14.18700 27.90800
C  43.84600 13.75600 28.65200
C  44.17800 14.21800 29.93600
C  45.40200 14.83800 29.95300
C  42.67300 12.86700 28.41300
C  43.60300 14.29600 31.21100
O  42.57700 13.79600 31.65000
C  44.62400 15.04400 32.12200
C  43.90400 16.18700 32.63200
O  43.50800 17.12500 31.98000
O  43.64200 15.99200 34.00100
C  42.75200 16.89400 34.61200
H  50.35500 18.69500 30.61100
H  49.75900 16.80300 24.50800
H  44.41000 13.75400 25.90600
H  46.51200 17.25100 33.13500
H  49.34200 17.70300 32.86000
H  48.73700 19.76900 33.24700
H  47.08400 19.21000 33.22600
H  47.78800 19.84400 31.71200
H  49.00300 15.78600 33.73500
H  47.61900 14.73500 33.47700
H  46.37500 15.72600 35.12300
H  47.33100 17.18200 35.18200
H  53.33500 18.66600 28.49300
H  52.35900 19.08600 29.82500
H  52.28600 20.11100 28.40600
H  54.02600 18.79600 26.44900
H  52.94500 20.19300 26.18700
H  53.65800 19.43600 24.82900
H  48.59900 14.35100 23.66900
H  45.61600 14.72000 23.75900
H  48.44100 16.63100 22.50000
H  46.74900 16.66400 23.12500
H  47.15300 15.40100 21.97800
H  45.96000 12.11000 24.64500
H  47.47500 12.50500 23.99000
H  46.53200 11.88800 21.93600
H  45.48900 13.34500 22.12800
H  45.02200 11.71800 22.74900
H  42.50900 12.77200 27.34000
H  41.81600 13.35300 28.87800
H  42.98400 11.90100 28.81300
H  44.92900 14.34300 32.89800
H  41.84100 16.30600 34.50400
H  42.53600 17.81600 34.07300
H  42.87200 17.17400 35.65800

