158

Mg 47.18200 17.14100 27.47800
C  45.46500 17.30500 30.49100
C  49.64800 19.20200 28.91700
C  48.60600 17.72200 24.39400
C  44.31100 16.21700 25.91400
N  47.51400 18.06300 29.52100
C  46.71000 17.88500 30.56700
C  47.34100 18.47000 31.82200
C  48.52300 19.32700 31.25900
C  48.61500 18.86100 29.79600
C  48.39000 20.82600 31.51900
C  47.67200 17.38100 32.86400
C  47.26900 17.79100 34.36800
H  47.24700 19.34100 34.67300
N  49.05400 17.97500 26.84100
C  49.88000 18.80300 27.54300
C  50.96900 19.23800 26.67200
C  50.69700 18.66600 25.37300
C  49.41100 18.01800 25.50700
C  52.04900 20.18800 27.05400
C  51.65000 18.72300 24.07400
O  51.13200 18.48700 22.93500
C  53.11900 19.04900 24.17100
N  46.67400 16.80300 25.48300
C  47.29500 17.23300 24.44500
C  46.49100 17.22000 23.15300
C  45.27800 16.35600 23.57900
C  45.36700 16.49800 25.08500
C  46.09100 18.71000 22.74700
C  45.21900 14.84200 23.17000
C  44.13900 14.40500 22.22900
N  45.30300 16.55600 28.08700
C  44.23500 16.17600 27.30800
C  43.08100 15.89400 28.14800
C  43.52800 16.23100 29.44500
C  44.82200 16.76400 29.33500
C  41.76600 15.44800 27.84200
C  43.10500 16.34000 30.83200
O  42.02300 16.12800 31.32600
C  44.35300 16.98300 31.59200
C  43.87600 18.14000 32.39300
O  43.61400 19.25200 31.99000
O  43.80400 17.81300 33.71600
C  43.08800 18.79400 34.48700
H  50.38400 19.83400 29.42000
H  48.89000 18.02200 23.38300
H  43.40400 15.82200 25.45200
H  46.63500 19.23800 32.14100
H  49.44100 18.99700 31.74500
H  47.51800 21.15400 32.08500
H  48.47700 21.25100 30.51900
H  49.24800 21.19100 32.08400
H  48.71800 17.08300 32.79400
H  47.14300 16.45700 32.63400
H  48.05500 17.35000 34.98100
H  46.30600 17.35000 34.62300
H  51.68900 20.69700 27.94900
H  52.23500 20.85600 26.21300
H  52.98200 19.64400 27.19900
H  53.33300 18.58500 25.13400
H  53.10300 20.13800 24.16000
H  53.70200 18.61300 23.35900
H  47.07500 16.77300 22.34800
H  44.37400 16.89500 23.29600
H  45.13800 18.74100 22.21800
H  46.95400 19.13600 22.23600
H  45.89900 19.25400 23.67200
H  45.18500 14.26000 24.09100
H  46.06900 14.58000 22.53900
H  44.40100 14.72900 21.22100
H  43.22500 14.91200 22.53700
H  44.01600 13.33500 22.39500
H  41.81000 14.35900 27.82300
H  41.47500 15.84700 26.87000
H  41.05800 15.71000 28.62900
H  44.67900 16.15500 32.22200
H  42.09800 18.95200 34.06000
H  43.64600 19.71400 34.30900
H  43.14900 18.56300 35.55100
Mg 6.81500 54.55500 40.87500
C  6.03300 51.18700 40.28500
C  10.01000 53.99200 40.12800
C  7.32300 57.88800 41.16200
C  3.33900 55.22100 41.28000
N  7.90400 52.78500 40.27000
C  7.39800 51.48300 40.02000
C  8.52200 50.56200 39.54200
C  9.77900 51.42300 39.98200
C  9.20400 52.84600 40.16100
C  10.61000 50.84700 41.22200
C  8.47500 50.44100 37.93500
C  8.74600 49.06700 37.23600
H  7.71800 48.47800 36.26600
N  8.39700 55.79700 40.61900
C  9.68500 55.34000 40.25800
C  10.54800 56.41600 40.07100
C  9.87300 57.56300 40.55800
C  8.47100 57.15500 40.83300
C  11.94100 56.37800 39.53300
C  10.50700 58.96400 40.63800
O  11.68800 59.09900 40.21600
C  9.75700 60.19100 41.09500
N  5.56700 56.26800 41.05300
C  6.02400 57.48700 41.37100
C  4.89600 58.48800 41.68600
C  3.63000 57.64000 41.52900
C  4.22300 56.25600 41.32500
C  5.08600 58.98900 43.13100
C  2.72100 58.08800 40.29400
C  1.56700 59.06200 40.60600
N  5.02600 53.42900 40.83200
C  3.70700 53.85600 41.07800
C  2.86200 52.59900 41.06200
C  3.78000 51.55400 40.93700
C  5.02500 52.14100 40.70500
C  1.33300 52.53900 41.27000
C  3.93200 50.08100 40.83800
O  3.04600 49.22800 40.96600
C  5.44000 49.76400 40.54300
C  5.51700 48.81300 39.35500
O  5.26400 49.13900 38.18900
O  5.97900 47.60800 39.75000
C  6.30700 46.55500 38.79200
H  11.07800 53.82900 39.96900
H  7.46600 58.97100 41.17700
H  2.27500 55.31100 41.50800
H  8.65700 49.65100 40.12600
H  10.40100 51.39800 39.08700
H  10.92600 51.70100 41.82100
H  11.43300 50.25200 40.82700
H  9.90400 50.30700 41.85200
H  9.25800 51.13800 37.63500
H  7.47300 50.76300 37.65300
H  8.90300 48.26100 37.95300
H  9.68100 49.18700 36.68900
H  11.98900 57.14800 38.76300
H  12.15600 55.40400 39.09300
H  12.63600 56.54700 40.35500
H  9.00900 60.35400 40.31900
H  10.57400 60.90900 41.02400
H  9.34500 59.92300 42.06800
H  4.92400 59.29400 40.95300
H  3.08000 57.61900 42.47000
H  5.29500 60.05500 43.21600
H  5.89800 58.44100 43.60900
H  4.25300 58.84300 43.81900
H  2.20000 57.22100 39.88700
H  3.39600 58.42800 39.50900
H  0.55700 58.71300 40.39300
H  1.69000 59.96700 40.01000
H  1.61700 59.42100 41.63400
H  0.89900 51.67800 40.76300
H  0.99600 53.39900 40.69200
H  1.01500 52.61400 42.31000
H  5.83500 49.19400 41.38400
H  5.94900 45.58400 39.13500
H  7.37900 46.42300 38.64700
H  5.79200 46.66400 37.83700

