158

Mg 0.66000 8.44100 27.63000
C  1.66800 10.73300 30.14700
C  0.68900 5.97000 30.03600
C  -0.02600 6.36100 25.15100
C  0.98100 11.12000 25.32600
N  1.12300 8.46700 29.84200
C  1.49600 9.46500 30.68400
C  1.59300 8.95100 32.14300
C  1.66200 7.41100 31.92400
C  1.03500 7.23800 30.53400
C  3.06300 6.76900 31.94000
C  0.31700 9.31200 33.00000
C  0.48400 9.49300 34.53500
H  -0.31200 8.52600 35.44900
N  0.24100 6.43100 27.61600
C  0.25000 5.59100 28.70900
C  -0.30300 4.32700 28.30900
C  -0.41700 4.40000 26.88700
C  -0.06100 5.74300 26.48500
C  -0.65700 3.19400 29.25000
C  -0.87400 3.28800 25.94700
O  -1.01700 3.45900 24.76500
C  -1.15600 2.04000 26.49500
N  0.77100 8.66700 25.52000
C  0.32000 7.67600 24.73300
C  0.07900 8.14800 23.30100
C  0.05200 9.69800 23.45600
C  0.61200 9.87900 24.89700
C  1.12500 7.44200 22.30900
C  -1.38600 10.24600 23.33200
C  -2.01400 10.38800 21.90100
N  1.26900 10.45800 27.61000
C  1.43300 11.44600 26.61600
C  1.77300 12.69700 27.21100
C  1.85600 12.50800 28.54300
C  1.55300 11.10400 28.77000
C  1.79400 13.81900 26.35100
C  2.06800 13.16500 29.81400
O  2.24000 14.36800 30.09000
C  1.78900 12.04900 30.89500
C  2.88300 12.12400 31.90900
O  4.06800 12.00400 31.68700
O  2.31900 12.39600 33.13200
C  3.24900 12.58200 34.29500
H  0.70300 5.15800 30.76600
H  -0.18100 5.62700 24.35700
H  0.78200 11.94500 24.63900
H  2.47000 9.32300 32.67300
H  1.10900 6.86300 32.68700
H  3.79000 7.53600 32.20800
H  3.33300 6.20600 31.04700
H  3.28600 6.09900 32.77000
H  -0.45200 8.55100 32.86600
H  -0.27600 10.16100 32.65700
H  0.26800 10.54200 34.74100
H  1.51500 9.35300 34.85900
H  -1.71500 2.93200 29.24800
H  -0.46400 3.59400 30.24500
H  0.04600 2.36300 29.18100
H  -2.10900 2.10300 27.02100
H  -0.23500 1.76800 27.01000
H  -1.26200 1.25300 25.74900
H  -0.90600 7.79500 22.99700
H  0.70600 10.02000 22.64600
H  1.94000 8.14500 22.13400
H  0.70300 7.20600 21.33200
H  1.39800 6.49800 22.78000
H  -1.42700 11.22400 23.81300
H  -2.06300 9.51400 23.77300
H  -1.31000 10.13100 21.11000
H  -2.36500 11.41500 21.79400
H  -2.91300 9.77400 21.84000
H  0.76900 14.11000 26.12100
H  2.46100 13.62900 25.51000
H  2.20700 14.68700 26.86500
H  0.82000 12.22600 31.36100
H  3.70200 13.56500 34.16700
H  3.98400 11.78200 34.38200
H  2.65500 12.45900 35.20100
Mg 50.49200 46.87600 42.02600
C  47.38900 47.59100 40.61800
C  50.10700 43.63100 40.75500
C  53.76700 46.53000 42.39200
C  50.79400 50.36800 42.83900
N  48.97300 45.83400 40.67900
C  47.76700 46.25800 40.42600
C  46.87600 45.16500 39.82100
C  47.57900 43.81500 40.13900
C  48.99200 44.46900 40.58300
C  46.98600 42.88900 41.26500
C  46.57400 45.44200 38.24900
C  45.10800 45.22000 37.81300
H  44.96200 44.14300 36.73600
N  51.74300 45.34500 41.48200
C  51.38200 44.10000 41.03400
C  52.56200 43.26600 41.05300
C  53.63900 44.11500 41.47700
C  53.03900 45.37800 41.82100
C  52.60100 41.74900 40.54800
C  55.09200 43.60000 41.67500
O  55.33000 42.40500 41.52000
C  56.22600 44.49500 41.93800
N  52.10200 48.36000 42.51700
C  53.36700 47.83700 42.74500
C  54.27400 48.85200 43.37300
C  53.31600 50.13100 43.43700
C  51.97500 49.61700 42.95500
C  54.93500 48.53100 44.71800
C  53.90100 51.42500 42.76500
C  54.23300 52.60900 43.69500
N  49.23600 48.57900 42.09500
C  49.52600 49.88700 42.36200
C  48.40200 50.70600 42.01600
C  47.55500 49.81800 41.36700
C  48.09600 48.56100 41.41200
C  48.26500 52.15900 42.23200
C  46.21900 49.73200 40.74100
O  45.41600 50.68800 40.44200
C  46.10200 48.31600 40.18300
C  44.83000 47.75900 40.73000
O  44.65700 47.43200 41.89800
O  43.87500 47.80500 39.67900
C  42.48300 47.50600 40.11000
H  49.97200 42.56700 40.55100
H  54.75100 46.32100 42.81600
H  50.80500 51.39500 43.21000
H  45.93400 45.20300 40.36800
H  47.87600 43.35600 39.19600
H  46.47300 43.50600 42.00300
H  47.74500 42.27100 41.74400
H  46.30700 42.19600 40.76700
H  47.17900 44.76500 37.64700
H  46.92000 46.40300 37.86800
H  44.79000 46.19600 37.44600
H  44.38400 45.01400 38.60100
H  53.21000 41.08100 41.15600
H  52.97500 41.71400 39.52400
H  51.63000 41.25800 40.60900
H  56.41600 44.67200 42.99600
H  56.12700 45.43600 41.39700
H  57.09900 43.99900 41.51300
H  55.06300 49.07300 42.65400
H  53.21500 50.32900 44.50400
H  54.45800 47.82500 45.39800
H  54.86000 49.42200 45.34000
H  55.98500 48.24700 44.64000
H  53.19200 51.76600 42.01100
H  54.81200 51.25900 42.19100
H  55.22000 53.03100 43.50600
H  53.96400 52.31500 44.71000
H  53.61800 53.46900 43.43100
H  48.42900 52.69200 41.29500
H  48.99700 52.41400 42.99900
H  47.27700 52.34200 42.65300
H  46.11300 48.38500 39.09500
H  42.14700 48.22100 40.86100
H  42.25600 46.53600 40.55300
H  41.76000 47.54100 39.29400

