158

Mg 25.70400 -0.12900 29.20000
C  27.50200 -0.15800 32.23100
C  22.87400 0.45900 30.82700
C  24.21900 -0.00600 26.20100
C  28.64700 -1.23900 27.60300
N  25.30700 0.18400 31.25400
C  26.13400 0.27500 32.34400
C  25.39500 0.58100 33.64700
C  24.02400 0.79100 33.12400
C  23.99700 0.40300 31.64300
C  23.03500 0.02300 33.96400
C  26.03500 1.78600 34.43300
C  26.92800 1.70100 35.74800
H  26.48600 2.61800 36.84900
N  23.79200 0.17800 28.53000
C  22.69600 0.37400 29.41300
C  21.49100 0.50000 28.59500
C  21.89300 0.40900 27.22100
C  23.33900 0.15300 27.27400
C  20.12400 0.67900 29.22700
C  21.13100 0.35500 25.92300
O  21.59400 0.15700 24.77300
C  19.73400 0.60500 26.14900
N  26.30500 -0.85400 27.27500
C  25.49400 -0.51400 26.19400
C  26.21900 -0.68600 24.91000
C  27.63500 -1.14000 25.36600
C  27.51300 -1.07900 26.83400
C  25.56900 -1.55900 23.90600
C  28.81200 -0.26700 24.81600
C  29.02000 1.07400 25.37700
N  27.70100 -0.60500 29.73800
C  28.79300 -1.03200 29.02000
C  29.99700 -1.13300 29.82700
C  29.45500 -0.86700 31.14400
C  28.09300 -0.55600 31.01900
C  31.40500 -1.44800 29.28400
C  29.83400 -0.85500 32.53000
O  30.88600 -1.17100 33.08000
C  28.55600 -0.27000 33.26900
C  28.21000 -1.22400 34.30100
O  27.40600 -2.13700 34.18400
O  29.01300 -1.08100 35.44200
C  28.86300 -2.10700 36.44100
H  21.98200 0.70600 31.40600
H  23.79500 0.06500 25.19800
H  29.61400 -1.59400 27.24000
H  25.59400 -0.27000 34.29800
H  23.80800 1.85800 33.18100
H  23.20600 0.13400 35.03500
H  23.04000 -1.05800 33.82800
H  22.01200 0.35900 33.79200
H  25.26100 2.54300 34.56800
H  26.75300 2.20800 33.73000
H  27.93300 2.04700 35.50700
H  26.88600 0.64000 35.99500
H  19.89300 1.74400 29.25700
H  20.06600 0.26100 30.23200
H  19.35700 0.09700 28.71700
H  19.30000 -0.33400 26.49200
H  19.42000 0.86500 25.13800
H  19.57000 1.38700 26.89000
H  26.28700 0.26900 24.38800
H  27.89000 -2.14800 25.03900
H  25.16500 -2.39200 24.48200
H  26.17800 -1.89500 23.06700
H  24.72700 -0.97500 23.53400
H  28.55000 -0.10900 23.76900
H  29.74300 -0.83000 24.76100
H  29.80100 1.06300 26.13800
H  28.05200 1.42800 25.72900
H  29.09300 1.74100 24.51800
H  31.57300 -0.50600 28.76100
H  31.42800 -2.39000 28.73600
H  32.16600 -1.56300 30.05600
H  28.81300 0.65400 33.78900
H  29.78700 -2.24700 37.00200
H  28.58700 -3.04500 35.96100
H  28.09000 -1.79400 37.14300
Mg 30.04400 58.90700 40.76400
C  27.34100 56.90200 39.67200
C  32.12100 56.36500 39.66600
C  32.81400 60.92100 40.75200
C  27.94400 61.54500 41.16100
N  29.71400 56.92900 39.75000
C  28.56400 56.32400 39.38500
C  28.79700 55.17000 38.42000
C  30.23600 54.78300 38.80200
C  30.73900 56.10600 39.47900
C  30.26000 53.56300 39.70500
C  28.56100 55.54100 36.92500
C  27.36800 55.08100 36.17100
H  26.62000 56.05200 35.30700
N  32.20100 58.56000 40.42500
C  32.83100 57.49200 39.97700
C  34.31200 57.62000 39.90000
C  34.53000 58.97500 40.28800
C  33.12600 59.57100 40.44200
C  35.30700 56.61200 39.26900
C  35.85100 59.74200 40.54600
O  36.90300 59.10600 40.51800
C  35.94400 61.12300 41.17600
N  30.33800 60.94700 40.90700
C  31.55100 61.52900 41.04500
C  31.43700 63.03700 41.34100
C  29.93000 63.18600 41.46300
C  29.33000 61.83700 41.17000
C  32.31500 63.58500 42.44800
C  29.24400 64.31700 40.55900
C  30.00900 65.60000 40.33000
N  28.06300 59.17200 40.71400
C  27.31400 60.29500 40.95100
C  25.86900 59.88800 40.91800
C  25.88000 58.57100 40.41400
C  27.20100 58.20300 40.24500
C  24.69300 60.82600 41.15100
C  25.02200 57.59100 39.93900
O  23.77900 57.63500 39.96700
C  25.93800 56.37700 39.45600
C  25.53300 55.21300 40.21000
O  25.96400 54.92800 41.28500
O  24.55700 54.52300 39.50200
C  24.06100 53.31600 40.17100
H  32.78700 55.57400 39.31600
H  33.60900 61.66900 40.78600
H  27.28400 62.38700 41.37900
H  28.24300 54.28700 38.74200
H  30.92500 54.61000 37.97500
H  29.27600 53.28700 40.08200
H  30.91700 53.74200 40.55600
H  30.54100 52.70000 39.10100
H  29.48300 55.25800 36.41600
H  28.62300 56.62500 36.83400
H  26.71700 54.56400 36.87600
H  27.71100 54.37500 35.41500
H  36.25100 56.99000 38.87700
H  34.88100 56.21100 38.35000
H  35.41100 55.71000 39.87100
H  35.28700 61.15000 42.04500
H  35.50800 61.83100 40.47100
H  37.00000 61.23600 41.42300
H  31.64300 63.50600 40.37900
H  29.63000 63.43300 42.48200
H  32.96700 62.81000 42.85100
H  31.76800 63.99900 43.29600
H  32.88000 64.41000 42.01400
H  28.21000 64.47400 40.86600
H  29.04500 63.85500 39.59200
H  29.26200 66.38600 40.44200
H  30.44100 65.70300 39.33400
H  30.70900 65.72200 41.15700
H  24.51200 61.24400 40.16100
H  25.09800 61.47400 41.92900
H  23.87800 60.22600 41.55700
H  25.61700 56.17400 38.43400
H  24.06400 53.21500 41.25600
H  24.63100 52.42200 39.91500
H  23.05600 53.13300 39.79100

