158

Mg 35.85000 1.42900 30.19200
C  33.54400 2.53600 32.63400
C  38.04700 0.83300 32.66700
C  37.95600 0.86400 27.81100
C  33.28600 2.05700 27.79700
N  35.75500 1.77300 32.40400
C  34.70600 2.11300 33.20700
C  35.14400 2.05400 34.70700
C  36.71900 1.78800 34.61700
C  36.83300 1.34500 33.13000
C  37.62000 3.07300 34.90300
C  34.26400 1.07300 35.53000
C  33.86200 1.51600 36.93200
H  34.60800 2.72700 37.50100
N  37.77600 0.87700 30.21500
C  38.55700 0.62600 31.33800
C  39.86200 0.26300 30.91200
C  39.98100 0.39700 29.48300
C  38.53900 0.72400 29.12600
C  40.95200 -0.09900 32.04200
C  41.12700 0.07200 28.53800
O  40.93200 0.25000 27.32200
C  42.48400 -0.25600 29.11600
N  35.56900 1.25900 28.10800
C  36.68000 1.21000 27.35100
C  36.38200 1.27500 25.78900
C  34.80600 1.50200 25.78600
C  34.50500 1.60200 27.31900
C  37.20200 2.32900 24.95800
C  33.89000 0.35900 25.20800
C  32.91200 0.66300 24.08300
N  33.75600 2.12400 30.14800
C  32.85700 2.22300 29.11300
C  31.51600 2.65800 29.61500
C  31.78200 2.85800 31.00900
C  33.16900 2.56800 31.28300
C  30.22500 2.77700 28.88800
C  31.16800 3.24900 32.26200
O  30.01900 3.65000 32.47800
C  32.23200 2.98800 33.32600
C  32.49400 4.26800 34.12100
O  33.27400 5.15600 33.81800
O  31.67100 4.20400 35.21800
C  31.82500 5.38700 36.02900
H  38.74300 0.47200 33.42700
H  38.67000 0.78000 26.98900
H  32.59200 2.44900 27.05100
H  34.94100 3.08300 35.00500
H  37.09300 0.89100 35.11000
H  38.32700 3.27900 34.09900
H  38.21600 2.80100 35.77400
H  37.06200 3.98500 35.11300
H  34.82400 0.15600 35.71400
H  33.39500 0.76700 34.94700
H  34.08000 0.65900 37.57000
H  32.78000 1.61200 36.83800
H  41.78800 0.60000 32.07300
H  41.48100 -0.97000 31.65600
H  40.53800 -0.32600 33.02400
H  43.24200 -0.31100 28.33500
H  42.43000 -1.25300 29.55400
H  42.70000 0.46600 29.90400
H  36.59500 0.27400 25.41500
H  34.65000 2.45400 25.27800
H  37.52500 1.85800 24.03000
H  38.07400 2.52600 25.58200
H  36.66200 3.23800 24.69100
H  33.42300 -0.18300 26.03000
H  34.63100 -0.33300 24.80800
H  31.93000 0.24600 24.30800
H  33.10200 0.17400 23.12800
H  32.88600 1.73300 23.87900
H  29.48900 2.31900 29.54900
H  30.27400 2.11900 28.02100
H  29.90200 3.76000 28.54400
H  31.78200 2.28900 34.03100
H  31.25000 6.27300 35.75700
H  32.80900 5.85400 36.07800
H  31.56600 5.06600 37.03800
Mg 30.12700 58.90300 38.56300
C  27.24100 57.05100 37.76800
C  32.05000 56.28700 37.64800
C  32.88700 60.95100 38.52100
C  28.01900 61.76600 38.85100
N  29.63100 57.04400 37.64500
C  28.41000 56.37000 37.47400
C  28.52400 54.96000 37.04300
C  30.09000 54.68300 37.36700
C  30.65700 56.11000 37.60100
C  30.39900 53.77000 38.56500
C  28.24200 54.78700 35.49800
C  26.87500 54.17900 35.05400
H  26.18100 55.06100 33.94200
N  32.21000 58.59900 38.30700
C  32.78000 57.46800 37.93400
C  34.24500 57.63300 37.88000
C  34.46000 58.97100 38.24700
C  33.16000 59.54700 38.39400
C  35.19900 56.55400 37.50000
C  35.81300 59.62100 38.50100
O  36.91900 59.08200 38.24400
C  35.92400 60.86800 39.22900
N  30.40600 61.01400 38.63800
C  31.63700 61.60900 38.56500
C  31.45700 63.11800 38.67300
C  29.93500 63.37900 38.87100
C  29.40600 61.95200 38.68800
C  32.44300 63.95500 39.59000
C  29.40200 64.42900 37.81600
C  28.45000 65.49400 38.32900
N  28.09000 59.39200 38.36900
C  27.38700 60.55600 38.66400
C  25.93700 60.35800 38.53700
C  25.83100 59.00600 38.18400
C  27.14200 58.46300 38.14300
C  24.86300 61.42700 38.75200
C  24.94200 57.90400 37.97500
O  23.69800 57.86300 38.06800
C  25.75000 56.64300 37.57700
C  25.30100 55.61000 38.44400
O  25.76100 55.44000 39.56900
O  24.33500 54.80300 37.87600
C  23.66300 53.85900 38.73500
H  32.66400 55.38500 37.60200
H  33.68800 61.65900 38.30000
H  27.35300 62.58100 39.14100
H  27.92700 54.35300 37.72400
H  30.55500 54.19600 36.51000
H  31.09400 52.94400 38.40900
H  29.52900 53.13800 38.74600
H  30.62800 54.17000 39.55200
H  29.02200 54.24700 34.96100
H  28.47000 55.79400 35.14700
H  26.34200 53.90600 35.96500
H  27.15200 53.20800 34.64200
H  35.97000 56.59400 38.27000
H  35.69000 56.90100 36.59000
H  34.75000 55.56600 37.40000
H  36.92700 61.13400 39.56400
H  35.17100 60.99300 40.00700
H  35.63400 61.60000 38.47500
H  31.78300 63.42700 37.67900
H  29.68000 63.69200 39.88400
H  31.83300 64.24500 40.44600
H  32.92400 64.82000 39.13300
H  33.19200 63.21800 39.87900
H  28.88300 64.05100 36.93600
H  30.30400 64.96800 37.52600
H  28.90600 66.42600 38.66300
H  27.85900 65.18400 39.19100
H  27.65700 65.83300 37.66300
H  23.95900 61.04900 38.27500
H  25.06800 62.44700 38.42700
H  24.80100 61.41400 39.84000
H  25.62400 56.37700 36.52800
H  23.27000 54.40000 39.59600
H  24.30700 53.08700 39.15600
H  22.96800 53.26500 38.14200

