158

Mg 47.53300 45.32900 43.60800
C  44.43600 45.97500 42.19100
C  47.42400 42.23600 41.91400
C  50.85600 44.91200 44.12300
C  47.94300 48.77000 44.06200
N  46.09300 44.16500 42.22500
C  44.78500 44.64000 41.98000
C  43.99600 43.63800 41.24900
C  44.88900 42.35300 41.17000
C  46.22800 42.92800 41.82000
C  44.32700 41.07600 41.91700
C  43.50000 44.02400 39.81900
C  42.16200 43.58600 39.39500
H  42.07500 42.54700 38.19600
N  48.92800 43.74400 43.24800
C  48.66200 42.53500 42.58300
C  49.70500 41.65500 42.82700
C  50.71400 42.36500 43.58000
C  50.22000 43.78200 43.62100
C  49.72200 40.21200 42.41200
C  51.92300 41.79400 44.18600
O  52.13400 40.58200 44.05600
C  52.92200 42.62200 45.10800
N  49.19100 46.70700 43.79800
C  50.39200 46.21700 44.25700
C  51.36100 47.33200 44.70500
C  50.41000 48.64500 44.68600
C  49.14400 48.03000 44.11300
C  52.13200 47.05800 45.97900
C  51.03900 49.76200 43.81900
C  52.34300 50.39900 44.48800
N  46.38100 46.96200 43.54900
C  46.64800 48.34100 43.76700
C  45.34800 49.06800 43.65200
C  44.52500 48.13700 43.05200
C  45.18300 46.93000 42.89900
C  45.07900 50.54000 43.94100
C  43.21300 47.98600 42.51000
O  42.36400 48.80700 42.44700
C  43.07400 46.61600 41.79000
C  41.90800 45.88200 42.46600
O  41.88200 45.25100 43.53700
O  40.81300 45.95500 41.66200
C  39.59900 45.28300 42.30000
H  47.31700 41.23300 41.49500
H  51.89300 44.74400 44.42100
H  48.03500 49.82500 44.33000
H  43.10900 43.40800 41.83900
H  45.12700 42.16200 40.12400
H  44.77200 40.26800 41.33700
H  43.24900 40.96500 41.80200
H  44.78000 41.03800 42.90800
H  44.20000 43.83800 39.00400
H  43.45700 45.11300 39.81100
H  41.46700 44.40600 39.21400
H  41.78000 43.01000 40.23800
H  50.69700 39.86300 42.07200
H  49.16400 40.11800 41.48000
H  49.28900 39.56300 43.17200
H  52.40100 43.29600 45.78800
H  53.60000 43.16300 44.44900
H  53.47000 41.98900 45.80700
H  52.16400 47.44500 43.97800
H  50.24400 48.86100 45.74200
H  53.17000 46.98100 45.65400
H  51.74300 46.15000 46.44000
H  51.96400 47.88900 46.66400
H  50.33500 50.59000 43.73900
H  51.31800 49.34600 42.85100
H  53.20100 49.92300 44.01400
H  52.43500 50.12600 45.53900
H  52.21600 51.47400 44.35700
H  44.06500 50.90800 43.78600
H  45.64200 50.88400 43.07400
H  45.45700 50.92500 44.88800
H  42.83200 46.75600 40.73600
H  39.83200 44.22100 42.38500
H  38.84100 45.21700 41.52000
H  39.15200 45.71900 43.19400
Mg 6.28800 54.28200 39.50000
C  5.83800 50.99300 39.47000
C  9.50600 53.91200 38.40400
C  6.31400 57.60200 38.67100
C  2.74700 54.86100 40.18500
N  7.51800 52.58400 38.73300
C  7.16500 51.29000 38.98900
C  8.31200 50.31700 38.63100
C  9.51100 51.35300 38.81000
C  8.84700 52.73200 38.68800
C  10.34400 51.37500 40.08700
C  8.17400 49.71400 37.22200
C  7.78200 50.59600 35.99000
H  6.30300 50.65900 35.38000
N  7.69400 55.57600 38.61000
C  8.95700 55.24800 38.26000
C  9.61000 56.37200 37.64000
C  8.63100 57.40400 37.65800
C  7.51600 56.90900 38.35900
C  11.05000 56.52100 37.29900
C  8.85500 58.76000 37.15000
O  9.94900 59.07400 36.70600
C  7.85000 59.95700 37.24600
N  4.60300 56.04500 39.41500
C  5.01600 57.28600 39.10100
C  3.98600 58.34700 39.41000
C  2.79100 57.40500 39.83500
C  3.35800 56.01100 39.80500
C  4.42200 59.33000 40.50200
C  1.44000 57.55300 39.06000
C  0.75700 58.91200 39.16000
N  4.66600 53.23600 39.94900
C  3.32100 53.55700 40.19300
C  2.62600 52.29800 40.48500
C  3.54800 51.27700 40.22400
C  4.76000 51.91800 39.82600
C  1.22900 52.05700 40.90400
C  3.69000 49.77700 40.24700
O  2.92100 48.85200 40.50500
C  5.20900 49.61700 39.74400
C  4.95400 48.75800 38.54300
O  4.52600 49.04400 37.43600
O  5.24000 47.53600 38.94300
C  4.60900 46.37100 38.21800
H  10.54700 53.66500 38.18100
H  6.39300 58.68800 38.59200
H  1.66900 54.86400 40.35900
H  8.36700 49.44900 39.28900
H  10.07500 51.08800 37.91600
H  11.38600 51.49900 39.79400
H  10.15600 50.47600 40.67400
H  10.08400 52.22900 40.71300
H  7.34800 49.00200 37.18500
H  9.12900 49.23800 37.00300
H  8.47700 50.34700 35.18800
H  7.95200 51.65400 36.18800
H  11.20100 56.77400 36.25000
H  11.63100 55.64000 37.57100
H  11.48500 57.39700 37.77900
H  6.92700 59.53000 36.85300
H  8.22400 60.60900 36.45700
H  7.74700 60.48300 38.19600
H  3.69600 58.93200 38.53800
H  2.49200 57.60200 40.86400
H  3.71500 60.09000 40.83400
H  5.31600 59.88800 40.22200
H  4.76600 58.81700 41.40100
H  0.81300 56.82700 39.57800
H  1.59200 57.30900 38.00900
H  1.35600 59.74300 39.53200
H  -0.07600 58.72200 39.83800
H  0.41500 59.24500 38.18000
H  0.70900 53.01400 40.88000
H  1.28200 51.51300 41.84700
H  0.82400 51.27300 40.26500
H  5.77700 49.13400 40.53900
H  5.20900 45.46200 38.27400
H  4.43800 46.42000 37.14300
H  3.63000 46.11000 38.62000

