158

Mg -1.82100 17.43800 26.72500
C  -2.10300 14.92600 29.20500
C  -2.44600 19.90100 28.93400
C  -1.86900 19.66200 24.07900
C  -1.92900 14.86200 24.39200
N  -2.13500 17.35300 28.89600
C  -2.23500 16.25700 29.74400
C  -2.45600 16.72300 31.22000
C  -2.63100 18.33500 31.01900
C  -2.46100 18.58000 29.49800
C  -4.08000 18.75600 31.49000
C  -1.48100 16.11500 32.27400
C  -1.28100 16.85100 33.64100
H  -1.55100 16.00900 34.94900
N  -2.02800 19.48300 26.51000
C  -2.21200 20.36400 27.60500
C  -2.19800 21.76600 27.09700
C  -2.11000 21.66500 25.69000
C  -1.98800 20.23100 25.37400
C  -2.39600 22.95000 28.00100
C  -2.19600 22.75300 24.69200
O  -1.89200 22.64900 23.49800
C  -2.60600 24.10900 25.04700
N  -1.88400 17.24400 24.55800
C  -1.81200 18.29600 23.65800
C  -1.68600 17.79800 22.15100
C  -1.72300 16.30800 22.30200
C  -1.83500 16.10800 23.83400
C  -2.78300 18.28200 21.14800
C  -0.45400 15.64900 21.62400
C  0.81400 15.25100 22.49500
N  -1.91600 15.38200 26.73500
C  -1.83400 14.48000 25.71000
C  -1.86500 13.11600 26.16000
C  -2.02800 13.25400 27.55600
C  -2.00600 14.65800 27.82200
C  -1.85300 11.90200 25.26700
C  -2.11200 12.53300 28.81700
O  -2.10200 11.34500 29.06100
C  -2.24100 13.64700 29.91000
C  -1.25500 13.32200 31.01400
O  -0.10100 13.72100 31.05200
O  -1.85500 12.55900 31.99200
C  -1.24000 12.31200 33.25400
H  -2.32500 20.64000 29.72900
H  -1.77700 20.40300 23.28200
H  -2.03700 14.10500 23.61300
H  -3.37700 16.17300 31.41200
H  -1.79800 18.73600 31.59700
H  -3.84400 19.40400 32.33400
H  -4.76600 17.94100 31.72000
H  -4.56100 19.34800 30.71100
H  -0.49000 16.04200 31.82500
H  -1.74000 15.09000 32.54000
H  -1.98700 17.68000 33.68000
H  -0.35100 17.41600 33.69800
H  -3.44100 23.25600 27.97600
H  -1.84200 23.86000 27.76900
H  -2.29800 22.62500 29.03700
H  -3.46000 24.13900 25.72300
H  -2.97700 24.46300 24.08500
H  -1.73000 24.73600 25.21300
H  -0.70400 18.02400 21.73500
H  -2.65400 15.97600 21.84100
H  -3.16800 19.25900 21.44200
H  -3.68400 17.67300 21.21000
H  -2.37700 18.39600 20.14300
H  -0.06800 16.15200 20.73800
H  -0.87000 14.67900 21.35300
H  0.96100 16.02300 23.25000
H  1.76400 15.23000 21.96100
H  0.61000 14.28100 22.94900
H  -1.03600 12.03500 24.55700
H  -2.67900 11.79400 24.56400
H  -1.67000 10.91400 25.69100
H  -3.23400 13.49400 30.33200
H  -0.95000 11.26300 33.19100
H  -1.82100 12.44000 34.16700
H  -0.32500 12.87500 33.43900
Mg -11.69900 39.05800 41.79800
C  -9.92000 36.25900 40.64500
C  -9.32700 41.06100 40.50000
C  -13.77200 41.67000 42.45400
C  -14.26300 36.78200 42.71600
N  -10.01300 38.66000 40.47100
C  -9.41100 37.48200 40.18400
C  -8.11700 37.71900 39.36800
C  -7.82800 39.21400 39.59300
C  -9.12600 39.66600 40.26500
C  -6.50100 39.61300 40.21200
C  -8.20800 37.06700 37.96200
C  -6.96700 36.13600 37.65600
H  -6.08000 36.55600 36.58000
N  -11.49100 41.10100 41.59500
C  -10.43300 41.71100 41.05200
C  -10.61900 43.14700 41.27500
C  -11.87000 43.39000 41.87000
C  -12.49900 41.99900 41.97900
C  -9.56600 44.09400 40.81500
C  -12.35000 44.71100 42.30500
O  -11.67500 45.71000 41.97500
C  -13.58600 45.02000 42.99900
N  -13.79900 39.16900 42.20100
C  -14.38300 40.39200 42.50200
C  -15.79500 40.16000 43.01000
C  -16.03400 38.62200 42.74000
C  -14.60200 38.11700 42.52000
C  -16.18400 40.64600 44.46900
C  -17.00100 38.23200 41.62000
C  -18.10100 37.32500 42.09600
N  -12.16900 36.87400 41.65900
C  -13.09100 36.16200 42.32300
C  -12.73200 34.76400 42.34300
C  -11.54000 34.70200 41.64300
C  -11.15600 36.03000 41.28700
C  -13.48700 33.62500 43.04500
C  -10.45900 33.82100 41.14000
O  -10.34500 32.63200 41.12700
C  -9.43400 34.82100 40.36000
C  -8.13600 34.56200 40.99600
O  -7.80200 34.99900 42.11700
O  -7.34700 33.78700 40.10400
C  -6.07000 33.38100 40.60800
H  -8.42400 41.62400 40.25400
H  -14.36300 42.55100 42.71500
H  -14.84000 36.03000 43.25800
H  -7.42600 37.08300 39.92200
H  -7.82400 39.83400 38.69600
H  -6.61200 40.21000 41.11700
H  -5.96500 40.27600 39.53300
H  -5.89000 38.75500 40.49400
H  -8.24300 37.77600 37.13500
H  -9.13700 36.50500 38.06100
H  -7.41300 35.14500 37.57100
H  -6.39400 35.99400 38.57200
H  -8.59100 43.72400 41.13200
H  -9.73100 45.14800 41.03900
H  -9.65500 44.17500 39.73100
H  -14.45300 44.53900 42.54700
H  -13.92500 46.05600 43.00300
H  -13.54300 44.62800 44.01600
H  -16.48100 40.64700 42.31700
H  -16.45300 38.31600 43.69900
H  -15.33700 41.13400 44.95100
H  -16.56400 39.77100 44.99700
H  -17.00400 41.36300 44.42300
H  -16.43500 37.66600 40.88000
H  -17.51000 39.13500 41.28300
H  -19.03900 37.76600 42.43500
H  -17.74500 36.70400 42.91800
H  -18.34500 36.80100 41.17200
H  -13.01300 32.64600 42.96700
H  -14.51900 33.56100 42.69900
H  -13.48900 33.85300 44.11100
H  -9.51000 34.48000 39.32700
H  -5.75600 34.03700 41.41900
H  -5.28800 33.35500 39.84900
H  -6.22700 32.37500 40.99600

