158

Mg 43.67800 5.36900 46.95800
C  41.81500 8.15200 45.90100
C  40.93800 3.34100 46.55000
C  45.73300 2.70800 47.28100
C  46.55800 7.46000 46.74900
N  41.61800 5.66300 46.14000
C  41.06900 6.96500 45.98400
C  39.58000 6.75500 45.65900
C  39.22900 5.32800 46.15300
C  40.65100 4.70900 46.27500
C  38.26400 5.21500 47.38800
C  39.15500 7.00600 44.21200
C  38.26900 8.15200 43.89200
H  38.72400 9.11100 42.66900
N  43.38300 3.22500 46.97700
C  42.12500 2.63000 46.82900
C  42.41900 1.23500 46.81300
C  43.77400 1.01400 47.07200
C  44.38900 2.32100 47.10600
C  41.40700 0.15300 46.64800
C  44.46900 -0.39300 47.09300
O  43.78400 -1.45100 47.00800
C  45.89000 -0.41600 47.22400
N  45.87300 5.11400 46.77100
C  46.43700 3.90400 47.10300
C  47.98100 3.92300 47.17700
C  48.24100 5.47400 47.19600
C  46.85700 6.16100 46.86500
C  48.65400 3.22400 48.38100
C  49.31200 6.00300 46.15600
C  50.07700 7.18900 46.77300
N  44.13200 7.32600 46.55700
C  45.30800 8.04700 46.56200
C  45.04200 9.42100 46.24100
C  43.65900 9.48700 46.04200
C  43.17200 8.20800 46.15900
C  45.96200 10.56500 46.30800
C  42.52200 10.32100 45.67300
O  42.55500 11.52600 45.48000
C  41.18200 9.51700 45.77900
C  40.40000 10.02100 46.89400
O  40.11400 9.39700 47.90300
O  39.80700 11.16700 46.61800
C  38.88100 11.61400 47.55100
H  40.04400 2.71400 46.51700
H  46.48000 1.92900 47.44400
H  47.46100 8.06900 46.66400
H  39.06700 7.45300 46.32100
H  38.89000 4.63300 45.38500
H  38.06500 6.19000 47.83400
H  38.85300 4.75800 48.18400
H  37.40600 4.57600 47.18000
H  38.60200 6.09900 43.96800
H  40.05200 7.13600 43.60800
H  38.14800 8.80600 44.75500
H  37.24600 7.83700 43.68300
H  41.51400 -0.53500 47.48600
H  41.54500 -0.34500 45.68800
H  40.43400 0.64500 46.64100
H  46.36800 0.13800 46.41600
H  46.25900 -1.43800 47.14400
H  46.08600 0.07400 48.17800
H  48.40600 3.46700 46.28300
H  48.37900 5.93100 48.17600
H  48.86100 2.18200 48.13800
H  47.92000 3.21500 49.18700
H  49.60800 3.65900 48.67700
H  48.75900 6.33500 45.27800
H  49.97200 5.16200 45.94300
H  50.20800 8.04500 46.11100
H  51.07400 6.85000 47.05200
H  49.71000 7.62100 47.70400
H  46.93800 10.22000 46.65000
H  45.66800 11.23700 47.11500
H  46.25300 11.00800 45.35600
H  40.68600 9.66300 44.81900
H  38.71200 12.67600 47.37500
H  39.11700 11.64700 48.61400
H  38.00600 10.96500 47.49800
Mg 48.95500 35.48000 27.25200
C  47.09700 33.97000 29.73600
C  49.38200 38.25700 29.39100
C  50.34800 37.20600 24.72200
C  47.94400 33.04300 24.86700
N  48.27400 36.09000 29.27700
C  47.69800 35.17100 30.14200
C  47.84200 35.59800 31.62300
C  48.22900 37.13700 31.44100
C  48.68900 37.24800 29.96900
C  46.96600 38.02800 31.68000
C  49.01600 34.90400 32.37600
C  48.91300 34.89500 33.93000
H  48.03900 36.03000 34.47900
N  49.85000 37.39400 27.10600
C  49.90500 38.37900 28.10700
C  50.73400 39.48900 27.66000
C  51.15700 39.18600 26.30300
C  50.47000 37.86200 26.00800
C  50.98400 40.75600 28.43500
C  52.12500 39.95800 25.38600
O  52.46300 39.50400 24.29100
C  52.67600 41.32400 25.73600
N  49.08200 35.19700 25.08500
C  49.74900 36.05300 24.24200
C  49.67000 35.69900 22.80500
C  49.14700 34.23800 22.92100
C  48.59800 34.13100 24.36900
C  48.85300 36.59400 21.93600
C  50.24100 33.21900 22.52700
C  50.08200 32.25200 21.40100
N  47.83900 33.83400 27.25100
C  47.59900 32.85500 26.21500
C  46.75100 31.83300 26.80400
C  46.50300 32.23800 28.18300
C  47.19600 33.49400 28.37100
C  46.36100 30.50700 26.13700
C  45.84100 31.86800 29.40100
O  45.20100 30.82300 29.62900
C  45.97100 33.11900 30.31700
C  46.16000 32.71400 31.74800
O  47.22400 32.30200 32.24500
O  45.01000 32.93000 32.46200
C  45.09200 33.01800 33.96200
H  49.60800 39.07000 30.08500
H  50.73800 37.67600 23.81700
H  47.68100 32.30400 24.10700
H  46.86600 35.54800 32.10400
H  49.06600 37.46800 32.05600
H  46.77200 38.43900 32.67100
H  46.12900 37.44800 31.29000
H  47.01400 38.86600 30.98500
H  49.98000 35.39100 32.22300
H  49.12100 33.89500 31.97800
H  49.94700 34.97100 34.26700
H  48.54100 33.92900 34.26900
H  51.07900 41.63300 27.79500
H  51.88500 40.87500 29.03600
H  50.11100 40.91900 29.06800
H  51.88000 42.01600 25.46100
H  53.60400 41.53700 25.20500
H  52.88500 41.32500 26.80600
H  50.65900 35.79200 22.35800
H  48.26300 34.08200 22.30200
H  48.03300 36.10000 21.41300
H  49.53300 36.91800 21.14800
H  48.38400 37.43500 22.44500
H  50.45500 32.67400 23.44600
H  51.11800 33.77900 22.20300
H  50.85800 32.26100 20.63600
H  49.14000 32.43500 20.88400
H  50.02500 31.25100 21.82900
H  45.35600 30.53900 25.71600
H  46.48900 29.65400 26.80400
H  47.01000 30.30500 25.28400
H  45.09500 33.75500 30.19300
H  46.04400 33.45700 34.25900
H  45.14700 32.02200 34.40000
H  44.20900 33.48200 34.40300

