158

Mg 1.66600 -2.00500 44.15900
C  5.02700 -1.69500 43.67300
C  1.30900 1.02700 42.35600
C  -1.62900 -2.53600 43.92800
C  2.11600 -5.16400 45.45400
N  3.01500 -0.55300 43.02700
C  4.38500 -0.63700 43.16100
C  5.03100 0.58300 42.45200
C  3.78200 1.62700 42.42700
C  2.57900 0.67600 42.65800
C  3.85400 2.66600 43.52300
C  5.73200 0.23600 41.07700
C  4.80700 0.15200 39.82900
H  4.82700 1.22700 38.76600
N  0.03900 -0.93300 43.34700
C  0.14500 0.29500 42.70400
C  -1.19900 0.73900 42.32400
C  -2.11000 -0.19100 42.74700
C  -1.27500 -1.28900 43.43100
C  -1.45900 2.15100 41.76700
C  -3.59100 -0.03800 42.69300
O  -4.09800 0.97300 42.21000
C  -4.50400 -1.07200 43.28900
N  0.43400 -3.79700 44.38000
C  -0.90800 -3.64200 44.40700
C  -1.56900 -4.94900 44.77100
C  -0.33000 -5.85600 45.20500
C  0.81500 -4.92800 44.91500
C  -2.70400 -4.94300 45.90900
C  -0.12000 -7.16600 44.37700
C  -1.38500 -8.03300 44.41400
N  3.24500 -3.20000 44.63200
C  3.34100 -4.40200 45.28900
C  4.74000 -4.65500 45.68100
C  5.45100 -3.59400 45.01500
C  4.52500 -2.78000 44.38700
C  5.22600 -5.89500 46.41400
C  6.76100 -3.07700 44.74000
O  7.91300 -3.42000 45.03200
C  6.49300 -1.83700 43.76800
C  7.14200 -0.70200 44.40800
O  6.76000 -0.03400 45.38200
O  8.20800 -0.30300 43.63300
C  8.63700 1.12700 43.73000
H  1.18800 1.95400 41.79100
H  -2.68100 -2.82200 43.97700
H  2.27400 -6.11200 45.97300
H  5.82800 1.03500 43.04300
H  3.64900 2.08700 41.44700
H  4.87500 2.76600 43.89000
H  3.16800 2.28800 44.28200
H  3.56700 3.65200 43.15800
H  6.09600 -0.78000 41.23200
H  6.59100 0.90700 41.06800
H  3.78800 0.17800 40.21600
H  5.08700 -0.78700 39.35100
H  -2.49600 2.47200 41.66600
H  -0.91300 2.30900 40.83700
H  -0.89200 2.72200 42.50200
H  -4.23100 -1.97400 42.74100
H  -5.58100 -0.98500 43.14800
H  -4.36900 -1.15900 44.36700
H  -2.00500 -5.43100 43.89600
H  -0.33800 -6.13000 46.26000
H  -3.67900 -5.19300 45.49200
H  -2.76500 -3.90300 46.22900
H  -2.64500 -5.52300 46.83000
H  0.70700 -7.70100 44.84300
H  0.24800 -6.93100 43.37900
H  -2.13400 -7.62800 45.09400
H  -1.13800 -9.00200 44.84800
H  -1.75500 -8.31300 43.42800
H  5.60700 -6.48400 45.58000
H  4.35600 -6.34700 46.88900
H  5.94800 -5.61500 47.18100
H  6.99700 -2.02800 42.82100
H  9.53400 1.24800 44.33800
H  7.87700 1.76100 44.18700
H  8.81600 1.48200 42.71600
Mg 53.47200 24.21000 44.47800
C  50.74100 26.21400 43.42800
C  51.90400 21.47600 43.12000
C  56.40700 22.57000 44.44700
C  54.96700 27.08900 45.67400
N  51.74100 23.97500 43.03300
C  50.68000 24.86400 42.92800
C  49.57100 24.24700 42.07500
C  49.75700 22.76700 42.43300
C  51.24900 22.72300 42.85100
C  48.87700 21.98300 43.34300
C  49.68400 24.61500 40.53500
C  48.39600 24.98500 39.74700
H  47.96500 24.12400 38.61200
N  54.05800 22.29300 43.90900
C  53.26300 21.29300 43.34600
C  53.93900 19.97500 43.32400
C  55.22900 20.33900 43.77300
C  55.28000 21.79000 44.11500
C  53.28700 18.68100 42.88000
C  56.34800 19.26200 43.89700
O  56.19000 18.19000 43.42300
C  57.73600 19.50400 44.48800
N  55.45200 24.76500 45.07500
C  56.44600 23.90400 44.87100
C  57.81500 24.70100 44.90900
C  57.34700 26.17000 45.15900
C  55.83500 26.05200 45.25500
C  58.86000 24.18100 45.96200
C  57.93600 27.18300 44.09100
C  58.25200 28.59600 44.60900
N  53.00000 26.22300 44.65300
C  53.66500 27.19200 45.34700
C  52.84200 28.41300 45.34700
C  51.65900 28.02800 44.65100
C  51.83200 26.71700 44.14000
C  53.16600 29.70300 45.93300
C  50.22400 28.44400 44.34500
O  49.62500 29.47700 44.57900
C  49.58200 27.21700 43.54200
C  49.14500 27.68500 42.25600
O  49.87300 27.95300 41.31500
O  47.77200 27.86000 42.25000
C  47.21100 28.42500 40.97200
H  51.26400 20.60000 42.99900
H  57.30900 22.00000 44.21600
H  55.32200 28.03900 46.07800
H  48.62500 24.58500 42.49700
H  49.65700 22.13800 41.54900
H  48.85200 20.92500 43.08200
H  47.89300 22.45100 43.31700
H  49.23900 22.11000 44.36300
H  50.12600 23.79400 39.97100
H  50.41500 25.39700 40.32600
H  48.50500 25.96400 39.28000
H  47.61200 25.04100 40.50300
H  52.56300 18.80400 42.07500
H  52.66300 18.23100 43.65300
H  53.95800 17.89300 42.53900
H  58.37300 20.16100 43.89600
H  58.26900 18.55500 44.42100
H  57.60500 19.72000 45.54900
H  58.24300 24.68100 43.90600
H  57.64800 26.55000 46.13500
H  58.38100 23.67300 46.79900
H  59.52200 24.99500 46.25900
H  59.66500 23.53800 45.60600
H  57.24600 27.26200 43.25100
H  58.85400 26.77200 43.67100
H  57.66900 29.28200 43.99400
H  59.30000 28.82200 44.41200
H  57.99000 28.68400 45.66300
H  53.27200 30.40000 45.10100
H  54.04300 29.61300 46.57300
H  52.37900 30.03000 46.61300
H  48.78800 26.83400 44.18300
H  47.09100 27.69400 40.17300
H  47.78500 29.29100 40.64000
H  46.16700 28.72300 41.06500

