158

Mg 40.46400 8.76100 29.02400
C  42.39900 10.04300 31.71400
C  38.63000 6.97300 31.24700
C  38.84600 7.45800 26.42100
C  42.88600 10.07800 26.88000
N  40.48300 8.62000 31.17300
C  41.29400 9.25800 32.05400
C  40.84900 9.03200 33.52800
C  39.81200 7.87800 33.35900
C  39.57300 7.85000 31.80500
C  40.16900 6.48900 34.05800
C  40.33100 10.30700 34.25800
C  39.80600 10.07300 35.68000
H  40.67700 10.50200 36.88500
N  38.93600 7.41300 28.88500
C  38.22200 6.79000 29.89800
C  37.14500 6.05800 29.30700
C  37.19600 6.19400 27.85300
C  38.29200 7.07900 27.68800
C  36.17100 5.31300 30.16900
C  36.22300 5.63600 26.70400
O  36.34600 5.93400 25.52300
C  35.27200 4.68000 27.10400
N  40.83800 8.78600 26.98700
C  40.01800 8.18900 26.08500
C  40.49100 8.28500 24.60100
C  41.79600 9.11900 24.79800
C  41.85500 9.39200 26.29700
C  40.78700 6.90700 23.91000
C  41.95500 10.34600 23.93100
C  41.23200 11.63000 24.33800
N  42.24900 9.82800 29.21000
C  43.07800 10.37600 28.26600
C  44.23000 10.97300 28.83100
C  43.95400 10.95600 30.17400
C  42.75600 10.22400 30.34900
C  45.41900 11.42200 28.02600
C  44.44900 11.38000 31.46500
O  45.40800 12.10600 31.79200
C  43.40500 10.90600 32.52600
C  44.12100 10.12600 33.53900
O  44.47100 8.94000 33.47700
O  44.35200 10.89700 34.64300
C  44.94500 10.13300 35.76000
H  37.96900 6.46000 31.94900
H  38.31000 7.00500 25.58400
H  43.67100 10.35000 26.17200
H  41.75800 8.76800 34.06800
H  38.84600 8.15800 33.78000
H  39.52500 6.54700 34.93500
H  41.22200 6.52900 34.33700
H  40.00400 5.64700 33.38500
H  39.49800 10.77000 33.72900
H  41.17600 10.99100 34.34400
H  39.69500 8.99800 35.81800
H  38.82000 10.52200 35.80000
H  35.13800 5.49300 29.87200
H  36.22800 5.63700 31.20800
H  36.28300 4.24900 29.95600
H  34.43400 5.14500 27.62400
H  35.75100 3.83700 27.60100
H  34.88300 4.32200 26.15100
H  39.71600 8.86400 24.09800
H  42.65400 8.47900 24.59100
H  40.55000 6.71700 22.86300
H  40.12900 6.11800 24.27200
H  41.82700 6.60200 24.03100
H  41.37600 10.11600 23.03700
H  43.01400 10.54300 23.76000
H  40.50500 11.98100 23.60600
H  41.83700 12.48200 24.64700
H  40.65100 11.38300 25.22700
H  45.21600 12.31900 27.44200
H  45.76500 10.61400 27.38200
H  46.33300 11.61600 28.58900
H  43.05900 11.78800 33.06600
H  45.75700 9.43200 35.56500
H  44.13100 9.47600 36.06600
H  45.20100 10.71400 36.64600
Mg 46.88000 16.49400 28.23100
C  44.96700 15.74800 31.04800
C  49.23000 17.87700 30.21100
C  48.57400 17.25000 25.46400
C  44.35500 14.96000 26.16600
N  47.11400 16.74500 30.35300
C  46.18000 16.38800 31.37600
C  46.69900 16.69100 32.79600
C  48.07600 17.40100 32.44300
C  48.19800 17.29600 30.90300
C  48.18200 18.84300 33.03200
C  46.94900 15.31300 33.49600
C  46.50700 15.27200 34.97500
H  46.39500 16.54900 35.73400
N  48.68800 17.41600 27.92300
C  49.47000 17.94200 28.87500
C  50.57000 18.71200 28.22900
C  50.33500 18.55600 26.81400
C  49.17000 17.71200 26.65400
C  51.72800 19.39100 28.94100
C  51.17300 19.15800 25.67100
O  50.88900 18.97600 24.49700
C  52.37000 20.02500 25.96300
N  46.50000 16.12300 26.02200
C  47.40300 16.60200 25.19600
C  46.84400 16.41200 23.75600
C  45.70000 15.33500 24.00600
C  45.49600 15.44100 25.51600
C  46.30400 17.76600 23.14300
C  46.16200 13.83500 23.67500
C  45.13600 12.98900 22.81600
N  45.01400 15.57500 28.45000
C  44.16000 15.02800 27.57500
C  42.98700 14.45200 28.38300
C  43.24200 14.81600 29.72700
C  44.50700 15.50800 29.69900
C  41.80800 13.66700 27.93800
C  42.80400 14.67500 31.08000
O  41.80000 14.09500 31.53800
C  43.85300 15.33700 31.98400
C  43.32800 16.56000 32.59500
O  43.34800 17.69800 32.19900
O  42.85800 16.24100 33.79200
C  42.55300 17.37400 34.69900
H  50.01400 18.37800 30.78300
H  49.07300 17.72900 24.61800
H  43.60700 14.43000 25.57100
H  45.96800 17.34000 33.27700
H  48.87700 16.76600 32.82000
H  48.06000 19.55300 32.21400
H  49.08400 19.10500 33.58500
H  47.33300 18.93700 33.70900
H  47.98500 14.98400 33.57100
H  46.51700 14.48600 32.93200
H  47.19300 14.63400 35.53300
H  45.45600 14.98200 34.96700
H  52.61600 18.89300 28.55000
H  51.68800 19.24200 30.02000
H  51.71500 20.46900 28.78000
H  52.80400 20.43100 25.05000
H  53.13100 19.33500 26.32600
H  52.17800 20.78300 26.72300
H  47.58200 15.87300 23.16200
H  44.78900 15.56100 23.45200
H  47.06400 18.16300 22.46900
H  46.07500 18.53400 23.88100
H  45.47000 17.62200 22.45700
H  46.08000 13.34400 24.64500
H  47.13700 13.79400 23.19100
H  44.46800 13.59900 22.20700
H  44.43900 12.44000 23.44900
H  45.66500 12.25800 22.20500
H  41.80400 13.78000 26.85400
H  40.91800 14.11900 28.37500
H  42.14700 12.67300 28.23200
H  44.10600 14.62700 32.77200
H  43.26900 18.19300 34.62700
H  42.71900 17.09700 35.74000
H  41.55600 17.80400 34.60200

