158

Mg 47.25900 35.72200 27.84100
C  45.37900 33.86500 30.37100
C  47.30300 38.29500 29.96900
C  48.48600 37.46100 25.43700
C  46.73700 32.89600 25.70500
N  46.53500 35.91900 29.97700
C  45.88200 35.02800 30.86700
C  45.95600 35.57700 32.31100
C  46.22700 37.10300 31.98900
C  46.81100 37.08900 30.53700
C  44.85600 37.85400 32.23700
C  47.05000 34.84200 33.13300
C  46.97600 34.77300 34.67100
H  46.00600 35.67100 35.41400
N  47.84100 37.66400 27.66500
C  47.81000 38.53700 28.64700
C  48.38600 39.79700 28.27800
C  48.90200 39.52300 26.94700
C  48.39000 38.15600 26.62200
C  48.51500 40.98900 29.21500
C  49.60700 40.33500 25.96900
O  49.90800 39.95600 24.87400
C  49.86600 41.76200 26.22300
N  47.53500 35.15900 25.83000
C  48.03500 36.12800 25.06800
C  48.41200 35.50200 23.70600
C  48.26700 33.98500 23.92900
C  47.36600 34.00300 25.15600
C  47.48300 35.99900 22.53700
C  49.60400 33.22500 24.27400
C  49.90500 31.86800 23.50300
N  46.20200 33.77600 27.91800
C  46.07200 32.77300 26.93600
C  45.43200 31.70200 27.50000
C  45.08700 32.07600 28.81900
C  45.59400 33.37300 29.05900
C  45.09300 30.34900 26.89700
C  44.48300 31.61900 30.04900
O  43.99700 30.56900 30.37000
C  44.46200 32.87700 31.04400
C  44.82300 32.30200 32.41900
O  45.77700 31.52500 32.66900
O  43.83700 32.66500 33.31900
C  43.87000 32.05700 34.63600
H  47.29800 39.16100 30.63400
H  48.87900 37.93100 24.53300
H  47.06100 32.02100 25.13700
H  45.02700 35.38100 32.84500
H  46.98800 37.45500 32.68600
H  44.91000 38.47400 33.13200
H  44.04300 37.12900 32.26000
H  44.72400 38.51800 31.38300
H  48.02900 35.24100 32.86700
H  47.09200 33.82300 32.74800
H  47.97000 34.84700 35.11100
H  46.68700 33.74100 34.87000
H  49.11700 41.82000 28.84800
H  48.88100 40.72100 30.20600
H  47.55400 41.48000 29.37100
H  49.76100 42.41600 25.35700
H  50.85500 41.93600 26.64700
H  49.12600 42.24000 26.86500
H  49.44600 35.57500 23.37000
H  47.89700 33.45100 23.05400
H  46.97200 36.92000 22.81600
H  46.74600 35.23500 22.28700
H  48.11900 36.12700 21.66000
H  49.74400 33.07200 25.34400
H  50.50000 33.82800 24.12500
H  50.05200 31.10600 24.26900
H  50.72200 31.96100 22.78800
H  49.04100 31.57000 22.90900
H  44.66700 30.23500 25.90000
H  44.40200 29.81300 27.54800
H  46.04700 29.82400 26.93100
H  43.46400 33.31500 31.00700
H  44.54500 31.20700 34.73500
H  42.91200 31.60000 34.88200
H  44.17000 32.79800 35.37700
Mg 16.86600 52.69500 26.51800
C  18.83900 51.33700 29.04300
C  14.57400 53.65400 28.93900
C  14.82600 53.76800 24.06000
C  18.92100 51.28200 24.09900
N  16.79500 52.59000 28.72500
C  17.71900 52.05700 29.53900
C  17.37400 52.25500 30.98800
C  15.81300 52.48400 30.88800
C  15.73100 52.99900 29.41800
C  14.91600 51.22700 31.13100
C  18.20800 53.44300 31.54500
C  18.75800 53.31400 32.92100
H  17.81700 52.55700 33.86300
N  14.95100 53.56300 26.48500
C  14.28100 54.00400 27.59800
C  13.20600 54.92900 27.22400
C  13.26600 54.92800 25.80500
C  14.36000 54.05600 25.37100
C  12.35300 55.68600 28.20900
C  12.31700 55.67900 24.89700
O  12.43600 55.68500 23.69900
C  11.07000 56.38000 25.31900
N  16.77600 52.44800 24.29300
C  15.86200 53.03500 23.52000
C  16.15100 52.92300 22.05900
C  17.45900 52.10000 22.02100
C  17.76800 51.93900 23.53800
C  14.98300 52.37100 21.12000
C  18.50800 52.85700 21.20000
C  19.41600 53.99900 21.79600
N  18.52700 51.59600 26.48000
C  19.26600 51.09700 25.41800
C  20.46600 50.39600 25.92200
C  20.25700 50.43600 27.33500
C  19.13700 51.18100 27.61900
C  21.61300 49.76800 25.19000
C  20.84900 50.02100 28.55300
O  21.90600 49.43600 28.76400
C  19.92900 50.64600 29.74000
C  19.48000 49.64000 30.64600
O  18.51500 48.94100 30.38400
O  20.18700 49.65200 31.84200
C  19.66600 48.64400 32.81800
H  13.89600 53.90500 29.75700
H  14.25300 54.23700 23.25800
H  19.59700 50.87000 23.34600
H  17.55100 51.33900 31.55200
H  15.56300 53.25300 31.61900
H  14.21300 51.55800 31.89500
H  15.41000 50.33100 31.50700
H  14.43500 50.82300 30.24000
H  17.72000 54.40500 31.39000
H  19.13300 53.44600 30.96900
H  18.90800 54.30100 33.36000
H  19.70700 52.78600 33.01300
H  12.79800 55.69700 29.20400
H  11.31600 55.35300 28.24500
H  12.35000 56.73500 27.91400
H  11.41500 57.16600 25.99100
H  10.41400 55.69900 25.86000
H  10.42200 56.76600 24.53200
H  16.48900 53.90700 21.73400
H  17.21400 51.13200 21.58500
H  15.29600 51.55800 20.46500
H  14.58100 53.17400 20.50300
H  14.22100 51.98800 21.79900
H  17.96500 53.30100 20.36500
H  19.25400 52.19400 20.76400
H  19.07200 54.12400 22.82300
H  19.13100 54.94200 21.32900
H  20.49200 53.87500 21.67500
H  21.32300 49.66300 24.14400
H  21.81900 48.78600 25.61700
H  22.49200 50.37900 25.39300
H  20.49500 51.38700 30.30500
H  18.60300 48.44600 32.68200
H  19.74700 49.03800 33.83100
H  20.28900 47.74900 32.84600

