158

Mg -1.62400 16.66700 26.13000
C  -1.83800 14.50200 28.93000
C  -2.20100 19.31400 28.28500
C  -1.20400 18.75100 23.54700
C  -1.84400 13.97100 24.14400
N  -2.16500 16.87700 28.31700
C  -2.09200 15.89500 29.27100
C  -2.28400 16.55900 30.60100
C  -2.77500 17.93400 30.39700
C  -2.40600 18.05500 28.87500
C  -4.28200 18.11900 30.61700
C  -1.10300 16.44200 31.56800
C  -1.48300 15.76300 32.90000
H  -2.13000 16.53700 34.06000
N  -1.51400 18.82400 25.92100
C  -1.83800 19.64100 26.95500
C  -1.64300 20.98100 26.44000
C  -1.26900 20.87600 25.06200
C  -1.33000 19.45100 24.75100
C  -1.81400 22.25400 27.20600
C  -0.82200 21.97000 24.15800
O  -0.40800 21.64400 23.04200
C  -0.86200 23.44500 24.57500
N  -1.91000 16.40700 24.08600
C  -1.54700 17.36200 23.19500
C  -1.57600 16.86100 21.75900
C  -1.65400 15.33000 22.07400
C  -1.70700 15.19100 23.55800
C  -2.82600 17.23000 20.88800
C  -0.35800 14.58500 21.48400
C  0.74400 14.17800 22.35600
N  -1.83100 14.69300 26.39800
C  -1.87500 13.66700 25.45800
C  -1.93800 12.44000 26.09100
C  -1.88600 12.69800 27.44900
C  -1.77400 14.08600 27.55900
C  -2.00900 11.17400 25.45800
C  -1.82500 12.04400 28.78200
O  -1.71500 10.86200 29.15100
C  -1.95000 13.27400 29.80700
C  -0.99400 13.17800 31.00300
O  0.20000 13.42400 30.91300
O  -1.59700 12.49000 31.99800
C  -0.73000 12.14900 33.09000
H  -2.47500 20.23300 28.80700
H  -1.07100 19.43800 22.70800
H  -1.95200 13.04900 23.56900
H  -3.09900 15.94500 30.98500
H  -2.38200 18.75000 31.00400
H  -4.46000 19.17200 30.83500
H  -4.64900 17.36500 31.31400
H  -4.77200 17.92000 29.66400
H  -0.80600 17.45900 31.82500
H  -0.23200 16.00500 31.07900
H  -0.56400 15.32200 33.28700
H  -2.15100 14.91300 32.76100
H  -2.60600 22.78600 26.67900
H  -0.88300 22.81700 27.26700
H  -2.22800 22.04900 28.19300
H  -1.89900 23.65800 24.83400
H  -0.61600 23.91200 23.62200
H  -0.09300 23.40600 25.34700
H  -0.61900 17.12900 21.31100
H  -2.46500 14.84100 21.53500
H  -2.65200 17.02500 19.83100
H  -3.07200 18.28700 20.98700
H  -3.71700 16.75300 21.29500
H  0.01000 15.24600 20.70000
H  -0.78200 13.77800 20.88500
H  0.60000 14.62400 23.34100
H  1.64100 14.68100 21.99600
H  0.81100 13.09800 22.48900
H  -0.98200 10.83200 25.33500
H  -2.46500 11.07300 24.47300
H  -2.50600 10.43000 26.08100
H  -2.94100 13.20000 30.25500
H  0.24800 11.75200 32.81800
H  -1.17000 11.42000 33.77000
H  -0.57900 13.04200 33.69800
Mg -4.88100 24.99300 25.92800
C  -3.16100 26.66300 28.52800
C  -5.64000 22.57000 28.24300
C  -6.28100 23.31300 23.42000
C  -3.15600 27.06500 23.66000
N  -4.14100 24.48500 28.19100
C  -3.74800 25.50300 29.04100
C  -4.16900 25.18000 30.52800
C  -4.77400 23.76600 30.34100
C  -4.87000 23.58800 28.88300
C  -3.85400 22.63800 30.99400
C  -4.95600 26.27900 31.18100
C  -4.57600 26.75300 32.63600
H  -4.17700 25.66500 33.61100
N  -5.77200 23.20000 25.82200
C  -6.00400 22.37600 26.89900
C  -6.83300 21.24000 26.49100
C  -7.02400 21.39700 25.04100
C  -6.34800 22.72300 24.67800
C  -7.19700 20.07800 27.41600
C  -7.78400 20.54700 24.08400
O  -7.76500 20.74200 22.90400
C  -8.51600 19.42300 24.62700
N  -4.76300 25.20200 23.89400
C  -5.55300 24.43200 23.03600
C  -5.28700 24.84600 21.59500
C  -4.35100 26.08200 21.74200
C  -4.12200 26.18800 23.23100
C  -4.60500 23.70900 20.74600
C  -4.96900 27.40800 21.18400
C  -4.01200 28.09500 20.13200
N  -3.45900 26.53400 26.04900
C  -2.84100 27.23700 25.03600
C  -2.02300 28.32800 25.60700
C  -2.10100 28.13800 26.95600
C  -2.98400 27.00400 27.18900
C  -1.32700 29.35900 24.78500
C  -1.69700 28.62300 28.29900
O  -0.97200 29.54800 28.60300
C  -2.51100 27.70200 29.34900
C  -1.57900 27.13300 30.27600
O  -0.81700 26.25700 30.03300
O  -1.58200 27.91300 31.35600
C  -0.60100 27.63100 32.32600
H  -6.10500 21.89400 28.96300
H  -6.79500 22.80500 22.60100
H  -2.73100 27.72700 22.90200
H  -3.24600 25.01300 31.08200
H  -5.76600 23.54600 30.73600
H  -4.36500 22.07000 31.77200
H  -2.87700 22.91400 31.39100
H  -3.60200 22.01100 30.13900
H  -6.00700 26.03200 31.03600
H  -4.88300 27.23000 30.65200
H  -5.33000 27.42200 33.05200
H  -3.74900 27.46000 32.57900
H  -7.59600 19.13300 27.04700
H  -7.94700 20.39300 28.14200
H  -6.27200 19.74300 27.88400
H  -8.89400 19.74600 25.59700
H  -7.78900 18.61300 24.56500
H  -9.35600 19.12400 24.00000
H  -6.22500 25.11300 21.11000
H  -3.35600 25.97000 21.31300
H  -4.14900 23.06300 21.49600
H  -3.90600 23.92300 19.93800
H  -5.49300 23.14000 20.46900
H  -5.15800 28.08000 22.02100
H  -5.97800 27.16600 20.85200
H  -4.62100 28.41100 19.28500
H  -3.23700 27.37600 19.86800
H  -3.67500 28.98900 20.65800
H  -1.95500 29.77800 23.99900
H  -0.47600 28.87800 24.30300
H  -1.01600 30.24500 25.33900
H  -3.17900 28.34200 29.92400
H  -0.71000 26.61000 32.69200
H  -0.71800 28.35300 33.13300
H  0.38100 27.76800 31.87400

