158

Mg 35.48400 1.22300 30.46100
C  33.09900 2.47800 32.79000
C  37.75100 1.01100 33.01300
C  37.65800 0.46100 28.04400
C  33.06100 1.67700 27.98600
N  35.40900 1.61600 32.63900
C  34.32600 2.12300 33.36400
C  34.64100 2.06700 34.87900
C  36.18000 1.91800 34.83500
C  36.45900 1.42500 33.38100
C  36.94500 3.29000 35.09100
C  33.81400 0.99600 35.60700
C  33.16700 1.41000 36.92600
H  33.97800 2.38900 37.76200
N  37.41000 0.78000 30.51800
C  38.17900 0.71300 31.65500
C  39.52100 0.35200 31.28700
C  39.55900 0.36300 29.83300
C  38.14500 0.54300 29.36800
C  40.58700 0.11500 32.24200
C  40.71600 0.00700 28.88600
O  40.64700 0.00900 27.66100
C  42.03300 -0.10300 29.52800
N  35.42900 1.26800 28.27600
C  36.42000 0.78600 27.53500
C  36.05700 0.53700 26.06900
C  34.48700 0.84400 26.11200
C  34.28800 1.31200 27.56500
C  36.97300 1.42900 25.07600
C  33.57100 -0.40900 25.79200
C  32.57400 -0.23600 24.65800
N  33.52000 1.87700 30.33500
C  32.66400 2.12300 29.26300
C  31.44500 2.77700 29.65700
C  31.56000 2.86500 31.02000
C  32.82400 2.34500 31.39800
C  30.23000 3.02100 28.79300
C  30.86200 3.25200 32.24700
O  29.73000 3.61300 32.39500
C  31.87000 3.01800 33.45600
C  32.10700 4.32000 34.11800
O  32.90100 5.20900 33.73700
O  31.47000 4.33700 35.34900
C  31.90200 5.31800 36.33000
H  38.57700 1.08700 33.72300
H  38.36200 0.16300 27.26400
H  32.31100 1.69300 27.19300
H  34.29700 3.01800 35.28600
H  36.61800 1.16200 35.48600
H  37.40700 3.23100 36.07700
H  36.30700 4.16900 34.99800
H  37.73500 3.36500 34.34500
H  34.39600 0.09600 35.80200
H  32.99300 0.61600 34.99900
H  33.13900 0.55300 37.59800
H  32.19700 1.88600 36.78200
H  41.33700 0.89700 32.36100
H  41.18900 -0.75300 31.97400
H  40.09600 -0.06600 33.19900
H  42.79500 -0.08700 28.74900
H  42.09500 -1.13600 29.87100
H  42.28700 0.67500 30.24700
H  36.14200 -0.51400 25.79100
H  34.18300 1.67400 25.47400
H  36.46900 2.33600 24.74100
H  37.49400 1.01400 24.21300
H  37.80600 1.78900 25.68000
H  32.98200 -0.59900 26.68900
H  34.19000 -1.27700 25.56700
H  33.20600 -0.34100 23.77600
H  32.00300 0.69100 24.61300
H  31.75900 -0.95700 24.71800
H  30.43300 3.42700 27.80200
H  29.62100 3.77800 29.28800
H  29.66900 2.08800 28.75700
H  31.53200 2.29400 34.19800
H  31.53100 6.30000 36.03600
H  32.98700 5.41700 36.29500
H  31.61000 5.02800 37.33900
Mg 48.37700 14.31600 27.88800
C  46.47400 14.84400 30.96000
C  50.77100 16.39200 29.38800
C  49.91100 14.14800 24.94400
C  45.67300 12.53400 26.59000
N  48.53100 15.63200 29.94600
C  47.67000 15.61300 30.99400
C  48.32100 16.29700 32.18300
C  49.52800 16.99900 31.60800
C  49.67700 16.24300 30.29500
C  49.50200 18.59900 31.37800
C  48.51700 15.32600 33.33700
C  47.89700 15.68000 34.69600
H  48.79700 15.49300 35.91900
N  50.08000 15.15200 27.21100
C  50.99800 15.91800 28.04900
C  52.16700 16.03800 27.19000
C  51.91300 15.45100 25.89700
C  50.58800 14.89300 25.96800
C  53.38500 16.88600 27.70900
C  52.86300 15.46000 24.61500
O  52.48800 15.00500 23.52500
C  54.20900 16.09000 24.60600
N  47.78900 13.62600 25.94900
C  48.65500 13.59700 24.91500
C  48.23900 12.58500 23.79400
C  46.81800 12.20800 24.24000
C  46.72200 12.80300 25.71200
C  48.26500 13.33000 22.37400
C  46.42300 10.70900 24.22400
C  47.44400 9.77600 24.94500
N  46.44400 13.76000 28.59600
C  45.50400 12.94800 27.95700
C  44.37300 12.76000 28.91600
C  44.71100 13.42200 30.02900
C  45.96900 14.03300 29.84300
C  43.07100 12.07000 28.57600
C  44.16900 13.75700 31.37800
O  43.19200 13.44000 31.98300
C  45.38300 14.60800 32.02900
C  44.79500 15.83500 32.49900
O  44.66300 16.85500 31.85100
O  44.33700 15.53800 33.77600
C  43.61100 16.64700 34.36500
H  51.61300 16.89800 29.86600
H  50.32700 13.84000 23.98200
H  44.83800 12.04500 26.08400
H  47.67600 17.12900 32.46400
H  50.36300 16.73100 32.25500
H  48.51100 19.02400 31.53500
H  49.64100 18.83000 30.32200
H  50.28300 19.03700 31.99900
H  49.59000 15.15600 33.42400
H  47.98100 14.39800 33.13800
H  46.94400 15.16600 34.82100
H  47.58600 16.72500 34.69300
H  54.29900 16.36500 27.99700
H  53.15200 17.59400 28.50500
H  53.85300 17.53100 26.96600
H  54.79600 15.76100 25.46300
H  54.02300 17.15700 24.72800
H  54.71300 16.00000 23.64300
H  48.86100 11.69100 23.82100
H  46.04300 12.79000 23.74200
H  48.40700 14.38000 22.63100
H  47.36000 13.27400 21.76800
H  49.10600 12.91500 21.81800
H  46.51300 10.55700 23.14900
H  45.38500 10.49400 24.47800
H  46.84600 9.01800 25.45000
H  48.03000 10.45000 25.57000
H  48.14300 9.25900 24.28700
H  43.36500 11.02000 28.59000
H  42.83300 12.32300 27.54200
H  42.28800 12.33700 29.28600
H  45.77200 14.01300 32.85500
H  44.21500 17.31600 34.97900
H  42.87000 16.21900 35.04100
H  42.98900 17.31600 33.77100

