158

Mg 7.94200 2.40900 27.38700
C  9.58000 1.16100 30.04700
C  6.14800 4.50200 29.46300
C  6.15700 3.46900 24.72000
C  9.38700 -0.11200 25.29100
N  7.75600 2.64500 29.53600
C  8.65300 2.15400 30.41300
C  8.36500 2.63600 31.80600
C  7.15800 3.60800 31.56600
C  7.02500 3.62100 30.04200
C  5.81400 3.13100 32.25000
C  9.60800 3.29000 32.53400
C  9.30500 4.22500 33.68100
H  10.29000 4.20600 34.93700
N  6.46200 3.90800 27.08600
C  5.87600 4.67000 28.06200
C  4.87900 5.63100 27.50900
C  4.84600 5.30600 26.07100
C  5.91400 4.23500 25.92500
C  4.17900 6.66700 28.37500
C  4.04400 5.95700 24.97200
O  4.33200 5.86200 23.80800
C  2.91900 6.79600 25.33700
N  7.92500 1.87900 25.28100
C  7.00800 2.42600 24.43400
C  7.16800 1.80000 23.05600
C  8.24600 0.70600 23.21000
C  8.54000 0.77100 24.71800
C  5.84900 1.41700 22.29500
C  9.59700 0.95000 22.44800
C  10.15500 -0.29000 21.67700
N  9.18000 0.75300 27.60200
C  9.77300 -0.13000 26.72400
C  10.76200 -0.90200 27.38500
C  10.71000 -0.39200 28.70300
C  9.77300 0.58700 28.76200
C  11.63900 -1.92500 26.78400
C  11.32200 -0.47000 30.00600
O  12.26300 -1.18500 30.28600
C  10.53200 0.47500 30.96500
C  9.74800 -0.35100 31.90500
O  8.90200 -1.13700 31.61400
O  10.21600 -0.24300 33.19200
C  9.62000 -0.94700 34.31100
H  5.71400 5.22400 30.15800
H  5.55000 3.80000 23.87500
H  9.77100 -0.89100 24.62900
H  7.96800 1.79500 32.37300
H  7.40000 4.63500 31.83800
H  5.22200 2.50600 31.58200
H  5.21400 3.98000 32.57900
H  5.95000 2.51300 33.13700
H  10.12300 3.88000 31.77700
H  10.23500 2.52000 32.98500
H  8.33100 3.96000 34.09200
H  9.20500 5.23800 33.29100
H  3.13400 6.36400 28.42700
H  4.10900 7.60700 27.82700
H  4.55500 6.79700 29.39000
H  2.19700 6.85600 24.52300
H  3.34900 7.76700 25.58100
H  2.42700 6.35000 26.20200
H  7.58400 2.61800 22.46900
H  7.84500 -0.27100 22.94200
H  5.91300 0.33800 22.15200
H  5.82000 1.87600 21.30700
H  4.91700 1.72200 22.77000
H  10.43100 1.31600 23.04700
H  9.38100 1.71700 21.70400
H  9.81000 -0.18200 20.64900
H  9.87400 -1.29300 21.99900
H  11.21900 -0.10500 21.82300
H  11.51800 -2.76500 27.46800
H  12.67600 -1.61000 26.89700
H  11.29300 -2.26100 25.80700
H  11.19100 1.18600 31.46300
H  8.65400 -1.42700 34.15500
H  9.36400 -0.38200 35.20700
H  10.31600 -1.69300 34.69800
Mg 6.52700 52.76900 41.09800
C  5.80700 49.34300 40.78900
C  9.77500 51.94700 40.20200
C  7.15200 55.94000 40.54200
C  3.17200 53.38500 41.70700
N  7.60400 50.84700 40.57300
C  7.16100 49.57700 40.44000
C  8.17500 48.57500 40.02700
C  9.46400 49.42300 40.25200
C  8.89500 50.86600 40.23600
C  10.28500 49.13200 41.56900
C  8.02200 48.09100 38.52100
C  7.03000 48.88200 37.65900
H  6.44200 48.23200 36.41300
N  8.34900 53.83500 40.63400
C  9.50800 53.36900 40.32300
C  10.45400 54.40900 40.12300
C  9.74600 55.63700 40.20300
C  8.37400 55.17700 40.48400
C  12.01500 54.15900 39.98400
C  10.31700 57.00700 39.95900
O  11.52800 57.09800 39.69800
C  9.45900 58.16100 39.98300
N  5.27300 54.38600 41.03400
C  5.80500 55.61300 40.86700
C  4.72400 56.66600 40.99100
C  3.39100 55.83000 41.39100
C  3.98700 54.42900 41.38600
C  5.11700 57.84000 42.00200
C  2.09100 56.10200 40.60600
C  2.11100 55.71800 39.10700
N  4.67700 51.62700 41.12700
C  3.45800 52.03400 41.57200
C  2.70700 50.80600 41.82600
C  3.59100 49.71000 41.52100
C  4.77500 50.29200 41.10800
C  1.22300 50.82100 42.20600
C  3.72600 48.27700 41.55700
O  2.93600 47.40300 41.98700
C  5.16400 48.00400 41.11100
C  5.04700 47.14900 39.87100
O  4.39300 47.30900 38.87500
O  5.73300 45.99400 40.09300
C  5.81100 45.10100 38.97100
H  10.77000 51.61400 39.89600
H  7.23800 57.01400 40.36100
H  2.16600 53.68200 42.00900
H  8.16500 47.69500 40.66900
H  10.22400 49.43700 39.47100
H  11.33600 49.08000 41.28700
H  9.82500 48.25000 42.01400
H  10.07100 49.94400 42.26400
H  7.57200 47.10400 38.62600
H  8.93200 47.92200 37.94500
H  7.56400 49.74500 37.26000
H  6.25300 49.48100 38.13200
H  12.41500 54.24100 38.97300
H  12.23100 53.16100 40.36500
H  12.58700 54.90700 40.53300
H  10.00700 59.02600 39.60900
H  8.99600 58.42400 40.93500
H  8.61700 57.92200 39.33400
H  4.60500 57.12700 40.01000
H  3.12600 55.95400 42.44100
H  4.37100 57.99700 42.78100
H  5.12300 58.73300 41.37800
H  6.10900 57.73700 42.44200
H  1.81200 57.15500 40.56300
H  1.34200 55.48300 41.10000
H  1.16400 55.22300 38.89400
H  2.97600 55.19900 38.69300
H  2.16700 56.68500 38.60700
H  1.21200 50.51700 43.25300
H  0.59600 50.19500 41.57000
H  0.87000 51.84900 42.12600
H  5.81600 47.54700 41.85600
H  5.43900 45.40500 37.99300
H  5.40400 44.12300 39.22700
H  6.89900 45.07700 38.89900

