158

Mg 1.34300 -0.74900 43.87100
C  4.76300 -0.18800 43.23400
C  0.65100 2.13900 42.25100
C  -1.70700 -1.74100 43.57700
C  2.37200 -4.04900 44.88800
N  2.65400 0.71400 42.91000
C  4.02800 0.81500 42.78700
C  4.39600 2.12500 42.02600
C  3.07400 2.85100 41.81900
C  1.99900 1.84500 42.38900
C  2.95100 4.14000 42.68700
C  5.35300 2.00800 40.77700
C  5.09000 0.88500 39.74900
H  5.41700 1.26400 38.31200
N  -0.33000 0.12500 43.19100
C  -0.42700 1.28500 42.56600
C  -1.79900 1.63800 42.39800
C  -2.55200 0.52500 42.87500
C  -1.48500 -0.42900 43.21000
C  -2.34400 2.91300 41.78800
C  -4.04100 0.46500 43.09100
O  -4.72700 1.46800 43.04400
C  -4.94000 -0.72900 43.61800
N  0.55200 -2.65200 43.88100
C  -0.79200 -2.68100 43.92500
C  -1.24600 -4.08800 44.34800
C  -0.03900 -4.70300 45.07500
C  1.00600 -3.78300 44.52100
C  -2.59600 -4.19900 45.23100
C  0.14500 -6.24700 44.92100
C  0.37200 -7.05600 46.21200
N  3.19100 -1.86900 44.24300
C  3.42000 -3.10200 44.72500
C  4.81700 -3.28400 44.99800
C  5.36000 -2.13500 44.40000
C  4.34500 -1.32400 43.89100
C  5.55700 -4.45600 45.61300
C  6.63300 -1.53900 44.07500
O  7.79500 -1.90100 44.29300
C  6.28100 -0.28000 43.25800
C  7.03400 0.89300 43.88500
O  6.57100 1.50300 44.82600
O  8.27800 1.05100 43.41800
C  9.19100 1.85900 44.26000
H  0.35300 3.09300 41.80900
H  -2.77600 -1.95300 43.64500
H  2.64300 -4.93900 45.46100
H  5.03500 2.57000 42.78900
H  3.05800 2.98700 40.73800
H  2.16500 4.03000 43.43400
H  2.63900 4.98100 42.06900
H  3.90900 4.39900 43.13800
H  6.36700 1.84200 41.14000
H  5.31200 3.02500 40.38900
H  4.09000 0.45800 39.83200
H  5.63500 -0.01200 40.04300
H  -3.36900 2.73300 41.46400
H  -1.70800 3.24000 40.96500
H  -2.63800 3.70600 42.47500
H  -4.80700 -1.57100 42.93800
H  -5.98800 -0.44600 43.51600
H  -4.55400 -0.87800 44.62600
H  -1.47500 -4.66100 43.45000
H  -0.14000 -4.31700 46.08900
H  -2.53500 -3.32700 45.88300
H  -2.38200 -5.07300 45.84500
H  -3.59700 -4.22700 44.80100
H  1.06800 -6.49100 44.39400
H  -0.65800 -6.73300 44.36600
H  0.41000 -6.39600 47.07900
H  1.20300 -7.76000 46.25500
H  -0.52600 -7.66000 46.34100
H  5.32400 -5.31800 44.98800
H  5.04800 -4.59600 46.56700
H  6.63500 -4.30200 45.63800
H  6.68400 -0.35500 42.24800
H  9.86800 2.49600 43.69000
H  9.71800 1.09900 44.83600
H  8.74200 2.60400 44.91700
Mg 40.46700 8.31600 29.03800
C  42.15900 10.17700 31.53100
C  38.48800 6.94800 31.37000
C  39.04200 6.52400 26.54300
C  43.06200 9.18700 26.68100
N  40.32000 8.54900 31.12200
C  41.07600 9.35400 31.92000
C  40.45900 9.43600 33.33500
C  39.53300 8.18800 33.33700
C  39.47200 7.86500 31.86400
C  39.98100 6.93100 34.19000
C  39.99400 10.80400 33.87300
C  39.39700 10.66900 35.27100
H  39.92000 11.69400 36.27000
N  38.91100 6.94200 28.98000
C  38.25000 6.49500 30.05700
C  37.16100 5.67300 29.64700
C  37.20000 5.62100 28.22100
C  38.41800 6.39900 27.82200
C  36.18600 5.05600 30.66100
C  36.31600 5.04300 27.19700
O  36.49700 5.29500 26.01400
C  35.09100 4.17700 27.65300
N  40.98500 7.99300 26.82300
C  40.23000 7.15900 26.06700
C  40.78800 7.04100 24.63200
C  41.90400 8.10000 24.73400
C  42.06700 8.43600 26.18500
C  41.32800 5.66100 24.21600
C  41.61700 9.25400 23.71200
C  40.90300 10.53100 24.22200
N  42.19000 9.38400 29.05100
C  43.19700 9.63200 28.03600
C  44.18700 10.59900 28.64800
C  43.80100 10.77000 30.01000
C  42.65400 10.06300 30.20400
C  45.28600 11.20500 27.88300
C  44.22900 11.39200 31.28200
O  45.08800 12.21400 31.52200
C  43.12800 11.08000 32.27700
C  43.81900 10.29600 33.43500
O  44.43400 9.21500 33.36300
O  43.35200 10.79200 34.58100
C  43.49400 9.99500 35.75800
H  37.87000 6.46200 32.12800
H  38.80600 5.80400 25.75700
H  43.82400 9.49700 25.96300
H  41.27800 8.96500 33.87800
H  38.49000 8.46700 33.48700
H  40.48000 6.32200 33.43600
H  39.14600 6.43800 34.68800
H  40.69800 7.08700 34.99700
H  39.20000 11.16200 33.21700
H  40.78500 11.55300 33.90200
H  39.40300 9.63000 35.60000
H  38.34100 10.88900 35.11600
H  36.01100 5.81400 31.42400
H  36.60300 4.15800 31.11900
H  35.24600 4.72300 30.22300
H  35.52000 3.24000 28.00800
H  34.55700 3.90100 26.74300
H  34.39300 4.69600 28.30900
H  39.93900 7.27200 23.98800
H  42.85500 7.65500 24.44400
H  41.03500 5.64300 23.16600
H  40.70000 4.88900 24.66200
H  42.39000 5.43300 24.12600
H  40.97700 8.90300 22.90200
H  42.57200 9.38800 23.20500
H  40.71200 10.54700 25.29500
H  39.90200 10.66400 23.81200
H  41.53900 11.40400 24.07300
H  45.24200 10.93700 26.82700
H  46.16200 10.66800 28.24700
H  45.21800 12.28700 27.99900
H  42.70100 12.02900 32.60000
H  43.43700 10.75600 36.53700
H  44.45000 9.47400 35.80500
H  42.69300 9.30400 36.02000

