158

Mg 46.35700 24.88300 29.05200
C  47.14600 26.95200 31.79600
C  45.04500 22.62000 31.20900
C  46.38800 22.61600 26.53600
C  47.87400 27.28300 26.99800
N  46.13700 24.76700 31.25300
C  46.38800 25.85700 32.15300
C  45.80000 25.49700 33.55900
C  45.17000 24.10700 33.42300
C  45.45400 23.76400 31.89200
C  45.81700 23.00100 34.25300
C  44.88200 26.58400 34.17500
C  45.15800 26.95400 35.65400
H  43.96600 27.10000 36.58000
N  45.74800 22.88300 28.91200
C  45.20400 22.16700 29.89100
C  44.88100 20.87800 29.34800
C  45.40700 20.73700 28.06200
C  45.95600 22.08000 27.78900
C  44.14000 19.87100 30.10700
C  45.33800 19.60500 27.04900
O  46.00500 19.70500 26.06800
C  44.73600 18.30000 27.41500
N  47.08700 24.95100 27.11400
C  46.81100 23.92400 26.20800
C  47.15800 24.35300 24.78800
C  47.45400 25.87400 24.96000
C  47.53100 26.07200 26.45000
C  48.20400 23.46500 23.97300
C  46.41100 26.83000 24.27900
C  45.06000 26.85900 24.92700
N  47.26400 26.72900 29.29400
C  47.88800 27.55400 28.34500
C  48.29600 28.82800 28.92800
C  48.01100 28.53500 30.26500
C  47.52900 27.26700 30.45300
C  48.87500 30.16800 28.34400
C  48.13200 29.15500 31.54900
O  48.53500 30.25200 31.91400
C  47.57500 28.11900 32.60100
C  48.70500 27.75100 33.47900
O  49.66400 27.12000 33.13300
O  48.42200 28.13900 34.74100
C  49.38800 27.67400 35.78400
H  44.46000 22.00300 31.89300
H  46.28900 22.05000 25.60700
H  48.34700 28.05300 26.38400
H  46.63900 25.35900 34.24100
H  44.11100 24.16100 33.67400
H  45.23200 22.09100 34.11600
H  45.82400 23.19600 35.32500
H  46.81600 22.76900 33.88400
H  43.85000 26.28000 33.99700
H  44.94100 27.45300 33.52100
H  45.69100 27.90400 35.65800
H  45.95200 26.31900 36.04700
H  44.78900 19.02200 30.32000
H  43.31500 19.47400 29.51500
H  43.78800 20.22600 31.07600
H  45.20400 17.95700 28.33800
H  44.86500 17.54400 26.64100
H  43.67500 18.54800 27.45200
H  46.18400 24.26100 24.30600
H  48.45200 26.15600 24.62600
H  48.54900 22.61200 24.55700
H  49.11900 23.96900 23.66000
H  47.83700 22.94500 23.08800
H  46.29100 26.47300 23.25600
H  46.90500 27.80100 24.32500
H  44.92800 25.92800 25.47800
H  44.40400 26.93900 24.06000
H  45.01900 27.73500 25.57300
H  49.24100 29.83700 27.37200
H  49.58600 30.47700 29.11000
H  48.00100 30.81900 28.35800
H  46.73200 28.48700 33.18600
H  50.39400 27.75200 35.37100
H  49.07700 26.72100 36.21100
H  49.38500 28.36100 36.63000
Mg -5.45300 25.17900 27.23600
C  -3.39300 27.12800 29.50700
C  -6.08400 23.04500 29.87700
C  -6.80100 23.07800 25.03600
C  -4.10600 27.16500 24.75000
N  -4.84800 25.19300 29.42100
C  -4.07500 26.08100 30.11500
C  -4.14000 25.72300 31.63800
C  -4.77700 24.29500 31.69700
C  -5.24700 24.15600 30.20200
C  -3.74500 23.19900 32.18500
C  -4.98100 26.83600 32.32500
C  -6.00800 26.53600 33.43500
H  -5.61600 25.91300 34.77200
N  -6.43500 23.36600 27.43900
C  -6.52000 22.60800 28.58200
C  -7.31400 21.39500 28.35700
C  -7.60100 21.45300 26.96300
C  -6.95800 22.69500 26.39700
C  -7.45100 20.30600 29.42700
C  -8.14400 20.39300 26.09000
O  -8.30600 20.50700 24.90400
C  -8.80400 19.12000 26.66100
N  -5.43100 25.12800 25.13000
C  -6.19100 24.22000 24.43600
C  -6.27100 24.56500 22.97400
C  -5.33300 25.80600 22.82400
C  -4.88200 26.04500 24.33500
C  -5.73300 23.36700 22.07100
C  -5.92700 27.05000 22.09000
C  -5.26800 27.63200 20.84900
N  -3.92800 26.76100 27.03200
C  -3.60900 27.55000 25.99600
C  -2.67400 28.52400 26.41800
C  -2.59200 28.46100 27.79400
C  -3.39700 27.34200 28.11600
C  -1.76000 29.42700 25.59300
C  -1.92100 28.93400 28.93900
O  -1.08900 29.82400 29.06300
C  -2.49100 28.11600 30.17100
C  -1.42600 27.54700 31.02700
O  -0.58300 26.78100 30.63800
O  -1.49700 28.03300 32.27400
C  -0.80500 27.31700 33.38200
H  -6.34600 22.42700 30.73900
H  -7.37100 22.45600 24.34200
H  -3.73400 27.85300 23.98800
H  -3.13100 25.75200 32.05100
H  -5.63900 24.30800 32.36400
H  -3.59700 22.47700 31.38200
H  -4.14400 22.78000 33.10900
H  -2.73300 23.55800 32.37500
H  -5.52400 27.37200 31.54700
H  -4.22000 27.48600 32.75600
H  -6.82700 25.99000 32.96700
H  -6.32800 27.52700 33.75500
H  -8.28300 19.62900 29.23000
H  -7.71900 20.69000 30.41200
H  -6.50700 19.78000 29.57200
H  -8.14900 18.41900 27.17900
H  -9.14000 18.53300 25.80600
H  -9.52900 19.38200 27.43100
H  -7.33400 24.74300 22.80900
H  -4.41400 25.50800 22.31700
H  -5.17900 23.67800 21.18500
H  -6.58200 22.86100 21.61100
H  -5.12500 22.66300 22.64000
H  -6.04300 27.97600 22.65400
H  -6.94600 26.78700 21.80600
H  -6.06000 27.60300 20.10000
H  -4.44000 27.01800 20.49500
H  -4.94100 28.66700 20.95500
H  -2.32200 29.77400 24.72600
H  -0.91000 28.82800 25.26500
H  -1.42000 30.30700 26.13800
H  -3.19200 28.66900 30.79800
H  0.26100 27.53700 33.32300
H  -0.88600 26.23300 33.30600
H  -1.16900 27.57900 34.37600

