158

Mg 24.23400 -6.20900 46.80900
C  26.60500 -3.77300 45.88100
C  22.02900 -4.66600 44.58600
C  22.16200 -8.81900 47.14200
C  26.83100 -8.10000 48.21500
N  24.28500 -4.35800 45.40000
C  25.39300 -3.58400 45.17300
C  25.12400 -2.58000 44.07400
C  23.56500 -2.66900 43.91600
C  23.23700 -3.96800 44.72500
C  22.75300 -1.48500 44.42800
C  26.03700 -2.82800 42.83000
C  26.70700 -1.64000 42.31400
H  25.97800 -0.87900 41.19900
N  22.32600 -6.72000 46.07600
C  21.59700 -5.91300 45.21200
C  20.33400 -6.54800 44.93400
C  20.21000 -7.71500 45.78400
C  21.57700 -7.80600 46.42400
C  19.43800 -6.12200 43.75600
C  18.99300 -8.68000 45.86100
O  18.00400 -8.43700 45.19700
C  19.03100 -9.85200 46.75200
N  24.53500 -8.22500 47.51200
C  23.43500 -9.05200 47.60900
C  23.80300 -10.38200 48.36600
C  25.38200 -10.17000 48.64600
C  25.58500 -8.72100 48.18300
C  23.01900 -10.63200 49.64400
C  26.29000 -11.19600 47.81500
C  27.38500 -11.83200 48.54000
N  26.20300 -5.96000 47.15800
C  27.21000 -6.80500 47.70600
C  28.45400 -6.08300 47.71100
C  28.22100 -4.88500 47.10400
C  26.87300 -4.84800 46.71300
C  29.74600 -6.59200 48.28200
C  28.89800 -3.65700 46.65000
O  30.03500 -3.25600 46.83500
C  27.85700 -2.91800 45.81900
C  27.55000 -1.62900 46.46800
O  26.84200 -1.47200 47.50000
O  28.05700 -0.69800 45.67800
C  27.74900 0.68100 45.97000
H  21.34100 -4.21200 43.87000
H  21.55100 -9.71400 47.27600
H  27.66600 -8.64500 48.66100
H  25.38300 -1.72800 44.70200
H  23.34700 -2.74000 42.85000
H  23.35500 -0.57700 44.45200
H  22.35100 -1.63800 45.42900
H  21.91200 -1.55100 43.73800
H  25.40300 -3.21700 42.03300
H  26.83300 -3.54600 43.02500
H  27.71900 -1.84700 41.96600
H  26.75800 -1.02100 43.21000
H  19.05100 -7.00500 43.24800
H  20.09700 -5.65200 43.02700
H  18.64800 -5.46100 44.11000
H  18.07700 -10.37900 46.77400
H  19.27700 -9.48500 47.74800
H  19.77300 -10.57800 46.41900
H  23.63400 -11.17400 47.63600
H  25.59500 -10.08000 49.71100
H  22.20600 -11.33000 49.44300
H  22.79500 -9.63500 50.02400
H  23.64400 -11.12700 50.38700
H  26.77000 -10.85600 46.89700
H  25.63300 -12.01200 47.51400
H  27.44900 -11.51700 49.58200
H  28.33700 -11.86500 48.01000
H  27.20100 -12.90400 48.61500
H  29.82500 -6.35200 49.34200
H  30.54200 -6.25200 47.62000
H  29.74700 -7.65700 48.05300
H  28.09100 -2.68700 44.77900
H  26.70400 0.80100 46.25700
H  27.75000 1.32500 45.09100
H  28.44600 1.01100 46.74100
Mg 35.65000 2.33700 29.09600
C  33.48600 3.11600 31.68100
C  38.30200 2.49600 31.32500
C  37.77800 2.23100 26.39300
C  32.94500 2.73300 26.80300
N  35.84600 2.73400 31.23600
C  34.79800 2.80500 32.09100
C  35.24100 2.93600 33.48400
C  36.83000 2.94400 33.43600
C  37.03900 2.73900 31.86700
C  37.53100 4.23000 34.03400
C  34.63900 1.74400 34.36800
C  34.48800 2.08900 35.87900
H  34.90600 3.49600 36.46700
N  37.71700 2.25500 28.94300
C  38.64100 2.35900 29.98400
C  39.94800 2.18100 29.44600
C  39.83900 2.08300 28.01300
C  38.39300 2.23700 27.69600
C  41.19000 2.12900 30.30300
C  41.01300 1.94300 27.05200
O  40.81900 1.98300 25.79100
C  42.36000 1.62900 27.50700
N  35.43200 2.37400 27.00800
C  36.40600 2.37300 26.09000
C  35.94100 2.64100 24.65700
C  34.41800 2.38300 24.74200
C  34.19400 2.44200 26.25200
C  36.27100 4.08800 24.07400
C  33.89900 1.10200 24.06300
C  33.24400 1.39700 22.73000
N  33.58700 2.81400 29.15500
C  32.60500 2.96100 28.14500
C  31.39200 3.56800 28.72900
C  31.70000 3.58200 30.13600
C  33.03100 3.15900 30.32500
C  30.11300 3.90600 28.00900
C  31.13500 3.86100 31.52900
O  29.98200 3.96500 31.90700
C  32.28400 3.60800 32.53500
C  32.48000 4.83000 33.27700
O  33.16400 5.83600 33.01500
O  31.67900 4.66700 34.47200
C  31.45600 5.89300 35.27800
H  39.15800 2.35100 31.98800
H  38.49800 2.16400 25.57500
H  32.02800 2.83400 26.22000
H  34.94500 3.87500 33.95200
H  37.21300 2.04900 33.92600
H  38.24800 3.91900 34.79400
H  36.76900 4.93400 34.37000
H  38.17000 4.69000 33.28000
H  35.36700 0.93700 34.27900
H  33.69900 1.42800 33.91600
H  35.05200 1.30500 36.38600
H  33.46300 1.90400 36.20000
H  41.93700 2.84300 29.95500
H  41.52200 1.09200 30.35100
H  41.13600 2.40700 31.35600
H  42.65200 2.45500 28.15600
H  42.91800 1.49100 26.58100
H  42.33700 0.67400 28.03100
H  36.35900 1.88500 23.99200
H  33.82000 3.22100 24.38600
H  36.67400 4.00900 23.06400
H  36.96800 4.49300 24.80800
H  35.40900 4.74200 23.93900
H  33.21700 0.57300 24.72800
H  34.68400 0.36600 23.88900
H  32.17700 1.36900 22.95200
H  33.42000 0.56100 22.05300
H  33.70000 2.31800 22.36600
H  29.65100 2.98700 27.64600
H  30.37300 4.65000 27.25600
H  29.36100 4.30300 28.69000
H  32.02600 2.89200 33.31600
H  31.38900 6.84400 34.75000
H  32.12300 5.89700 36.14000
H  30.48200 5.78900 35.75400

