158

Mg 24.49700 -4.40700 45.34700
C  26.79400 -2.04500 44.10100
C  22.11200 -3.14800 43.53600
C  22.75700 -7.25900 46.02000
C  27.29200 -5.85700 47.10300
N  24.43300 -2.73300 43.99300
C  25.44900 -1.90900 43.64300
C  25.01600 -1.00400 42.53500
C  23.43900 -1.10200 42.64100
C  23.23500 -2.34600 43.42600
C  22.62000 0.17300 43.16700
C  25.61900 -1.50600 41.13600
C  26.31500 -0.47100 40.17000
H  26.17700 -0.80400 38.64700
N  22.56900 -5.05900 44.89800
C  21.75100 -4.36300 44.09300
C  20.48600 -4.99600 44.08800
C  20.66900 -6.31800 44.62200
C  22.08600 -6.25400 45.24100
C  19.25300 -4.44000 43.67400
C  19.64400 -7.41700 44.80900
O  18.53700 -7.30600 44.40700
C  19.95400 -8.84300 45.26200
N  25.05700 -6.40000 46.34900
C  24.07400 -7.31700 46.57000
C  24.61700 -8.48600 47.32900
C  25.93700 -7.92700 47.88900
C  26.15000 -6.62500 47.14500
C  23.71300 -9.26100 48.40100
C  27.12200 -8.86800 47.72700
C  28.33800 -8.76900 48.66900
N  26.61000 -4.02200 45.59400
C  27.56600 -4.68100 46.37000
C  28.83700 -3.91900 46.22800
C  28.54600 -2.88500 45.37600
C  27.19300 -2.96200 45.11500
C  30.16700 -4.35200 46.76300
C  29.16300 -1.68600 44.80900
O  30.27700 -1.17700 44.99400
C  27.97800 -1.12400 43.88900
C  27.83100 0.29700 44.47400
O  27.25900 0.64500 45.48200
O  28.25500 1.13100 43.44500
C  27.64100 2.46400 43.47900
H  21.30300 -2.69200 42.96100
H  22.17100 -8.14800 46.26400
H  28.15900 -6.31300 47.58500
H  25.32900 -0.00500 42.83800
H  23.05300 -1.29600 41.64100
H  21.67200 0.37000 42.66600
H  23.33100 0.99800 43.11900
H  22.29600 -0.06100 44.18100
H  24.79700 -1.91800 40.55100
H  26.34300 -2.30400 41.30100
H  27.37600 -0.35000 40.38800
H  25.95300 0.54200 40.34900
H  19.35300 -3.46800 43.19100
H  18.58600 -4.30000 44.52500
H  18.83500 -5.08000 42.89600
H  20.89400 -9.25900 44.90100
H  19.18300 -9.57100 45.01100
H  19.96400 -9.00300 46.34000
H  24.89900 -9.21900 46.57200
H  25.81300 -7.64900 48.93600
H  23.41300 -10.24600 48.04500
H  22.84400 -8.60500 48.43900
H  24.07400 -9.26700 49.43000
H  27.44300 -8.71800 46.69600
H  26.60400 -9.82000 47.84800
H  28.58700 -9.74200 49.09100
H  28.11100 -8.02800 49.43600
H  29.19300 -8.27100 48.21200
H  30.72700 -5.00600 46.09500
H  29.99000 -5.09300 47.54200
H  30.82100 -3.50300 46.96600
H  28.17500 -1.02100 42.82200
H  27.66700 2.99700 42.52900
H  28.09200 3.05500 44.27600
H  26.59300 2.35400 43.76000
Mg 16.95100 -1.68900 27.83400
C  16.09200 0.54400 30.56100
C  19.12400 -3.13100 30.04100
C  18.18000 -3.49800 25.15100
C  15.47900 0.48900 25.71000
N  17.44600 -1.35200 30.09600
C  16.92100 -0.49100 30.96900
C  17.33400 -0.77600 32.39000
C  18.30100 -2.00900 32.23500
C  18.28500 -2.17500 30.69700
C  19.72800 -1.72000 32.93700
C  16.17300 -0.99100 33.38500
C  16.19200 0.04900 34.59700
H  17.60400 0.54500 35.14100
N  18.51200 -3.09500 27.66600
C  19.22000 -3.62600 28.65700
C  19.87200 -4.75400 28.20700
C  19.62400 -4.89800 26.80600
C  18.76000 -3.82600 26.45600
C  20.70500 -5.66200 29.12900
C  20.28600 -5.82600 25.80700
O  20.05300 -5.80100 24.59800
C  21.21300 -6.88300 26.37300
N  16.96700 -1.37900 25.74300
C  17.40500 -2.36100 24.87000
C  17.39000 -1.76800 23.41900
C  16.29500 -0.61900 23.58500
C  16.25700 -0.46100 25.10600
C  18.62600 -1.21900 22.71700
C  14.89100 -1.02800 22.98900
C  14.08400 0.00600 22.23200
N  15.92300 0.11300 28.01800
C  15.35200 0.90100 27.08600
C  14.60100 1.94400 27.62700
C  14.89800 1.85600 29.06400
C  15.75400 0.74000 29.17300
C  13.71600 2.81700 26.89200
C  14.67900 2.50600 30.31900
O  13.95500 3.43800 30.54900
C  15.41700 1.68100 31.41700
C  16.33400 2.65200 32.09100
O  17.43000 2.96600 31.75900
O  15.69700 3.13300 33.17000
C  16.30700 4.21300 33.93500
H  19.76800 -3.67400 30.73600
H  18.42700 -4.16200 24.32000
H  14.81700 1.09100 25.08300
H  17.93600 0.09200 32.65800
H  18.00700 -2.89000 32.80600
H  19.61100 -0.78100 33.47900
H  20.47400 -1.52400 32.16600
H  20.00600 -2.54100 33.59700
H  16.29500 -2.00200 33.77200
H  15.23200 -0.90000 32.84300
H  15.78600 -0.55100 35.41300
H  15.41100 0.77500 34.37100
H  20.22100 -6.63600 29.05500
H  20.55300 -5.56500 30.20500
H  21.77700 -5.72400 28.94700
H  21.67000 -7.40000 25.52900
H  20.70200 -7.63900 26.96900
H  22.08800 -6.44500 26.85300
H  16.92900 -2.49800 22.75300
H  16.57100 0.35800 23.18700
H  19.07400 -0.40600 23.28800
H  18.36800 -0.97100 21.68700
H  19.33300 -2.04000 22.60600
H  14.28800 -1.48200 23.77600
H  15.02800 -1.78700 22.21800
H  13.65400 -0.40900 21.32000
H  14.63500 0.92500 22.03200
H  13.34500 0.33400 22.96200
H  12.68500 2.46600 26.93700
H  14.03900 3.01900 25.87100
H  13.81300 3.70400 27.51800
H  14.63400 1.32800 32.08900
H  17.37200 4.10400 34.14200
H  15.81700 4.29300 34.90600
H  16.39800 5.16000 33.40200

