158

Mg 0.20300 43.47100 26.94400
C  2.75400 43.69500 29.34400
C  -2.05800 42.89000 29.36200
C  -2.04000 42.54800 24.61600
C  2.74200 43.74600 24.44200
N  0.35200 43.37000 29.08900
C  1.45800 43.52500 29.85900
C  1.07900 43.45100 31.33700
C  -0.38800 42.94200 31.31600
C  -0.75200 43.10300 29.81900
C  -0.75300 41.56000 31.89500
C  1.29200 44.78100 32.08500
C  1.52100 44.70300 33.64000
H  1.26500 43.31900 34.41800
N  -1.90200 43.14300 27.02400
C  -2.63900 42.96200 28.14400
C  -3.99100 42.64800 27.75900
C  -3.99700 42.50900 26.30300
C  -2.58100 42.68700 25.89800
C  -5.02600 42.34900 28.77400
C  -5.12100 42.18500 25.33700
O  -5.02700 42.10200 24.11000
C  -6.58600 41.96300 25.92200
N  0.31500 43.26700 24.84400
C  -0.72900 42.77000 24.13100
C  -0.28400 42.40000 22.70900
C  0.99700 43.29200 22.58300
C  1.45000 43.40000 24.06100
C  -0.07100 40.85800 22.56200
C  0.77600 44.80300 22.16200
C  1.13300 45.20400 20.70900
N  2.31200 43.74000 26.79300
C  3.20800 43.93600 25.76600
C  4.56800 44.06400 26.22400
C  4.43500 44.00400 27.66300
C  3.06900 43.83700 27.93100
C  5.78500 44.11700 25.34900
C  5.17000 43.98800 28.91600
O  6.41400 43.98400 29.03600
C  4.05500 44.04600 30.06400
C  4.52700 42.97000 31.03300
O  4.75900 41.78100 30.78600
O  4.67200 43.55100 32.26300
C  5.24900 42.78900 33.32400
H  -2.81200 42.66900 30.12000
H  -2.85600 42.24900 23.95400
H  3.49800 43.81200 23.65700
H  1.75000 42.69800 31.75000
H  -1.05100 43.68600 31.75900
H  -1.49400 41.66000 32.68800
H  0.15900 41.12300 32.30000
H  -1.09300 40.79900 31.19200
H  0.39300 45.39600 32.07000
H  2.01900 45.45600 31.63400
H  0.89000 45.46300 34.10000
H  2.52700 45.08500 33.81900
H  -5.81600 43.09900 28.81200
H  -4.68300 42.33900 29.80900
H  -5.38500 41.32500 28.67100
H  -6.61200 41.17800 26.67800
H  -7.15500 41.65800 25.04400
H  -7.06000 42.90800 26.18700
H  -1.09000 42.69500 22.03800
H  1.72700 42.80200 21.93800
H  -0.65400 40.40500 21.76000
H  -0.40800 40.44600 23.51300
H  0.98600 40.62100 22.43500
H  1.34400 45.39100 22.88300
H  -0.24700 45.07000 22.42600
H  0.29800 44.88200 20.08700
H  2.08500 44.73800 20.45300
H  1.30900 46.27900 20.74900
H  5.69000 43.41200 24.52300
H  6.63000 43.96100 26.02000
H  5.83100 45.12100 24.92900
H  4.22500 45.08100 30.36200
H  6.30800 42.55000 33.22900
H  4.57600 41.93400 33.39600
H  5.25300 43.40500 34.22300
Mg -11.23800 17.48500 40.63800
C  -7.73800 16.80600 40.61100
C  -10.41600 20.81100 39.95700
C  -14.52200 18.09900 40.04800
C  -11.76200 14.13600 40.98500
N  -9.27300 18.65100 40.26100
C  -8.01700 18.13900 40.29200
C  -7.01800 19.17200 39.84900
C  -7.78500 20.54400 40.02200
C  -9.26700 19.96700 40.13200
C  -7.42100 21.30600 41.35200
C  -6.43200 19.02800 38.37300
C  -4.88600 18.81700 38.20200
H  -4.32900 17.72500 37.28100
N  -12.30600 19.17900 40.05100
C  -11.79700 20.43000 39.86000
C  -12.92600 21.38500 39.59500
C  -14.15000 20.65100 39.53600
C  -13.73400 19.24700 39.86300
C  -12.71600 22.84900 39.54300
C  -15.53100 21.12300 39.19200
O  -15.76700 22.28500 38.93900
C  -16.65300 20.14500 39.20000
N  -12.94400 16.23500 40.49000
C  -14.21500 16.74000 40.39500
C  -15.23000 15.60000 40.45200
C  -14.35300 14.31400 40.78000
C  -12.95000 14.89100 40.74000
C  -16.37800 15.89500 41.40600
C  -14.60800 13.07500 39.86000
C  -13.73900 12.98800 38.54600
N  -10.06500 15.74100 40.63400
C  -10.42500 14.43900 40.93500
C  -9.24000 13.57800 40.91700
C  -8.16100 14.47900 40.79100
C  -8.67800 15.80000 40.73100
C  -9.13500 12.08900 40.96300
C  -6.73600 14.54400 40.80300
O  -5.88100 13.61100 40.92800
C  -6.40900 16.05800 40.61100
C  -5.38700 16.50500 41.61300
O  -4.37600 17.12300 41.35100
O  -5.91100 16.37000 42.85600
C  -5.15700 16.93700 43.97300
H  -10.10200 21.85500 39.89400
H  -15.60600 18.22900 40.02700
H  -11.86800 13.05500 41.10200
H  -6.10300 19.05800 40.43100
H  -7.82600 21.23300 39.17800
H  -6.76700 20.72300 42.00100
H  -8.30300 21.49000 41.96600
H  -6.95300 22.25300 41.08500
H  -6.64200 19.90200 37.75600
H  -6.95800 18.28300 37.77700
H  -4.43900 18.77000 39.19500
H  -4.56200 19.81700 37.91200
H  -12.32200 23.20600 38.59200
H  -12.00100 23.14900 40.30900
H  -13.66000 23.34900 39.76200
H  -17.55000 20.62700 38.81000
H  -17.02500 19.73300 40.13800
H  -16.56300 19.28200 38.54100
H  -15.58300 15.51900 39.42300
H  -14.49900 13.98500 41.80900
H  -17.12500 16.13900 40.65000
H  -16.32400 16.76300 42.06300
H  -16.70100 14.99000 41.91900
H  -15.66000 13.04900 39.57400
H  -14.37500 12.23500 40.51500
H  -12.90000 12.32700 38.76200
H  -13.37700 13.98400 38.28900
H  -14.34700 12.45600 37.81400
H  -8.21900 11.69000 41.39800
H  -9.28200 11.77600 39.92900
H  -10.01100 11.76500 41.52500
H  -6.05000 16.06900 39.58200
H  -5.44500 17.97900 44.10700
H  -4.09700 16.86600 43.73000
H  -5.29800 16.39600 44.90900

