158

Mg 48.95500 35.48000 27.25200
C  47.09700 33.97000 29.73600
C  49.38200 38.25700 29.39100
C  50.34800 37.20600 24.72200
C  47.94400 33.04300 24.86700
N  48.27400 36.09000 29.27700
C  47.69800 35.17100 30.14200
C  47.84200 35.59800 31.62300
C  48.22900 37.13700 31.44100
C  48.68900 37.24800 29.96900
C  46.96600 38.02800 31.68000
C  49.01600 34.90400 32.37600
C  48.91300 34.89500 33.93000
H  48.03900 36.03000 34.47900
N  49.85000 37.39400 27.10600
C  49.90500 38.37900 28.10700
C  50.73400 39.48900 27.66000
C  51.15700 39.18600 26.30300
C  50.47000 37.86200 26.00800
C  50.98400 40.75600 28.43500
C  52.12500 39.95800 25.38600
O  52.46300 39.50400 24.29100
C  52.67600 41.32400 25.73600
N  49.08200 35.19700 25.08500
C  49.74900 36.05300 24.24200
C  49.67000 35.69900 22.80500
C  49.14700 34.23800 22.92100
C  48.59800 34.13100 24.36900
C  48.85300 36.59400 21.93600
C  50.24100 33.21900 22.52700
C  50.08200 32.25200 21.40100
N  47.83900 33.83400 27.25100
C  47.59900 32.85500 26.21500
C  46.75100 31.83300 26.80400
C  46.50300 32.23800 28.18300
C  47.19600 33.49400 28.37100
C  46.36100 30.50700 26.13700
C  45.84100 31.86800 29.40100
O  45.20100 30.82300 29.62900
C  45.97100 33.11900 30.31700
C  46.16000 32.71400 31.74800
O  47.22400 32.30200 32.24500
O  45.01000 32.93000 32.46200
C  45.09200 33.01800 33.96200
H  49.60800 39.07000 30.08500
H  50.73800 37.67600 23.81700
H  47.68100 32.30400 24.10700
H  46.86600 35.54800 32.10400
H  49.06600 37.46800 32.05600
H  46.77200 38.43900 32.67100
H  46.12900 37.44800 31.29000
H  47.01400 38.86600 30.98500
H  49.98000 35.39100 32.22300
H  49.12100 33.89500 31.97800
H  49.94700 34.97100 34.26700
H  48.54100 33.92900 34.26900
H  51.07900 41.63300 27.79500
H  51.88500 40.87500 29.03600
H  50.11100 40.91900 29.06800
H  51.88000 42.01600 25.46100
H  53.60400 41.53700 25.20500
H  52.88500 41.32500 26.80600
H  50.65900 35.79200 22.35800
H  48.26300 34.08200 22.30200
H  48.03300 36.10000 21.41300
H  49.53300 36.91800 21.14800
H  48.38400 37.43500 22.44500
H  50.45500 32.67400 23.44600
H  51.11800 33.77900 22.20300
H  50.85800 32.26100 20.63600
H  49.14000 32.43500 20.88400
H  50.02500 31.25100 21.82900
H  45.35600 30.53900 25.71600
H  46.48900 29.65400 26.80400
H  47.01000 30.30500 25.28400
H  45.09500 33.75500 30.19300
H  46.04400 33.45700 34.25900
H  45.14700 32.02200 34.40000
H  44.20900 33.48200 34.40300
Mg 42.64600 41.70200 26.47500
C  42.03100 44.15600 29.01900
C  43.61000 39.57200 29.08800
C  43.68900 39.51100 24.24700
C  42.31000 44.10900 24.11800
N  42.80800 41.88300 28.85000
C  42.50600 43.02700 29.59500
C  42.61900 42.68900 31.11900
C  43.35300 41.23200 31.10000
C  43.19500 40.80700 29.61500
C  44.87200 41.35000 31.52000
C  41.09100 42.58400 31.78900
C  40.91500 43.32600 33.15700
H  40.09100 42.68300 34.20800
N  43.32600 39.71500 26.65100
C  43.67800 39.05800 27.78400
C  44.08300 37.68100 27.42300
C  44.23900 37.72900 26.00100
C  43.73800 39.01400 25.59500
C  44.54800 36.70400 28.44700
C  44.67200 36.65700 25.02300
O  44.64800 36.76000 23.81800
C  45.39100 35.41800 25.52100
N  43.13900 41.80900 24.41100
C  43.36000 40.73400 23.70900
C  43.57300 41.14700 22.21600
C  42.79600 42.42500 22.18000
C  42.76100 42.87700 23.61900
C  45.05600 41.20300 21.79700
C  41.37400 42.39100 21.48100
C  40.35300 41.24600 21.79900
N  42.22100 43.69800 26.50600
C  42.12400 44.54600 25.42500
C  41.71000 45.82300 25.81400
C  41.52300 45.66600 27.18200
C  41.99300 44.39700 27.63400
C  41.26100 47.00000 24.90700
C  41.14800 46.29800 28.43000
O  40.75300 47.43500 28.56200
C  41.41300 45.35700 29.60200
C  42.34700 46.04300 30.44200
O  43.53500 46.29100 30.11700
O  41.80200 46.39700 31.64300
C  42.66700 47.02800 32.67600
H  44.07600 38.94400 29.84900
H  43.75100 38.81100 23.41200
H  42.18200 44.82800 23.30600
H  43.26400 43.35200 31.69600
H  42.79500 40.56900 31.76200
H  44.95700 40.78200 32.44600
H  45.16000 42.39500 31.63300
H  45.57500 40.98700 30.77000
H  40.88100 41.59500 32.19600
H  40.33200 42.84600 31.05200
H  40.25000 44.18200 33.04300
H  41.87600 43.55500 33.61800
H  44.96500 35.78200 28.04200
H  43.74200 36.31200 29.06900
H  45.32400 37.10700 29.09700
H  45.83500 34.86700 24.69200
H  44.71100 34.80600 26.11200
H  46.26900 35.76000 26.07000
H  43.02600 40.43600 21.59600
H  43.46100 43.12100 21.66900
H  45.74500 40.70800 22.48200
H  45.42600 42.20100 21.56300
H  45.15600 40.69900 20.83600
H  41.37700 42.56400 20.40500
H  40.99500 43.35800 21.81200
H  39.98700 40.62400 20.98300
H  39.62100 41.68200 22.47800
H  40.80300 40.58400 22.54000
H  40.58900 47.66700 25.44700
H  40.81200 46.65400 23.97600
H  42.13800 47.59100 24.64100
H  40.54300 45.18600 30.23700
H  42.42800 48.07400 32.86500
H  43.74700 46.88300 32.63000
H  42.39200 46.53600 33.60900

