158

Mg -2.31800 33.74400 26.32600
C  -3.99900 32.13200 29.02100
C  -0.87200 35.81700 28.57600
C  -1.45900 35.60700 23.73800
C  -4.27400 31.73200 24.15400
N  -2.46700 34.04800 28.60400
C  -3.23000 33.25300 29.40500
C  -2.92000 33.62000 30.86500
C  -1.97600 34.87900 30.73700
C  -1.68100 34.86500 29.23100
C  -2.59900 36.22600 31.37100
C  -2.25500 32.34800 31.59800
C  -2.96100 31.92300 32.89500
H  -2.16800 31.82300 34.27400
N  -1.23300 35.42200 26.16100
C  -0.65200 36.15800 27.20300
C  0.12200 37.15400 26.67400
C  0.15300 37.01100 25.27200
C  -0.98300 36.06200 24.98400
C  0.82000 38.21500 27.57000
C  0.96700 37.58800 24.19900
O  0.87800 37.32500 23.02800
C  2.18100 38.44600 24.52200
N  -2.87000 33.72400 24.26100
C  -2.20200 34.49900 23.35800
C  -2.71300 34.12600 21.93700
C  -3.23600 32.74300 22.08400
C  -3.45800 32.67300 23.59400
C  -3.75800 35.19800 21.33200
C  -2.37900 31.68100 21.35100
C  -1.08000 31.23600 21.97600
N  -3.78300 32.34500 26.50700
C  -4.47700 31.58300 25.55700
C  -5.24500 30.51300 26.19200
C  -5.03300 30.78500 27.51500
C  -4.22900 31.91900 27.68000
C  -5.99200 29.44200 25.54100
C  -5.47000 30.19400 28.83400
O  -6.14800 29.21500 29.04700
C  -4.76200 31.14500 29.88700
C  -5.86300 31.77900 30.77600
O  -6.84500 32.41700 30.38400
O  -5.88300 31.21800 32.01500
C  -6.99800 31.57800 32.95500
H  -0.40400 36.51100 29.27800
H  -1.16700 36.26900 22.92000
H  -4.59800 30.86700 23.57000
H  -3.79400 33.98700 31.40300
H  -1.09200 34.76500 31.36400
H  -3.51600 35.95500 31.89400
H  -2.93100 36.88700 30.57000
H  -1.95100 36.77200 32.05600
H  -1.24800 32.64500 31.89200
H  -2.13100 31.54200 30.87400
H  -3.40100 30.96900 32.60500
H  -3.74300 32.62400 33.18700
H  1.69500 37.76200 28.03700
H  0.10900 38.55800 28.32200
H  1.23600 39.10100 27.09000
H  2.83900 38.52000 23.65700
H  2.71200 37.94600 25.33200
H  1.91500 39.46300 24.81000
H  -1.93900 34.17900 21.17100
H  -4.24600 32.59400 21.70000
H  -4.00900 35.93700 22.09300
H  -4.73100 34.72600 21.19300
H  -3.43000 35.70000 20.42200
H  -2.17800 31.93500 20.31000
H  -3.09000 30.85500 21.34400
H  -1.13400 30.16700 22.18100
H  -1.11600 31.72000 22.95200
H  -0.18300 31.37600 21.37200
H  -5.88300 29.37100 24.45900
H  -7.02700 29.64000 25.81800
H  -5.71400 28.47000 25.94800
H  -4.09600 30.49200 30.45100
H  -7.70800 32.27300 32.50800
H  -6.45300 32.07300 33.75900
H  -7.48700 30.66700 33.30100
Mg -5.44100 24.62800 25.82600
C  -4.02000 26.05900 28.66400
C  -7.18600 22.52500 27.75900
C  -6.04000 22.85800 23.05300
C  -3.23900 26.82400 23.85600
N  -5.44600 24.23400 28.01400
C  -4.93300 25.02100 28.98000
C  -5.51500 24.69500 30.38400
C  -6.43400 23.40800 30.05800
C  -6.35500 23.34500 28.52400
C  -6.00900 22.06000 30.59900
C  -6.29700 25.84900 31.02900
C  -6.00200 26.08300 32.54600
H  -5.17800 25.02300 33.35000
N  -6.72600 23.01500 25.45100
C  -7.42400 22.33500 26.41300
C  -8.23000 21.32900 25.71000
C  -7.86000 21.41800 24.26300
C  -6.77500 22.42400 24.17600
C  -9.19200 20.43200 26.43300
C  -8.33400 20.64300 23.13500
O  -7.86500 20.77400 22.01500
C  -9.35100 19.63700 23.33000
N  -4.82300 24.90200 23.67600
C  -5.15900 23.90100 22.80400
C  -4.42100 24.10500 21.45800
C  -3.49300 25.33700 21.76900
C  -3.88200 25.75400 23.15400
C  -3.47900 22.97700 20.98000
C  -3.56400 26.45500 20.62500
C  -2.20300 27.12500 20.35000
N  -3.98700 26.10900 26.15300
C  -3.33000 26.97800 25.23800
C  -2.68600 28.03800 25.98200
C  -2.93900 27.67500 27.27900
C  -3.67300 26.46400 27.35100
C  -1.87400 29.17500 25.51500
C  -2.59700 28.06800 28.59800
O  -1.88000 28.96400 29.06600
C  -3.36600 27.12100 29.63800
C  -2.29600 26.48800 30.51000
O  -1.59000 25.55400 30.25300
O  -2.20100 27.23900 31.61300
C  -1.00600 26.95200 32.48200
H  -7.87200 22.01400 28.43800
H  -6.14000 22.15800 22.22100
H  -2.64700 27.49800 23.23300
H  -4.69200 24.42500 31.04700
H  -7.41300 23.63300 30.48100
H  -5.51500 21.29200 30.00500
H  -6.95300 21.67600 30.98500
H  -5.41800 22.19500 31.50500
H  -7.37400 25.68300 30.99900
H  -6.12800 26.77300 30.47600
H  -6.89600 26.25700 33.14500
H  -5.59600 27.09000 32.64300
H  -10.13100 20.29300 25.89800
H  -9.43800 20.91400 27.38000
H  -8.73900 19.45800 26.61800
H  -9.31000 19.02000 22.43300
H  -10.29700 20.17700 23.28000
H  -9.27300 19.04300 24.24100
H  -5.18100 24.29900 20.70100
H  -2.42300 25.12700 21.79500
H  -3.44800 22.30600 21.83800
H  -2.44200 23.18700 20.71800
H  -3.83200 22.45900 20.08700
H  -4.18700 27.26200 21.01100
H  -4.12200 26.11200 19.75400
H  -1.94100 27.26600 19.30200
H  -1.29900 26.59200 20.64500
H  -2.05700 28.12500 20.75900
H  -0.85000 28.83200 25.37100
H  -1.88400 29.97300 26.25800
H  -2.29800 29.52100 24.57200
H  -4.01700 27.69800 30.29500
H  -0.12000 26.66800 31.91500
H  -1.19200 26.16700 33.21600
H  -0.68200 27.90500 32.90000

