158

Mg 26.01900 0.15100 29.48900
C  27.65500 -0.15500 32.54200
C  23.07100 0.48400 31.43200
C  24.08100 -0.04600 26.67300
C  28.85500 -0.58100 27.81100
N  25.47200 0.31400 31.71000
C  26.32400 0.12600 32.77800
C  25.64200 0.50700 34.14600
C  24.11600 0.59000 33.79000
C  24.18300 0.55000 32.22200
C  23.12500 -0.42000 34.39500
C  26.25200 1.78800 34.73200
C  27.03400 1.63500 36.14100
H  26.54600 2.60700 37.24800
N  23.83500 0.33400 29.09200
C  22.85400 0.51000 30.03300
C  21.54900 0.55000 29.29700
C  21.81600 0.47000 27.85200
C  23.25300 0.24300 27.79700
C  20.24100 0.68000 30.02200
C  20.89600 0.58900 26.64700
O  21.33000 0.38100 25.53700
C  19.50400 1.02300 26.84800
N  26.37300 -0.22000 27.56800
C  25.50600 -0.20100 26.53100
C  26.22900 -0.11100 25.20100
C  27.75900 -0.26800 25.66400
C  27.71100 -0.25200 27.13800
C  25.74600 -1.14300 24.11500
C  28.68600 0.77500 25.01200
C  29.50800 0.24400 23.96800
N  27.93600 -0.26000 30.01600
C  29.02600 -0.63100 29.22500
C  30.18100 -0.75400 30.09600
C  29.64900 -0.55100 31.39600
C  28.30200 -0.27200 31.28800
C  31.64500 -1.18300 29.67800
C  29.99600 -0.52400 32.84300
O  31.04800 -0.62300 33.46500
C  28.71900 -0.23500 33.64200
C  28.62400 -1.45200 34.62400
O  28.34100 -2.57600 34.29900
O  28.94400 -1.03900 35.88100
C  29.47400 -2.02700 36.86300
H  22.17700 0.70000 32.02000
H  23.62700 -0.13800 25.68500
H  29.80100 -0.77400 27.30100
H  25.83500 -0.24400 34.91100
H  23.71900 1.56800 34.06000
H  22.35000 0.01200 35.02800
H  23.75600 -1.13000 34.92900
H  22.67800 -1.12200 33.69100
H  25.43800 2.50100 34.86300
H  26.92700 2.27900 34.03100
H  28.11300 1.76400 36.06000
H  26.96200 0.58900 36.43800
H  20.32100 0.29000 31.03700
H  19.46000 0.12600 29.50100
H  19.98100 1.73300 30.13500
H  19.10500 1.45700 25.93200
H  19.46700 1.76100 27.64900
H  18.95600 0.11600 27.10200
H  26.14400 0.95100 24.96800
H  27.95500 -1.30500 25.39000
H  26.44600 -1.96600 23.97100
H  25.52900 -0.75800 23.11800
H  24.75700 -1.44400 24.46000
H  29.27500 1.28300 25.77500
H  28.03500 1.49600 24.51900
H  29.49300 0.72600 22.99100
H  29.29700 -0.77700 23.65100
H  30.54200 0.24300 24.31400
H  32.33200 -0.50600 30.18600
H  31.79800 -0.91300 28.63300
H  31.82500 -2.23800 29.88100
H  28.80200 0.74100 34.11800
H  29.05000 -1.83300 37.84800
H  30.54700 -1.93100 37.02900
H  29.21000 -3.03100 36.53300
Mg 48.47000 46.30800 42.79900
C  45.03000 46.45000 42.20000
C  48.54100 43.12300 41.47300
C  51.82700 46.55900 42.52200
C  48.29900 49.59700 43.75200
N  46.94300 44.96500 41.84400
C  45.61700 45.23000 41.74600
C  44.97800 44.11300 41.01100
C  45.95600 42.91700 41.26100
C  47.25300 43.68400 41.52900
C  45.60500 41.87800 42.36100
C  44.62800 44.40300 39.52100
C  43.16900 44.07400 39.15300
H  42.96900 43.88400 37.69100
N  50.02200 44.99400 42.08100
C  49.83000 43.66600 41.71400
C  51.17400 43.07000 41.65000
C  52.15800 44.10200 41.81100
C  51.39400 45.26100 42.23000
C  51.37400 41.58900 41.26900
C  53.68200 43.90100 41.71600
O  54.01600 42.90400 41.21500
C  54.67500 44.93900 42.16800
N  49.83600 47.94100 42.71400
C  51.18800 47.77100 42.84700
C  51.87500 49.06600 43.25200
C  50.75200 50.05100 43.67600
C  49.54300 49.08500 43.36400
C  53.06400 48.87900 44.32300
C  50.73400 51.45500 42.94200
C  50.52200 52.71900 43.85100
N  46.96700 47.73000 43.19700
C  47.04300 48.97100 43.68400
C  45.68300 49.57900 43.84900
C  44.85800 48.61200 43.19000
C  45.69500 47.57500 42.79700
C  45.34000 50.90200 44.45800
C  43.48700 48.29500 42.82700
O  42.52100 48.92300 43.14600
C  43.50100 46.82100 42.11900
C  42.51300 45.90400 42.75000
O  41.95000 45.00500 42.12300
O  42.41700 46.06500 44.11900
C  41.38900 45.25400 44.79700
H  48.56600 42.06200 41.21700
H  52.90100 46.75000 42.49400
H  48.38400 50.65500 44.01100
H  44.08900 43.83200 41.57500
H  46.18800 42.37100 40.34600
H  44.58900 41.97000 42.74500
H  46.46100 41.91200 43.03500
H  45.61600 40.92300 41.83700
H  45.31000 43.81700 38.90500
H  44.87100 45.44500 39.31100
H  42.49100 44.84400 39.52100
H  42.88900 43.13400 39.62700
H  51.71000 41.46200 40.24000
H  50.46400 40.99000 41.32100
H  52.08200 41.04600 41.89400
H  54.58900 45.79400 41.49800
H  55.68900 44.54100 42.14400
H  54.38400 45.16400 43.19400
H  52.23700 49.34400 42.26200
H  50.75000 50.19900 44.75600
H  53.94800 49.45200 44.04500
H  53.33000 47.82700 44.41900
H  52.81200 49.29000 45.30000
H  49.91100 51.49800 42.22900
H  51.67400 51.58800 42.40800
H  51.41100 53.34700 43.91200
H  50.24500 52.33200 44.83100
H  49.75600 53.40800 43.49200
H  45.76900 51.65000 43.79100
H  45.80100 51.04000 45.43600
H  44.27000 50.97000 44.65500
H  43.32000 46.90000 41.04700
H  40.39200 45.66400 44.63400
H  41.73300 45.26100 45.83100
H  41.42100 44.21900 44.45600

