158

Mg 43.24600 3.94700 46.79500
C  41.54400 7.02400 46.47400
C  40.22100 2.32400 46.27200
C  44.84100 0.98500 46.74000
C  46.25900 5.72800 46.79700
N  41.16000 4.63700 46.26100
C  40.70400 5.89400 46.31600
C  39.21000 5.95600 46.35100
C  38.78200 4.43300 46.35000
C  40.11000 3.73200 46.32500
C  37.80800 3.86400 47.44300
C  38.57400 6.94700 45.30600
C  37.26500 6.59400 44.58000
H  37.25300 6.22100 43.05100
N  42.64700 1.86800 46.50400
C  41.36300 1.46100 46.36600
C  41.28100 -0.00600 46.37800
C  42.64200 -0.47300 46.46700
C  43.43600 0.77200 46.64500
C  39.98100 -0.84100 46.03900
C  43.16600 -1.81700 46.31900
O  42.38400 -2.74800 46.28400
C  44.69900 -2.07000 46.20000
N  45.21600 3.50300 46.63800
C  45.64200 2.21000 46.83100
C  47.12700 2.11500 46.75300
C  47.63400 3.56800 46.70900
C  46.28400 4.29900 46.71100
C  47.76500 1.26700 47.87500
C  48.39700 3.95600 45.39700
C  49.94000 4.20800 45.53700
N  43.84900 6.00700 46.68500
C  45.12100 6.56600 46.75700
C  44.98600 7.99500 46.76400
C  43.60500 8.24700 46.73800
C  42.94700 6.99900 46.60000
C  46.16700 8.94100 46.88400
C  42.56200 9.27000 46.74300
O  42.83300 10.47600 46.82200
C  41.16300 8.53900 46.58300
C  40.42500 8.73000 47.87500
O  40.40600 8.00400 48.85500
O  39.48400 9.67200 47.71400
C  38.43800 9.88900 48.74500
H  39.26300 1.81700 46.13700
H  45.46900 0.10900 46.91500
H  47.18300 6.30500 46.86600
H  39.06600 6.39900 47.33700
H  38.31000 4.23000 45.38800
H  37.20500 3.06200 47.01600
H  37.23700 4.70700 47.83200
H  38.30800 3.31900 48.24300
H  39.33000 7.13300 44.54400
H  38.49200 7.90800 45.81300
H  36.77000 7.56500 44.54700
H  36.60500 5.94000 45.15000
H  39.02800 -0.33200 46.18600
H  40.15500 -1.58600 46.81600
H  39.97500 -1.33900 45.07000
H  45.17700 -1.86600 47.15800
H  45.02700 -1.37000 45.43200
H  44.93500 -3.02800 45.73700
H  47.41200 1.63900 45.81500
H  48.27000 3.68900 47.58600
H  47.99500 0.29500 47.43900
H  47.02000 1.06200 48.64300
H  48.69900 1.65200 48.28600
H  48.00100 4.76400 44.78200
H  48.46000 3.08200 44.74800
H  50.08300 5.20600 45.12200
H  50.52600 3.56900 44.87700
H  50.32700 4.10900 46.55100
H  46.83600 8.83100 46.03100
H  46.78200 8.89000 47.78300
H  45.74000 9.93500 47.02000
H  40.66400 9.05300 45.76200
H  37.63700 9.15500 48.84100
H  37.96500 10.84900 48.53800
H  38.97200 10.10200 49.67100
Mg -11.90300 38.99800 41.87400
C  -9.88000 36.14500 41.22400
C  -9.45100 41.03500 40.61700
C  -14.17100 41.51500 42.02800
C  -14.49400 36.68600 42.69400
N  -9.93600 38.62400 40.91100
C  -9.30700 37.39700 40.80200
C  -7.97000 37.61300 40.10300
C  -7.73000 39.13900 40.07100
C  -9.12500 39.69100 40.55100
C  -6.50900 39.77000 40.73600
C  -7.71600 36.74100 38.78400
C  -6.50700 35.72600 38.74500
H  -5.53500 35.99100 37.67100
N  -11.77000 41.06200 41.47700
C  -10.64100 41.72500 40.90700
C  -10.93300 43.12700 40.92900
C  -12.32900 43.28000 41.15700
C  -12.85400 41.94500 41.58900
C  -9.97600 44.17000 40.38500
C  -13.04200 44.61700 41.10500
O  -12.44900 45.65200 40.85800
C  -14.56400 44.72300 41.39000
N  -14.04600 39.05700 42.18600
C  -14.65400 40.20900 42.34200
C  -16.08900 40.03000 42.90900
C  -16.22000 38.52000 43.03800
C  -14.82300 38.05400 42.61100
C  -16.30700 40.95200 44.13400
C  -17.42500 37.96400 42.14100
C  -18.72200 37.43600 42.90300
N  -12.21900 36.86300 41.90500
C  -13.30900 36.10900 42.31400
C  -12.95300 34.75400 42.31600
C  -11.61500 34.70900 41.93000
C  -11.19600 36.00000 41.68600
C  -13.84200 33.66300 42.81500
C  -10.47800 33.87000 41.66600
O  -10.30500 32.64800 41.74100
C  -9.28400 34.83200 41.20200
C  -8.19300 34.65100 42.20800
O  -8.29000 34.80800 43.41800
O  -7.12200 34.05100 41.61000
C  -5.97300 33.99500 42.44900
H  -8.70500 41.65300 40.11400
H  -14.90600 42.31100 42.16400
H  -15.28400 36.06700 43.12600
H  -7.26600 37.17300 40.80900
H  -7.69500 39.32400 38.99700
H  -5.69900 39.09200 41.00300
H  -6.75700 40.24200 41.68600
H  -6.09300 40.61400 40.18500
H  -7.72700 37.36000 37.88600
H  -8.56200 36.06100 38.68400
H  -6.90300 34.72700 38.56200
H  -6.03000 35.76700 39.72400
H  -8.94500 43.84700 40.52900
H  -10.12900 45.15800 40.81800
H  -10.18800 44.22600 39.31700
H  -14.96000 43.87000 40.83800
H  -14.81000 45.66400 40.89900
H  -14.85500 44.82400 42.43600
H  -16.83200 40.31500 42.16400
H  -16.39700 38.37300 44.10300
H  -15.39700 41.43500 44.48800
H  -16.70400 40.33400 44.94000
H  -16.99300 41.79700 44.07600
H  -17.07500 37.10500 41.56900
H  -17.76100 38.60800 41.32800
H  -19.56500 37.94900 42.43800
H  -18.71600 37.65200 43.97100
H  -18.94800 36.38500 42.72600
H  -14.46300 33.97800 43.65400
H  -13.21700 32.78900 43.00200
H  -14.55000 33.45800 42.01300
H  -8.90200 34.46800 40.24800
H  -5.23000 34.63100 41.96700
H  -5.60000 32.97200 42.50600
H  -6.00200 34.24100 43.51000

