158

Mg 17.21000 -1.83600 28.33400
C  16.19800 0.38600 30.80700
C  19.28700 -3.38700 30.58900
C  18.44600 -3.59100 25.79600
C  15.47600 0.32400 26.00400
N  17.62300 -1.55200 30.43900
C  17.03500 -0.58500 31.24600
C  17.48800 -0.83500 32.66800
C  18.60600 -1.96900 32.61500
C  18.45000 -2.38000 31.13800
C  20.07400 -1.72500 32.97700
C  16.24900 -1.28300 33.61000
C  16.20500 -0.47000 34.88600
H  17.52100 -0.08300 35.55000
N  18.74800 -3.24400 28.23200
C  19.40400 -3.83300 29.24400
C  20.05500 -5.01600 28.83400
C  19.77400 -5.20900 27.39300
C  18.90300 -4.00500 27.06600
C  20.87700 -5.94600 29.75900
C  20.28100 -6.17800 26.41000
O  20.07500 -6.23400 25.16000
C  21.25100 -7.21400 26.89200
N  16.93400 -1.74300 26.24000
C  17.67900 -2.50400 25.39500
C  17.29400 -2.18700 23.92100
C  16.34900 -0.92800 23.98900
C  16.25000 -0.71900 25.51900
C  18.52300 -1.95800 23.01200
C  14.97100 -1.16100 23.28000
C  13.99500 -2.03500 24.03100
N  15.92800 -0.07500 28.38100
C  15.34700 0.67600 27.39000
C  14.46000 1.69600 27.97300
C  14.79900 1.67300 29.33300
C  15.72400 0.64400 29.48400
C  13.47700 2.65800 27.33500
C  14.62600 2.37100 30.65100
O  13.92600 3.32800 30.94900
C  15.49000 1.50400 31.63400
C  16.35800 2.30900 32.35200
O  17.42400 2.70700 32.01200
O  15.83300 2.71600 33.52500
C  16.47400 3.73600 34.34000
H  19.96600 -3.85700 31.30400
H  18.82700 -4.12400 24.92400
H  14.98400 0.99900 25.30100
H  18.04800 0.04500 32.98300
H  18.29800 -2.83900 33.19600
H  20.05000 -0.87500 33.65800
H  20.59000 -1.55300 32.03200
H  20.42000 -2.60400 33.52000
H  16.39500 -2.31200 33.93900
H  15.34200 -1.16600 33.01600
H  15.52900 -1.04200 35.52100
H  15.66600 0.42100 34.56200
H  20.46800 -6.94300 29.59800
H  20.83300 -5.70500 30.82100
H  21.92000 -5.84600 29.45700
H  20.73800 -7.82100 27.63900
H  22.20400 -6.80000 27.22000
H  21.58200 -7.88100 26.09600
H  16.78100 -3.08400 23.57500
H  16.71700 -0.02300 23.50700
H  18.34100 -1.31600 22.15100
H  18.75800 -2.97000 22.68200
H  19.30100 -1.45900 23.59100
H  15.08100 -1.64500 22.30900
H  14.41000 -0.22900 23.20700
H  13.08800 -1.45100 24.18900
H  14.39300 -2.40200 24.97700
H  13.67600 -2.89700 23.44500
H  13.10400 2.16000 26.44000
H  14.04800 3.51600 26.97900
H  12.61600 2.97500 27.92300
H  14.73500 1.04800 32.27400
H  17.23100 4.28500 33.78000
H  17.00500 3.37100 35.22000
H  15.62100 4.34100 34.64600
Mg 7.02900 53.33200 41.18300
C  5.82000 50.04100 40.97100
C  10.09200 52.18500 40.24300
C  7.97600 56.57100 40.46700
C  3.82100 54.48500 41.82600
N  7.78600 51.32800 40.54500
C  7.16000 50.13500 40.65400
C  8.15100 48.91900 40.62400
C  9.57100 49.70900 40.62700
C  9.10000 51.19300 40.48300
C  10.50000 49.55500 41.84100
C  8.02900 47.87000 39.53200
C  8.50800 48.22200 38.09800
H  7.63700 47.65700 36.93400
N  8.82400 54.24700 40.36900
C  10.00500 53.57900 40.10400
C  11.02400 54.54400 39.83100
C  10.41400 55.85500 39.82100
C  8.98600 55.60000 40.23700
C  12.46200 54.15600 39.56400
C  11.13700 57.18400 39.39600
O  12.33300 57.19800 39.00300
C  10.34400 58.40900 39.17300
N  6.06900 55.27300 41.21200
C  6.67800 56.43800 40.87900
C  5.83600 57.68500 41.30000
C  4.49700 56.98100 41.72700
C  4.76800 55.49100 41.53300
C  6.42600 58.64100 42.28300
C  3.16300 57.51700 41.00200
C  2.81300 59.03100 41.10100
N  5.17200 52.50100 41.37400
C  3.91300 53.08800 41.57200
C  2.91600 52.11500 41.55000
C  3.63200 50.90300 41.37400
C  4.99600 51.18600 41.25300
C  1.38100 52.24600 41.82500
C  3.43500 49.48700 41.30500
O  2.43000 48.81900 41.38200
C  4.87100 48.82800 40.99800
C  4.72300 47.93000 39.70700
O  4.57800 48.34200 38.55600
O  4.69800 46.58300 40.00900
C  4.82100 45.64000 38.86100
H  11.10500 51.83000 40.03700
H  8.36400 57.58200 40.32700
H  2.82600 54.74400 42.19400
H  8.06900 48.42900 41.59500
H  10.10100 49.48900 39.70100
H  10.44000 50.46500 42.43700
H  11.51000 49.39400 41.46300
H  10.36200 48.66000 42.44800
H  7.11500 47.28600 39.62900
H  8.67700 47.04100 39.81800
H  9.54700 47.99700 37.85600
H  8.41400 49.30000 37.96700
H  12.55300 53.19800 39.05300
H  13.03200 53.99200 40.47900
H  13.04100 54.88000 38.99100
H  9.48600 58.09900 38.57500
H  10.86100 59.10700 38.51500
H  10.14000 58.94600 40.09900
H  5.77900 58.30700 40.40700
H  4.52600 57.22400 42.79000
H  7.34500 58.19900 42.66800
H  5.73000 58.79700 43.10600
H  6.76800 59.51600 41.73000
H  2.29300 56.90200 41.23300
H  3.35500 57.25300 39.96200
H  3.60500 59.46600 41.71100
H  1.85300 59.20300 41.58700
H  2.72300 59.45300 40.10000
H  0.79300 51.46600 41.34300
H  1.10400 53.23900 41.47300
H  1.23100 52.14400 42.90000
H  5.24100 48.17900 41.79200
H  5.37400 46.07800 38.03000
H  3.85800 45.19100 38.61700
H  5.42600 44.82600 39.26100

