158

Mg 46.90500 45.44000 43.86400
C  43.67300 45.17900 43.14300
C  47.42200 42.14900 42.87300
C  50.27100 46.06200 43.92800
C  46.48800 48.99900 44.26600
N  45.76800 43.87800 43.11500
C  44.44600 44.03600 42.81200
C  43.92500 42.85200 42.05000
C  44.97300 41.74400 42.47700
C  46.16400 42.66800 42.66300
C  44.59200 40.91600 43.76300
C  43.67900 43.10000 40.49900
C  42.63000 42.12500 39.89700
H  42.94700 41.48100 38.49300
N  48.65300 44.22500 43.52200
C  48.64100 42.85100 43.18300
C  49.94600 42.29800 43.36200
C  50.72900 43.46500 43.57400
C  49.89200 44.66900 43.74600
C  50.32100 40.89700 43.08500
C  52.28300 43.47800 43.50300
O  52.90700 42.45500 43.45500
C  53.11100 44.76000 43.55800
N  48.21700 47.41900 43.86000
C  49.56500 47.24700 43.92100
C  50.29800 48.58000 44.24300
C  49.08100 49.52300 44.33000
C  47.87400 48.61800 44.14600
C  51.11300 48.43700 45.59000
C  49.18200 50.86200 43.53000
C  49.42700 52.12400 44.30200
N  45.40400 46.86000 43.91000
C  45.30500 48.20900 44.08500
C  43.92600 48.66600 43.91900
C  43.23000 47.46700 43.58800
C  44.15900 46.45000 43.61200
C  43.43000 50.06200 43.85300
C  41.97600 46.88400 43.20200
O  40.88000 47.42200 42.96100
C  42.16100 45.42500 42.98400
C  41.35000 44.54700 43.92100
O  40.35700 43.90600 43.53800
O  41.99500 44.39300 45.16300
C  41.17300 43.66900 46.16700
H  47.55800 41.11600 42.54800
H  51.24900 46.19300 44.39500
H  46.29400 50.05500 44.46200
H  42.96300 42.64100 42.51900
H  45.22400 41.08500 41.64600
H  45.11100 41.23600 44.66600
H  44.90100 39.88100 43.62200
H  43.52700 41.03900 43.96000
H  44.64500 43.12400 39.99400
H  43.30300 44.12100 40.42600
H  41.72100 42.70500 39.73800
H  42.36700 41.36100 40.62800
H  51.31900 40.63500 43.43600
H  50.22100 40.66700 42.02400
H  49.59900 40.25200 43.58500
H  53.21000 45.16400 44.56500
H  52.72200 45.57000 42.94100
H  54.11300 44.51400 43.20600
H  51.08700 48.81700 43.52800
H  49.01300 49.85400 45.36700
H  50.84300 49.23200 46.28500
H  52.17500 48.40100 45.34600
H  50.85700 47.49700 46.07900
H  48.28400 50.87100 42.91300
H  50.05700 50.79300 42.88400
H  50.07000 51.93900 45.16200
H  48.51200 52.62900 44.61300
H  49.98000 52.86100 43.71900
H  42.34700 50.06100 43.72900
H  43.93300 50.66400 43.09600
H  43.53200 50.58300 44.80500
H  41.80100 45.23200 41.97300
H  41.61200 43.81900 47.15300
H  41.23900 42.64200 45.80700
H  40.11900 43.93600 46.09000
Mg 46.93900 34.74800 27.73200
C  45.47200 33.11000 30.48600
C  46.94500 37.50400 29.72400
C  47.83300 36.34100 25.12000
C  46.31200 31.79900 25.81100
N  46.28800 35.21400 29.94500
C  45.86300 34.36900 30.89200
C  45.97700 34.96800 32.27500
C  46.03000 36.46000 31.90700
C  46.41800 36.44300 30.41600
C  44.78900 37.35600 32.16600
C  47.22000 34.52600 33.04300
C  46.98600 34.39800 34.61300
H  45.87800 35.11900 35.36600
N  47.50600 36.57100 27.50100
C  47.54000 37.59200 28.44200
C  48.23700 38.74900 27.86400
C  48.41000 38.42200 26.48000
C  47.91200 37.09200 26.30300
C  48.61600 40.05300 28.63900
C  49.03400 39.33100 25.45900
O  49.15300 39.00300 24.28600
C  49.55900 40.74500 25.83600
N  47.09800 34.11400 25.75200
C  47.49900 35.01000 24.81700
C  47.58900 34.33600 23.44300
C  47.31400 32.83000 23.76300
C  46.92200 32.87000 25.19500
C  46.78800 35.06300 22.35300
C  48.36900 31.64400 23.55300
C  47.78000 30.35000 23.00300
N  46.14600 32.78100 28.02100
C  45.92900 31.70500 27.17600
C  45.31000 30.59000 27.85500
C  45.06300 31.12600 29.14900
C  45.66400 32.41100 29.22700
C  45.14200 29.18100 27.31700
C  44.48900 30.90300 30.47500
O  43.81100 29.98500 30.81200
C  44.55400 32.17100 31.30300
C  44.92200 31.71700 32.75800
O  46.00000 31.25500 33.10100
O  43.67200 31.54200 33.42300
C  43.87900 30.88400 34.69800
H  46.85800 38.43400 30.29000
H  48.08600 36.88200 24.20500
H  46.05600 30.94700 25.17900
H  45.08100 34.76300 32.86100
H  46.82400 36.89900 32.51100
H  44.68000 38.08500 31.36400
H  44.86600 37.85100 33.13400
H  43.86300 36.78200 32.21000
H  48.06400 35.18700 32.84700
H  47.44800 33.50500 32.74000
H  47.88200 34.53900 35.21700
H  46.84600 33.32400 34.73300
H  47.94000 40.89600 28.49800
H  49.62300 40.42200 28.44400
H  48.52300 39.90200 29.71500
H  50.35600 40.79400 26.57800
H  48.72600 41.40400 26.08400
H  49.97400 41.23200 24.95400
H  48.62100 34.44400 23.10900
H  46.44100 32.45200 23.23000
H  46.21000 35.87200 22.79800
H  46.17600 34.40900 21.73200
H  47.40400 35.53700 21.58900
H  48.86500 31.30100 24.46100
H  49.13600 32.08000 22.91300
H  48.36400 30.18900 22.09700
H  46.70100 30.26000 22.88500
H  47.92600 29.57300 23.75400
H  45.30000 28.40000 28.06000
H  45.88400 29.01400 26.53600
H  44.16100 28.95300 26.90000
H  43.52700 32.53500 31.31500
H  42.89800 30.82900 35.16800
H  44.51500 31.50500 35.32900
H  44.37800 29.92500 34.83500

