158

Mg 17.51600 -1.21300 28.21100
C  16.53700 0.67400 31.02100
C  19.70300 -3.03400 30.24500
C  19.03700 -2.60500 25.54700
C  15.83000 1.00500 26.17300
N  18.17200 -1.01300 30.31900
C  17.45200 -0.34900 31.31400
C  17.96100 -0.64900 32.74800
C  19.10100 -1.70300 32.39600
C  18.92500 -2.00200 30.90800
C  20.55900 -1.30100 32.61000
C  16.90000 -1.18200 33.76000
C  16.68900 -0.19800 34.94200
H  17.86700 0.45300 35.51400
N  18.90100 -2.88500 27.95300
C  19.64500 -3.46700 28.90400
C  20.55900 -4.35800 28.23100
C  20.19500 -4.34000 26.83000
C  19.32200 -3.28000 26.74600
C  21.43700 -5.35400 29.06300
C  20.71100 -5.19500 25.70500
O  20.59600 -4.96600 24.54200
C  21.53900 -6.50400 25.90800
N  17.54700 -0.74200 26.11100
C  18.23700 -1.53700 25.25600
C  18.15500 -1.01400 23.86000
C  17.06400 0.05100 24.04200
C  16.78100 0.16800 25.54600
C  19.56600 -0.67300 23.28600
C  15.82300 -0.26400 23.12100
C  14.64100 -0.86300 23.84200
N  16.36900 0.51500 28.48900
C  15.63100 1.24800 27.59500
C  14.88000 2.28700 28.30200
C  15.22200 2.00700 29.64600
C  16.15000 0.99700 29.75100
C  14.05100 3.33600 27.67400
C  14.89900 2.47100 30.96300
O  14.16200 3.32100 31.40400
C  15.78000 1.63700 31.90000
C  16.68600 2.64000 32.57000
O  17.82800 2.80600 32.17500
O  16.01000 3.17700 33.63000
C  16.82100 4.11700 34.44400
H  20.35300 -3.62200 30.89600
H  19.46300 -2.87400 24.57800
H  15.31500 1.71600 25.52300
H  18.43600 0.27400 33.08000
H  18.85000 -2.63000 32.91300
H  21.02200 -0.92400 31.69800
H  21.19700 -2.04200 33.09300
H  20.61700 -0.48600 33.33100
H  17.09500 -2.18100 34.15200
H  15.94900 -1.37000 33.26100
H  16.17100 -0.72400 35.74300
H  15.99800 0.56100 34.57700
H  22.15300 -4.81000 29.67900
H  22.07100 -5.89800 28.36300
H  20.76100 -6.02600 29.59100
H  21.16100 -7.15700 26.69500
H  22.55400 -6.22200 26.18600
H  21.60000 -7.05300 24.96800
H  17.77700 -1.87100 23.30300
H  17.41800 1.04500 23.76900
H  20.47800 -1.00400 23.78200
H  19.68200 0.41100 23.26600
H  19.68200 -1.09600 22.28800
H  16.04900 -1.03200 22.38100
H  15.47500 0.68000 22.70300
H  14.05500 -0.00800 24.18000
H  15.00500 -1.39000 24.72400
H  14.08000 -1.55400 23.21300
H  14.50000 3.70500 26.75200
H  14.03500 4.13500 28.41500
H  13.03200 3.07500 27.38800
H  15.15600 1.27100 32.71500
H  17.85800 4.36300 34.21600
H  16.76700 3.79900 35.48500
H  16.28600 5.06600 34.49300
Mg 41.11400 41.02300 26.43500
C  40.19200 43.18100 29.09300
C  42.50500 39.00600 28.83000
C  42.01700 38.94200 23.95800
C  40.36200 43.56700 24.16500
N  41.50400 41.21000 28.80300
C  40.76700 42.02400 29.62900
C  40.83600 41.59900 31.08200
C  41.89400 40.45200 30.88200
C  41.99500 40.15400 29.40900
C  43.22700 40.58800 31.67400
C  39.38600 41.23800 31.61200
C  38.93100 41.94900 32.92500
H  38.50800 41.05900 34.12900
N  41.90900 39.14300 26.41800
C  42.44600 38.47100 27.49000
C  42.82900 37.12300 27.03600
C  42.51700 37.06400 25.60200
C  42.16900 38.42000 25.26600
C  43.28100 36.01800 27.91400
C  42.63100 35.92000 24.53500
O  42.31300 36.01300 23.41800
C  43.20800 34.63300 24.98100
N  41.13500 41.23800 24.36800
C  41.50400 40.16400 23.59800
C  41.37300 40.52300 22.09900
C  40.62000 41.90600 22.16500
C  40.71000 42.29200 23.64400
C  42.64500 40.33200 21.21500
C  39.01800 41.92600 21.85200
C  38.09600 41.01200 22.75900
N  40.43000 42.87800 26.61300
C  40.19600 43.87200 25.53900
C  39.61100 45.07200 26.15700
C  39.59300 44.74600 27.55400
C  40.07900 43.46000 27.75200
C  39.05200 46.33500 25.52400
C  39.26300 45.36100 28.79200
O  38.99700 46.55400 29.04900
C  39.47100 44.23500 29.86500
C  40.15100 44.88000 30.92400
O  41.32400 45.26500 30.86500
O  39.32200 45.05100 32.00700
C  39.88700 45.65200 33.23800
H  43.06600 38.27800 29.41900
H  42.24300 38.32200 23.08800
H  39.91400 44.21400 23.40800
H  41.34700 42.41900 31.58800
H  41.64400 39.52700 31.40100
H  43.31500 41.59400 32.08500
H  44.11800 40.41100 31.07100
H  43.19300 39.81900 32.44500
H  39.35900 40.15500 31.73400
H  38.72500 41.49500 30.78400
H  38.00200 42.38900 32.56300
H  39.58500 42.74200 33.28700
H  42.49900 35.25900 27.88300
H  43.53500 36.30400 28.93400
H  44.13000 35.50900 27.45600
H  44.27900 34.80500 25.09300
H  43.05900 33.79100 24.30500
H  42.68700 34.45100 25.92100
H  40.61100 39.83400 21.73500
H  41.04100 42.78900 21.68400
H  42.68600 41.24500 20.62100
H  42.52000 39.51900 20.50000
H  43.47500 40.24400 21.91600
H  38.86300 41.61100 20.82000
H  38.67000 42.95900 21.83500
H  37.94400 41.67000 23.61500
H  38.77500 40.23900 23.12000
H  37.30700 40.66700 22.09100
H  38.43900 46.82700 26.27900
H  38.53100 46.15400 24.58400
H  39.88500 46.99100 25.27100
H  38.50000 43.84700 30.17000
H  40.22900 44.87000 33.91600
H  39.16200 46.31900 33.70400
H  40.75600 46.22800 32.91700

