158

Mg 44.25400 3.29500 47.56800
C  42.14200 6.11700 46.97100
C  41.29600 1.24000 47.25300
C  46.10900 0.67000 47.69200
C  47.02300 5.51100 47.00500
N  42.03300 3.65900 47.18200
C  41.41000 4.88500 47.13600
C  39.83700 4.76600 47.19600
C  39.65700 3.21700 47.30200
C  41.08300 2.68000 47.27600
C  38.96900 2.75300 48.65500
C  39.01200 5.46800 46.00700
C  39.71700 5.52300 44.64300
H  39.34100 4.63600 43.46000
N  43.77700 1.18300 47.53500
C  42.53600 0.52500 47.37900
C  42.75900 -0.92600 47.34900
C  44.14400 -1.13300 47.58800
C  44.73900 0.26800 47.62200
C  41.57400 -1.91400 47.25500
C  44.87900 -2.42200 47.70200
O  44.25400 -3.49800 47.69200
C  46.35100 -2.60700 47.71600
N  46.27800 3.05600 47.26500
C  46.81700 1.87300 47.47200
C  48.32200 1.87400 47.47900
C  48.64500 3.38000 47.23100
C  47.19500 4.05200 47.15000
C  48.89100 1.50300 48.84900
C  49.59000 3.81800 46.00100
C  50.52000 2.81500 45.26300
N  44.56600 5.37900 47.18500
C  45.72500 6.03900 46.95000
C  45.43800 7.45600 46.81300
C  44.05300 7.50400 46.78800
C  43.55100 6.27000 46.99700
C  46.50900 8.53700 46.68500
C  42.94900 8.40400 46.78000
O  42.85100 9.63900 46.77900
C  41.64900 7.51900 46.73300
C  40.75100 7.99600 47.89800
O  40.87000 7.61500 49.07200
O  39.75400 8.90000 47.43700
C  38.90900 9.39900 48.51300
H  40.49200 0.50200 47.23000
H  46.72700 -0.21800 47.83800
H  47.95600 6.07800 46.96400
H  39.52900 5.39800 48.02900
H  39.13800 2.81500 46.43200
H  39.56200 2.26600 49.42900
H  38.23000 1.99300 48.39900
H  38.42200 3.60900 49.05000
H  38.78500 6.47600 46.35400
H  38.04100 4.98300 45.90900
H  40.78800 5.33200 44.70800
H  39.66500 6.54700 44.27200
H  40.79700 -1.55600 46.57900
H  41.03200 -1.98200 48.19800
H  41.89200 -2.92900 47.01400
H  46.82300 -2.05400 46.90400
H  46.55100 -3.67600 47.63600
H  46.75700 -2.22400 48.65200
H  48.75300 1.17700 46.76100
H  49.13100 3.88000 48.06800
H  49.46900 0.60200 48.64400
H  48.14400 1.48100 49.64300
H  49.65400 2.21800 49.15700
H  50.23600 4.61600 46.36700
H  48.99300 4.38000 45.28300
H  51.54800 3.12200 45.45400
H  50.44300 2.80400 44.17500
H  50.41900 1.81800 45.69200
H  47.15300 8.26600 45.84900
H  46.93000 8.63900 47.68600
H  45.93200 9.44300 46.49900
H  41.08600 7.66400 45.81100
H  38.03900 9.85300 48.03900
H  39.46100 10.10800 49.13100
H  38.47200 8.62400 49.14300
Mg 41.18700 40.74400 26.44200
C  40.38800 43.60300 28.56900
C  41.81600 39.07900 29.33100
C  42.24300 38.16600 24.59700
C  40.93400 42.90400 23.74400
N  41.04100 41.38400 28.73500
C  40.61500 42.44600 29.34800
C  40.60000 42.37700 30.83900
C  41.16800 40.94200 30.99300
C  41.34100 40.37200 29.64300
C  42.39900 40.89100 31.90600
C  39.14300 42.47000 31.33600
C  38.98000 43.17200 32.69900
H  38.23600 42.36300 33.83000
N  41.82700 38.78000 26.90500
C  42.05400 38.28600 28.14600
C  42.61000 36.95200 27.99900
C  42.56500 36.59300 26.60300
C  42.24900 37.85800 25.98400
C  43.00100 36.04600 29.22100
C  42.81400 35.29000 25.92100
O  42.88700 35.22900 24.69300
C  43.12200 34.12800 26.64200
N  41.56000 40.59800 24.54600
C  41.91600 39.38800 23.98100
C  41.97200 39.44200 22.43400
C  41.38600 40.85400 22.13300
C  41.25900 41.57000 23.52500
C  43.38600 39.08600 21.89400
C  40.03600 40.76200 21.26300
C  38.64900 41.12100 21.85400
N  40.81600 42.83900 26.30100
C  40.71700 43.52100 25.09700
C  40.43000 44.96700 25.30000
C  40.31200 45.06500 26.75000
C  40.56100 43.74600 27.27800
C  40.41000 45.97500 24.17200
C  40.03300 45.92200 27.81100
O  39.89200 47.11100 27.84700
C  40.10300 44.99500 29.09900
C  40.99400 45.55200 30.13000
O  42.18800 45.57900 30.13900
O  40.20100 46.03600 31.16500
C  40.92600 46.44900 32.40600
H  41.88700 38.56700 30.29300
H  42.47000 37.35900 23.89700
H  40.82100 43.56700 22.88400
H  41.23700 43.20900 31.14000
H  40.46600 40.26800 31.48300
H  42.57500 41.88500 32.31800
H  43.28900 40.64100 31.32800
H  42.36100 40.31900 32.83200
H  38.84600 41.45600 31.60500
H  38.45200 42.77900 30.55100
H  38.31000 44.01300 32.52100
H  39.98900 43.45300 33.00100
H  43.97200 35.67100 28.89700
H  42.27800 35.24000 29.34200
H  43.16400 36.61200 30.13800
H  42.30100 34.01400 27.35000
H  44.08400 34.24000 27.14200
H  43.07600 33.29100 25.94500
H  41.31200 38.65300 22.07200
H  42.09100 41.40300 21.50900
H  44.14800 39.59200 22.48600
H  43.55700 39.40400 20.86600
H  43.56500 38.01600 22.00300
H  39.98800 39.80800 20.73900
H  40.27100 41.42900 20.43400
H  38.81800 41.27600 22.92000
H  37.99000 40.27000 21.68400
H  38.23700 42.07300 21.52000
H  40.07800 46.90900 24.62700
H  39.75700 45.59900 23.38400
H  41.38900 46.17500 23.73800
H  39.07600 44.88200 29.44400
H  41.96100 46.72400 32.20300
H  40.84300 45.60300 33.09000
H  40.39900 47.20900 32.98200

