158

Mg 0.75000 7.54100 27.24000
C  1.38500 9.67900 29.91500
C  0.38200 4.97500 29.54700
C  0.01500 5.74200 24.69600
C  1.34500 10.30600 25.07900
N  0.89800 7.34200 29.42200
C  1.19700 8.38700 30.33300
C  1.32000 7.80900 31.74500
C  1.34800 6.28600 31.57600
C  0.83300 6.19500 30.09700
C  2.87100 5.83500 31.68500
C  0.11600 8.35600 32.60700
C  0.15700 7.97200 34.05700
H  1.32600 7.27100 34.83300
N  0.17300 5.63200 27.14400
C  0.00800 4.68000 28.17500
C  -0.56900 3.49200 27.58000
C  -0.67700 3.71800 26.15300
C  -0.23000 5.08400 25.92900
C  -0.99500 2.25500 28.33200
C  -1.02600 2.68300 24.98100
O  -0.79800 2.91200 23.82100
C  -1.56300 1.29700 25.29400
N  0.75800 7.98300 25.15800
C  0.41000 6.99300 24.32800
C  0.50500 7.47000 22.82400
C  0.68600 9.06000 23.00100
C  1.00800 9.13000 24.49300
C  1.60700 6.72900 22.03200
C  -0.61700 9.86400 22.67700
C  -0.39200 11.31200 22.21900
N  1.27700 9.56200 27.37800
C  1.43500 10.59500 26.45600
C  1.76400 11.79200 27.06600
C  1.87300 11.52000 28.42900
C  1.43200 10.15700 28.56500
C  2.11200 13.09300 26.47600
C  2.21000 12.05700 29.71000
O  2.47600 13.18000 29.96500
C  1.74900 10.93900 30.74000
C  2.67000 10.79300 31.82400
O  3.82200 10.39300 31.68300
O  2.18000 11.24000 33.04000
C  2.97000 11.15100 34.26900
H  0.30500 4.19200 30.30500
H  -0.38500 5.12800 23.88700
H  1.40800 11.22100 24.48600
H  2.22900 8.30200 32.08800
H  0.68000 5.72000 32.22500
H  3.02400 5.15300 32.52200
H  3.56100 6.63600 31.95000
H  3.17800 5.37700 30.74500
H  -0.81400 7.88700 32.28400
H  0.10000 9.44100 32.50600
H  -0.80400 7.50000 34.26000
H  0.04500 8.82300 34.73000
H  -2.05700 2.01400 28.29400
H  -0.74900 2.37600 29.38700
H  -0.42000 1.40700 27.96100
H  -0.69800 0.80300 25.73700
H  -1.88200 0.78300 24.38700
H  -2.42100 1.31200 25.96700
H  -0.48300 7.30500 22.39500
H  1.65000 9.36000 22.59100
H  1.27400 6.22000 21.12800
H  2.01400 5.99400 22.72600
H  2.47500 7.24000 21.61400
H  -1.27400 9.83500 23.54600
H  -1.01700 9.22500 21.89000
H  -0.53800 12.01400 23.04000
H  -1.05000 11.56800 21.39000
H  0.63000 11.55700 21.92900
H  1.23300 13.73600 26.45400
H  2.57700 12.97200 25.49800
H  2.77200 13.56500 27.20400
H  0.84500 11.41400 31.12200
H  2.63100 10.43600 35.01800
H  2.90400 12.10100 34.79900
H  4.00300 10.88100 34.05300
Mg 46.44600 16.83800 27.43700
C  44.47900 16.56700 30.31300
C  48.46200 19.11000 29.23900
C  48.28100 17.35800 24.69700
C  43.95000 15.27200 25.58700
N  46.55900 17.63600 29.55500
C  45.69000 17.25700 30.56500
C  46.13600 17.97800 31.93900
C  47.32700 18.85800 31.52900
C  47.50200 18.47000 29.97800
C  47.04900 20.40900 31.66200
C  46.48700 16.92800 32.97300
C  47.13600 17.42700 34.29300
H  46.75200 18.81400 34.73800
N  48.30400 17.78400 27.13500
C  48.88700 18.70400 27.95600
C  50.16300 19.21900 27.26800
C  50.14700 18.64700 25.94600
C  48.92900 17.85500 25.88700
C  51.03800 20.25500 27.76800
C  51.11000 18.76000 24.80200
O  50.97500 18.18200 23.75500
C  52.33900 19.60000 24.95400
N  46.08100 16.47200 25.44600
C  47.07300 16.75300 24.52800
C  46.62600 16.38800 23.12200
C  45.21800 15.64500 23.34700
C  45.12600 15.66500 24.90700
C  46.61200 17.61500 22.08800
C  45.06000 14.22400 22.71400
C  43.88000 13.87600 21.72800
N  44.56800 16.01400 27.82500
C  43.63500 15.39600 26.94200
C  42.47100 15.09600 27.75300
C  42.74300 15.59100 29.03500
C  44.03400 16.11100 29.03600
C  41.31100 14.36300 27.27400
C  42.22600 15.55900 30.44500
O  41.23400 15.08200 30.92500
C  43.40100 16.21500 31.27100
C  42.72100 17.44900 31.87900
O  42.68600 18.54400 31.36500
O  42.26000 17.14200 33.14800
C  41.80800 18.35300 33.92000
H  48.98700 19.91400 29.75900
H  48.79900 17.60700 23.76900
H  43.18400 14.80700 24.96400
H  45.34500 18.63400 32.30600
H  48.23300 18.50600 32.02300
H  46.30600 20.56100 32.44600
H  46.53600 20.75700 30.76600
H  47.94500 21.01200 31.80500
H  47.20500 16.24300 32.52400
H  45.64700 16.34300 33.34800
H  48.18800 17.32600 34.02800
H  46.88500 16.83600 35.17400
H  50.82200 20.69400 28.74100
H  50.92500 21.06500 27.04800
H  52.04800 19.84600 27.73000
H  52.05600 20.61700 25.22500
H  53.00400 19.58200 24.09000
H  52.87400 19.18000 25.80500
H  47.34200 15.61000 22.85800
H  44.36200 16.26600 23.08300
H  46.83400 17.40600 21.04200
H  47.30200 18.34000 22.52000
H  45.60500 18.02900 22.13700
H  45.18500 13.52600 23.54100
H  45.93300 14.12600 22.06900
H  43.21800 13.06900 22.04100
H  44.38300 13.57300 20.81000
H  43.24200 14.70400 21.42000
H  41.01800 14.73300 26.29200
H  40.42900 14.56500 27.88200
H  41.45200 13.28400 27.21300
H  43.67300 15.54000 32.08200
H  40.73100 18.40100 33.75500
H  42.16100 19.35900 33.69200
H  42.17100 18.27700 34.94400

