158

Mg 2.71600 -0.07700 43.66600
C  6.03700 0.39700 42.75000
C  1.99300 2.92900 42.13700
C  -0.57600 -0.81000 43.72400
C  3.51900 -3.17900 44.88700
N  3.93400 1.46700 42.58000
C  5.24000 1.48200 42.27700
C  5.62300 2.64900 41.50200
C  4.40600 3.58000 41.67100
C  3.37500 2.61300 42.18800
C  4.53400 4.85100 42.56700
C  6.11100 2.39500 39.97000
C  7.28400 3.25200 39.45300
H  6.98400 3.95200 38.16200
N  0.93100 0.94600 43.00300
C  0.88800 2.17700 42.41300
C  -0.45100 2.66700 42.29800
C  -1.24500 1.54300 42.74200
C  -0.34400 0.50000 43.20700
C  -0.89900 3.87900 41.65400
C  -2.79200 1.39800 42.65900
O  -3.49400 2.20500 42.15600
C  -3.60900 0.27000 43.44800
N  1.65700 -1.71500 44.07800
C  0.27900 -1.86900 44.05400
C  -0.22100 -3.33800 44.22500
C  1.11400 -3.99800 44.70800
C  2.18900 -2.85800 44.57200
C  -1.51400 -3.58800 45.12600
C  1.55700 -5.25300 43.83300
C  1.73800 -6.59300 44.55700
N  4.43000 -1.15100 43.95100
C  4.60700 -2.43400 44.44100
C  6.04300 -2.72400 44.57600
C  6.58400 -1.69100 43.77600
C  5.55200 -0.70700 43.50200
C  6.66600 -4.05000 45.18100
C  7.82600 -1.29200 43.24000
O  8.93200 -1.78700 43.30500
C  7.51700 0.07700 42.50100
C  8.42300 1.20800 43.06300
O  8.51700 1.57500 44.20400
O  9.22300 1.63900 42.00400
C  10.05600 2.83800 42.17000
H  1.80200 3.89600 41.66800
H  -1.58200 -1.23600 43.72600
H  3.77700 -4.05600 45.48400
H  6.45200 3.02900 42.09800
H  4.24600 3.92300 40.64900
H  5.55900 4.79100 42.93300
H  3.84200 4.77900 43.40600
H  4.35100 5.77700 42.02100
H  5.23400 2.60800 39.35800
H  6.34900 1.35500 39.74700
H  8.14200 2.58400 39.38000
H  7.47400 4.02500 40.19800
H  -1.87200 3.78500 41.17300
H  -0.26600 4.26300 40.85400
H  -0.91900 4.66000 42.41400
H  -4.66500 0.50800 43.57700
H  -3.15400 0.12200 44.42700
H  -3.53700 -0.68700 42.93200
H  -0.48700 -3.76600 43.25900
H  1.09900 -4.30800 45.75300
H  -1.17800 -4.04100 46.05900
H  -2.09700 -4.32900 44.57900
H  -2.04900 -2.65800 45.31700
H  2.44600 -5.01700 43.24800
H  0.85000 -5.46100 43.03000
H  1.03800 -7.31700 44.14000
H  1.44100 -6.50500 45.60200
H  2.79300 -6.84300 44.44800
H  6.32200 -4.27500 46.19000
H  7.75300 -4.00400 45.24700
H  6.54500 -4.89300 44.50000
H  7.52200 -0.05100 41.41800
H  10.08400 3.40600 41.24000
H  11.07000 2.53600 42.43300
H  9.72200 3.41600 43.03200
Mg 35.66500 48.64500 24.73200
C  35.83400 47.12400 27.90500
C  34.47500 51.47900 26.28400
C  35.48300 50.11000 21.71500
C  36.31300 45.61300 23.24300
N  35.04100 49.18700 26.77400
C  35.35600 48.47200 27.92900
C  35.14600 49.29300 29.20100
C  34.52500 50.68400 28.68100
C  34.57900 50.42700 27.15200
C  33.11500 51.04200 29.19000
C  36.48700 49.52200 29.98900
C  36.52500 49.33500 31.45800
H  35.22800 49.12400 32.26100
N  35.06700 50.57600 24.07600
C  34.63400 51.58300 24.89400
C  34.50300 52.81000 24.11800
C  34.65100 52.43600 22.71100
C  35.04300 50.97700 22.76100
C  34.24900 54.15700 24.72600
C  34.52200 53.20800 21.43100
O  34.85600 52.73100 20.31500
C  34.03400 54.62700 21.49000
N  35.82000 47.94800 22.76900
C  35.78900 48.74800 21.68100
C  36.11200 48.06800 20.38500
C  36.62700 46.67000 20.93000
C  36.22700 46.73000 22.41800
C  34.83000 47.90600 19.49000
C  38.11700 46.41500 20.75200
C  39.19500 47.52500 20.88900
N  35.88700 46.70500 25.41100
C  36.22400 45.56600 24.72200
C  36.41300 44.45000 25.62000
C  36.23000 44.98200 26.90700
C  35.97700 46.38500 26.74700
C  36.86000 43.01400 25.31600
C  36.17700 44.69600 28.35600
O  36.25500 43.62500 29.01600
C  35.98500 46.14200 29.08400
C  34.77800 45.97600 30.00500
O  33.65800 46.32000 29.72700
O  35.11400 45.19400 31.05700
C  33.95300 44.59800 31.74300
H  34.22200 52.41200 26.79400
H  35.49300 50.52500 20.70500
H  36.59700 44.68400 22.74400
H  34.33600 48.95500 29.84700
H  35.20900 51.52000 28.82800
H  33.27300 52.01400 29.65800
H  32.72600 50.34600 29.93300
H  32.37700 51.31000 28.43300
H  36.62800 50.59900 29.89900
H  37.31400 48.97100 29.54200
H  37.06500 50.19400 31.85900
H  37.10000 48.41100 31.51400
H  34.53600 54.99800 24.09500
H  34.53400 54.22500 25.77600
H  33.16100 54.11500 24.67500
H  33.61500 54.87500 20.51500
H  34.91400 55.23400 21.70400
H  33.23300 54.59800 22.22900
H  36.79100 48.63500 19.74700
H  36.14300 45.90200 20.32700
H  34.26200 48.83000 19.60000
H  34.26800 47.04000 19.84000
H  35.16700 47.92600 18.45400
H  38.29500 45.99000 19.76400
H  38.49200 45.57000 21.33000
H  39.46300 47.35400 21.93200
H  39.00400 48.57000 20.64400
H  40.15500 47.39100 20.39000
H  37.86200 42.79700 25.68500
H  36.86300 42.76100 24.25500
H  36.13600 42.32300 25.74700
H  36.91900 46.33500 29.61200
H  33.30300 43.94700 31.15700
H  33.32500 45.28600 32.30900
H  34.45200 44.05500 32.54600

