158

Mg 46.26100 3.67400 48.22400
C  44.57500 6.62900 47.18000
C  43.37900 1.92000 47.62800
C  48.09200 0.94600 48.35300
C  49.22300 5.74100 48.31000
N  44.26400 4.23600 47.44100
C  43.78900 5.51500 47.05000
C  42.31200 5.47100 46.64700
C  41.95700 3.98800 46.99500
C  43.26500 3.32900 47.39500
C  40.73400 3.85700 47.94800
C  41.94900 5.99500 45.22500
C  40.59800 6.86500 45.21500
H  39.66100 6.77900 44.07800
N  45.79600 1.64700 48.05400
C  44.60200 1.14000 47.78800
C  44.67200 -0.27100 47.70100
C  46.05800 -0.64500 47.84000
C  46.76000 0.66800 48.13500
C  43.40400 -1.11800 47.27000
C  46.57900 -2.03000 47.54400
O  45.88300 -2.93100 47.12100
C  48.02300 -2.29200 47.88200
N  48.42200 3.47500 48.33300
C  48.83900 2.20000 48.38200
C  50.37800 2.19900 48.68600
C  50.78900 3.70800 48.44500
C  49.39900 4.37200 48.38700
C  50.67800 1.64500 50.10900
C  51.40500 4.05400 47.01300
C  52.92200 4.08600 46.96300
N  46.79200 5.73900 48.01800
C  48.04400 6.44700 48.03600
C  47.78300 7.90000 47.87600
C  46.43700 7.91800 47.47200
C  45.91900 6.64500 47.56800
C  48.88300 8.86500 47.75200
C  45.42300 8.86200 46.98400
O  45.52100 10.03800 46.71100
C  44.22900 8.02400 46.85000
C  43.16600 8.52800 47.73700
O  43.07600 8.35800 48.97500
O  42.20100 9.22000 47.02700
C  41.21500 10.02200 47.74000
H  42.45300 1.41800 47.34200
H  48.74600 0.07800 48.45300
H  50.08600 6.40300 48.40500
H  41.88300 6.01800 47.48700
H  41.73700 3.36000 46.13200
H  40.24800 4.83000 48.02100
H  40.99600 3.43400 48.91800
H  40.07800 3.18700 47.39200
H  41.65900 5.23200 44.50300
H  42.77800 6.53000 44.76300
H  40.89400 7.90900 45.31300
H  40.05900 6.64900 46.13800
H  43.82100 -1.90100 46.63600
H  42.66200 -0.59700 46.66400
H  42.94900 -1.63600 48.11300
H  48.66600 -1.66100 47.26800
H  48.27400 -3.34300 47.73600
H  48.20900 -2.10000 48.93900
H  50.90300 1.58200 47.95700
H  51.25000 4.24200 49.27500
H  49.79000 1.32900 50.65500
H  51.35100 2.28900 50.67600
H  51.34000 0.79400 49.94600
H  51.05200 4.97800 46.55600
H  51.10700 3.25000 46.33800
H  53.13200 3.49000 46.07500
H  53.32300 3.52800 47.81000
H  53.24900 5.12500 46.98800
H  49.47100 8.62800 46.86600
H  49.57300 8.61600 48.55900
H  48.49600 9.88000 47.84400
H  43.76100 8.15200 45.87400
H  40.43200 9.38200 48.14800
H  40.95000 10.69400 46.92400
H  41.72900 10.54600 48.54500
Mg 55.09700 23.10200 44.02600
C  52.59900 25.44500 43.09400
C  53.13400 20.54400 43.07800
C  57.88000 21.18400 44.01600
C  57.16200 25.82800 44.90000
N  53.09900 23.07700 43.16900
C  52.25800 24.09000 42.76500
C  51.09800 23.48900 42.03100
C  51.16000 21.97700 42.37300
C  52.54800 21.81300 42.89300
C  50.13200 21.54100 43.41400
C  51.12400 23.74400 40.46700
C  49.78800 23.30800 39.84600
H  49.60200 22.60100 38.46500
N  55.44000 21.07500 43.57900
C  54.43400 20.17200 43.28500
C  54.99700 18.85900 43.11500
C  56.38300 19.02400 43.45300
C  56.61300 20.48200 43.69600
C  54.22000 17.60200 42.79200
C  57.44500 17.86300 43.62300
O  57.08000 16.69100 43.58900
C  58.88100 18.12900 43.82600
N  57.30700 23.48700 44.26500
C  58.19100 22.51200 44.23800
C  59.59700 23.05100 44.42500
C  59.35900 24.40900 44.99400
C  57.83900 24.63100 44.80500
C  60.51100 22.20100 45.38200
C  60.12200 25.63400 44.41900
C  60.68000 26.61200 45.41900
N  54.94400 25.19700 44.04000
C  55.83900 26.17600 44.47900
C  55.19100 27.49500 44.50500
C  53.90900 27.19500 43.90900
C  53.83900 25.82000 43.69700
C  55.68400 28.71100 45.08800
C  52.68800 27.81600 43.47100
O  52.31200 28.96000 43.51700
C  51.77400 26.65200 42.90600
C  51.58900 26.99800 41.48700
O  52.45600 27.12400 40.62600
O  50.27000 27.34300 41.25700
C  49.84800 27.62000 39.88100
H  52.41400 19.74700 42.87900
H  58.70000 20.47800 44.16500
H  57.69200 26.71100 45.26300
H  50.19500 23.94100 42.44100
H  51.02200 21.38600 41.46800
H  49.68500 22.46900 43.77000
H  50.57800 21.13900 44.32400
H  49.45900 20.84100 42.91900
H  51.84200 23.02800 40.06700
H  51.34600 24.78800 40.24500
H  49.34100 24.30000 39.78300
H  49.24400 22.71900 40.58400
H  54.09400 17.50100 41.71400
H  53.21800 17.65400 43.21900
H  54.61100 16.62000 43.06100
H  59.25500 18.75600 43.01700
H  59.49900 17.23100 43.84000
H  58.95400 18.63800 44.78700
H  59.98900 23.10400 43.41000
H  59.39600 24.37000 46.08300
H  61.44500 22.72100 45.59600
H  60.72700 21.29500 44.81600
H  59.93100 21.91900 46.26200
H  59.59800 26.15700 43.61900
H  60.98200 25.14800 43.95800
H  60.42300 27.62300 45.10200
H  61.76100 26.57400 45.55200
H  60.11100 26.44200 46.33300
H  55.44000 28.90600 46.13200
H  55.14200 29.50200 44.57000
H  56.74800 28.81100 44.87100
H  50.83900 26.77500 43.45400
H  50.43200 28.42200 39.43000
H  48.82200 27.97600 39.78500
H  49.97000 26.68400 39.33500

