158

Mg 29.85200 58.59700 39.21800
C  27.13400 56.54500 38.27200
C  32.00500 55.87800 38.79900
C  32.52100 60.70200 39.42800
C  27.61800 61.26600 39.07400
N  29.59500 56.42800 38.60500
C  28.37200 55.85200 38.36500
C  28.64300 54.37600 37.96100
C  30.17900 54.08700 38.22400
C  30.66400 55.54800 38.51800
C  30.55800 53.14000 39.32900
C  28.35300 54.03300 36.44000
C  28.73200 54.97900 35.30900
H  27.84200 55.20800 34.11600
N  32.01300 58.26400 39.26900
C  32.63900 57.08100 39.12800
C  34.00500 57.31500 39.26700
C  34.25500 58.65700 39.60500
C  32.91700 59.28900 39.35800
C  35.00300 56.08900 39.36500
C  35.50700 59.34500 40.04900
O  36.51200 58.61300 40.09700
C  35.66300 60.82900 40.39300
N  30.02300 60.62800 39.16300
C  31.22400 61.28000 39.42100
C  30.97200 62.76600 39.51400
C  29.50800 62.94500 39.21500
C  28.99200 61.49000 39.18000
C  31.58600 63.21800 40.87700
C  29.25500 63.60200 37.76100
C  28.07700 64.67800 37.76100
N  27.75800 58.90800 38.75100
C  27.00100 60.05800 38.76200
C  25.57700 59.67200 38.55400
C  25.58800 58.27500 38.25300
C  26.94500 57.93900 38.45300
C  24.37500 60.57100 38.66200
C  24.80300 57.15000 37.89900
O  23.62700 57.00400 37.61600
C  25.75700 55.99800 37.81100
C  25.29000 54.88800 38.66700
O  25.64300 54.57900 39.75200
O  24.39800 54.08400 38.04500
C  23.98400 52.79600 38.57300
H  32.56200 54.94000 38.74800
H  33.38900 61.35300 39.54800
H  27.00700 62.15600 39.23800
H  28.02900 53.75000 38.60900
H  30.78300 53.84100 37.35100
H  29.71400 52.50000 39.59000
H  30.71700 53.66800 40.27000
H  31.45000 52.52400 39.21400
H  27.26700 53.95200 36.48400
H  28.77400 53.03400 36.32000
H  29.60000 54.47200 34.88700
H  29.13600 55.93300 35.64600
H  35.12200 55.72200 38.34600
H  34.71700 55.30700 40.06900
H  35.96100 56.43500 39.75100
H  34.93300 61.17500 41.12500
H  35.56400 61.37000 39.45100
H  36.67700 60.95200 40.77400
H  31.63300 63.30600 38.83600
H  29.07400 63.57800 39.99000
H  31.65600 62.46800 41.66500
H  30.85700 63.94600 41.23000
H  32.53400 63.75400 40.83300
H  28.95700 62.82500 37.05800
H  30.17600 64.10600 37.46700
H  27.39200 64.41700 36.95500
H  28.48700 65.68700 37.71800
H  27.65000 64.60900 38.76200
H  24.23200 60.82100 39.71300
H  23.54200 60.11800 38.12400
H  24.39000 61.52500 38.13600
H  25.64500 55.63600 36.78900
H  24.35400 51.95800 37.98300
H  22.89500 52.79800 38.55100
H  24.43300 52.69800 39.56100
Mg -9.83300 16.84800 40.96700
C  -6.29900 16.61000 41.07000
C  -9.42900 20.22800 40.21600
C  -13.05800 16.97100 39.94200
C  -10.03800 13.49800 41.40200
N  -8.10500 18.21400 40.53300
C  -6.81500 17.85000 40.65300
C  -5.90600 19.02100 40.28800
C  -6.90600 20.23100 40.53800
C  -8.25700 19.50800 40.50100
C  -6.56200 21.15300 41.83200
C  -5.37500 19.06600 38.81500
C  -3.76700 18.85600 38.62000
H  -3.37300 17.57600 37.98700
N  -11.12900 18.44000 40.23500
C  -10.75600 19.69200 39.97600
C  -11.85500 20.44900 39.55200
C  -12.95800 19.55400 39.53900
C  -12.43400 18.26600 39.93700
C  -11.76300 21.95000 39.29500
C  -14.32200 19.92500 38.97200
O  -14.67100 21.06200 38.77300
C  -15.39500 18.90100 38.73000
N  -11.26800 15.31400 40.27500
C  -12.51900 15.69200 40.16700
C  -13.52900 14.59200 40.58400
C  -12.51900 13.38500 40.87400
C  -11.23500 14.11700 40.89800
C  -14.44000 14.93300 41.77600
C  -12.37200 12.21600 39.87200
C  -12.92600 10.89800 40.30000
N  -8.50600 15.30000 41.16000
C  -8.71600 13.94000 41.36700
C  -7.46900 13.28400 41.65100
C  -6.50600 14.28100 41.53300
C  -7.16100 15.51000 41.26200
C  -7.35300 11.84000 42.03500
C  -5.07500 14.54100 41.69100
O  -4.22300 13.80200 42.08900
C  -4.91500 16.17300 41.41700
C  -4.54100 16.74000 42.75900
O  -5.25600 17.02100 43.69500
O  -3.18300 16.75600 42.70700
C  -2.54800 17.20500 43.82500
H  -9.14300 21.28100 40.25500
H  -14.14500 17.03600 40.02700
H  -10.13000 12.46300 41.73900
H  -5.04500 19.11900 40.94800
H  -6.92300 20.91100 39.68700
H  -6.64900 22.22900 41.68000
H  -5.55300 20.98100 42.20700
H  -7.31700 20.93100 42.58700
H  -5.50400 20.05000 38.36300
H  -5.90800 18.32600 38.21800
H  -3.25200 18.88400 39.58000
H  -3.28400 19.67500 38.08700
H  -12.11500 22.53100 40.14800
H  -12.36400 22.21000 38.42400
H  -10.70700 22.21500 39.23200
H  -16.26700 19.35200 38.25700
H  -15.71200 18.50700 39.69600
H  -15.03100 18.06300 38.13500
H  -14.12900 14.36900 39.70200
H  -12.57800 13.06400 41.91400
H  -14.22000 14.48400 42.74400
H  -15.43800 14.56300 41.54100
H  -14.40900 16.01700 41.88800
H  -11.33600 11.93600 39.68300
H  -12.86400 12.40100 38.91800
H  -13.01800 10.84700 41.38500
H  -12.17700 10.13100 40.10300
H  -13.83600 10.59000 39.78500
H  -8.35400 11.41200 42.07800
H  -6.72200 11.63300 42.89900
H  -6.91000 11.41500 41.13400
H  -4.31100 16.37500 40.53200
H  -2.96300 16.67700 44.68300
H  -2.83100 18.24700 43.97000
H  -1.46400 17.11800 43.74300

