158

Mg 53.66900 23.74800 44.79800
C  51.19300 26.26800 44.14900
C  51.53800 21.52800 43.18500
C  56.02700 21.70000 45.19200
C  55.53900 26.26100 46.27100
N  51.69300 23.99800 43.64300
C  50.93900 25.12400 43.41900
C  49.82500 24.71900 42.42800
C  49.76000 23.23400 42.58400
C  51.10300 22.88000 43.08600
C  48.49500 22.60400 43.36200
C  50.23200 25.17900 41.02600
C  49.09100 25.41500 40.08000
H  49.41900 25.86900 38.67100
N  53.75900 21.81500 44.31000
C  52.79100 21.03400 43.78100
C  53.21700 19.66600 43.87400
C  54.49500 19.65700 44.49900
C  54.84900 21.12100 44.74100
C  52.39600 18.56100 43.35300
C  55.33700 18.35500 44.79500
O  54.91000 17.21900 44.51500
C  56.62700 18.35300 45.39600
N  55.62600 24.05200 45.27500
C  56.44700 22.97400 45.41900
C  57.88500 23.37100 45.81600
C  57.65500 24.87600 46.21900
C  56.16900 25.06500 45.91400
C  58.64000 22.58400 46.94000
C  58.62500 25.75600 45.38100
C  59.66300 26.67200 46.17300
N  53.47000 25.90600 45.15200
C  54.29200 26.70300 45.88500
C  53.71000 28.07300 45.94400
C  52.46600 27.92000 45.27200
C  52.35300 26.55100 44.90600
C  54.32600 29.20200 46.73300
C  51.29400 28.64200 44.92200
O  50.97600 29.79700 45.05100
C  50.39800 27.57900 44.22200
C  49.95900 28.12400 42.95900
O  50.68600 28.67300 42.12300
O  48.58600 27.96200 42.80700
C  48.07700 28.80300 41.70600
H  50.86700 20.84500 42.66100
H  56.74000 20.88100 45.30400
H  56.15000 27.08300 46.64900
H  48.87500 25.09800 42.80400
H  49.64900 22.79000 41.59400
H  47.72200 23.36900 43.43700
H  48.80900 22.26400 44.34900
H  48.05400 21.73400 42.87600
H  51.02200 24.55600 40.60700
H  50.77800 26.11900 41.11800
H  48.50100 26.20300 40.54900
H  48.49700 24.50800 39.96800
H  52.38800 18.52800 42.26400
H  51.35400 18.76200 43.60400
H  52.57700 17.62000 43.87300
H  56.46500 18.74600 46.40000
H  57.11700 19.01300 44.68100
H  57.01500 17.34000 45.50100
H  58.47300 23.18100 44.91800
H  57.80400 24.99800 47.29100
H  58.71200 23.08700 47.90400
H  59.61700 22.33100 46.52700
H  58.09300 21.65300 47.08700
H  58.04600 26.52600 44.87100
H  59.07600 25.15600 44.59100
H  60.69500 26.37400 45.99200
H  59.44500 26.88800 47.21900
H  59.57800 27.63800 45.67500
H  54.96900 29.83500 46.12100
H  54.78900 28.76400 47.61700
H  53.41100 29.66500 47.10300
H  49.50600 27.40200 44.82300
H  48.15400 28.34700 40.71900
H  48.50000 29.80600 41.63800
H  47.01700 29.05200 41.75700
Mg 48.18500 34.55000 26.87500
C  45.92600 33.68500 29.45000
C  48.62900 37.58100 28.55100
C  49.38600 35.91700 23.97800
C  47.22400 31.75600 25.10500
N  47.48800 35.48500 28.93500
C  46.65100 34.87800 29.78500
C  46.64100 35.54000 31.17600
C  47.35300 36.93200 30.85100
C  47.83300 36.66400 29.38600
C  46.36000 38.11000 30.80300
C  47.58500 34.74600 32.14400
C  47.04600 34.62100 33.55200
H  47.74400 35.50900 34.59900
N  49.13600 36.42000 26.34300
C  49.15600 37.49300 27.24600
C  49.84300 38.52500 26.56000
C  50.08600 38.11100 25.24100
C  49.57700 36.77500 25.11600
C  50.09800 39.95700 27.15700
C  50.69100 38.93500 24.02600
O  50.72200 38.40900 22.87300
C  51.30100 40.34400 24.28900
N  48.28000 33.96000 24.87300
C  48.75200 34.66800 23.86600
C  48.60400 33.89900 22.50700
C  48.14800 32.44700 22.85400
C  47.85300 32.71200 24.37600
C  47.58300 34.57200 21.54200
C  49.15600 31.26100 22.67500
C  50.03700 30.83400 23.90300
N  46.93500 32.92900 27.21500
C  46.71800 31.83100 26.45700
C  45.73000 31.03300 27.08800
C  45.32200 31.78100 28.26000
C  46.13500 32.89400 28.29500
C  45.16300 29.82100 26.51600
C  44.38100 31.79500 29.42700
O  43.53200 31.01700 29.78500
C  44.74700 33.07300 30.23300
C  45.01900 32.64400 31.57100
O  45.94300 31.88000 31.77400
O  44.01900 33.02700 32.45300
C  44.02800 32.29300 33.77700
H  48.70500 38.52500 29.09400
H  49.74100 36.28600 23.01400
H  46.82000 30.94100 24.50000
H  45.69100 35.73200 31.67500
H  48.06100 37.23500 31.62200
H  46.66600 38.86900 31.52300
H  45.32900 37.79500 30.96000
H  46.39100 38.56800 29.81400
H  48.54000 35.26700 32.20500
H  47.81400 33.74200 31.78600
H  47.32400 33.61500 33.86600
H  45.96600 34.76400 33.51900
H  49.59300 40.18300 28.09700
H  49.79200 40.73200 26.45400
H  51.16500 40.13700 27.28900
H  50.50100 41.08200 24.35800
H  51.85200 40.52900 23.36800
H  51.89300 40.33800 25.20400
H  49.56400 33.85500 21.99200
H  47.18000 32.16500 22.44000
H  47.25500 35.54700 21.90400
H  46.68100 33.97600 21.40700
H  48.03900 34.58900 20.55200
H  49.72300 31.42800 21.75900
H  48.51500 30.38800 22.55000
H  49.57300 29.98000 24.39600
H  50.09500 31.54600 24.72600
H  51.02900 30.56000 23.54300
H  45.04100 29.88500 25.43500
H  44.21100 29.56800 26.98400
H  45.81200 28.96800 26.71500
H  43.88200 33.73200 30.16200
H  44.38600 31.26900 33.67500
H  42.99500 32.13500 34.08800
H  44.63300 32.88500 34.46300

