158

Mg 26.11800 50.56300 26.04600
C  23.95800 51.66800 28.50000
C  28.42900 49.94100 28.57100
C  28.37300 49.84300 23.66800
C  23.91700 51.76900 23.60900
N  26.20900 50.89800 28.28000
C  25.13500 51.23900 29.04500
C  25.43300 51.19700 30.59000
C  26.99900 50.87600 30.57100
C  27.24100 50.54300 29.04800
C  27.93600 51.96900 31.19300
C  24.58800 50.20100 31.35100
C  24.10500 50.63400 32.77800
H  24.23300 49.44500 33.78700
N  28.10300 49.85100 26.10500
C  28.87000 49.65600 27.25200
C  30.15100 49.03300 26.80300
C  30.14400 48.98200 25.39800
C  28.85600 49.56200 24.94200
C  31.30300 48.73100 27.73100
C  31.20600 48.65000 24.41400
O  31.05600 48.82800 23.21200
C  32.42900 47.97800 24.88000
N  26.06100 50.74900 23.97600
C  27.17100 50.35900 23.16000
C  26.76600 50.35900 21.66500
C  25.35200 51.00700 21.70800
C  25.04700 51.14200 23.20900
C  27.71100 51.16700 20.83800
C  24.31700 50.11000 20.84600
C  23.86500 48.84200 21.49600
N  24.29100 51.55100 26.03800
C  23.45800 51.90700 24.98100
C  22.26600 52.44500 25.42900
C  22.42800 52.42800 26.84400
C  23.64400 51.82200 27.12100
C  21.25500 53.04200 24.51700
C  21.69800 52.73400 28.13400
O  20.59000 53.23600 28.37700
C  22.71800 52.12700 29.22500
C  23.07900 53.29200 30.11500
O  23.84200 54.18800 29.83100
O  22.38300 53.22300 31.28300
C  22.46500 54.26500 32.33200
H  29.20900 49.69300 29.29400
H  28.95700 49.55400 22.79200
H  23.16700 52.05900 22.87100
H  25.43200 52.19700 31.02300
H  27.13500 49.98000 31.17600
H  27.69600 52.99300 30.90800
H  28.96000 51.74600 30.89300
H  27.75600 51.80500 32.25500
H  25.16500 49.28700 31.49200
H  23.81500 49.85200 30.66700
H  23.02900 50.79800 32.72000
H  24.65600 51.51000 33.12000
H  31.66600 47.70400 27.69100
H  30.99800 48.72900 28.77800
H  32.13900 49.43100 27.73700
H  33.12900 47.73200 24.08200
H  32.40300 47.13800 25.57500
H  32.90900 48.82900 25.36300
H  26.69900 49.30600 21.39000
H  25.41100 52.02600 21.32600
H  28.51300 51.64500 21.40000
H  27.24200 51.91600 20.20000
H  28.32100 50.46800 20.26600
H  24.80700 49.87400 19.90200
H  23.39300 50.62100 20.57500
H  24.39000 48.03000 20.99400
H  22.78300 48.75200 21.39700
H  24.04000 48.79300 22.57100
H  20.92600 53.90500 25.09600
H  20.53500 52.23200 24.40500
H  21.68600 53.30700 23.55100
H  22.40000 51.36500 29.93700
H  21.42500 54.48000 32.57900
H  22.84000 55.23800 32.01200
H  22.88700 54.01100 33.30400
Mg -2.18100 35.01600 26.14300
C  -3.44300 33.07000 28.60300
C  -0.78500 37.04400 28.47700
C  -0.68300 36.84000 23.51700
C  -3.67800 32.93700 23.76400
N  -2.05300 34.94400 28.32200
C  -2.73900 34.07200 29.11500
C  -2.31400 34.25000 30.61100
C  -1.57300 35.64200 30.55700
C  -1.42100 35.87500 29.05200
C  -2.35300 36.88300 31.25600
C  -1.55400 33.08100 31.28200
C  -1.92100 32.96100 32.85200
H  -0.72800 33.15100 33.87600
N  -0.97800 36.74300 26.04800
C  -0.56900 37.47000 27.13100
C  0.17500 38.63000 26.67600
C  0.32800 38.54100 25.28900
C  -0.41400 37.30900 24.88500
C  0.85700 39.60100 27.59500
C  1.08600 39.45700 24.30500
O  1.18400 39.17800 23.13500
C  1.51500 40.81000 24.71800
N  -2.28200 35.01200 23.92600
C  -1.48800 35.74000 23.12500
C  -1.59200 35.23600 21.62600
C  -2.32400 33.88900 21.89300
C  -2.78500 33.92600 23.26300
C  -2.44600 36.24900 20.82300
C  -1.42500 32.63000 21.61000
C  -0.01800 32.82500 22.30800
N  -3.51000 33.56200 26.10000
C  -4.03200 32.74500 25.09400
C  -4.78800 31.70500 25.72100
C  -4.54800 31.73000 27.06700
C  -3.76600 32.91200 27.25300
C  -5.41600 30.54300 24.92000
C  -4.85400 31.07700 28.21900
O  -5.41100 29.99800 28.36800
C  -4.13500 31.89600 29.31000
C  -5.04600 32.42400 30.35200
O  -5.72900 33.43000 30.20700
O  -4.95900 31.65700 31.45600
C  -5.52800 32.22100 32.66100
H  -0.39300 37.80900 29.15100
H  -0.09500 37.26400 22.70100
H  -4.03000 32.22400 23.01700
H  -3.24100 34.34300 31.17700
H  -0.54900 35.62100 30.93200
H  -2.81700 37.45200 30.45100
H  -1.62500 37.54500 31.72400
H  -3.10200 36.51200 31.95600
H  -0.50100 33.34500 31.18400
H  -1.72500 32.10900 30.81800
H  -2.38300 32.00100 33.08100
H  -2.67500 33.65600 33.22200
H  1.05700 39.17500 28.57900
H  0.23300 40.48900 27.70300
H  1.83400 39.92900 27.24000
H  1.60000 41.42300 23.82100
H  2.49000 40.53300 25.11800
H  0.82600 41.20100 25.46700
H  -0.54700 35.21500 21.31600
H  -3.17600 33.76700 21.22400
H  -2.52300 37.15400 21.42500
H  -3.44000 35.82300 20.68400
H  -1.93400 36.55900 19.91300
H  -1.30700 32.63900 20.52700
H  -1.92600 31.69000 21.84100
H  0.09200 33.64400 23.01900
H  0.65400 32.89100 21.45200
H  0.10100 31.84200 22.76300
H  -4.58100 30.10100 24.37500
H  -6.19900 30.93500 24.27100
H  -5.72700 29.76800 25.62000
H  -3.36100 31.18900 29.61100
H  -5.48600 33.30900 32.69200
H  -4.85000 31.82300 33.41600
H  -6.56500 31.90500 32.76800

