158

Mg 1.94500 -1.85400 44.35900
C  5.37100 -1.26800 44.35000
C  1.46600 1.23800 42.89600
C  -1.23100 -2.81800 43.76100
C  2.67300 -5.06300 45.40800
N  3.29600 -0.22300 43.57000
C  4.65000 -0.25100 43.69300
C  5.17200 1.11900 43.20400
C  3.90900 2.04500 43.05700
C  2.78300 0.98000 43.28600
C  3.78500 3.14700 44.11200
C  5.89400 1.09100 41.86600
C  5.52300 0.11900 40.75500
H  5.46300 0.62700 39.32600
N  0.31800 -0.85200 43.47400
C  0.32500 0.36800 42.90100
C  -1.01300 0.64200 42.49000
C  -1.90000 -0.38300 42.93800
C  -0.92400 -1.42800 43.39500
C  -1.46700 1.96400 41.84800
C  -3.49300 -0.48500 42.77200
O  -4.14100 0.50800 42.37500
C  -4.22600 -1.61900 43.31000
N  0.85400 -3.68400 44.61000
C  -0.49200 -3.81200 44.39300
C  -1.00300 -5.16100 44.80400
C  0.27100 -5.87200 45.20300
C  1.36200 -4.84100 45.06500
C  -2.21700 -5.06200 45.77800
C  0.58600 -7.05700 44.32500
C  -0.54800 -8.06700 44.07900
N  3.62500 -2.98800 44.88000
C  3.78100 -4.24200 45.34200
C  5.17200 -4.51800 45.75100
C  5.85800 -3.37700 45.30400
C  4.87500 -2.51800 44.78600
C  5.61600 -5.92200 46.33500
C  7.16300 -2.75300 45.10800
O  8.31000 -3.15400 45.36100
C  6.87700 -1.36300 44.47600
C  7.42300 -0.28700 45.35000
O  7.03200 0.14400 46.41900
O  8.38700 0.27900 44.53600
C  8.98600 1.51000 45.13800
H  1.24800 2.20000 42.42700
H  -2.21500 -3.24800 43.56500
H  2.89500 -6.08100 45.73500
H  5.80200 1.42400 44.03900
H  3.72900 2.47600 42.07200
H  4.61700 3.05100 44.80900
H  2.83800 3.14100 44.65200
H  3.79100 4.14400 43.67100
H  6.90300 0.88300 42.22000
H  5.87100 2.05700 41.36100
H  4.58700 -0.39100 40.98500
H  6.35100 -0.59000 40.75000
H  -0.54200 2.19500 41.32000
H  -1.58000 2.73100 42.61400
H  -2.38800 1.86600 41.27400
H  -5.28600 -1.37300 43.37200
H  -4.04200 -1.77000 44.37300
H  -4.06200 -2.48400 42.66800
H  -1.51000 -5.59200 43.94000
H  0.21500 -6.30600 46.20100
H  -2.35500 -4.01900 46.06300
H  -1.92300 -5.65800 46.64200
H  -3.09600 -5.38200 45.21900
H  1.44300 -7.53000 44.80400
H  0.92800 -6.73000 43.34400
H  -1.37900 -7.82400 44.74100
H  -0.14500 -9.04600 44.33800
H  -0.97400 -8.10000 43.07600
H  4.85700 -6.34300 46.99500
H  6.59900 -5.80500 46.79000
H  5.66900 -6.64600 45.52100
H  7.15900 -1.28400 43.42600
H  8.25500 2.31600 45.20900
H  9.82000 1.80200 44.50000
H  9.29500 1.30000 46.16200
Mg 5.48800 54.39500 41.45400
C  3.20900 51.60500 41.57300
C  7.68500 52.36800 39.86700
C  7.13100 57.11200 40.57500
C  2.53700 56.41700 41.82000
N  5.34500 52.30700 40.60500
C  4.33800 51.36200 40.74200
C  4.71200 50.12800 39.94600
C  6.21900 50.23000 39.81800
C  6.46000 51.70400 40.16000
C  7.14400 49.19600 40.49200
C  3.98300 50.13100 38.56700
C  3.44600 48.83500 38.00600
H  4.15900 48.27800 36.75700
N  7.33800 54.68700 40.61900
C  8.12200 53.69400 40.06400
C  9.44000 54.33400 39.76800
C  9.26900 55.74900 40.00300
C  7.87200 55.93400 40.44900
C  10.50300 53.46900 39.22800
C  10.43500 56.74800 39.88100
O  11.52700 56.41000 39.41300
C  10.30100 58.16000 40.25600
N  4.84700 56.42200 41.17800
C  5.75200 57.37300 40.81100
C  5.09100 58.80900 40.77900
C  3.58600 58.58900 41.16300
C  3.64100 57.04200 41.38300
C  5.80300 59.95600 41.57100
C  2.55900 59.07800 40.10200
C  2.03800 60.53700 40.29800
N  3.35900 54.13100 41.97400
C  2.30900 55.05000 42.07400
C  1.17100 54.34000 42.58300
C  1.49600 52.95700 42.45700
C  2.81300 52.91900 42.02500
C  -0.09700 54.98200 42.91500
C  0.97500 51.63400 42.58400
O  -0.08400 51.21200 43.00900
C  2.14300 50.73400 42.10700
C  1.59500 49.76800 41.10700
O  1.14900 50.13900 40.05100
O  1.92000 48.51100 41.58000
C  1.45300 47.42800 40.69100
H  8.47700 51.69100 39.53900
H  7.79100 57.97300 40.45500
H  1.65800 57.04400 41.98300
H  4.37600 49.20200 40.41300
H  6.52700 50.19100 38.77300
H  6.55900 48.33400 40.81300
H  7.47500 49.55400 41.46700
H  8.02700 48.99900 39.88400
H  4.58900 50.47400 37.72800
H  3.19800 50.88400 38.64000
H  2.37000 48.87300 37.83400
H  3.52500 48.02900 38.73500
H  10.50000 53.58400 38.14400
H  10.48400 52.41200 39.49700
H  11.44900 53.88600 39.57100
H  11.28000 58.57100 40.50200
H  9.75200 58.28600 41.18900
H  9.87900 58.71400 39.41700
H  5.18300 59.12600 39.74000
H  3.32300 59.05000 42.11500
H  5.15400 60.50800 42.25100
H  6.19400 60.65000 40.82700
H  6.67800 59.80400 42.20200
H  1.60600 58.55000 40.13200
H  3.13200 58.97400 39.18000
H  2.77700 61.16200 39.79700
H  2.07200 60.80000 41.35500
H  1.01100 60.76100 40.00800
H  0.15500 55.72000 43.67600
H  -0.85500 54.37400 43.40800
H  -0.58800 55.40100 42.03600
H  2.47800 50.17400 42.98000
H  1.17900 47.71800 39.67700
H  0.67100 46.87500 41.21300
H  2.42000 46.93500 40.59000

