158

Mg 46.59700 24.73200 28.02900
C  47.39900 27.16500 30.51100
C  45.85400 22.53300 30.44500
C  46.32900 22.32700 25.50800
C  47.68700 26.84400 25.61800
N  46.67600 24.80700 30.24900
C  46.82600 25.99900 31.01600
C  46.54800 25.73400 32.53700
C  45.94900 24.30800 32.39700
C  46.16100 23.80100 30.98200
C  46.47800 23.16600 33.29700
C  45.52500 26.71100 33.19500
C  45.81000 27.08300 34.63800
H  44.69300 27.04200 35.62400
N  46.09000 22.75100 28.06100
C  45.78400 21.98700 29.12400
C  45.53200 20.63900 28.72900
C  45.84600 20.50600 27.34000
C  46.14600 21.88900 26.89700
C  45.05000 19.55700 29.68900
C  45.92900 19.27500 26.44900
O  46.23500 19.21500 25.26800
C  45.77700 17.92800 27.13800
N  46.95500 24.56500 25.81400
C  46.57600 23.57200 24.98700
C  46.79700 23.92600 23.48000
C  46.98000 25.46200 23.63300
C  47.27100 25.62200 25.11200
C  47.95300 23.19700 22.86500
C  45.83500 26.31400 23.00700
C  44.33700 25.95900 23.42200
N  47.39500 26.57200 27.97000
C  47.76100 27.39300 26.93000
C  48.29100 28.63900 27.31900
C  48.14400 28.59300 28.73400
C  47.54900 27.32200 29.11400
C  48.77900 29.69000 26.45400
C  48.45700 29.27900 29.93800
O  48.93100 30.41000 30.10700
C  47.80400 28.50400 31.09200
C  48.85600 28.34900 32.16600
O  49.87100 27.64300 32.08200
O  48.44600 29.07700 33.29800
C  49.29600 28.86900 34.47600
H  45.36800 21.83100 31.12500
H  46.17100 21.50500 24.80800
H  47.82400 27.66700 24.91300
H  47.51800 25.67400 33.03000
H  44.86500 24.25200 32.49200
H  46.66400 23.51600 34.31300
H  47.21800 22.50700 32.84300
H  45.62700 22.50400 33.45300
H  44.48200 26.43500 33.04400
H  45.60100 27.67100 32.68300
H  46.29300 28.05000 34.49600
H  46.53500 26.43200 35.12700
H  44.25700 18.87000 29.39600
H  44.67400 20.07300 30.57200
H  45.92200 19.00100 30.03500
H  46.54900 17.92000 27.90700
H  46.15300 17.19700 26.42100
H  44.73400 17.84000 27.44400
H  45.91200 23.62000 22.92200
H  47.91400 25.78000 23.16900
H  48.09500 23.66900 21.89300
H  47.71000 22.14600 22.70900
H  48.77000 23.38000 23.56400
H  45.83600 26.22400 21.92100
H  46.03200 27.35100 23.27800
H  43.68400 25.74100 22.57700
H  43.93100 26.78500 24.00500
H  44.29100 25.09200 24.08200
H  48.14800 30.55300 26.67000
H  48.81100 29.60100 25.36800
H  49.81900 29.85000 26.74000
H  46.96300 29.04700 31.52500
H  48.99200 27.98500 35.03800
H  49.23000 29.74600 35.12100
H  50.37000 28.75200 34.33200
Mg -5.46400 25.04200 25.49200
C  -4.24100 26.60700 28.45500
C  -6.89600 22.69200 27.62200
C  -6.74000 23.65000 22.74700
C  -3.78700 27.45400 23.63600
N  -5.50900 24.79600 27.80300
C  -4.99500 25.52900 28.80300
C  -5.56400 25.08600 30.19900
C  -6.17700 23.70400 29.89200
C  -6.18700 23.71800 28.34200
C  -5.26100 22.52400 30.45200
C  -6.57300 26.21200 30.67100
C  -6.27500 26.81100 32.04600
H  -6.16300 25.89800 33.28100
N  -6.62100 23.33100 25.17200
C  -7.12400 22.49200 26.19900
C  -7.70500 21.41800 25.50100
C  -7.74100 21.71700 24.09100
C  -7.02900 22.92300 23.99600
C  -8.39900 20.29100 26.25200
C  -8.47800 20.95300 22.93000
O  -8.50600 21.30800 21.79200
C  -9.22900 19.69000 23.17100
N  -5.37000 25.53300 23.45900
C  -5.92400 24.78600 22.50000
C  -5.54300 25.25800 21.10800
C  -4.98900 26.64500 21.45300
C  -4.62100 26.52800 22.91900
C  -4.44400 24.29700 20.44100
C  -5.93700 27.88000 21.33600
C  -5.94100 28.59800 19.98300
N  -4.19600 26.67900 25.84100
C  -3.59500 27.53200 25.01100
C  -2.76300 28.41500 25.75200
C  -3.01000 28.06500 27.09700
C  -3.92300 27.04500 27.13400
C  -1.85200 29.42200 25.20800
C  -2.56900 28.41000 28.49900
O  -1.78600 29.27600 28.83100
C  -3.47000 27.52500 29.45200
C  -2.62900 26.66900 30.32800
O  -1.87500 25.83200 29.87000
O  -2.81200 26.93100 31.69400
C  -2.12100 26.06900 32.66700
H  -7.39500 21.97400 28.27600
H  -7.24200 23.25800 21.86000
H  -3.17200 28.14500 23.05500
H  -4.82100 24.95100 30.98400
H  -7.14500 23.58900 30.38000
H  -5.85400 21.63000 30.64400
H  -4.77400 22.88700 31.35700
H  -4.56000 22.15200 29.70500
H  -7.57900 25.79100 30.69200
H  -6.48700 27.02400 29.94900
H  -6.98800 27.62400 32.17800
H  -5.34200 27.29800 31.76000
H  -7.99100 19.33700 25.91900
H  -9.45900 20.26900 25.99700
H  -8.35600 20.16300 27.33300
H  -10.00900 19.98100 23.87400
H  -8.63900 18.89800 23.63300
H  -9.61800 19.31300 22.22500
H  -6.45200 25.30700 20.51000
H  -4.06200 26.86800 20.92500
H  -4.15900 23.45200 21.06800
H  -3.59000 24.76200 19.94800
H  -4.96600 23.76100 19.64800
H  -5.84000 28.68200 22.06700
H  -6.94600 27.47500 21.42300
H  -5.09700 29.28600 20.03700
H  -6.88600 29.06100 19.70100
H  -5.77000 27.85500 19.20400
H  -2.49500 29.97400 24.52100
H  -0.92800 29.07600 24.74500
H  -1.51800 30.10200 25.99100
H  -4.07000 28.28300 29.95600
H  -2.33800 25.00400 32.57500
H  -2.37700 26.40500 33.67200
H  -1.04200 26.14800 32.53400

