158

Mg 35.68200 2.38600 30.45700
C  33.36200 3.30800 32.86100
C  38.13900 2.45900 33.01700
C  37.95900 1.49300 28.19400
C  33.15600 2.65900 27.95300
N  35.66400 2.73200 32.66700
C  34.64000 3.12300 33.40700
C  34.97500 3.03900 34.86900
C  36.51200 3.13300 34.88300
C  36.84100 2.70600 33.45100
C  36.96000 4.65400 35.19100
C  34.40100 1.77500 35.57700
C  34.04900 1.96300 37.12200
H  34.80900 3.01200 37.99300
N  37.73200 1.98500 30.62900
C  38.53200 2.02500 31.72900
C  39.90100 1.51100 31.38400
C  39.77600 1.20400 29.98300
C  38.44800 1.61500 29.55300
C  41.02400 1.32400 32.40300
C  40.84800 0.53400 29.14800
O  40.67800 0.28700 27.95100
C  42.16400 0.20200 29.73100
N  35.56500 2.20300 28.38500
C  36.68800 1.76300 27.65100
C  36.41500 1.55500 26.14700
C  34.83000 1.69100 26.16000
C  34.47900 2.23100 27.51700
C  37.26400 2.49000 25.22500
C  34.10600 0.38800 25.83600
C  34.34200 -0.23700 24.45300
N  33.68600 2.97500 30.37700
C  32.83300 3.01300 29.24900
C  31.51800 3.47800 29.78300
C  31.64400 3.51100 31.19900
C  33.03600 3.28200 31.48600
C  30.31900 3.74700 28.98400
C  30.94400 3.77200 32.40500
O  29.73500 4.06400 32.57500
C  32.06500 3.66900 33.54100
C  32.25500 5.01100 34.23900
O  32.63300 5.98900 33.71000
O  31.87500 4.97900 35.58300
C  32.08700 6.20800 36.33100
H  38.86700 2.61700 33.81600
H  38.76300 1.22800 27.50500
H  32.34600 2.70800 27.22300
H  34.54600 3.94200 35.30300
H  36.99500 2.54600 35.66400
H  37.60700 4.58300 36.06500
H  36.18700 5.39500 35.39300
H  37.46400 5.00600 34.29100
H  34.93100 0.83100 35.45600
H  33.43000 1.50300 35.16500
H  34.15900 1.00800 37.63400
H  32.97300 2.13900 37.09200
H  41.13500 0.26600 32.64000
H  40.85200 1.89700 33.31400
H  41.94000 1.72300 31.96600
H  42.17100 -0.55500 30.51500
H  42.57400 1.18700 29.95300
H  42.79200 -0.23400 28.95400
H  36.65600 0.50300 25.99200
H  34.67600 2.46200 25.40500
H  38.24100 2.03200 25.07200
H  37.34300 3.51400 25.59100
H  36.77000 2.34400 24.26400
H  33.02600 0.53500 25.84500
H  34.39300 -0.34600 26.58900
H  34.99700 0.44100 23.90500
H  33.37400 -0.28600 23.95500
H  34.76900 -1.22700 24.29300
H  30.50200 4.06500 27.95800
H  29.74100 4.45700 29.57600
H  29.73300 2.83700 28.85900
H  31.78200 2.92100 34.28100
H  31.39200 6.93000 35.90100
H  33.07700 6.59200 36.08300
H  32.06100 6.02100 37.40400
Mg 26.74900 50.43900 26.73000
C  25.07500 51.73700 29.51700
C  29.37800 49.69800 28.97000
C  28.42100 49.26100 24.16200
C  24.25000 51.60000 24.64200
N  27.17000 50.82500 28.94600
C  26.29900 51.26900 29.83700
C  26.79600 50.88500 31.21500
C  28.33300 50.63900 31.04400
C  28.30300 50.42600 29.53100
C  29.10000 51.81600 31.63100
C  25.95900 49.70800 31.81200
C  25.09300 50.03100 33.04200
H  25.88400 50.04700 34.34400
N  28.57500 49.55200 26.54800
C  29.42300 49.23400 27.60900
C  30.54700 48.57300 27.07400
C  30.43900 48.54400 25.64100
C  29.13800 49.12500 25.36500
C  31.69300 48.00400 27.92100
C  31.36900 47.89000 24.59500
O  31.10300 47.85100 23.41100
C  32.62600 47.21800 24.97700
N  26.44900 50.58600 24.60000
C  27.20800 49.77200 23.81200
C  26.60600 49.57700 22.43200
C  25.19300 50.28700 22.62000
C  25.24900 50.79200 24.07100
C  27.48700 50.19200 21.23600
C  23.98900 49.37200 22.40100
C  22.95600 49.78200 21.34300
N  25.14500 51.61600 26.93100
C  24.15600 51.87300 26.04200
C  22.96100 52.51700 26.69000
C  23.30400 52.44800 28.03400
C  24.67100 51.87500 28.15100
C  21.68200 52.97600 26.01000
C  22.76200 52.68600 29.34000
O  21.67000 53.11700 29.71500
C  23.96300 52.23700 30.37400
C  24.45000 53.32800 31.26300
O  25.22800 54.20500 30.92900
O  23.86400 53.24500 32.45500
C  23.94300 54.36100 33.36800
H  30.11300 49.31800 29.68300
H  28.93000 48.75300 23.34000
H  23.35900 51.87400 24.07200
H  26.70100 51.73600 31.88800
H  28.57700 49.74500 31.61700
H  28.63900 51.96800 32.60700
H  28.82800 52.69600 31.04900
H  30.18800 51.76300 31.60200
H  26.56500 48.84900 32.10100
H  25.35000 49.27200 31.01900
H  24.43000 49.20900 33.31000
H  24.41100 50.87800 32.96800
H  32.59900 48.57800 27.72600
H  31.91000 46.95000 27.75100
H  31.47300 47.95700 28.98700
H  33.28800 47.82000 25.59900
H  33.16000 47.01300 24.04900
H  32.35400 46.28000 25.46200
H  26.54000 48.50600 22.24000
H  25.14000 51.17500 21.99000
H  27.18500 51.19000 20.91700
H  27.42700 49.51300 20.38600
H  28.50200 50.38400 21.58500
H  23.42700 49.37600 23.33500
H  24.28000 48.33200 22.25900
H  23.38200 50.61200 20.77800
H  21.94900 50.04800 21.66400
H  22.96100 48.89800 20.70500
H  21.86300 53.92400 25.50300
H  20.82100 53.05600 26.67300
H  21.36400 52.27400 25.23900
H  23.70000 51.36300 30.97000
H  23.98400 53.99200 34.39300
H  23.07300 55.00300 33.22400
H  24.76800 54.99900 33.05100

