158

Mg -2.24600 17.16100 25.73300
C  -2.59700 14.90900 28.37100
C  -3.11800 19.69100 27.82300
C  -2.34300 19.14900 23.08100
C  -2.02900 14.36100 23.54000
N  -2.78100 17.23400 27.88300
C  -2.81000 16.28000 28.76100
C  -3.28100 16.72800 30.15500
C  -3.50600 18.27800 29.93900
C  -3.16300 18.44000 28.45400
C  -4.91200 18.78100 30.42500
C  -2.17500 16.53600 31.33800
C  -2.33200 17.38000 32.61600
H  -2.25500 16.68500 33.96300
N  -2.41100 19.18900 25.49500
C  -2.73300 20.06700 26.50100
C  -2.58800 21.37900 25.97500
C  -2.33800 21.24300 24.60400
C  -2.35500 19.79000 24.33100
C  -2.51500 22.65600 26.84100
C  -2.02800 22.35800 23.54300
O  -1.82500 22.08100 22.34600
C  -1.73800 23.72300 24.01800
N  -2.22000 16.82900 23.60100
C  -2.16700 17.83500 22.68100
C  -2.17200 17.30100 21.23100
C  -2.14300 15.71700 21.42200
C  -2.14900 15.57300 22.95400
C  -3.25700 17.84600 20.21500
C  -1.31000 14.89200 20.49100
C  0.12200 14.46600 20.99200
N  -2.26100 15.01700 25.83400
C  -2.06800 14.02700 24.90600
C  -1.98000 12.72600 25.63300
C  -2.28700 13.00200 26.97400
C  -2.35400 14.45100 27.04300
C  -1.88700 11.35200 24.94300
C  -2.38200 12.54200 28.33200
O  -2.11600 11.39800 28.78600
C  -2.53200 13.68700 29.31700
C  -1.31700 13.66700 30.20200
O  -0.15800 13.90700 29.83100
O  -1.66100 13.29000 31.44100
C  -0.54100 13.04100 32.36500
H  -3.24100 20.55400 28.48100
H  -2.45200 19.80300 22.21300
H  -1.90700 13.57500 22.79100
H  -4.20200 16.18300 30.36000
H  -2.78300 18.89200 30.47700
H  -5.39700 19.22900 29.55800
H  -4.81300 19.60500 31.13200
H  -5.70200 18.09500 30.73100
H  -1.20400 16.89200 30.99500
H  -2.36000 15.50800 31.64800
H  -3.36000 17.73600 32.53900
H  -1.57600 18.16500 32.59500
H  -2.52300 22.39800 27.90000
H  -3.21700 23.39200 26.44800
H  -1.51300 23.07800 26.76700
H  -0.81900 23.66400 24.60200
H  -2.61900 23.94400 24.61900
H  -1.56700 24.45500 23.22800
H  -1.17600 17.46400 20.82000
H  -3.10100 15.20800 21.31300
H  -3.92700 17.02400 19.96000
H  -2.81500 18.19700 19.28200
H  -3.79900 18.66700 20.68400
H  -1.37800 15.50600 19.59300
H  -1.92100 14.04300 20.18200
H  0.23400 13.39600 20.81300
H  0.24900 14.62200 22.06300
H  0.94300 14.98200 20.49400
H  -0.84500 11.15500 25.19500
H  -1.97700 11.41600 23.85900
H  -2.55000 10.59800 25.36700
H  -3.43600 13.46300 29.88400
H  -0.54300 13.84100 33.10600
H  0.47700 12.79000 32.06800
H  -0.97600 12.18700 32.88400
Mg 48.08500 34.56200 27.13700
C  46.24900 33.00100 29.77300
C  48.57400 37.16900 29.31900
C  49.42900 36.29200 24.61400
C  47.14500 31.90000 25.17500
N  47.65600 34.85000 29.30500
C  46.92400 34.12900 30.19200
C  46.87400 34.74000 31.60500
C  47.31500 36.21900 31.24000
C  47.92800 36.08900 29.89200
C  46.15300 37.26200 31.40600
C  47.86000 34.04300 32.65200
C  47.31300 33.69200 34.01000
H  46.04800 34.41000 34.43900
N  49.06300 36.43700 27.03400
C  49.09700 37.36700 28.02500
C  49.65500 38.60700 27.52100
C  49.84900 38.39500 26.13600
C  49.48700 37.00900 25.83900
C  49.84200 39.83400 28.33400
C  50.28400 39.35000 25.08300
O  50.35400 39.09600 23.89300
C  50.71800 40.74300 25.55200
N  48.46100 34.17100 25.23400
C  48.91100 34.99700 24.30400
C  48.90300 34.42700 22.85700
C  48.45200 32.94800 23.14300
C  47.95100 32.96300 24.64000
C  47.88000 35.23300 21.90600
C  49.49800 31.81100 23.10000
C  48.98600 30.50700 22.56000
N  46.97600 32.71500 27.38200
C  46.64900 31.77400 26.44600
C  45.88700 30.71500 27.09100
C  45.71700 31.23100 28.32900
C  46.35300 32.44500 28.46900
C  45.36700 29.40400 26.58000
C  45.09900 30.85400 29.55400
O  44.62300 29.82200 29.94100
C  45.28200 32.10100 30.52800
C  45.72200 31.46700 31.85500
O  46.79500 30.96600 32.03200
O  44.63100 31.36700 32.69400
C  44.84600 30.61600 33.97200
H  48.66400 37.93800 30.09000
H  49.72100 36.86900 23.73400
H  46.94000 31.19600 24.36500
H  45.81900 34.71100 31.87900
H  48.08700 36.56300 31.92900
H  45.16500 36.82300 31.54900
H  46.10200 37.95400 30.56500
H  46.45700 37.79000 32.30900
H  48.81500 34.54900 32.78800
H  48.06900 33.08200 32.18100
H  48.09400 33.91900 34.73500
H  47.18800 32.63400 34.24100
H  50.80200 40.29300 28.09500
H  49.58600 39.61400 29.37000
H  49.16900 40.58600 27.92300
H  49.88800 41.23000 26.06400
H  50.83200 41.32800 24.63900
H  51.61900 40.58000 26.14400
H  49.89500 34.50900 22.41200
H  47.65500 32.70700 22.44000
H  47.59000 36.12100 22.46800
H  46.94000 34.74700 21.64700
H  48.39200 35.44400 20.96700
H  50.04200 31.68900 24.03700
H  50.28000 32.26800 22.49300
H  49.68400 30.15600 21.80000
H  47.98500 30.54600 22.12800
H  48.91300 29.75100 23.34100
H  45.08800 29.30600 25.53100
H  44.42100 29.16300 27.06400
H  46.17700 28.74600 26.89200
H  44.38100 32.68600 30.70900
H  44.67400 29.56900 33.72100
H  44.10200 30.95600 34.69300
H  45.84900 30.80600 34.35400

