158

Mg 47.64100 25.61500 27.72500
C  48.99800 27.61500 30.16700
C  46.64200 23.27200 30.07300
C  46.48700 23.69300 25.20500
C  49.02700 27.86400 25.22400
N  47.89500 25.43800 29.88300
C  48.28800 26.45600 30.71700
C  47.90100 26.20000 32.15400
C  47.40100 24.71000 32.07000
C  47.33100 24.42400 30.58100
C  48.30300 23.78300 32.93600
C  46.88000 27.20900 32.71400
C  47.15500 27.39700 34.27200
H  45.97600 28.01800 35.11000
N  46.68700 23.71700 27.65600
C  46.36100 22.97800 28.77600
C  45.81700 21.69400 28.30900
C  45.59500 21.84500 26.87000
C  46.27300 23.12100 26.46200
C  45.52400 20.56900 29.22900
C  44.80400 20.90700 25.98100
O  44.71200 21.08300 24.74500
C  44.12200 19.73300 26.55800
N  47.77500 25.78900 25.51200
C  47.23900 24.75600 24.76100
C  47.67100 24.89500 23.34800
C  48.43100 26.22700 23.32100
C  48.38200 26.68100 24.72600
C  48.57400 23.74300 22.86500
C  47.74500 27.33000 22.32500
C  48.27300 27.53700 20.85200
N  48.74500 27.38800 27.65300
C  49.25700 28.19200 26.62600
C  50.09800 29.21800 27.12400
C  49.92600 29.05300 28.51000
C  49.13000 27.94400 28.78000
C  50.86600 30.25700 26.44300
C  50.22400 29.66200 29.73900
O  50.93300 30.61700 29.93400
C  49.60600 28.82700 30.87200
C  50.49200 28.53300 31.96200
O  51.60900 27.95500 31.92200
O  49.91200 29.02700 33.09900
C  50.62600 28.91100 34.31400
H  46.34600 22.54700 30.83500
H  46.16000 23.03800 24.39400
H  49.58000 28.46100 24.49600
H  48.86200 26.19600 32.66800
H  46.41200 24.71200 32.52800
H  48.99000 23.01400 32.58200
H  47.59700 23.23500 33.56000
H  48.93900 24.35600 33.61000
H  45.84200 26.88300 32.64400
H  47.02600 28.15900 32.20000
H  48.02000 28.06000 34.30600
H  47.44900 26.47300 34.76900
H  44.48900 20.61300 29.56600
H  46.24200 20.65000 30.04600
H  45.73300 19.62300 28.73000
H  44.82800 18.90400 26.49400
H  43.32800 19.48600 25.85300
H  43.67500 20.13500 27.46700
H  46.78500 25.02100 22.72600
H  49.43900 26.16800 22.91200
H  48.67500 22.96200 23.61800
H  49.61600 24.05500 22.79100
H  48.19500 23.35600 21.91900
H  47.74300 28.30200 22.81700
H  46.71900 27.06400 22.06900
H  47.43700 27.19100 20.24300
H  49.17700 26.93100 20.80100
H  48.59200 28.57100 20.71600
H  51.40100 31.00500 27.02800
H  50.26000 30.66600 25.63400
H  51.63700 29.71200 25.89700
H  48.79800 29.50800 31.13800
H  50.45200 27.95500 34.80700
H  50.24100 29.64600 35.02100
H  51.64400 29.28800 34.22100
Mg 1.33700 42.64700 24.84300
C  2.33400 42.79200 28.25300
C  -1.54700 41.27000 25.90800
C  0.58700 42.20300 21.65700
C  4.57600 43.56300 23.98300
N  0.43500 42.28600 26.86400
C  0.99200 42.45800 28.12000
C  -0.00200 42.22000 29.19500
C  -1.24500 41.51000 28.44100
C  -0.75600 41.66400 26.97100
C  -1.40300 40.07800 28.81800
C  -0.38200 43.46600 30.11300
C  -0.07600 43.21900 31.64000
H  -0.63400 41.92100 32.26400
N  -0.32700 41.99300 23.93900
C  -1.40900 41.46900 24.53600
C  -2.47700 41.15300 23.49600
C  -1.80000 41.48600 22.24900
C  -0.42200 41.93000 22.60800
C  -3.94300 40.70700 23.81400
C  -2.33100 41.24400 20.89700
O  -1.67600 41.42500 19.87600
C  -3.68200 40.72000 20.72900
N  2.45100 42.71700 23.08300
C  1.86900 42.54200 21.91300
C  2.91000 42.68900 20.75700
C  4.06600 43.40600 21.51100
C  3.69000 43.22400 22.99100
C  3.30000 41.34100 20.08100
C  4.40400 44.85400 20.96700
C  3.23700 45.87700 21.14900
N  3.08900 43.06500 25.85800
C  4.29800 43.51100 25.34200
C  5.27400 43.72000 26.38700
C  4.52500 43.49100 27.58600
C  3.20600 43.06800 27.17300
C  6.66900 44.09200 26.27200
C  4.59200 43.44200 28.99300
O  5.45400 43.73500 29.79300
C  3.14300 42.87900 29.51800
C  3.49200 41.65300 30.26300
O  3.85600 40.62700 29.71900
O  3.49300 41.85600 31.63300
C  3.83200 40.68800 32.40400
H  -2.51700 40.81700 26.12400
H  0.41600 42.14400 20.58000
H  5.47800 44.01000 23.55900
H  0.51900 41.46200 29.78000
H  -2.12100 42.13600 28.60900
H  -2.46800 39.92200 28.98900
H  -0.74700 39.83400 29.65400
H  -0.93800 39.50800 28.01300
H  -1.41300 43.67800 29.83000
H  0.14300 44.35500 29.76200
H  -0.70800 43.97300 32.10900
H  0.98100 43.36500 31.86500
H  -4.05700 39.62300 23.81300
H  -4.73300 41.18900 23.23700
H  -4.12200 41.05000 24.83300
H  -3.96400 39.80100 21.24300
H  -3.87100 40.49500 19.67900
H  -4.34900 41.52400 21.03800
H  2.49400 43.30800 19.96200
H  5.02100 42.88300 21.47600
H  2.64300 40.48300 20.22600
H  4.30200 41.05000 20.39700
H  3.44400 41.54800 19.02100
H  4.54700 44.71600 19.89500
H  5.25800 45.33200 21.44700
H  2.43800 45.48300 21.77800
H  2.87400 46.26000 20.19500
H  3.62300 46.72200 21.71900
H  7.15800 43.69600 25.38100
H  7.22100 43.81300 27.16900
H  6.73600 45.18000 26.26900
H  2.66800 43.60300 30.18000
H  3.27800 39.86300 31.95500
H  3.67600 40.73900 33.48100
H  4.90500 40.51400 32.31700

