158

Mg 54.13400 24.45100 45.43500
C  51.58300 26.51100 44.59300
C  52.26800 21.68500 44.20700
C  56.83000 22.48200 45.22900
C  56.10400 27.11000 46.36900
N  52.37400 24.19000 44.33700
C  51.38200 25.15400 44.26700
C  50.18100 24.62600 43.54900
C  50.12800 23.16400 43.87900
C  51.68800 22.98200 44.17300
C  49.22200 22.78800 45.06700
C  50.12500 24.96500 42.03000
C  51.40400 25.29800 41.37600
H  52.31900 24.15400 40.94900
N  54.48800 22.31600 45.01000
C  53.58500 21.36200 44.49900
C  54.29100 20.14000 44.34100
C  55.59100 20.32100 44.59500
C  55.73800 21.75200 44.94900
C  53.51900 18.95600 43.72800
C  56.72200 19.27200 44.48200
O  56.35900 18.14900 44.11700
C  58.14100 19.49800 44.88400
N  56.16500 24.77400 45.53800
C  57.02300 23.78100 45.61100
C  58.44800 24.30800 45.94800
C  58.26300 25.80900 46.33600
C  56.78000 25.93500 46.05300
C  59.23400 23.43700 46.97800
C  59.23000 26.78200 45.50100
C  60.35700 27.43900 46.23900
N  53.96500 26.41900 45.34100
C  54.76800 27.40600 45.99500
C  53.98900 28.61500 46.15200
C  52.76800 28.32100 45.53900
C  52.78800 26.99500 45.18700
C  54.35800 29.86700 46.89000
C  51.37400 28.85000 45.27200
O  50.94100 29.95800 45.43300
C  50.65000 27.71100 44.43900
C  50.55800 28.25600 43.04900
O  51.46900 28.81300 42.45000
O  49.30700 28.03200 42.49500
C  49.26400 28.47800 41.08400
H  51.51300 20.93700 43.95600
H  57.80200 21.98800 45.29800
H  56.72300 27.85800 46.86900
H  49.31700 25.06900 44.04600
H  49.89400 22.60300 42.97400
H  49.90000 22.64700 45.90800
H  48.65300 21.89800 44.80000
H  48.51000 23.55400 45.37600
H  49.40700 25.77300 41.89000
H  49.74900 24.15500 41.40500
H  51.93300 26.07000 41.93400
H  51.20500 25.69100 40.37900
H  53.93800 18.88800 42.72400
H  52.44600 19.12600 43.63900
H  53.57200 18.06900 44.36000
H  58.67200 18.54800 44.85000
H  58.07400 19.81600 45.92500
H  58.60000 20.26200 44.25600
H  59.05400 24.33400 45.04200
H  58.39400 25.93700 47.41100
H  58.53600 22.71900 47.40800
H  59.46100 23.98500 47.89300
H  60.04000 22.82000 46.58100
H  58.68400 27.64600 45.12300
H  59.51400 26.32300 44.55400
H  60.42500 27.12300 47.28000
H  60.18200 28.51500 46.25300
H  61.28600 27.26600 45.69700
H  53.86000 29.75900 47.85300
H  53.98500 30.77700 46.41900
H  55.42900 29.93700 47.07600
H  49.65400 27.51900 44.83600
H  50.11800 27.99400 40.61100
H  49.23000 29.56800 41.06300
H  48.36500 27.97000 40.73700
Mg -5.79400 24.93500 26.11000
C  -4.52000 26.66900 28.91200
C  -7.40300 22.89200 28.21000
C  -7.02000 23.37500 23.39300
C  -3.79300 26.92200 24.00100
N  -6.01900 24.85800 28.36300
C  -5.43100 25.67000 29.30500
C  -5.79600 25.20000 30.70800
C  -6.42300 23.81300 30.41900
C  -6.60200 23.80100 28.87800
C  -5.64100 22.59200 31.07800
C  -6.79400 26.20900 31.35000
C  -6.85600 26.36100 32.90200
H  -6.19700 25.29600 33.79600
N  -7.07100 23.47100 25.84400
C  -7.69700 22.73200 26.88200
C  -8.64700 21.81500 26.28500
C  -8.57900 21.96500 24.88600
C  -7.48000 22.92500 24.67100
C  -9.49600 20.88500 27.11500
C  -9.31400 21.27400 23.80500
O  -9.02500 21.42600 22.64500
C  -10.46000 20.35400 24.14700
N  -5.59400 25.25600 24.02500
C  -6.09500 24.42600 23.13600
C  -5.90400 24.87600 21.63100
C  -4.93900 26.11600 21.92400
C  -4.82200 26.18400 23.41400
C  -5.26400 23.74500 20.69700
C  -5.38600 27.45100 21.31400
C  -4.60800 27.91400 20.01700
N  -4.40300 26.45000 26.35400
C  -3.60900 27.14100 25.41000
C  -2.60500 27.92800 26.19600
C  -2.97300 27.81300 27.48900
C  -4.02600 26.91700 27.55300
C  -1.60000 28.88000 25.58000
C  -2.70400 28.37800 28.87100
O  -1.87400 29.21900 29.28400
C  -3.64000 27.55300 29.81900
C  -2.82100 26.67900 30.69300
O  -2.38200 25.59500 30.36300
O  -2.70200 27.24600 31.91900
C  -1.99000 26.32600 32.87200
H  -7.92200 22.23800 28.91400
H  -7.26000 22.80700 22.49200
H  -3.14200 27.59000 23.43300
H  -4.96900 25.22800 31.41700
H  -7.44700 23.79700 30.79100
H  -6.32700 22.13100 31.78900
H  -4.76700 22.91400 31.64500
H  -5.53400 21.86300 30.27500
H  -7.79300 26.03000 30.95200
H  -6.48800 27.18200 30.96300
H  -7.90000 26.49200 33.18300
H  -6.34700 27.29300 33.14900
H  -9.35400 19.93700 26.59600
H  -10.56000 21.12300 27.12200
H  -9.18000 20.70100 28.14200
H  -11.03000 19.96100 23.30400
H  -11.12500 20.77400 24.90100
H  -9.98900 19.40700 24.41100
H  -6.93500 25.19300 21.47400
H  -3.92400 25.84800 21.62800
H  -4.30800 24.08300 20.29800
H  -6.04200 23.48100 19.98100
H  -5.11600 22.84200 21.28900
H  -5.24300 28.20100 22.09200
H  -6.46000 27.52200 21.13900
H  -3.87300 27.12000 19.88600
H  -4.04400 28.80500 20.29500
H  -5.29300 28.05000 19.18000
H  -0.68600 28.80200 26.16900
H  -1.96500 29.89200 25.75500
H  -1.42600 28.71200 24.51800
H  -4.20500 28.26300 30.42200
H  -1.13800 25.77400 32.47600
H  -2.76800 25.70400 33.31300
H  -1.52600 27.02300 33.57000

