158

Mg 24.09300 -5.73500 45.76200
C  26.34100 -3.39600 44.48100
C  21.70400 -4.70200 43.44600
C  22.34400 -8.75500 46.12900
C  26.74900 -7.18700 47.52600
N  24.11500 -4.32000 44.08100
C  25.16900 -3.42900 43.73200
C  24.75400 -2.48500 42.57400
C  23.18900 -2.73000 42.53600
C  22.97000 -3.97400 43.44600
C  22.26500 -1.52700 42.84400
C  25.51400 -2.86900 41.19700
C  26.22000 -1.78800 40.43100
H  25.61200 -1.30000 39.21500
N  22.23500 -6.55500 44.96900
C  21.42200 -5.91700 44.09200
C  20.21200 -6.66500 43.96100
C  20.33600 -7.87000 44.75700
C  21.69400 -7.77700 45.41000
C  19.05900 -6.16200 43.11100
C  19.38800 -9.02400 44.84700
O  18.34200 -9.08900 44.24900
C  19.50700 -10.14900 45.85600
N  24.44100 -7.65900 46.69300
C  23.62300 -8.69700 46.66900
C  24.22100 -9.96500 47.33700
C  25.58300 -9.45300 47.92400
C  25.64700 -8.04700 47.28500
C  23.23800 -10.72300 48.39300
C  26.79700 -10.40200 47.49800
C  27.64400 -10.81100 48.72900
N  26.13300 -5.40800 46.04500
C  27.07000 -6.01900 46.83800
C  28.31500 -5.30400 46.85100
C  28.06700 -4.19700 45.97900
C  26.76500 -4.38100 45.45600
C  29.63200 -5.71600 47.48500
C  28.66400 -2.99900 45.38500
O  29.74800 -2.52500 45.50100
C  27.57000 -2.46800 44.39200
C  27.14100 -1.03000 44.75700
O  26.10800 -0.65400 45.30700
O  28.14400 -0.13900 44.26400
C  28.05400 1.33600 44.68000
H  20.97200 -4.05900 42.95400
H  21.83100 -9.68900 46.36700
H  27.47400 -7.60200 48.22900
H  25.06800 -1.50400 42.92900
H  22.95000 -3.04600 41.52000
H  22.86400 -0.62700 42.98300
H  21.73700 -1.72000 43.77800
H  21.59800 -1.25300 42.02700
H  24.79500 -3.30700 40.50400
H  26.22200 -3.63900 41.50300
H  27.25300 -2.12200 40.33600
H  26.14700 -0.93900 41.11100
H  19.22100 -6.36600 42.05200
H  18.68600 -5.14000 43.17500
H  18.17400 -6.76800 43.30300
H  19.78900 -9.58100 46.74200
H  20.27800 -10.87100 45.58800
H  18.62100 -10.68600 46.19600
H  24.41900 -10.71100 46.56800
H  25.46900 -9.38400 49.00600
H  23.74500 -11.04100 49.30400
H  22.61800 -11.54600 48.03500
H  22.46700 -9.99600 48.64800
H  27.42100 -9.95700 46.72300
H  26.42600 -11.26800 46.94900
H  28.32800 -9.98500 48.92900
H  28.10700 -11.79100 48.61200
H  27.05000 -10.92400 49.63600
H  29.84700 -6.69600 47.06000
H  29.64300 -6.09800 48.50600
H  30.39600 -4.95800 47.31000
H  28.00100 -2.46600 43.39100
H  28.33300 1.93000 43.81000
H  28.78700 1.54500 45.46000
H  27.01700 1.57200 44.91900
Mg -1.26300 35.28700 27.33300
C  -3.05900 33.51800 29.69300
C  -0.29600 37.45500 29.89900
C  0.64800 36.85700 25.08600
C  -2.39700 32.98200 24.91400
N  -1.55000 35.35800 29.51000
C  -2.22600 34.48600 30.25900
C  -2.03800 34.77400 31.76700
C  -1.46000 36.18300 31.76700
C  -1.12000 36.33400 30.26900
C  -2.45700 37.31100 32.23600
C  -1.22900 33.70500 32.58700
C  -2.05500 32.78800 33.44300
H  -1.69300 32.34000 34.87600
N  -0.08600 36.96500 27.48400
C  0.21000 37.71800 28.58400
C  1.19000 38.73100 28.20600
C  1.27900 38.64900 26.80000
C  0.55100 37.49000 26.40400
C  1.72300 39.68300 29.25500
C  2.09500 39.57700 25.86800
O  2.01000 39.44100 24.65100
C  2.91200 40.69500 26.37400
N  -1.10500 35.13200 25.23800
C  -0.08600 35.80400 24.60700
C  0.23500 35.20100 23.21500
C  -0.81500 34.01300 23.08500
C  -1.50500 34.03900 24.48600
C  0.18700 36.28200 22.08800
C  -0.21200 32.56700 22.82600
C  -0.96900 31.67900 21.83900
N  -2.61400 33.65500 27.23800
C  -3.03500 32.86900 26.15800
C  -4.02900 31.92800 26.65900
C  -4.08600 32.19400 28.00100
C  -3.16000 33.19200 28.30900
C  -4.82100 31.02800 25.89600
C  -4.75700 31.82100 29.26500
O  -5.62800 31.01100 29.54300
C  -4.08200 32.68600 30.35100
C  -5.12100 33.38900 31.11300
O  -5.67000 34.46500 30.94300
O  -5.42600 32.54800 32.18800
C  -6.40800 33.08000 33.16400
H  -0.04800 38.17000 30.68600
H  1.46300 37.22200 24.45800
H  -2.58200 32.20500 24.17000
H  -3.05700 34.71300 32.14900
H  -0.51600 36.22900 32.30900
H  -3.48100 37.00900 32.45700
H  -2.55800 38.10000 31.49000
H  -2.03900 37.67400 33.17500
H  -0.51600 34.22300 33.22900
H  -0.70800 33.09500 31.85000
H  -2.12600 31.91500 32.79400
H  -3.06700 33.18500 33.52400
H  1.60200 39.39200 30.29900
H  1.35100 40.67600 29.00100
H  2.75500 39.78000 28.91900
H  3.84200 40.29700 26.77900
H  2.33900 41.32200 27.05600
H  3.15100 41.37300 25.55400
H  1.28700 34.92300 23.28200
H  -1.55700 34.15300 22.29800
H  -0.49800 37.09200 22.34100
H  -0.29500 35.85000 21.21100
H  1.18700 36.64000 21.84400
H  -0.18000 31.99300 23.75200
H  0.83100 32.69500 22.53700
H  -1.12500 30.79900 22.46300
H  -0.48200 31.42100 20.89900
H  -1.90800 32.20500 21.67200
H  -4.16100 30.34400 25.36200
H  -5.42100 31.65200 25.23500
H  -5.35900 30.50100 26.68300
H  -3.76900 32.00400 31.14200
H  -6.54900 32.31000 33.92200
H  -7.30600 33.48100 32.69300
H  -5.79000 33.82800 33.66200

