158

Mg 26.24100 -1.19200 29.90900
C  28.09600 -0.81400 32.72600
C  23.49300 -0.67700 31.83100
C  24.30500 -1.63900 27.14300
C  29.19600 -1.73100 28.03500
N  25.80000 -0.80000 32.00700
C  26.70400 -0.51700 32.97900
C  26.05400 -0.28300 34.39800
C  24.54200 -0.69400 34.11800
C  24.55000 -0.78500 32.57700
C  23.94000 -1.91200 34.90700
C  26.34300 1.15000 35.00500
C  26.87800 0.97000 36.47800
H  26.12800 1.84500 37.54500
N  24.18500 -1.27600 29.60000
C  23.25100 -0.96800 30.51600
C  21.92900 -0.93600 29.86800
C  22.16500 -1.22800 28.51000
C  23.59100 -1.39500 28.38400
C  20.61900 -0.65500 30.66800
C  21.20900 -1.17200 27.30700
O  21.57200 -1.40800 26.14500
C  19.75900 -0.84500 27.58400
N  26.68800 -1.86800 27.91800
C  25.69900 -1.78800 26.95200
C  26.36300 -1.85600 25.52800
C  27.89100 -1.82800 25.83800
C  28.02700 -1.72900 27.35400
C  25.97400 -3.13600 24.64900
C  28.61000 -0.58300 25.14000
C  28.40600 0.87500 25.66600
N  28.22100 -1.36400 30.26000
C  29.34400 -1.60700 29.41600
C  30.52400 -1.49000 30.24200
C  30.07300 -1.21600 31.57200
C  28.64400 -1.16300 31.50500
C  31.79300 -1.72200 29.68100
C  30.53000 -0.94700 32.93200
O  31.65400 -0.96800 33.38800
C  29.20600 -0.70800 33.77300
C  29.18900 -1.60800 34.98800
O  28.56100 -2.62200 35.13200
O  29.86700 -0.96900 35.97100
C  29.67900 -1.42100 37.39000
H  22.61200 -0.58500 32.46900
H  23.77000 -1.69100 26.19200
H  30.10200 -1.94400 27.46500
H  26.65300 -1.08600 34.82900
H  23.91700 0.13800 34.44300
H  23.23400 -1.62200 35.68500
H  24.61200 -2.60400 35.41500
H  23.58800 -2.65700 34.19300
H  25.45900 1.78600 35.04900
H  27.04800 1.71200 34.39100
H  27.90800 1.31600 36.39400
H  26.87900 -0.01900 36.93500
H  20.17800 0.33400 30.54100
H  20.84300 -0.83400 31.71900
H  19.93500 -1.40800 30.27900
H  19.31900 -0.63600 26.60900
H  19.69300 0.12500 28.07700
H  19.29700 -1.69700 28.08300
H  25.93800 -1.04000 24.94300
H  28.27500 -2.75100 25.40400
H  25.81900 -3.96200 25.34300
H  26.75400 -3.39900 23.93400
H  25.10500 -2.85100 24.05600
H  28.20800 -0.57700 24.12700
H  29.64700 -0.92000 25.13600
H  29.33300 1.17800 26.15400
H  27.69500 0.92600 26.49100
H  28.21400 1.65400 24.92800
H  31.91800 -1.65900 28.60000
H  32.13300 -2.69400 30.03800
H  32.49100 -1.00200 30.10800
H  29.29200 0.35200 34.01300
H  30.36500 -2.25000 37.56400
H  28.67100 -1.80600 37.54300
H  29.99900 -0.76500 38.19900
Mg 8.90400 47.55600 27.67700
C  7.51500 47.07500 30.87900
C  11.95500 48.14800 29.26200
C  10.22900 48.71600 24.78800
C  5.77000 47.54000 26.29800
N  9.67800 47.63100 29.86700
C  8.89400 47.36600 31.00600
C  9.75400 47.51900 32.23800
C  11.18500 48.04500 31.66400
C  10.97100 47.78900 30.15200
C  11.69900 49.44800 32.19400
C  9.77100 46.29600 33.18800
C  9.47300 46.66800 34.60400
H  9.96100 45.61800 35.59600
N  10.80900 48.18500 27.08100
C  11.90500 48.22200 27.87500
C  13.04900 48.28300 27.06400
C  12.59500 48.73900 25.78100
C  11.14600 48.66000 25.84200
C  14.39500 48.03100 27.62300
C  13.44900 49.09100 24.52100
O  12.90900 49.31200 23.46000
C  14.93600 49.04300 24.60200
N  8.14000 48.05300 25.83900
C  8.80700 48.52100 24.82200
C  8.04800 48.98100 23.61600
C  6.58500 48.39800 23.98900
C  6.82200 48.02600 25.50400
C  8.08900 50.45700 23.35900
C  6.28300 47.18300 23.19200
C  5.49800 47.50000 21.85700
N  7.00100 47.28800 28.35800
C  5.77900 47.32000 27.71000
C  4.71000 47.14000 28.64500
C  5.38200 46.95900 29.87300
C  6.73100 47.08700 29.68800
C  3.27900 47.33100 28.40400
C  5.08800 46.93400 31.30800
O  4.09700 46.84600 32.01300
C  6.51800 46.87900 32.00300
C  6.58400 45.50500 32.51600
O  6.69700 44.52300 31.80000
O  6.51600 45.52300 33.87800
C  6.79300 44.20500 34.58800
H  12.93100 48.32700 29.71900
H  10.66900 49.07700 23.85500
H  4.76900 47.52500 25.86100
H  9.28800 48.35500 32.76000
H  11.97700 47.30700 31.79200
H  11.87000 50.03800 31.29300
H  12.67900 49.42000 32.67000
H  10.99100 49.95500 32.85000
H  10.72500 45.78800 33.05000
H  9.07000 45.54300 32.82800
H  8.40400 46.81200 34.75600
H  9.82900 47.68400 34.77200
H  14.27100 47.30900 28.43000
H  14.99500 48.91200 27.85100
H  14.96700 47.51200 26.85300
H  15.28900 49.74100 25.36000
H  15.41600 49.18400 23.63300
H  15.21800 48.05700 24.97200
H  8.42000 48.46700 22.73000
H  5.80300 49.13500 23.80800
H  7.77500 50.50600 22.31600
H  9.10100 50.86100 23.38100
H  7.56800 51.17500 23.99300
H  5.63000 46.62200 23.86000
H  7.16900 46.60300 22.93300
H  5.39500 48.56000 21.62300
H  4.50100 47.12100 22.08000
H  6.04800 47.09900 21.00600
H  2.86400 46.33500 28.55500
H  3.06400 47.71200 27.40500
H  2.89600 47.93900 29.22400
H  6.54500 47.54200 32.86800
H  7.80000 43.85100 34.36400
H  6.01200 43.47700 34.37200
H  6.91900 44.52800 35.62200

