158

Mg 41.11300 7.61900 29.03700
C  42.68800 9.24200 31.84300
C  38.76100 6.55600 31.38100
C  39.70100 6.29700 26.53300
C  43.83900 8.66400 27.05000
N  40.80600 7.84100 31.42300
C  41.55000 8.62100 32.25100
C  40.92900 8.59000 33.68500
C  39.66900 7.66800 33.46600
C  39.75600 7.24600 31.99000
C  39.42900 6.58800 34.63500
C  40.60600 9.96600 34.30900
C  39.55600 10.11500 35.49000
H  39.99900 10.81800 36.83800
N  39.45100 6.61800 28.90700
C  38.56400 6.27500 29.95200
C  37.32500 5.70300 29.37900
C  37.53100 5.72700 27.97300
C  38.91900 6.22100 27.72300
C  36.19100 5.11500 30.23700
C  36.50300 5.41500 26.81100
O  36.89300 5.56600 25.67300
C  35.04800 4.97800 27.09700
N  41.81100 7.42200 27.00200
C  40.94900 6.82300 26.11600
C  41.51500 6.79800 24.66100
C  42.65700 7.87400 24.84200
C  42.77600 7.99500 26.38700
C  41.88600 5.40600 24.02800
C  42.47300 9.24800 24.20400
C  43.70000 9.97400 23.78900
N  42.85300 8.69200 29.35000
C  43.81800 9.03600 28.42600
C  44.76600 9.91800 29.04700
C  44.35400 9.95900 30.36800
C  43.16700 9.15800 30.55100
C  45.89000 10.71600 28.46900
C  44.71500 10.54800 31.59500
O  45.66500 11.18300 31.92800
C  43.59100 10.21600 32.55400
C  44.15100 9.58600 33.77200
O  44.32900 8.39300 33.98600
O  44.42800 10.57500 34.73300
C  44.65500 10.03300 36.06500
H  38.06300 6.24800 32.16200
H  39.14400 5.95500 25.65800
H  44.69300 8.95500 26.43500
H  41.80900 8.16100 34.16500
H  38.76600 8.27700 33.50900
H  38.39500 6.81200 34.89400
H  40.07300 6.82300 35.48300
H  39.52300 5.55300 34.30700
H  40.28700 10.51700 33.42400
H  41.55900 10.38800 34.62900
H  39.29300 9.10500 35.80600
H  38.63400 10.58300 35.14600
H  35.43100 5.89500 30.18400
H  36.34200 4.96300 31.30600
H  35.87800 4.21600 29.70700
H  35.14600 4.03200 27.62900
H  34.54500 4.75400 26.15600
H  34.59700 5.82500 27.61400
H  40.75600 7.18300 23.98000
H  43.59800 7.51900 24.42200
H  42.94200 5.19200 23.85900
H  41.18500 5.07800 23.26200
H  41.54500 4.81000 24.87500
H  42.06100 9.78300 25.05900
H  41.71300 9.39100 23.43500
H  43.50900 10.15500 22.73100
H  44.62700 9.40300 23.83100
H  43.75000 10.86700 24.41200
H  45.81200 10.77600 27.38300
H  46.74500 10.09600 28.73700
H  45.88300 11.71200 28.91100
H  43.02900 11.13600 32.70900
H  43.75700 9.45100 36.27600
H  44.83800 10.85300 36.76000
H  45.54000 9.40800 35.94600
Mg 30.10000 59.08000 39.47700
C  27.29800 57.13200 38.45400
C  32.12700 56.45900 38.41600
C  32.76500 61.24500 39.46400
C  27.95200 61.83700 39.52900
N  29.77100 57.14500 38.34400
C  28.50600 56.58300 38.18100
C  28.65300 55.15100 37.83400
C  30.13700 54.75900 38.24700
C  30.72700 56.18600 38.27500
C  30.44700 54.08600 39.65500
C  28.34800 55.05800 36.31000
C  27.32200 53.94300 35.96000
H  26.42000 54.34400 34.85000
N  32.19900 58.86800 39.13300
C  32.75600 57.72700 38.68200
C  34.19400 57.93700 38.47500
C  34.47700 59.33700 38.79800
C  33.17800 59.89000 39.19800
C  35.14700 56.86600 37.87400
C  35.83600 60.05000 38.71100
O  36.77300 59.55200 38.13900
C  36.06900 61.44300 39.39500
N  30.25800 61.17500 39.52700
C  31.48800 61.72500 39.65300
C  31.35400 63.26800 39.85200
C  29.84500 63.54400 39.84200
C  29.29400 62.12400 39.58100
C  32.13700 63.89500 40.99400
C  29.36800 64.58900 38.87200
C  29.62300 66.05100 39.31000
N  28.01700 59.38700 39.35500
C  27.29900 60.58900 39.41200
C  25.80700 60.28300 39.31300
C  25.82300 58.95600 38.97100
C  27.16200 58.49400 38.82600
C  24.62700 61.29400 39.35500
C  24.96600 57.90700 38.48300
O  23.76200 57.88000 38.19700
C  25.88900 56.65200 38.11000
C  25.44000 55.58300 39.06800
O  25.51000 55.56900 40.31500
O  24.95000 54.49700 38.25500
C  24.48700 53.27100 38.99500
H  32.83200 55.63900 38.25900
H  33.46500 62.07500 39.57400
H  27.28500 62.70000 39.59300
H  27.94300 54.56200 38.41400
H  30.61700 54.22300 37.42800
H  29.49400 53.69800 40.01600
H  30.73600 54.89100 40.33100
H  31.20700 53.30800 39.57400
H  29.27500 55.03000 35.73700
H  27.75400 55.94200 36.07500
H  26.76100 53.70300 36.86300
H  27.83000 53.05300 35.58800
H  34.99600 56.70100 36.80700
H  34.86100 55.95200 38.39500
H  36.20400 56.95000 38.12500
H  37.12300 61.64500 39.58700
H  35.53000 61.29500 40.33000
H  35.55000 62.20900 38.81900
H  31.88800 63.63100 38.97400
H  29.52500 63.88500 40.82700
H  32.21000 63.19900 41.82900
H  31.72500 64.82000 41.39800
H  33.10200 64.17900 40.57400
H  28.28100 64.54900 38.81000
H  29.76500 64.47800 37.86300
H  30.13300 66.65000 38.55600
H  30.15200 66.04400 40.26200
H  28.63900 66.46800 39.52300
H  24.11900 61.00100 40.27400
H  23.97400 61.26100 38.48300
H  24.94800 62.32700 39.49200
H  25.73400 56.47200 37.04600
H  24.74500 52.37800 38.42500
H  23.44600 53.38700 39.29600
H  24.97200 53.16000 39.96500

