158

Mg -0.38100 18.13700 27.90500
C  -0.99400 15.62100 30.47500
C  -1.13300 20.51800 30.32600
C  -0.17900 20.45500 25.54900
C  -0.36200 15.53500 25.53000
N  -1.21700 18.00100 30.09000
C  -1.17900 16.93200 30.97600
C  -1.41900 17.33500 32.45900
C  -1.58400 18.93500 32.32000
C  -1.24700 19.18800 30.82800
C  -3.01100 19.45900 32.72800
C  -0.34100 16.87200 33.43500
C  -0.03600 17.75500 34.66300
H  0.72300 16.98600 35.77000
N  -0.56100 20.19200 27.92700
C  -0.83200 21.02300 29.00500
C  -0.75600 22.36400 28.62000
C  -0.50800 22.41200 27.19900
C  -0.39200 20.98300 26.82100
C  -1.03600 23.52400 29.55100
C  -0.21600 23.59400 26.25500
O  -0.05000 23.46900 25.06200
C  -0.24200 24.95600 26.88200
N  -0.26800 18.04700 25.86000
C  -0.11800 19.09700 25.05800
C  0.00200 18.67200 23.58000
C  0.23900 17.16900 23.69000
C  -0.15000 16.87100 25.11900
C  -1.20800 19.00700 22.71900
C  1.75700 16.68000 23.43600
C  2.74400 17.23100 24.50200
N  -0.56500 15.96300 27.88200
C  -0.66900 15.12000 26.82800
C  -0.90500 13.80200 27.38000
C  -1.07700 13.97900 28.81800
C  -0.80400 15.26200 29.08600
C  -0.95400 12.55400 26.62300
C  -1.38500 13.27400 30.10000
O  -1.69000 12.12700 30.34100
C  -1.28500 14.30200 31.25700
C  -0.23300 13.72100 32.14100
O  0.95600 13.84700 31.97400
O  -0.89300 13.04400 33.11700
C  -0.06400 12.15000 33.87400
H  -1.38100 21.30100 31.04600
H  0.05100 21.17200 24.75800
H  -0.30400 14.68400 24.84900
H  -2.32300 16.78300 32.71300
H  -0.90800 19.52500 32.93800
H  -2.99200 19.92400 33.71400
H  -3.58800 18.53500 32.76200
H  -3.36500 20.23900 32.05500
H  0.64700 16.84700 32.97500
H  -0.49100 15.82000 33.67600
H  -0.88900 18.10300 35.24500
H  0.53500 18.67300 34.52600
H  -1.72800 24.25100 29.12700
H  -0.14700 24.10800 29.78900
H  -1.43400 23.21400 30.51700
H  0.19300 24.98800 27.88100
H  -1.30700 25.17300 26.97000
H  0.22100 25.64400 26.17500
H  0.90000 19.20500 23.27000
H  -0.40300 16.51000 23.10500
H  -1.97800 19.44200 23.35700
H  -1.62500 18.12500 22.23300
H  -0.95100 19.76100 21.97400
H  2.14900 17.17100 22.54500
H  1.71500 15.59200 23.47900
H  2.25000 17.61100 25.39600
H  3.29400 18.06600 24.06800
H  3.36600 16.41700 24.87700
H  -0.22700 11.81300 26.95700
H  -0.77800 12.75600 25.56600
H  -1.93000 12.07900 26.72400
H  -2.24400 14.31700 31.77400
H  -0.70200 11.74000 34.65600
H  0.85200 12.63700 34.21100
H  0.22000 11.36000 33.18000
Mg 45.40900 2.88500 47.99500
C  43.20000 5.67700 47.10800
C  42.58900 0.87600 48.09600
C  47.39500 0.37500 48.04800
C  48.01000 5.22200 47.37500
N  43.15400 3.22800 47.44600
C  42.50300 4.40700 47.22500
C  40.95300 4.24700 47.21300
C  40.86000 2.68400 47.59800
C  42.28900 2.23000 47.79100
C  40.04700 2.49000 48.91600
C  40.29300 4.47400 45.80800
C  39.33100 5.60400 45.55900
H  39.62300 6.56300 44.34300
N  45.03100 0.85800 48.09800
C  43.82400 0.14600 48.19400
C  44.01400 -1.18600 48.36900
C  45.41700 -1.37400 48.24000
C  46.05100 -0.07000 48.10300
C  42.91600 -2.24400 48.30200
C  46.09200 -2.78900 48.31900
O  45.41500 -3.83900 48.57300
C  47.50400 -2.88700 48.12100
N  47.38700 2.72300 47.40500
C  48.00100 1.60400 47.75000
C  49.57700 1.86300 47.55600
C  49.65900 3.35500 47.35600
C  48.25600 3.84100 47.36800
C  50.47800 1.24100 48.70300
C  50.47600 3.85100 46.13600
C  51.85500 4.54900 46.52100
N  45.65200 5.05400 47.40800
C  46.75200 5.80400 47.34400
C  46.35800 7.19700 47.26200
C  44.99200 7.22300 47.14300
C  44.57100 5.86600 47.19500
C  47.24000 8.38900 47.31000
C  43.80500 8.05800 46.89300
O  43.67100 9.24100 46.70100
C  42.59000 7.07400 47.07300
C  41.80300 7.44500 48.34000
O  41.89100 6.96200 49.47200
O  40.99400 8.53500 47.98600
C  40.05200 8.94600 49.00500
H  41.67800 0.27500 48.08200
H  48.17300 -0.39100 48.05900
H  48.84100 5.93000 47.37700
H  40.41500 4.89100 47.90800
H  40.39600 2.07400 46.82200
H  39.48900 3.40900 49.09600
H  40.66100 2.30700 49.79800
H  39.30400 1.70400 48.78300
H  39.81300 3.54800 45.49000
H  41.07000 4.60900 45.05600
H  39.21500 6.31700 46.37500
H  38.40000 5.05300 45.42700
H  43.23500 -3.01100 49.00800
H  43.06500 -2.69300 47.32000
H  41.89300 -1.95600 48.54000
H  47.78200 -3.94100 48.13400
H  48.04900 -2.38600 48.92100
H  47.94300 -2.52900 47.19000
H  49.89700 1.35800 46.64400
H  50.20000 3.77000 48.20600
H  51.00800 0.37300 48.31100
H  49.89100 1.01500 49.59200
H  51.21900 1.98800 48.98900
H  49.81400 4.42200 45.48500
H  50.82500 2.98100 45.57900
H  51.78400 5.56700 46.13700
H  52.67800 3.92100 46.18100
H  51.99000 4.60000 47.60200
H  48.25700 8.07000 47.08000
H  47.17200 8.84000 48.30000
H  46.89900 9.15200 46.61000
H  41.94000 7.25700 46.21700
H  40.29400 10.00900 49.02700
H  40.22300 8.45900 49.96500
H  39.00700 8.87100 48.70200

