158

Mg 10.55700 46.77300 25.51400
C  8.39900 47.22700 28.11100
C  13.13500 47.80300 27.47400
C  12.55000 46.35400 22.87800
C  7.83300 46.09500 23.38500
N  10.67400 47.70400 27.49100
C  9.77700 47.48000 28.44900
C  10.36400 47.67000 29.81100
C  11.81100 48.27000 29.50300
C  11.86100 47.87200 28.05000
C  11.86800 49.78300 29.75400
C  10.37400 46.27200 30.62900
C  11.29300 45.93100 31.78200
H  10.60100 45.12100 32.84500
N  12.53200 46.97400 25.21800
C  13.49100 47.36400 26.13100
C  14.87000 47.15100 25.65900
C  14.70400 46.60900 24.38400
C  13.17500 46.59900 24.09500
C  16.09000 47.64200 26.38000
C  15.69800 46.27900 23.33700
O  15.42500 45.82100 22.21300
C  17.17600 46.36000 23.69500
N  10.20500 46.45200 23.32200
C  11.23800 46.26100 22.46100
C  10.84000 46.05700 21.04900
C  9.29500 45.92100 21.22000
C  9.03200 46.18200 22.72600
C  11.26200 47.21700 20.24300
C  8.78400 44.54900 20.69300
C  8.23200 44.60100 19.23000
N  8.50200 46.72400 25.66600
C  7.48300 46.34600 24.73400
C  6.22300 46.35000 25.39500
C  6.52700 46.63000 26.75700
C  7.90700 46.87200 26.85800
C  4.84800 46.19300 24.88500
C  5.96700 46.69500 28.04400
O  4.78500 46.54900 28.45600
C  7.17000 46.95900 28.96000
C  7.27100 45.64400 29.78200
O  7.90800 44.66900 29.38400
O  6.59400 45.76300 31.00300
C  6.68000 44.49800 31.85400
H  14.01200 48.05200 28.07500
H  13.25400 46.40900 22.04500
H  6.88200 46.01400 22.85300
H  9.70000 48.44000 30.20300
H  12.57200 47.68200 30.01700
H  10.87400 50.22200 29.67700
H  12.41600 50.29300 28.96200
H  12.16700 50.03000 30.77300
H  10.36700 45.33800 30.06800
H  9.37100 46.37800 31.04300
H  11.67000 46.83900 32.25300
H  12.23400 45.47100 31.48100
H  16.00500 47.49300 27.45700
H  16.06800 48.71700 26.20000
H  17.04400 47.23300 26.04800
H  17.94600 46.15800 22.95100
H  17.28300 45.57900 24.44800
H  17.30800 47.40100 23.99100
H  11.23200 45.12600 20.63900
H  8.77500 46.71100 20.67800
H  12.15400 46.97000 19.66800
H  11.59500 48.08900 20.80600
H  10.46300 47.39500 19.52300
H  7.93400 44.11900 21.22200
H  9.50600 43.74300 20.82700
H  7.87400 45.60500 19.00100
H  7.43500 43.87500 19.06500
H  8.96600 44.27200 18.49500
H  4.90900 46.58400 23.86900
H  4.03600 46.76400 25.33600
H  4.53900 45.14900 24.83200
H  7.01300 47.63000 29.80500
H  7.63600 43.99700 31.70000
H  5.93900 43.73200 31.62500
H  6.50900 44.64800 32.92000
Mg -1.69000 33.89100 26.53900
C  -3.51500 32.39700 29.24000
C  -0.27400 35.95100 28.65500
C  -0.40000 35.37000 23.82300
C  -3.55500 31.74700 24.43100
N  -2.03800 34.27700 28.73100
C  -2.69800 33.51900 29.58700
C  -2.21800 33.80100 31.02000
C  -1.18800 35.02100 30.83100
C  -1.12400 35.06700 29.32000
C  -1.78000 36.36400 31.39400
C  -1.59100 32.55800 31.66000
C  -2.33100 31.86300 32.83500
H  -1.81500 32.09200 34.23500
N  -0.50600 35.44700 26.26400
C  0.01000 36.16600 27.29900
C  1.05100 37.11700 26.72500
C  0.91000 37.01500 25.27800
C  -0.01300 35.90100 25.07100
C  1.79200 37.98600 27.66600
C  1.63200 37.82600 24.24300
O  1.46400 37.68200 23.03100
C  2.89000 38.58500 24.70600
N  -2.00300 33.66600 24.44900
C  -1.29500 34.34100 23.49200
C  -1.60000 33.81600 22.01600
C  -2.48600 32.54500 22.28900
C  -2.71400 32.66200 23.81800
C  -2.34500 34.80500 21.07200
C  -1.75300 31.24100 21.98400
C  -2.69000 30.07900 21.60600
N  -3.28500 32.36200 26.77100
C  -3.91500 31.62700 25.77400
C  -4.85400 30.74900 26.35900
C  -4.74800 30.93700 27.78400
C  -3.77000 31.94100 27.93300
C  -5.71000 29.78000 25.64100
C  -5.20100 30.50600 29.06900
O  -5.88000 29.53400 29.33500
C  -4.34900 31.49200 30.12700
C  -5.42900 32.24100 30.87800
O  -5.97200 33.31200 30.57200
O  -5.75000 31.53500 32.02000
C  -6.58600 32.36900 32.96600
H  0.31100 36.52300 29.37800
H  0.15800 35.77600 22.97700
H  -4.04700 31.14400 23.66500
H  -3.08100 34.11900 31.60400
H  -0.25500 34.76800 31.33500
H  -2.83200 36.26700 31.66300
H  -1.87400 37.08200 30.57900
H  -1.18800 36.87400 32.15400
H  -0.54700 32.70900 31.93700
H  -1.33600 31.83900 30.88100
H  -2.36000 30.79400 32.62600
H  -3.32800 32.29100 32.72300
H  1.47000 37.85500 28.69900
H  1.37100 38.98300 27.53600
H  2.88100 38.00900 27.63100
H  2.83900 39.36600 25.46500
H  3.27900 39.06400 23.80700
H  3.58900 37.80500 25.00800
H  -0.64900 33.52000 21.57300
H  -3.47200 32.61400 21.83000
H  -2.31700 35.73700 21.63800
H  -3.37800 34.52500 20.86600
H  -1.67000 34.99200 20.23700
H  -1.32100 30.82700 22.89500
H  -0.99000 31.34300 21.21200
H  -2.90200 29.44500 22.46700
H  -2.08200 29.47700 20.93100
H  -3.63600 30.30000 21.11100
H  -5.23000 29.64300 24.67100
H  -6.71100 30.19800 25.54100
H  -5.74600 28.85600 26.21900
H  -3.86700 30.81400 30.83100
H  -5.91600 32.85000 33.67900
H  -7.27800 31.70000 33.47600
H  -7.18800 33.16500 32.52700

