158

Mg 29.92900 57.74100 41.07500
C  27.09500 55.77300 40.14300
C  31.89000 55.26600 39.55200
C  32.46100 59.84700 41.38000
C  27.66300 60.34500 41.93100
N  29.57000 55.69400 40.05500
C  28.31200 55.09100 39.81400
C  28.45500 53.71400 39.21300
C  29.96800 53.63100 38.93300
C  30.52700 54.87200 39.60300
C  30.60400 52.21900 39.23200
C  27.53200 53.52900 37.90100
C  27.40900 54.79200 36.95200
H  27.73700 54.68300 35.47600
N  31.88300 57.52500 40.70200
C  32.50500 56.47600 40.07100
C  33.97300 56.75600 40.03300
C  34.14700 58.01000 40.59800
C  32.76500 58.55200 40.87900
C  34.91700 55.68800 39.60300
C  35.48700 58.68700 40.83100
O  36.51900 58.06800 40.57600
C  35.68800 60.13700 41.23800
N  30.03900 59.81800 41.56800
C  31.20600 60.40100 41.70700
C  31.04000 61.89700 41.82900
C  29.57300 62.05500 42.26100
C  29.02100 60.64300 41.87400
C  32.02100 62.70200 42.69800
C  28.88000 63.36700 41.63600
C  27.97600 64.22100 42.58800
N  27.82700 58.01600 41.07700
C  27.06100 59.12200 41.49900
C  25.66600 58.80900 41.25400
C  25.66500 57.45900 40.89000
C  26.98800 57.06000 40.72700
C  24.47900 59.71200 41.36700
C  24.76200 56.46600 40.46100
O  23.52100 56.45000 40.44400
C  25.64900 55.25900 39.94400
C  25.38200 54.15700 40.84600
O  25.73000 54.15500 42.03900
O  24.82000 53.08800 40.23300
C  24.57900 51.88100 41.07800
H  32.59800 54.57700 39.08600
H  33.30800 60.53600 41.34900
H  27.00700 61.20200 42.09700
H  28.19200 53.02000 40.01100
H  30.07000 53.71200 37.85100
H  30.19800 51.56600 38.45900
H  30.22800 51.80400 40.16800
H  31.68900 52.30100 39.18000
H  26.52000 53.29200 38.22700
H  27.87000 52.72400 37.24900
H  28.22300 55.42500 37.30400
H  26.49200 55.38200 36.93700
H  35.96900 55.97500 39.58500
H  34.66800 55.25800 38.63200
H  34.81800 54.87600 40.32300
H  35.36700 60.73600 40.38600
H  36.75200 60.37000 41.27800
H  35.17200 60.35600 42.17200
H  31.21600 62.31000 40.83600
H  29.67600 62.07800 43.34600
H  32.29100 63.65800 42.24900
H  32.97100 62.18100 42.81400
H  31.72600 62.86000 43.73500
H  28.21500 63.12200 40.80800
H  29.69200 63.97300 41.23400
H  27.02100 64.42800 42.10400
H  28.51200 65.14300 42.81000
H  27.70900 63.69500 43.50400
H  24.23500 60.13300 40.39200
H  24.66100 60.48300 42.11600
H  23.65700 59.05100 41.64200
H  25.46400 55.07700 38.88500
H  25.29200 51.07100 40.92300
H  23.58800 51.47000 40.88500
H  24.61900 52.01600 42.15900
Mg 17.17000 52.28900 26.52400
C  19.09100 50.83300 29.28200
C  14.63300 52.66600 28.80800
C  15.25800 53.10800 23.94900
C  19.57100 50.70900 24.27000
N  16.92400 51.72800 28.79400
C  17.90600 51.36500 29.69100
C  17.40300 51.49600 31.12700
C  15.82300 51.80800 30.91100
C  15.76600 52.10900 29.43300
C  14.95800 50.55300 31.27900
C  18.23000 52.58100 31.81500
C  18.56300 52.47100 33.34600
H  17.69000 51.59500 34.25400
N  15.33900 53.04700 26.46000
C  14.41100 53.16800 27.51300
C  13.23800 53.86200 26.98200
C  13.40000 54.01400 25.52500
C  14.68000 53.39000 25.28000
C  12.10300 54.31800 27.90000
C  12.55200 54.76500 24.50000
O  12.94200 54.98700 23.35000
C  11.21900 55.27900 24.85700
N  17.37800 51.93900 24.43900
C  16.53100 52.56500 23.57900
C  16.97100 52.38900 22.08400
C  18.45600 51.90300 22.26500
C  18.46900 51.42100 23.71000
C  16.09100 51.47600 21.19100
C  19.52700 52.91800 21.94700
C  20.63500 52.47500 20.97700
N  18.99500 51.06500 26.74300
C  19.79200 50.47900 25.66300
C  20.84700 49.82900 26.28000
C  20.69600 49.99100 27.67100
C  19.49700 50.66100 27.90800
C  21.99400 49.16200 25.56100
C  21.24200 49.67300 29.04200
O  22.21600 48.97500 29.36700
C  20.14800 50.18200 30.06900
C  19.61200 48.95100 30.74500
O  18.81100 48.13000 30.28400
O  19.96000 49.02500 32.11000
C  19.58000 47.85500 32.94300
H  13.76900 52.67200 29.47500
H  14.70800 53.41500 23.05700
H  20.29700 50.38700 23.52000
H  17.46300 50.52400 31.61600
H  15.45900 52.60300 31.56200
H  15.08100 50.26900 32.32400
H  15.31200 49.69300 30.71100
H  13.93100 50.89500 31.15200
H  17.65700 53.50000 31.69100
H  19.21100 52.76700 31.37700
H  18.71000 53.47900 33.73400
H  19.53200 52.01000 33.53800
H  12.20400 53.79200 28.84900
H  11.09300 54.15300 27.52400
H  12.15000 55.38200 28.13100
H  11.25700 56.24600 25.35900
H  10.72100 54.44400 25.35000
H  10.66400 55.55000 23.95900
H  16.95200 53.35800 21.58500
H  18.51700 50.98000 21.69000
H  15.02100 51.64600 21.31200
H  16.34900 50.45100 21.46000
H  16.35000 51.74900 20.16900
H  19.95100 53.06400 22.94100
H  19.09900 53.88600 21.68700
H  20.91900 53.25100 20.26600
H  20.35600 51.56900 20.43800
H  21.53100 52.29400 21.57100
H  22.82800 49.07300 26.25700
H  22.26300 49.82500 24.73900
H  21.64300 48.25000 25.07700
H  20.69200 50.80000 30.78200
H  20.45900 47.21100 32.95900
H  18.73300 47.34900 32.47900
H  19.36300 48.06400 33.99000

