158

Mg -1.93100 17.51100 27.32100
C  -2.10300 15.47900 30.18000
C  -2.39700 20.24500 29.34200
C  -2.00300 19.36200 24.52200
C  -2.09900 14.61600 25.42200
N  -2.21300 17.79800 29.49500
C  -2.14800 16.83800 30.41600
C  -2.27500 17.46000 31.82000
C  -2.78300 18.94300 31.52200
C  -2.38400 19.04200 30.00400
C  -4.28900 19.15800 31.82400
C  -0.93900 17.45200 32.63300
C  -1.12500 16.83900 34.07200
H  -0.07500 17.16700 35.19100
N  -1.94800 19.47900 26.98500
C  -2.12900 20.43100 27.96600
C  -2.20200 21.69400 27.34200
C  -2.02300 21.52600 25.96800
C  -2.02700 20.02400 25.73400
C  -2.21300 23.01300 28.08100
C  -1.83300 22.54000 24.88200
O  -1.67500 22.22400 23.70400
C  -1.72100 23.98500 25.18600
N  -1.93200 17.02700 25.23000
C  -1.95700 18.00800 24.29600
C  -1.86000 17.30200 22.85800
C  -1.64300 15.82900 23.12700
C  -1.93300 15.78700 24.68300
C  -2.94900 17.60100 21.85100
C  -0.25600 15.20400 22.80400
C  1.08100 15.92900 23.08600
N  -2.19600 15.44500 27.71900
C  -2.27000 14.42400 26.80800
C  -2.25000 13.16900 27.51900
C  -2.17900 13.52100 28.87000
C  -2.10000 14.93500 28.91200
C  -2.23100 11.79100 26.93500
C  -2.11000 13.04300 30.22600
O  -2.14000 11.90800 30.69400
C  -2.12500 14.31800 31.12200
C  -0.86900 14.16000 31.90700
O  0.22400 14.55400 31.46800
O  -1.00500 13.56000 33.13900
C  0.18900 13.35500 33.94000
H  -2.42200 21.05900 30.07000
H  -1.96600 19.91100 23.57900
H  -1.93600 13.74700 24.78100
H  -2.97600 16.83800 32.37600
H  -2.19100 19.68900 32.05300
H  -4.59400 18.44800 32.59300
H  -4.79000 19.13300 30.85700
H  -4.35100 20.16000 32.25000
H  -0.46400 18.41900 32.79900
H  -0.17300 16.93800 32.05200
H  -1.26400 15.75800 34.07200
H  -2.00900 17.26100 34.55000
H  -3.10100 23.54500 27.74100
H  -1.35700 23.60800 27.76200
H  -2.13000 23.01800 29.16700
H  -0.79600 24.10700 25.74900
H  -2.56500 24.30700 25.79600
H  -1.67000 24.46300 24.20700
H  -0.91400 17.67200 22.46300
H  -2.37400 15.21500 22.60100
H  -3.68800 18.27800 22.28000
H  -3.56200 16.71200 21.70100
H  -2.59600 18.07400 20.93400
H  -0.25500 14.92800 21.75000
H  -0.28500 14.25600 23.34100
H  1.77500 15.25200 23.58300
H  1.02200 16.86400 23.64400
H  1.63400 16.05600 22.15500
H  -1.45800 11.72100 26.16900
H  -3.20200 11.47500 26.55500
H  -1.84900 11.13700 27.71900
H  -2.93300 14.36900 31.85200
H  -0.20300 12.71500 34.73100
H  0.69100 14.26200 34.27700
H  0.88700 12.77700 33.33600
Mg 1.90600 -2.33600 44.20300
C  5.30300 -1.40600 43.87100
C  0.95500 0.39900 42.52600
C  -1.15000 -3.73900 43.62400
C  3.02200 -5.54500 45.25100
N  3.04800 -0.76700 43.17500
C  4.40200 -0.49900 43.35000
C  4.74800 0.91300 42.86000
C  3.31400 1.59700 42.74200
C  2.34200 0.37700 42.87300
C  2.90200 2.69500 43.68600
C  5.66000 0.93100 41.65000
C  5.51100 -0.08200 40.56000
H  5.15000 0.54200 39.15600
N  0.10600 -1.70500 43.31900
C  -0.06500 -0.57900 42.63500
C  -1.44700 -0.37300 42.21700
C  -2.13600 -1.50600 42.68400
C  -1.07200 -2.34100 43.18200
C  -1.95600 0.83000 41.40200
C  -3.61800 -1.65500 42.61200
O  -4.32600 -0.81500 42.06200
C  -4.34000 -2.86700 43.14900
N  1.05800 -4.38900 44.45100
C  -0.24200 -4.63400 44.21300
C  -0.57900 -6.01600 44.67700
C  0.73700 -6.58800 45.17800
C  1.68900 -5.43400 45.04000
C  -1.85800 -6.02900 45.66500
C  1.16500 -7.81900 44.39900
C  2.02300 -8.90300 45.18500
N  3.81300 -3.30900 44.60800
C  4.08100 -4.60000 45.01800
C  5.55300 -4.75400 45.15900
C  6.07200 -3.52900 44.81100
C  5.01700 -2.65700 44.38700
C  6.21700 -5.91300 45.70400
C  7.27100 -2.71300 44.71600
O  8.44500 -2.93000 44.96900
C  6.81200 -1.36000 44.07800
C  7.10400 -0.27900 45.09300
O  6.38800 -0.20400 46.06100
O  8.14700 0.52000 44.80200
C  8.26500 1.79300 45.57400
H  0.53900 1.35600 42.20400
H  -2.14300 -4.18300 43.52200
H  3.39600 -6.47000 45.69400
H  5.30500 1.39500 43.66300
H  3.08400 1.99300 41.75300
H  3.82800 3.10400 44.09000
H  2.31700 2.37400 44.54800
H  2.53400 3.53200 43.09200
H  6.70200 0.88100 41.96700
H  5.44700 1.94900 41.32300
H  4.81100 -0.85800 40.87100
H  6.47900 -0.57700 40.48800
H  -2.59900 0.33600 40.67300
H  -1.16400 1.32100 40.83700
H  -2.60500 1.49600 41.97100
H  -5.40800 -2.76600 43.33900
H  -3.81600 -2.99600 44.09600
H  -4.20200 -3.75700 42.53500
H  -0.97200 -6.45400 43.75900
H  0.75500 -6.87400 46.23000
H  -1.73200 -6.60000 46.58500
H  -2.66900 -6.54700 45.15300
H  -1.98400 -4.95900 45.82800
H  1.71800 -7.55800 43.49700
H  0.28500 -8.42300 44.17500
H  2.85900 -9.18300 44.54500
H  1.39700 -9.76000 45.43200
H  2.39200 -8.48500 46.12200
H  6.31700 -6.71400 44.97200
H  5.82000 -6.35000 46.62100
H  7.23100 -5.60800 45.96100
H  7.40700 -1.22500 43.17500
H  7.29000 2.25900 45.71000
H  8.83700 2.51000 44.98500
H  8.84300 1.58500 46.47400

