158

Mg 44.53500 4.66100 47.49400
C  42.57900 7.49000 47.00500
C  41.70600 2.80700 46.87900
C  46.44600 1.94900 47.40000
C  47.43600 6.69200 47.73900
N  42.40100 5.13300 46.97900
C  41.82900 6.35300 46.93900
C  40.46600 6.16800 46.41200
C  40.09800 4.69600 46.76500
C  41.50500 4.14900 46.86700
C  39.07000 4.48900 47.90600
C  40.28000 6.55100 44.94200
C  38.99700 7.31200 44.58700
H  39.30400 8.39600 43.57600
N  44.13500 2.58600 47.22100
C  42.84600 2.06000 46.92700
C  43.00600 0.61300 46.72600
C  44.43500 0.33100 46.88400
C  45.06100 1.64400 47.21700
C  41.84800 -0.26400 46.27000
C  44.98900 -1.01200 46.53000
O  44.13100 -1.84400 46.14500
C  46.39200 -1.33000 46.55600
N  46.67000 4.40700 47.24100
C  47.20000 3.13300 47.33900
C  48.69700 3.08700 47.38200
C  49.04200 4.60800 47.63900
C  47.66000 5.29100 47.55700
C  49.22800 2.12000 48.48300
C  49.99500 5.18000 46.57700
C  51.38800 5.55900 46.93500
N  44.95200 6.66400 47.36100
C  46.15600 7.35900 47.51200
C  45.90200 8.81700 47.24100
C  44.46900 8.88600 47.29100
C  43.93200 7.54900 47.29400
C  46.98200 9.90400 47.16200
C  43.38200 9.80200 47.07300
O  43.42400 11.02300 46.93300
C  42.10000 8.93700 47.01100
C  41.23700 9.26600 48.17000
O  41.37800 8.75600 49.29000
O  40.20800 10.13900 47.78500
C  39.19300 10.48600 48.76900
H  40.76500 2.30200 46.64900
H  47.01400 1.01800 47.33600
H  48.31600 7.32700 47.85600
H  39.76500 6.71100 47.04600
H  39.57900 4.22800 45.92900
H  38.81700 5.46500 48.32200
H  39.40700 3.90700 48.76300
H  38.18600 3.99300 47.50500
H  40.35500 5.56300 44.48600
H  41.14400 7.07300 44.53200
H  38.50200 7.68000 45.48500
H  38.39000 6.56800 44.07100
H  41.91400 -0.20800 45.18300
H  40.93100 0.12900 46.70700
H  41.86700 -1.32300 46.52900
H  46.81100 -0.70600 45.76700
H  46.50400 -2.39900 46.37100
H  46.69100 -1.12000 47.58300
H  49.01000 2.76600 46.38800
H  49.48200 4.84000 48.60900
H  48.55400 1.34600 48.85100
H  49.63300 2.68900 49.32000
H  50.02200 1.53400 48.02000
H  49.57300 6.06700 46.10400
H  50.16100 4.46900 45.76800
H  51.52000 5.71000 48.00600
H  51.77000 6.48100 46.49700
H  52.11700 4.85400 46.53500
H  47.85500 9.75100 47.79600
H  46.51900 10.84900 47.44700
H  47.18500 9.92600 46.09100
H  41.49900 9.19500 46.13900
H  38.36900 11.00700 48.28200
H  39.44400 11.09500 49.63700
H  38.85600 9.51300 49.12900
Mg 42.83900 42.04300 25.82100
C  41.87100 44.15600 28.60800
C  44.75800 40.22700 28.17100
C  44.05800 40.35800 23.32800
C  41.50000 44.39100 23.65300
N  43.17900 42.19500 28.05700
C  42.60300 42.98200 29.00400
C  42.69400 42.39700 30.39900
C  43.60200 41.19500 30.17200
C  43.88200 41.19300 28.71300
C  44.89700 41.20000 31.09200
C  41.36500 42.16100 31.16500
C  41.30700 41.10700 32.31500
H  40.61700 41.54000 33.66200
N  44.06700 40.40500 25.79200
C  44.84300 39.84400 26.82300
C  45.58800 38.71800 26.28800
C  45.30500 38.69800 24.89300
C  44.38800 39.83600 24.59400
C  46.58400 37.90500 27.15400
C  45.79400 37.77300 23.85600
O  45.35400 37.80900 22.72300
C  46.73700 36.70900 24.19800
N  42.63000 42.19700 23.80700
C  43.36700 41.47700 22.97400
C  43.24400 41.98500 21.53800
C  42.12600 43.05500 21.64100
C  42.12500 43.25600 23.13000
C  44.58700 42.55400 20.98400
C  40.75500 42.67700 20.99900
C  39.78800 41.80400 21.90600
N  41.92700 43.91200 25.99600
C  41.37000 44.74400 24.98000
C  40.67100 45.88300 25.54700
C  40.85300 45.67200 26.95200
C  41.57700 44.44400 27.13800
C  40.09300 47.03200 24.80100
C  40.51400 46.24300 28.25800
O  39.88400 47.26600 28.49200
C  41.04200 45.23300 29.38500
C  41.76500 45.90500 30.42500
O  42.87700 46.40000 30.31300
O  41.13500 45.79300 31.59200
C  41.76900 46.27800 32.87200
H  45.31400 39.64400 28.90800
H  44.51200 39.89700 22.44800
H  40.91500 45.12900 23.09900
H  43.27100 43.17600 30.89800
H  43.19600 40.22500 30.45700
H  45.04400 42.19300 31.51700
H  45.83300 41.08800 30.54500
H  45.02300 40.51400 31.93000
H  40.63200 41.90200 30.40000
H  41.18600 43.13500 31.62000
H  42.32000 40.71600 32.40500
H  40.78800 40.20900 31.98000
H  46.40200 36.83100 27.13200
H  46.71900 38.35600 28.13700
H  47.59200 37.92600 26.74100
H  47.51900 37.10700 24.84400
H  47.14200 36.43300 23.22500
H  46.32300 35.85300 24.73000
H  42.96700 41.09600 20.97100
H  42.48900 44.03100 21.31700
H  45.42900 42.19300 21.57500
H  44.54400 43.63900 20.88100
H  44.86200 42.18600 19.99600
H  40.91900 42.16100 20.05300
H  40.32100 43.67600 20.96000
H  40.06100 41.65500 22.95000
H  39.71400 40.79700 21.49600
H  38.79900 42.25100 21.79900
H  40.89000 47.62300 24.35000
H  39.54700 47.60300 25.55200
H  39.44500 46.78600 23.95900
H  40.14900 44.86400 29.88800
H  42.82900 46.53200 32.84600
H  41.67400 45.40800 33.52300
H  41.22500 47.13000 33.27900

