158

Mg 44.88800 5.49200 48.63600
C  42.89300 8.15100 47.88700
C  42.10000 3.35800 47.47900
C  46.79000 2.67200 48.67100
C  47.64000 7.47800 48.84600
N  42.68000 5.70900 47.96600
C  42.23700 6.95900 47.60200
C  40.99200 6.86100 46.80500
C  40.62200 5.36500 47.02700
C  41.81900 4.73700 47.56500
C  39.28000 5.10600 47.78600
C  41.06900 7.40200 45.34400
C  39.94800 8.41200 44.99100
H  39.31500 8.31700 43.59900
N  44.45700 3.35600 48.23300
C  43.31400 2.75400 47.81100
C  43.51800 1.33600 47.83000
C  44.89600 0.99000 48.24400
C  45.47300 2.33400 48.39900
C  42.40300 0.35300 47.41900
C  45.51100 -0.38800 48.30400
O  44.75100 -1.29700 48.15600
C  46.95100 -0.57900 48.66400
N  46.92900 5.12700 48.78600
C  47.49700 3.91700 48.75100
C  49.02200 4.04900 49.07600
C  49.28000 5.56400 48.99000
C  47.87000 6.14100 48.88100
C  49.58200 3.36500 50.39600
C  50.29600 5.92800 47.87200
C  51.37200 7.03500 48.25900
N  45.25500 7.38300 48.48500
C  46.42600 8.09500 48.57200
C  46.07300 9.51000 48.30600
C  44.69000 9.60100 48.14900
C  44.25700 8.24700 48.15000
C  47.05900 10.66400 48.25500
C  43.58800 10.52200 47.97900
O  43.50200 11.74700 47.99700
C  42.30600 9.55100 47.66700
C  41.19900 9.94700 48.52200
O  40.92200 9.56200 49.67100
O  40.42700 10.91900 48.00100
C  39.16900 11.37100 48.57400
H  41.23800 2.76200 47.17300
H  47.45700 1.84300 48.91800
H  48.55400 8.06500 48.95600
H  40.30700 7.46800 47.39700
H  40.41900 4.81600 46.10700
H  38.73300 6.03700 47.93400
H  39.62700 4.78100 48.76700
H  38.58900 4.44300 47.26600
H  41.06900 6.55000 44.66400
H  42.01400 7.93900 45.26000
H  40.32100 9.41700 45.18700
H  39.07100 8.16200 45.58800
H  42.84300 -0.17700 46.57500
H  41.47600 0.87400 47.18000
H  42.20700 -0.26600 48.29500
H  47.59200 -0.12000 47.91100
H  47.21100 -1.62700 48.80900
H  47.11300 -0.04500 49.60100
H  49.46200 3.43700 48.28800
H  49.62400 6.02600 49.91500
H  48.77300 2.72100 50.74000
H  49.82600 4.14200 51.12000
H  50.40100 2.75100 50.02200
H  49.79700 6.26500 46.96400
H  50.91900 5.06900 47.62500
H  51.30400 7.32800 49.30700
H  51.17900 7.85000 47.56200
H  52.39300 6.72700 48.03200
H  46.57500 11.60300 47.98800
H  47.97700 10.52700 47.68300
H  47.42200 10.87500 49.26100
H  42.09800 9.83500 46.63500
H  38.75800 12.14900 47.93100
H  39.30900 11.65800 49.61600
H  38.54700 10.47700 48.62400
Mg -12.96500 16.41300 42.33500
C  -9.85400 14.81900 41.72300
C  -11.95200 19.10000 40.51300
C  -16.13800 17.41200 42.30900
C  -14.08400 13.21500 43.61000
N  -11.07100 16.95500 41.37800
C  -9.91400 16.19000 41.23900
C  -8.83600 17.00700 40.50100
C  -9.53000 18.38600 40.31700
C  -10.93200 18.14800 40.70800
C  -8.90600 19.43900 41.33300
C  -8.48200 16.40000 39.10800
C  -6.94100 16.30000 38.87100
H  -6.39000 15.09600 38.16300
N  -13.91000 18.09200 41.59500
C  -13.27500 19.09200 40.89600
C  -14.29100 20.12800 40.56800
C  -15.50700 19.76400 41.18400
C  -15.22700 18.35500 41.70300
C  -13.97700 21.41100 39.81100
C  -16.80900 20.57600 41.21800
O  -16.85400 21.70800 40.69900
C  -18.00500 20.02400 41.90500
N  -14.80600 15.44900 42.75400
C  -16.05300 16.09800 42.79800
C  -17.23500 15.16600 43.12000
C  -16.51600 13.95900 43.69300
C  -15.02700 14.13500 43.19300
C  -18.29200 15.84500 44.13300
C  -17.07500 12.53000 43.34500
C  -16.95400 11.44700 44.36800
N  -12.20300 14.37700 42.63700
C  -12.74300 13.22600 43.23300
C  -11.68300 12.25100 43.41900
C  -10.53600 12.88600 42.86500
C  -10.96600 14.12700 42.37800
C  -11.90700 10.98100 44.13400
C  -9.08300 12.77900 42.66700
O  -8.31500 11.88400 42.97200
C  -8.57500 14.08100 41.91700
C  -7.53900 14.66200 42.81000
O  -7.75800 15.03400 43.95100
O  -6.35800 14.96700 42.18100
C  -5.39600 15.86200 42.81800
H  -11.79200 19.99900 39.91400
H  -17.16500 17.77600 42.23600
H  -14.29600 12.22400 44.01600
H  -7.88900 17.00100 41.04000
H  -9.38800 18.82600 39.33000
H  -9.70100 19.93500 41.88900
H  -8.51200 20.24600 40.71600
H  -8.17300 18.98600 42.00000
H  -8.83800 16.97700 38.25400
H  -8.86400 15.38700 38.98300
H  -6.36300 16.39500 39.79000
H  -6.70600 17.22800 38.34900
H  -14.81300 21.68300 39.16700
H  -13.21500 21.20800 39.05800
H  -13.66800 22.21300 40.48100
H  -18.37400 19.20300 41.29100
H  -18.80100 20.76300 41.81400
H  -17.89600 19.75300 42.95500
H  -17.73700 14.93200 42.18100
H  -16.48800 14.06000 44.77800
H  -19.25800 15.36800 43.96700
H  -18.32600 16.91900 43.95100
H  -17.95400 15.66500 45.15300
H  -16.37600 12.29200 42.54300
H  -18.07800 12.77900 43.00000
H  -17.92600 10.99800 44.57200
H  -16.56100 11.95800 45.24700
H  -16.22300 10.68100 44.11000
H  -10.90400 10.61100 44.34600
H  -12.47800 10.29600 43.50600
H  -12.42600 11.09400 45.08500
H  -8.12700 13.60500 41.04500
H  -4.83000 15.36700 43.60600
H  -5.88900 16.77400 43.15400
H  -4.57000 16.18000 42.18200

