158

Mg 42.05200 41.23500 26.02200
C  41.11200 43.48500 28.48300
C  43.18200 39.00400 28.39000
C  43.07200 39.17400 23.47900
C  41.30900 43.69100 23.65900
N  42.23100 41.31300 28.17000
C  41.60100 42.23100 28.99800
C  41.69000 41.80000 30.48500
C  42.49800 40.45300 30.41300
C  42.66800 40.17700 28.92500
C  43.87100 40.38100 31.12700
C  40.34200 41.80400 31.28000
C  40.34200 41.21400 32.71700
H  39.84800 42.09600 33.78300
N  43.02700 39.31700 25.95600
C  43.40200 38.58900 27.07000
C  43.83100 37.22800 26.62700
C  43.79900 37.22200 25.19800
C  43.32500 38.66100 24.79500
C  44.23100 36.23000 27.66200
C  44.23900 36.18200 24.22400
O  44.16000 36.36400 22.98600
C  44.81200 34.83600 24.78300
N  42.34700 41.48700 24.01500
C  42.69000 40.49600 23.13100
C  42.34300 40.74000 21.71800
C  41.51200 42.00300 21.84400
C  41.78300 42.48200 23.24500
C  43.56500 40.89900 20.79300
C  40.01200 41.81000 21.58200
C  39.25800 40.84500 22.51100
N  41.48900 43.27300 26.03700
C  41.25800 44.12700 25.00700
C  40.88700 45.43800 25.65300
C  40.69100 45.26800 26.96400
C  41.19500 43.89200 27.14800
C  40.47700 46.60000 24.75400
C  40.27500 45.88400 28.24000
O  39.88600 46.94500 28.68700
C  40.67100 44.73500 29.31700
C  41.60700 45.36900 30.26000
O  42.82300 45.29200 30.06600
O  41.08100 45.75500 31.50200
C  42.09900 46.34900 32.41600
H  43.44100 38.28600 29.17100
H  43.22400 38.44600 22.67900
H  40.95700 44.37200 22.88200
H  42.39700 42.54500 30.85100
H  41.92400 39.58300 30.73200
H  44.70200 40.05200 30.50300
H  43.73900 39.51900 31.78100
H  44.05700 41.33500 31.62200
H  39.63700 41.34600 30.58600
H  40.04400 42.84400 31.41100
H  41.41700 41.10600 32.86400
H  39.82700 40.25600 32.79000
H  45.22800 36.23200 28.10200
H  44.14000 35.26000 27.17300
H  43.47700 36.13900 28.44400
H  45.22900 34.31300 23.92200
H  44.06200 34.18500 25.23200
H  45.53300 34.95700 25.59100
H  41.70800 39.93400 21.35000
H  41.84800 42.83000 21.21800
H  44.42000 40.38300 21.22800
H  43.83700 41.95200 20.71800
H  43.41600 40.51800 19.78300
H  39.99800 41.36700 20.58600
H  39.48300 42.76300 21.60500
H  39.22800 39.86400 22.03800
H  38.28000 41.11900 22.90600
H  39.80300 40.66700 23.43900
H  39.90300 46.34600 23.86300
H  41.38500 47.14800 24.50200
H  39.84900 47.27100 25.34100
H  39.78000 44.56900 29.92400
H  42.97700 46.82600 31.98000
H  42.43200 45.47000 32.96700
H  41.62400 47.08400 33.06500
Mg -3.21800 35.16900 26.38900
C  -4.90400 33.41800 28.77600
C  -1.64700 37.05400 28.66600
C  -1.99900 37.16900 23.81800
C  -5.17300 33.55800 24.02400
N  -3.54400 35.41800 28.45100
C  -4.12200 34.45900 29.27400
C  -3.73400 34.57000 30.75500
C  -2.81700 35.86100 30.63300
C  -2.66400 36.20600 29.13700
C  -3.38800 37.07800 31.37300
C  -2.84000 33.32500 31.20000
C  -3.25200 32.79500 32.59200
H  -2.32200 32.89800 33.84200
N  -2.02800 36.95800 26.27200
C  -1.34100 37.45500 27.35300
C  -0.33500 38.29800 26.93400
C  -0.39500 38.30300 25.48200
C  -1.51800 37.42100 25.10800
C  0.70600 38.94200 27.86900
C  0.43700 39.02300 24.44500
O  0.25100 39.01800 23.18400
C  1.71000 39.68300 24.88900
N  -3.76600 35.57400 24.26800
C  -3.10000 36.37900 23.42900
C  -3.52100 36.34000 21.97800
C  -4.18400 34.95800 22.02400
C  -4.49400 34.67000 23.50400
C  -4.44100 37.58000 21.57200
C  -3.31200 33.79900 21.41000
C  -2.49700 32.90700 22.33500
N  -4.66200 33.73600 26.30300
C  -5.34500 33.14600 25.31300
C  -6.03000 32.01800 25.80000
C  -5.90200 32.04200 27.22400
C  -5.05400 33.11500 27.46000
C  -6.82200 31.05500 25.05100
C  -6.28100 31.46200 28.48700
O  -7.03900 30.51500 28.65500
C  -5.65000 32.40400 29.58000
C  -6.71000 32.97400 30.36000
O  -7.51400 33.81800 29.97800
O  -6.82400 32.35100 31.50400
C  -7.88100 32.70600 32.48100
H  -1.03000 37.53000 29.43100
H  -1.62100 37.69400 22.93800
H  -5.69600 32.89900 23.32800
H  -4.61300 34.74800 31.37300
H  -1.74800 35.71700 30.78800
H  -3.55000 37.91400 30.69300
H  -2.61300 37.36600 32.08300
H  -4.37000 36.87700 31.80200
H  -1.80100 33.63200 31.32100
H  -2.81300 32.51200 30.47400
H  -3.38400 31.74100 32.35000
H  -4.23600 33.08100 32.96400
H  1.69200 38.87800 27.40800
H  0.68600 38.44500 28.83900
H  0.53900 40.01600 27.94100
H  1.35700 40.42800 25.60200
H  2.06400 40.39500 24.14300
H  2.44100 38.95000 25.23000
H  -2.67100 36.52300 21.32100
H  -5.09600 34.97500 21.42700
H  -4.01200 37.94900 20.64100
H  -4.39700 38.35800 22.33400
H  -5.42000 37.16900 21.32400
H  -2.51400 34.18800 20.77800
H  -4.10400 33.19100 20.97100
H  -2.35900 33.45200 23.26800
H  -1.45500 32.86800 22.01800
H  -2.99100 31.93500 22.31200
H  -6.74600 31.02000 23.96500
H  -7.86200 31.33200 25.22200
H  -6.74500 30.00500 25.33300
H  -5.05700 31.72100 30.19000
H  -8.61500 33.36600 32.01900
H  -7.37400 33.16600 33.32900
H  -8.22500 31.70600 32.74500

