158

Mg 16.61700 -1.48700 28.51100
C  15.32500 0.60500 30.79900
C  18.47100 -3.08800 31.00700
C  18.17500 -3.13400 26.10900
C  15.03800 0.56200 25.98200
N  16.91000 -1.23600 30.62600
C  16.25400 -0.33100 31.38800
C  16.49500 -0.47300 32.90500
C  17.67200 -1.53200 32.89400
C  17.67200 -2.00800 31.39700
C  18.98200 -0.93000 33.46700
C  15.18700 -0.87100 33.72100
C  15.07800 -0.30600 35.15700
H  16.32300 0.06000 36.00900
N  18.02600 -3.00100 28.56000
C  18.70900 -3.54100 29.67700
C  19.60500 -4.54400 29.19400
C  19.48500 -4.57400 27.75900
C  18.49200 -3.53800 27.41500
C  20.41700 -5.29100 30.22200
C  20.39400 -5.26800 26.71900
O  20.10000 -5.37500 25.53400
C  21.60400 -6.04000 27.18500
N  16.78900 -1.18100 26.38200
C  17.44900 -2.03500 25.61600
C  17.30000 -1.71300 24.12600
C  16.11900 -0.64200 24.12100
C  15.94800 -0.39700 25.61100
C  18.65000 -1.34100 23.37200
C  14.89300 -1.02000 23.26900
C  13.83800 -1.80500 24.05100
N  15.22600 0.06700 28.36800
C  14.65100 0.79900 27.33700
C  13.67500 1.70300 27.88600
C  13.93900 1.75500 29.22800
C  14.82600 0.71600 29.48400
C  12.95600 2.67200 27.11300
C  13.66500 2.42900 30.53300
O  13.01500 3.44300 30.81500
C  14.52200 1.65100 31.53400
C  15.49300 2.62500 32.20500
O  16.63100 2.98100 31.82300
O  14.94600 3.08700 33.32000
C  15.67200 3.95600 34.24100
H  19.07900 -3.38200 31.86500
H  18.66000 -3.73200 25.33400
H  14.50900 1.18100 25.25500
H  16.63300 0.54000 33.28200
H  17.50200 -2.42600 33.49300
H  19.26500 -1.56700 34.30500
H  18.79000 0.06800 33.86200
H  19.74800 -0.96100 32.69300
H  15.14500 -1.93700 33.94500
H  14.25200 -0.71500 33.18200
H  14.57300 -1.10400 35.70200
H  14.39700 0.54500 35.13600
H  20.13300 -6.33900 30.13100
H  20.19700 -5.00600 31.25100
H  21.45900 -5.01100 30.06500
H  22.12500 -5.53100 27.99500
H  22.29400 -6.22400 26.36100
H  21.27000 -7.01200 27.54800
H  16.91000 -2.64500 23.71600
H  16.57700 0.21100 23.62000
H  19.36600 -1.24800 24.18900
H  18.40700 -0.50900 22.71100
H  18.91700 -2.10200 22.63900
H  15.01200 -1.34700 22.23600
H  14.42900 -0.03600 23.19400
H  13.08200 -1.07800 24.34700
H  14.28900 -2.17900 24.97000
H  13.44400 -2.58500 23.40000
H  12.54200 2.19400 26.22500
H  13.63700 3.40900 26.68800
H  12.11500 3.13800 27.62800
H  13.79500 1.28800 32.26000
H  15.63700 4.97200 33.84900
H  16.71300 3.64600 34.33800
H  15.21200 3.99300 35.22900
Mg 49.72400 35.83900 27.38400
C  47.43800 34.27300 29.63200
C  50.11300 38.24500 29.72500
C  51.37200 37.51300 25.19500
C  49.04000 33.23800 25.10300
N  48.80900 36.20300 29.38700
C  48.06800 35.40700 30.16800
C  48.14800 35.69900 31.68400
C  48.64900 37.19600 31.54000
C  49.21500 37.21300 30.14600
C  47.68600 38.44100 31.76900
C  49.09600 34.71300 32.54400
C  49.67800 35.08400 33.95200
H  48.68900 35.85600 34.88400
N  50.67400 37.63100 27.41900
C  50.73500 38.47500 28.49600
C  51.55200 39.55500 28.18800
C  51.93900 39.41400 26.85400
C  51.28700 38.16700 26.41400
C  51.84400 40.57500 29.23600
C  52.71600 40.34300 25.90900
O  53.02800 40.15000 24.77900
C  53.19100 41.62100 26.53500
N  49.94300 35.46300 25.30100
C  50.85600 36.25700 24.68400
C  51.10100 35.73900 23.29700
C  50.65600 34.25600 23.35600
C  49.80900 34.27400 24.59100
C  50.47100 36.54200 22.18300
C  51.80000 33.21500 23.34000
C  52.43000 32.93600 24.70100
N  48.38600 34.19900 27.27300
C  48.28200 33.20900 26.31900
C  47.36300 32.18000 26.70400
C  46.97500 32.56100 27.99400
C  47.62300 33.75400 28.30200
C  47.02500 30.93200 26.02900
C  46.12200 32.19500 29.09000
O  45.31000 31.31300 29.26500
C  46.35300 33.37400 30.22700
C  46.62500 32.70200 31.53700
O  47.45300 31.80800 31.69600
O  45.76400 33.03100 32.53500
C  45.99500 32.32400 33.80800
H  50.24400 38.97700 30.52500
H  51.94800 38.01100 24.41300
H  48.89700 32.34200 24.49400
H  47.10400 35.75700 31.99500
H  49.55100 37.25600 32.14900
H  47.81700 38.79000 32.79300
H  46.66800 38.21900 31.44700
H  47.89000 39.20600 31.02000
H  49.95300 34.43800 31.92900
H  48.62200 33.75200 32.74700
H  50.57900 35.69400 33.88100
H  49.85500 34.12400 34.43600
H  52.06300 40.05800 30.17100
H  51.05200 41.27700 29.49700
H  52.80000 41.03800 28.99500
H  52.38400 42.11600 27.07600
H  53.55000 42.26000 25.72800
H  53.97600 41.49900 27.28200
H  52.18500 35.78800 23.19900
H  49.96300 34.04200 22.54100
H  50.05800 35.91600 21.39300
H  51.31200 37.04200 21.70200
H  49.83400 37.26900 22.68500
H  52.64200 33.36400 22.66400
H  51.31800 32.28500 23.03800
H  52.42200 33.63300 25.53900
H  53.46500 32.61700 24.57800
H  51.87600 32.06000 25.03400
H  46.11400 30.49100 26.43300
H  47.83400 30.20300 26.09200
H  46.84200 31.12400 24.97200
H  45.45100 33.98100 30.15400
H  47.04300 32.34300 34.10500
H  45.63200 31.30600 33.66600
H  45.43200 32.81900 34.59900

