158

Mg 9.04300 48.16200 25.56700
C  6.87000 48.79000 28.19800
C  11.67600 48.64800 27.65100
C  10.94200 47.64100 23.02000
C  6.13700 47.97900 23.54900
N  9.23000 48.77200 27.66100
C  8.24100 48.88700 28.59900
C  8.82500 48.99900 30.03900
C  10.31800 49.33800 29.72300
C  10.43300 48.94500 28.24900
C  10.72300 50.82000 29.97600
C  8.66100 47.70100 30.92200
C  9.46300 47.58200 32.20300
H  8.71700 46.75100 33.33800
N  11.04800 48.20000 25.31600
C  12.01400 48.33000 26.34700
C  13.34000 48.18600 25.80400
C  13.11900 47.71400 24.47800
C  11.68800 47.93800 24.17000
C  14.60500 48.35200 26.57800
C  14.12400 47.13200 23.48800
O  13.72900 46.63400 22.43400
C  15.60700 47.00200 23.67000
N  8.60400 48.09700 23.51900
C  9.63100 47.81100 22.65000
C  9.01200 47.39500 21.34000
C  7.46900 47.81600 21.47200
C  7.35100 47.94400 22.94000
C  9.73700 47.99500 20.11500
C  6.46200 46.86700 20.84900
C  5.35800 47.49300 20.06700
N  6.93800 48.27700 25.84600
C  5.93000 48.13100 24.92800
C  4.59900 48.38200 25.57900
C  4.98000 48.52100 26.90900
C  6.35900 48.52800 26.96100
C  3.21000 48.15600 24.93500
C  4.40900 48.73000 28.21900
O  3.24500 48.73500 28.59300
C  5.65400 48.75500 29.13000
C  5.52000 47.48900 29.88700
O  5.70000 46.34500 29.46800
O  5.13900 47.79600 31.18900
C  4.91500 46.68500 32.18800
H  12.41500 48.79100 28.44200
H  11.53100 47.17400 22.22800
H  5.15500 47.92900 23.07300
H  8.32100 49.82300 30.54400
H  11.00200 48.83300 30.40600
H  10.24500 51.41400 29.19700
H  11.79700 51.00400 29.93300
H  10.32500 51.20400 30.91500
H  8.69200 46.83400 30.26200
H  7.62400 47.68100 31.25900
H  9.69100 48.56100 32.62400
H  10.41100 47.09300 31.97600
H  15.23700 47.47200 26.69500
H  14.30700 48.58900 27.59900
H  15.18200 49.23900 26.31600
H  16.05000 47.28700 22.71600
H  15.91100 46.02600 24.04700
H  15.89500 47.79300 24.36300
H  9.08600 46.30800 21.35200
H  7.36500 48.80100 21.01700
H  10.40300 48.76700 20.50000
H  9.09200 48.38200 19.32600
H  10.34200 47.19800 19.68400
H  5.94500 46.26400 21.59500
H  7.01400 46.16600 20.22300
H  5.29900 48.56300 20.26500
H  4.39300 47.00200 20.18800
H  5.59500 47.36300 19.01100
H  2.90500 47.14600 25.20800
H  3.23400 48.05300 23.85000
H  2.45300 48.91800 25.11900
H  5.60800 49.58000 29.84100
H  3.83500 46.55000 32.24900
H  5.26900 46.98100 33.17600
H  5.36500 45.73600 31.89800
Mg -0.08800 44.01200 26.01400
C  1.79900 43.30700 28.88100
C  -2.96500 43.77100 27.98400
C  -1.86200 43.96800 23.15400
C  2.84300 44.22100 24.28500
N  -0.53900 43.42400 28.12800
C  0.38700 43.25100 29.11800
C  -0.24200 43.21400 30.49100
C  -1.75200 43.09000 30.05800
C  -1.74500 43.51800 28.65200
C  -2.24500 41.65500 30.15800
C  0.03100 44.60900 31.25400
C  0.44900 44.63400 32.75100
H  -0.01200 43.56900 33.68000
N  -2.17200 43.84600 25.64100
C  -3.15300 43.80700 26.59000
C  -4.39000 43.78200 25.82700
C  -4.11100 43.71000 24.43400
C  -2.64800 43.86300 24.39300
C  -5.66500 43.90400 26.51200
C  -5.06400 43.64900 23.26600
O  -4.76000 43.60700 22.07500
C  -6.51900 43.43300 23.53800
N  0.47600 44.05400 24.05600
C  -0.43600 44.04400 23.03200
C  0.28000 44.05500 21.62200
C  1.69700 44.55600 22.05000
C  1.71800 44.27300 23.56300
C  0.33900 42.62100 20.95100
C  1.97900 46.06100 21.80200
C  0.81100 47.00900 22.00000
N  1.94700 43.87200 26.50700
C  3.01300 43.99800 25.64800
C  4.25200 44.05300 26.35900
C  3.84500 43.63200 27.66000
C  2.44100 43.58900 27.71400
C  5.66600 44.34500 25.79300
C  4.32500 43.39200 28.99400
O  5.46500 43.42400 29.53900
C  2.98000 43.28700 29.87300
C  3.08900 41.98100 30.73900
O  2.89500 40.79500 30.42000
O  3.47700 42.31800 32.03900
C  3.84300 41.33100 33.03800
H  -3.78000 43.49400 28.65500
H  -2.39800 43.93900 22.20300
H  3.82700 44.19100 23.81200
H  0.13500 42.35200 31.04100
H  -2.46700 43.70900 30.59900
H  -2.92000 41.61700 31.01400
H  -1.41300 40.96900 30.31700
H  -2.77200 41.16600 29.33900
H  -0.90600 45.16200 31.19000
H  0.69000 45.15000 30.57500
H  0.11100 45.57100 33.19400
H  1.53200 44.52300 32.80700
H  -6.00900 44.93700 26.46600
H  -5.56600 43.56500 27.54300
H  -6.43700 43.29700 26.03800
H  -6.63500 42.51700 24.11700
H  -7.03700 43.32200 22.58600
H  -6.94000 44.29800 24.05000
H  -0.19600 44.71800 20.89900
H  2.52200 44.09900 21.50400
H  0.73400 41.91300 21.67900
H  1.06700 42.65900 20.14100
H  -0.58900 42.13300 20.65300
H  2.20000 46.16600 20.73900
H  2.84600 46.26300 22.43100
H  0.26400 47.19900 21.07600
H  1.23300 47.89900 22.46700
H  0.17400 46.53800 22.74800
H  6.29700 44.51400 26.66600
H  5.62800 45.24900 25.18600
H  5.92100 43.42500 25.26700
H  2.95800 44.14400 30.54600
H  4.24300 40.41000 32.61400
H  2.98800 41.11100 33.67700
H  4.70200 41.59500 33.65500

