158

Mg 48.87400 34.20000 26.41900
C  46.70100 33.01500 28.81300
C  49.42600 37.11400 28.23200
C  50.57100 35.39100 23.77300
C  47.86400 31.46300 24.38100
N  48.10900 35.00600 28.29200
C  47.40400 34.22800 29.21200
C  47.66200 34.74700 30.61600
C  48.00700 36.25200 30.31400
C  48.58000 36.12800 28.87400
C  46.79000 37.29200 30.47300
C  48.72600 34.07400 31.51200
C  48.35300 33.82200 32.92600
H  47.35900 34.73200 33.70000
N  49.96300 36.02400 26.04400
C  50.11700 37.05700 26.95000
C  50.89900 38.08000 26.26700
C  51.24500 37.60300 25.04200
C  50.62000 36.25700 24.92800
C  51.22100 39.43300 26.89100
C  52.14900 38.13700 23.97700
O  52.56500 37.50300 22.97900
C  52.60300 39.57200 24.13300
N  49.06800 33.60300 24.31000
C  49.94200 34.20900 23.53500
C  50.17900 33.47300 22.19200
C  49.37500 32.13200 22.46800
C  48.73200 32.44000 23.80300
C  49.72600 34.32600 20.95400
C  50.10300 30.76500 22.48500
C  51.38800 30.64100 21.59200
N  47.65700 32.51400 26.53500
C  47.26800 31.49300 25.65400
C  46.41900 30.56500 26.34700
C  46.10100 31.15600 27.57600
C  46.90800 32.32500 27.64200
C  46.07300 29.20700 25.82300
C  45.38300 31.01600 28.76800
O  44.74000 30.05900 29.19200
C  45.73500 32.23300 29.61600
C  46.26200 31.66500 30.86400
O  47.33500 31.11700 31.07900
O  45.28700 31.84700 31.82400
C  45.39100 31.03100 33.02400
H  49.71600 37.97400 28.83900
H  51.11200 35.78100 22.90800
H  47.62200 30.56200 23.81400
H  46.74600 34.61600 31.19300
H  48.78700 36.52600 31.02400
H  45.92500 36.90800 31.01300
H  46.50600 37.55500 29.45400
H  47.19100 38.11300 31.06800
H  49.64100 34.66000 31.59900
H  49.07100 33.18100 30.99000
H  49.30500 33.62500 33.42000
H  48.01500 32.79000 33.01500
H  50.87500 39.52600 27.92100
H  50.76600 40.15300 26.21100
H  52.26300 39.75400 26.91800
H  53.55800 39.63100 24.65500
H  51.87700 40.27000 24.55000
H  52.71500 40.00100 23.13700
H  51.25400 33.30700 22.13000
H  48.61500 32.02900 21.69400
H  49.38400 35.32300 21.23000
H  48.97800 33.76800 20.39000
H  50.59500 34.30900 20.29600
H  49.51800 29.88700 22.20600
H  50.44200 30.74700 23.52100
H  52.30700 30.94200 22.09400
H  51.27500 31.09700 20.60800
H  51.55600 29.58800 21.36500
H  45.01000 29.20100 25.58100
H  46.27100 28.56900 26.68500
H  46.83900 28.97500 25.08400
H  44.85700 32.85900 29.77400
H  45.74600 30.05300 32.69800
H  44.57200 30.93000 33.73600
H  46.15900 31.41600 33.69500
Mg -0.30700 42.40300 26.75300
C  2.01000 42.61400 29.43900
C  -2.82400 41.73600 29.14800
C  -2.35200 42.02500 24.29200
C  2.30900 42.84500 24.49200
N  -0.37200 42.34200 29.03500
C  0.68800 42.50500 29.90800
C  0.22200 42.77100 31.34600
C  -1.27100 42.27300 31.22200
C  -1.51600 41.99800 29.70100
C  -1.63400 40.99900 32.03100
C  0.49900 44.20800 31.84700
C  1.28500 44.34600 33.15300
H  1.39000 43.21300 34.06000
N  -2.33600 42.00700 26.73700
C  -3.18500 41.70000 27.80600
C  -4.54500 41.58200 27.30800
C  -4.47900 41.83700 25.91700
C  -3.03700 41.90500 25.56600
C  -5.80000 41.36700 28.18500
C  -5.53400 42.05600 24.81500
O  -5.33500 42.27400 23.59300
C  -6.97400 42.08900 25.25200
N  0.03600 42.14500 24.72800
C  -1.03200 42.06700 23.89200
C  -0.62600 42.30600 22.43200
C  0.81200 42.79800 22.51200
C  1.05900 42.64600 24.00500
C  -0.79000 40.99100 21.70900
C  1.21100 44.18400 21.83600
C  2.50000 44.17100 20.96000
N  1.75100 42.67600 26.88400
C  2.64300 42.84700 25.90300
C  3.97200 42.97800 26.45600
C  3.73500 43.00800 27.88700
C  2.45100 42.68500 28.05900
C  5.21200 43.13500 25.73300
C  4.37300 43.22900 29.15600
O  5.43900 43.65500 29.47100
C  3.31700 42.83600 30.25100
C  3.88600 41.66800 30.98900
O  3.97000 40.52500 30.49400
O  4.36600 42.03400 32.24300
C  5.09600 41.02300 32.98700
H  -3.63600 41.71700 29.87800
H  -2.95600 41.94100 23.38600
H  3.12800 43.02400 23.79200
H  0.61800 41.95800 31.95500
H  -2.01100 43.01900 31.51300
H  -2.71200 41.05500 32.17900
H  -1.14200 40.98100 33.00300
H  -1.29400 40.10700 31.50400
H  -0.51700 44.60100 31.87600
H  1.07300 44.71600 31.07200
H  0.85200 45.09900 33.81200
H  2.27400 44.65500 32.81500
H  -6.53100 40.70500 27.72000
H  -6.25300 42.29200 28.54000
H  -5.45800 40.81500 29.06100
H  -7.17100 42.23800 26.31400
H  -7.45600 41.15600 24.95800
H  -7.54300 42.93100 24.85800
H  -1.36000 43.00100 22.02500
H  1.40600 42.06500 21.96600
H  -0.28900 41.09500 20.74700
H  -1.86200 40.82200 21.61300
H  -0.38100 40.18700 22.32100
H  1.16800 44.92600 22.63400
H  0.37400 44.46900 21.19900
H  2.97500 43.19100 20.91600
H  3.19100 44.88000 21.41600
H  2.33600 44.54300 19.94900
H  5.33700 42.38100 24.95500
H  6.02900 43.14500 26.45400
H  5.24100 44.06400 25.16400
H  3.12000 43.61800 30.98500
H  5.74100 41.43900 33.76200
H  5.89000 40.62800 32.35300
H  4.43100 40.21000 33.27800

