158

Mg 47.71100 44.26000 42.69000
C  44.08500 43.63300 42.83900
C  48.09300 40.80600 42.23200
C  50.94400 44.76200 42.66600
C  46.99600 47.62400 42.85800
N  46.27800 42.42700 42.59100
C  44.84900 42.48000 42.58700
C  44.36200 41.03200 42.51200
C  45.58800 40.09600 42.33300
C  46.74600 41.15700 42.41900
C  45.77900 38.92600 43.42400
C  43.46600 40.90000 41.22500
C  43.95100 41.61200 39.91400
H  44.35000 40.79000 38.78000
N  49.35200 42.97300 42.40000
C  49.26400 41.60500 42.30500
C  50.65800 41.16500 42.03600
C  51.57100 42.26500 42.28100
C  50.67100 43.42900 42.51800
C  51.04100 39.70700 41.69300
C  53.07700 42.16800 42.21400
O  53.71900 41.12100 41.95100
C  53.86000 43.43200 42.53400
N  48.83400 45.93000 42.57900
C  50.17200 45.93800 42.70600
C  50.70800 47.35800 42.79400
C  49.43000 48.26800 42.65800
C  48.37300 47.21900 42.67900
C  51.77000 47.64500 43.97200
C  49.25700 49.11200 41.36700
C  49.82300 50.52600 41.46100
N  45.90600 45.41400 42.78200
C  45.84000 46.81400 42.95000
C  44.47200 47.17200 43.12100
C  43.78300 45.93600 43.01100
C  44.68200 44.86300 42.92600
C  43.73700 48.45300 43.32400
C  42.46600 45.39600 43.22200
O  41.35200 45.86300 43.41600
C  42.57800 43.86800 43.02400
C  41.88700 43.23200 44.14900
O  40.95000 42.45200 44.02100
O  42.43600 43.64100 45.40200
C  41.78100 43.12300 46.60000
H  48.33700 39.76700 42.00200
H  51.99300 45.04000 42.78900
H  46.74400 48.66900 43.05200
H  43.62400 40.97700 43.31200
H  45.75900 39.67500 41.34200
H  44.84800 38.76600 43.96900
H  46.50800 39.34700 44.11600
H  46.16900 37.95300 43.12400
H  42.46500 41.26200 41.45900
H  43.34000 39.84900 40.96500
H  44.80100 42.24800 40.16200
H  43.05600 42.21600 39.77000
H  50.14600 39.14300 41.42800
H  51.60200 39.27400 42.52100
H  51.78900 39.72100 40.90000
H  53.65800 44.11500 41.70900
H  54.94500 43.37500 42.45400
H  53.51400 43.86300 43.47400
H  51.29700 47.61400 41.91400
H  49.19500 48.82100 43.56700
H  52.79400 47.61900 43.60000
H  51.68900 46.83800 44.70000
H  51.53600 48.56800 44.50300
H  48.21800 49.20000 41.04900
H  49.85700 48.58500 40.62600
H  50.70000 50.61100 40.81900
H  50.19500 50.76100 42.45800
H  49.13900 51.33200 41.19400
H  43.17000 48.42500 44.25400
H  43.14200 48.50400 42.41200
H  44.54300 49.18000 43.43000
H  41.97900 43.51000 42.18700
H  40.78000 42.72900 46.42200
H  41.81900 43.81900 47.43800
H  42.44200 42.29400 46.85200
Mg -0.06200 43.61400 25.51000
C  2.05500 43.12500 28.21100
C  -2.52400 42.37700 27.39300
C  -2.07700 44.07000 22.84300
C  2.68300 44.07200 23.45600
N  -0.24700 42.90200 27.56200
C  0.73100 42.95000 28.55100
C  0.22300 42.56800 29.90500
C  -1.16700 41.97400 29.58900
C  -1.31200 42.41500 28.07100
C  -1.21200 40.42600 29.90500
C  0.13700 43.94600 30.72400
C  0.34000 43.93400 32.26800
H  0.28100 42.48500 32.92600
N  -2.02900 43.24800 25.18500
C  -2.91000 42.70400 26.07400
C  -4.17600 42.58300 25.45200
C  -4.16400 43.27700 24.18900
C  -2.70400 43.58400 24.03000
C  -5.44000 42.00700 26.19100
C  -5.21400 43.80600 23.33000
O  -5.04600 44.54300 22.38300
C  -6.59900 43.26800 23.48500
N  0.24500 43.97200 23.45400
C  -0.77400 44.38100 22.61400
C  -0.24800 44.85200 21.21700
C  1.29700 44.82100 21.49600
C  1.42600 44.21300 22.91400
C  -0.72600 43.88500 20.06300
C  2.16600 46.07800 21.33200
C  2.17000 47.17900 22.45800
N  1.96900 43.62200 25.73500
C  2.99700 43.74400 24.78400
C  4.29600 43.55300 25.47700
C  3.96900 43.28200 26.76400
C  2.53200 43.29300 26.88600
C  5.68700 43.72000 24.86100
C  4.57700 43.00800 28.08300
O  5.75900 42.84500 28.33900
C  3.28500 42.92600 29.05400
C  3.34100 41.64100 29.68000
O  2.70400 40.63100 29.39500
O  4.33600 41.67800 30.58800
C  4.94900 40.44400 30.97000
H  -3.26700 41.84100 27.98700
H  -2.74000 44.16900 21.98100
H  3.55400 44.24600 22.82100
H  0.79500 41.77200 30.38200
H  -1.91900 42.49000 30.18600
H  -2.14700 40.32800 30.45600
H  -0.46000 40.00900 30.57500
H  -1.23900 39.74000 29.05800
H  -0.84700 44.36800 30.52400
H  0.80300 44.67600 30.26400
H  -0.32100 44.57400 32.85200
H  1.36500 44.24000 32.48100
H  -5.10400 41.46900 27.07700
H  -5.78600 41.19500 25.55200
H  -6.28000 42.69800 26.26300
H  -7.06400 43.65100 24.39300
H  -6.53700 42.18300 23.39300
H  -7.23900 43.54500 22.64700
H  -0.50500 45.89300 21.02100
H  1.63700 44.09700 20.75500
H  0.12500 43.48900 19.50800
H  -1.37500 44.53300 19.47500
H  -1.23100 43.00700 20.46500
H  1.80700 46.49400 20.39100
H  3.20300 45.78100 21.18100
H  3.19200 47.37300 22.78100
H  1.50600 47.03500 23.31000
H  1.80200 48.08000 21.96600
H  5.75800 44.59100 24.21000
H  6.04500 42.85700 24.30000
H  6.35500 44.06500 25.65100
H  3.25200 43.66500 29.85500
H  4.81500 39.60000 30.29300
H  4.47800 40.11200 31.89600
H  6.02100 40.59500 31.09400

