158

Mg -0.79200 7.83900 26.08500
C  0.40400 9.32700 29.13400
C  -1.07500 4.86700 27.81900
C  -1.17800 6.34800 23.15900
C  -0.19800 10.78200 24.52300
N  -0.31300 7.21700 28.27000
C  0.03100 8.05300 29.33000
C  -0.06900 7.28800 30.63500
C  -0.56300 5.88000 30.21900
C  -0.72600 5.94000 28.63200
C  0.30700 4.68500 30.61500
C  -1.05400 8.02400 31.60500
C  -0.53500 8.22000 33.08200
H  0.73400 7.33500 33.39900
N  -1.15100 5.85800 25.54500
C  -1.16800 4.81200 26.38300
C  -1.38000 3.61400 25.59900
C  -1.44700 4.03000 24.23600
C  -1.26900 5.49900 24.21500
C  -1.60900 2.26700 26.25500
C  -1.68300 3.23700 22.98400
O  -1.72100 3.70200 21.84700
C  -1.91800 1.72000 23.11800
N  -0.67200 8.43300 24.14600
C  -0.86000 7.69600 23.09300
C  -0.60900 8.50600 21.85500
C  -0.84000 9.91600 22.26600
C  -0.57800 9.73400 23.76700
C  0.78500 8.28800 21.20900
C  -2.25800 10.47000 21.88100
C  -2.32900 11.20800 20.54000
N  -0.16200 9.69600 26.64900
C  0.05000 10.81000 25.89900
C  0.43900 11.98700 26.70900
C  0.66800 11.38400 27.95500
C  0.27100 10.02400 27.91600
C  0.77800 13.33900 26.23000
C  1.26400 11.63800 29.23700
O  1.85800 12.64300 29.67000
C  1.07100 10.34900 30.08500
C  2.41700 9.93200 30.70500
O  3.29200 9.21500 30.25700
O  2.50500 10.58700 31.89800
C  3.87000 10.90700 32.30400
H  -1.13600 3.96000 28.42500
H  -0.97900 5.86400 22.20100
H  0.02100 11.66300 23.91700
H  1.00600 7.28100 30.81600
H  -1.54900 5.60500 30.59400
H  0.96000 4.40500 29.78800
H  -0.33900 3.89500 30.99900
H  0.92400 5.11700 31.40200
H  -1.97500 7.44000 31.61200
H  -1.37600 9.02800 31.32700
H  -1.31200 7.98200 33.80900
H  -0.50300 9.29900 33.23300
H  -0.70800 1.70000 26.02600
H  -2.50100 1.76800 25.87400
H  -1.75200 2.19100 27.33300
H  -2.92400 1.50100 23.47800
H  -1.07400 1.23800 23.61200
H  -1.74300 1.34100 22.11100
H  -1.40600 8.20800 21.17400
H  -0.10900 10.60900 21.85000
H  0.56700 8.19500 20.14500
H  1.17300 7.33200 21.56000
H  1.51500 9.06300 21.44200
H  -2.49700 11.25600 22.59700
H  -2.99000 9.66400 21.83500
H  -1.52400 10.82900 19.91000
H  -2.01900 12.24600 20.66200
H  -3.26100 11.04900 19.99800
H  1.41500 13.19600 25.35700
H  1.07800 13.77600 27.18200
H  -0.12100 13.85200 25.88700
H  0.37700 10.53500 30.90500
H  3.92600 11.89200 32.76800
H  4.71900 10.84800 31.62300
H  4.16800 10.17000 33.04900
Mg 39.62700 10.38400 29.16700
C  41.65200 11.86400 31.65700
C  37.68200 9.09000 31.75600
C  38.06900 8.67500 26.83700
C  42.20000 11.03400 26.90200
N  39.58400 10.62800 31.43800
C  40.49200 11.36800 32.21000
C  40.13000 11.32300 33.69500
C  38.98200 10.19900 33.69000
C  38.76800 9.86000 32.22400
C  39.16600 8.91200 34.57900
C  39.61300 12.62200 34.35000
C  39.11800 12.48100 35.80300
H  39.90300 13.26500 36.80200
N  37.98000 9.21400 29.24900
C  37.33600 8.68000 30.35800
C  36.23500 7.87200 29.89500
C  36.28400 7.89000 28.46000
C  37.50900 8.57000 28.10900
C  35.25500 7.16000 30.80000
C  35.23700 7.34000 27.47700
O  35.29200 7.55500 26.28500
C  34.03800 6.65200 28.01900
N  40.15400 9.83400 27.10800
C  39.26800 9.18300 26.35000
C  39.73900 9.26100 24.85300
C  40.99300 10.24700 24.93600
C  41.12800 10.36900 26.39300
C  40.14100 7.85500 24.20600
C  40.81900 11.53200 24.16700
C  40.08100 12.79000 24.96500
N  41.50900 11.20400 29.23200
C  42.41500 11.41900 28.18900
C  43.59000 12.15600 28.69700
C  43.34500 12.35000 30.06200
C  42.11600 11.77100 30.33500
C  44.82000 12.64200 27.92300
C  43.85800 12.90900 31.25200
O  44.88700 13.60400 31.40400
C  42.75600 12.73000 32.28100
C  43.32200 12.17800 33.61000
O  43.72500 11.05300 33.78900
O  43.19900 13.08900 34.60400
C  43.56600 12.70600 35.91800
H  37.00200 8.77000 32.54900
H  37.53700 8.08900 26.08400
H  42.96100 11.35500 26.18800
H  40.95500 10.87100 34.24500
H  38.04600 10.60800 34.06900
H  38.28400 8.67500 35.17400
H  39.96700 9.11600 35.29000
H  39.37800 8.02900 33.97700
H  38.86200 13.09800 33.71900
H  40.50900 13.24100 34.41100
H  39.08900 11.50200 36.28100
H  38.09800 12.84300 35.66900
H  34.35500 7.77500 30.82400
H  35.71100 7.17900 31.79000
H  34.94400 6.14700 30.54700
H  33.47000 6.32000 27.15000
H  33.47400 7.24000 28.74300
H  34.41400 5.72000 28.44200
H  38.90500 9.67300 24.28600
H  41.80000 9.74800 24.39900
H  41.22800 7.78000 24.17600
H  39.74200 7.75900 23.19700
H  39.52800 7.21400 24.84000
H  40.12800 11.42500 23.33000
H  41.75600 11.82800 23.69500
H  40.11000 12.51700 26.02000
H  39.12800 13.12300 24.55300
H  40.69700 13.68400 24.87200
H  44.65800 13.52400 27.30400
H  45.28000 11.84300 27.34000
H  45.56400 12.82200 28.69900
H  42.22800 13.66900 32.44700
H  44.64900 12.66000 36.03100
H  43.11700 11.76600 36.23700
H  43.24500 13.45000 36.64700

