158

Mg 0.23600 7.31100 26.34400
C  1.10100 9.32800 29.03900
C  -0.00200 4.52200 28.49400
C  -0.40100 5.39100 23.69000
C  0.62400 10.10900 24.26000
N  0.54100 7.05500 28.47500
C  0.84100 8.01500 29.43400
C  0.81900 7.40400 30.78800
C  0.73100 5.90200 30.56400
C  0.31700 5.81200 29.06000
C  2.06800 5.12500 30.84800
C  -0.47300 7.93400 31.56400
C  -0.48500 7.82400 33.16700
H  0.72900 7.15900 33.77000
N  -0.06700 5.20000 26.08800
C  -0.15100 4.25800 27.05600
C  -0.41500 2.94900 26.44000
C  -0.45000 3.20300 25.07800
C  -0.27400 4.62600 24.87700
C  -0.58800 1.60400 27.17600
C  -0.64800 2.19500 23.88400
O  -0.55800 2.51900 22.71100
C  -0.92800 0.73600 24.24800
N  0.29500 7.65800 24.30900
C  -0.21000 6.75800 23.46700
C  -0.40100 7.28500 22.02500
C  -0.41000 8.80300 22.31200
C  0.18100 8.89500 23.69100
C  0.87600 6.82800 21.14800
C  -1.85200 9.43800 22.20400
C  -2.00900 10.30800 20.92600
N  0.78000 9.34900 26.52600
C  0.96900 10.33400 25.60700
C  1.33500 11.55000 26.26900
C  1.48400 11.22600 27.60600
C  1.03800 9.83700 27.71200
C  1.57600 12.88400 25.59100
C  1.72900 11.72300 28.93700
O  1.92500 12.88900 29.29300
C  1.47000 10.47000 29.94600
C  2.79900 10.18400 30.60000
O  3.59700 9.35400 30.23800
O  2.78300 10.81500 31.85900
C  3.74500 10.24400 32.85200
H  0.02400 3.66300 29.16800
H  -0.50100 4.79200 22.78200
H  0.69200 10.95200 23.56900
H  1.66100 7.80000 31.35500
H  -0.01700 5.44200 31.20800
H  2.73600 5.77200 31.41600
H  2.59200 4.97000 29.90400
H  1.88900 4.15600 31.31200
H  -1.33500 7.46100 31.09400
H  -0.60800 9.00300 31.39900
H  -1.44100 7.34300 33.37400
H  -0.58300 8.89400 33.34900
H  0.12000 0.83100 26.87700
H  -1.61900 1.26600 27.07000
H  -0.40800 1.69700 28.24700
H  -1.84500 0.69600 24.83700
H  -0.10800 0.17300 24.69300
H  -1.16000 0.20800 23.32300
H  -1.30800 6.93000 21.53600
H  0.23700 9.29300 21.58500
H  1.77700 6.77900 21.75900
H  0.94000 7.49800 20.29100
H  0.69100 5.79800 20.84300
H  -2.01800 10.12700 23.03200
H  -2.66900 8.71700 22.19300
H  -1.16000 10.14900 20.26200
H  -2.01500 11.35500 21.23200
H  -2.93000 10.05600 20.40100
H  0.70400 13.49800 25.81700
H  1.55000 12.76100 24.50900
H  2.35600 13.48200 26.06200
H  0.74200 10.88400 30.64500
H  3.75400 9.15800 32.95100
H  3.56000 10.64700 33.84800
H  4.79600 10.43800 32.63500
Mg 8.25000 2.88400 27.88100
C  9.66400 1.48400 30.73700
C  6.39000 4.94400 29.96300
C  6.71400 4.04900 25.18800
C  9.88400 0.40900 25.93700
N  7.93800 3.09600 30.18600
C  8.77100 2.52300 31.08000
C  8.49600 3.14200 32.49000
C  7.43600 4.24700 32.25100
C  7.23900 4.14500 30.70600
C  6.05900 4.21200 33.00800
C  9.71800 3.80000 33.16800
C  10.03600 3.29700 34.62600
H  10.56900 4.25100 35.67800
N  6.66300 4.20500 27.62400
C  6.08200 4.97900 28.61100
C  5.16000 5.81200 27.94800
C  5.16500 5.57600 26.54800
C  6.14800 4.56300 26.40200
C  4.39300 6.91400 28.68200
C  4.52600 6.39800 25.45300
O  4.78100 6.31600 24.27200
C  3.28300 7.26500 25.69300
N  8.22200 2.26600 25.85700
C  7.70800 3.08500 24.91700
C  8.15800 2.80500 23.51700
C  9.09100 1.58000 23.71100
C  8.99700 1.28800 25.25900
C  6.98500 2.67600 22.57100
C  10.51100 1.83300 23.23900
C  11.61300 2.32800 24.17100
N  9.41700 1.25100 28.22600
C  10.02200 0.34100 27.31800
C  10.71100 -0.64600 28.05700
C  10.63600 -0.24200 29.39700
C  9.93900 0.98000 29.42000
C  11.32800 -1.84000 27.47800
C  11.20500 -0.47800 30.74800
O  11.96500 -1.39800 31.10600
C  10.61700 0.73600 31.66000
C  9.97300 0.19500 32.90500
O  8.84800 -0.27600 32.93100
O  10.76600 0.27800 34.01500
C  10.21200 -0.40800 35.24700
H  5.90800 5.72700 30.55200
H  6.37700 4.54200 24.27400
H  10.35600 -0.22700 25.18500
H  7.95800 2.39100 33.07000
H  7.92300 5.22000 32.31600
H  5.17800 4.04400 32.38900
H  5.91900 5.17900 33.49100
H  6.08600 3.56300 33.88300
H  9.71400 4.88500 33.06400
H  10.58200 3.46600 32.59400
H  10.77600 2.50000 34.54200
H  9.08500 2.87800 34.95300
H  4.88500 7.84200 28.38900
H  4.41800 6.79600 29.76500
H  3.38300 6.77100 28.30000
H  2.67100 7.14600 24.79900
H  3.57100 8.31600 25.65900
H  2.60600 7.05400 26.52100
H  8.78100 3.61500 23.13700
H  8.71000 0.71000 23.17600
H  7.08600 3.40300 21.76500
H  5.95900 2.77500 22.92600
H  6.96000 1.71200 22.06200
H  10.41600 2.55700 22.43000
H  10.92900 0.87400 22.93100
H  11.27800 2.83800 25.07400
H  12.33100 3.01700 23.72700
H  12.24500 1.50900 24.51500
H  11.77900 -1.66300 26.50200
H  10.60600 -2.65700 27.45600
H  12.10700 -2.16100 28.17000
H  11.45600 1.41400 31.81900
H  11.02500 -0.82800 35.83700
H  9.52500 -1.23500 35.06700
H  9.68100 0.21500 35.96700

