158

Mg 34.25200 3.60400 30.08300
C  31.92200 4.56300 32.54900
C  36.64100 3.63400 32.46000
C  36.38700 2.69000 27.74300
C  31.52800 3.53400 27.64600
N  34.29100 4.12700 32.17300
C  33.19900 4.43700 33.02600
C  33.58300 4.39300 34.50600
C  35.11600 4.69700 34.35400
C  35.39800 4.06300 32.92400
C  35.51800 6.11300 34.28800
C  33.26500 2.99300 35.12000
C  32.94600 3.00300 36.65500
H  33.53300 4.14800 37.50100
N  36.24000 3.09700 30.15100
C  37.05200 3.20500 31.22900
C  38.34700 2.81500 30.86000
C  38.27100 2.41700 29.47600
C  36.92400 2.76900 29.01800
C  39.47300 2.62000 31.90100
C  39.39300 1.75600 28.63500
O  39.29800 1.62500 27.39900
C  40.75400 1.51300 29.23700
N  34.03300 3.31700 27.93700
C  35.09000 2.91800 27.21000
C  34.67500 2.55500 25.75400
C  33.15300 2.53000 25.83700
C  32.83500 3.17100 27.20400
C  35.17100 3.69500 24.77700
C  32.56600 1.07300 25.76600
C  31.86000 0.86700 24.41500
N  32.23100 3.95700 29.99200
C  31.23800 3.90700 28.97200
C  29.91500 4.22300 29.56700
C  30.15500 4.56600 30.84000
C  31.56000 4.30700 31.14600
C  28.57600 4.23400 28.88600
C  29.51000 4.95600 32.07000
O  28.31500 5.28100 32.18000
C  30.58900 5.06100 33.20500
C  30.64000 6.36800 33.86200
O  31.16700 7.36000 33.37000
O  30.19600 6.19700 35.13100
C  30.49400 7.22700 36.09800
H  37.35400 3.74300 33.28100
H  37.07400 2.43700 26.93300
H  30.70500 3.48500 26.92900
H  33.07500 5.10500 35.15700
H  35.63400 4.18400 35.16400
H  35.93800 6.39700 35.25400
H  34.67100 6.79800 34.26300
H  36.17000 6.38700 33.45900
H  34.06000 2.25600 35.00300
H  32.30100 2.60800 34.78600
H  33.38500 2.11100 37.10200
H  31.88900 2.93400 36.91200
H  40.51800 2.60000 31.59100
H  39.37100 1.72000 32.50700
H  39.46800 3.58700 32.40500
H  40.78600 0.80100 30.06100
H  41.31700 2.36700 29.61300
H  41.40700 1.05300 28.49500
H  35.16300 1.64400 25.40900
H  32.71200 3.19200 25.09200
H  35.47600 4.58400 25.33000
H  34.45400 3.99000 24.01100
H  36.03500 3.30200 24.24100
H  31.87600 0.80600 26.56600
H  33.45100 0.44400 25.85200
H  30.93500 0.34200 24.65200
H  32.50300 0.23400 23.80400
H  31.62500 1.74200 23.80900
H  28.59600 3.91600 27.84400
H  28.15100 5.23800 28.91100
H  27.92200 3.61800 29.50400
H  30.18600 4.40100 33.97300
H  30.81300 6.87700 37.08000
H  29.57400 7.74700 36.36500
H  31.19800 7.97200 35.72600
Mg 10.01200 48.65000 26.26200
C  7.95000 48.69100 29.10100
C  12.56700 49.63000 28.23000
C  11.95000 48.82300 23.45300
C  7.13700 48.30200 24.23100
N  10.20700 49.19300 28.37600
C  9.26300 49.11200 29.35100
C  9.84800 49.67600 30.66400
C  11.20100 50.27000 30.22200
C  11.36600 49.58600 28.89200
C  11.27200 51.82100 30.15300
C  9.97000 48.70300 31.88500
C  9.01000 49.01700 33.06800
H  9.63200 49.57900 34.29600
N  12.06400 49.08300 25.85900
C  12.95700 49.31400 26.82500
C  14.28800 49.46900 26.23200
C  14.10400 49.21400 24.83500
C  12.62900 49.09200 24.63300
C  15.52400 49.92400 27.02800
C  15.15800 49.10700 23.73600
O  14.88300 49.05600 22.57800
C  16.60800 49.23800 24.05600
N  9.56400 48.69700 24.09800
C  10.63300 48.61900 23.18300
C  10.03400 48.56900 21.73700
C  8.47000 48.17900 22.02800
C  8.34900 48.46800 23.51900
C  10.25900 49.81500 20.89100
C  8.10200 46.73500 21.67900
C  8.66300 45.61000 22.56300
N  7.94300 48.48200 26.56200
C  6.92500 48.31900 25.65400
C  5.65000 48.28100 26.37100
C  6.00500 48.32900 27.73600
C  7.41600 48.54000 27.75000
C  4.31000 48.01500 25.78700
C  5.52400 48.36900 29.12800
O  4.43800 48.29500 29.62100
C  6.76300 48.60900 30.06900
C  6.87000 47.32100 30.77700
O  7.60900 46.39400 30.45000
O  6.00600 47.26500 31.86100
C  6.28100 46.11500 32.78400
H  13.42800 50.00100 28.79000
H  12.66300 48.70000 22.63500
H  6.23900 48.34700 23.61200
H  9.21400 50.49200 31.01000
H  12.11400 49.93700 30.71400
H  10.28800 52.27400 30.03200
H  11.97900 52.11500 29.37700
H  11.67000 52.19700 31.09500
H  10.99100 48.79900 32.25400
H  9.82700 47.65300 31.62900
H  8.48100 48.09700 33.31700
H  8.18100 49.70900 32.92300
H  15.25400 50.10100 28.06900
H  15.93300 50.86800 26.66700
H  16.29500 49.16500 26.90100
H  16.91700 48.61200 24.89400
H  16.88000 50.25000 24.35400
H  17.16500 48.93500 23.16900
H  10.60000 47.73400 21.32600
H  7.84000 48.88600 21.49000
H  10.62200 50.52500 21.63400
H  9.35400 50.17000 20.39700
H  10.95400 49.63900 20.07000
H  8.46100 46.61800 20.65600
H  7.02100 46.60100 21.71100
H  7.95800 44.79000 22.69800
H  8.90100 46.00900 23.54900
H  9.51100 45.12700 22.07900
H  3.48600 47.80700 26.47000
H  4.51200 47.11400 25.20800
H  4.14200 48.77400 25.02300
H  6.69700 49.42700 30.78700
H  5.32900 45.58900 32.85600
H  6.56200 46.53500 33.75000
H  7.09400 45.45200 32.49100

