158

Mg 46.66200 3.64900 48.10200
C  45.10400 6.69800 47.12000
C  43.62500 2.00200 47.46000
C  48.17000 0.65500 48.46200
C  49.61900 5.29600 48.16400
N  44.62200 4.29400 47.31700
C  44.23700 5.57900 46.96500
C  42.74400 5.65100 46.50300
C  42.23900 4.17600 46.80900
C  43.58900 3.42500 47.24400
C  41.09700 4.10000 47.89400
C  42.67400 6.13700 44.99000
C  41.97600 7.54700 44.64400
H  40.80200 7.44100 43.70800
N  46.01100 1.56500 47.97200
C  44.72500 1.13000 47.72800
C  44.71400 -0.33300 47.72900
C  46.00000 -0.72400 48.03700
C  46.84300 0.47500 48.12000
C  43.45800 -1.20800 47.53900
C  46.48700 -2.17200 48.25700
O  45.76300 -3.08400 47.97800
C  47.82500 -2.65900 48.76900
N  48.52500 3.00000 48.18100
C  48.97800 1.77900 48.48800
C  50.39000 1.73900 48.89100
C  50.89200 3.16000 48.63500
C  49.62300 3.92800 48.26900
C  50.63900 1.14300 50.27600
C  51.98700 3.25300 47.45000
C  51.33600 3.36000 46.03000
N  47.22000 5.62400 47.85700
C  48.54200 6.15300 47.99300
C  48.54700 7.55500 47.82300
C  47.19600 7.88100 47.49800
C  46.42700 6.64200 47.48200
C  49.80200 8.46100 47.93500
C  46.21200 8.94100 47.16400
O  46.33500 10.13200 47.03800
C  44.89000 8.18200 46.84200
C  43.84400 8.71000 47.74600
O  43.56500 8.25700 48.88400
O  43.16000 9.73600 47.14700
C  42.10400 10.49500 47.88100
H  42.63800 1.53700 47.40800
H  48.75300 -0.24000 48.69100
H  50.60300 5.75900 48.25700
H  42.26600 6.41100 47.12200
H  41.93100 3.70200 45.87700
H  41.58800 3.68600 48.77500
H  40.46800 3.29700 47.51000
H  40.49600 5.00000 48.02400
H  42.13700 5.34500 44.46600
H  43.64300 6.24900 44.50400
H  42.78100 8.08000 44.13700
H  41.71100 8.13200 45.52400
H  42.85800 -1.39800 48.43000
H  43.69500 -2.17800 47.10200
H  42.91600 -0.71600 46.73100
H  48.23400 -2.08200 49.59800
H  48.56200 -2.54600 47.97400
H  47.74200 -3.72200 48.99700
H  50.79400 1.05600 48.14400
H  51.30100 3.65900 49.51300
H  50.72400 0.07000 50.10800
H  49.74300 1.35100 50.86200
H  51.56800 1.44800 50.75800
H  52.75300 2.47800 47.47200
H  52.41600 4.24900 47.55300
H  50.45500 2.71900 46.06400
H  51.99300 2.98000 45.24700
H  50.99500 4.37600 45.82800
H  49.51400 9.42900 48.34500
H  50.06100 8.65700 46.89500
H  50.65100 8.03800 48.47300
H  44.57900 8.28200 45.80200
H  41.37300 9.81200 48.31400
H  41.48800 11.14000 47.25400
H  42.59400 10.98900 48.72100
Mg -9.90500 39.49000 39.63100
C  -8.78000 36.35000 38.80000
C  -6.82700 40.78300 38.76100
C  -11.30600 42.49700 39.61100
C  -13.12000 37.96900 40.24400
N  -8.02300 38.60000 39.01200
C  -7.75800 37.31700 38.71200
C  -6.20600 37.07200 38.47000
C  -5.59500 38.48700 38.86300
C  -6.88000 39.37000 38.82300
C  -4.77700 38.63400 40.12900
C  -5.94000 36.63300 36.97900
C  -6.72000 37.40800 35.95300
H  -7.60400 36.71900 34.86700
N  -9.15500 41.41600 39.23100
C  -7.87600 41.69100 38.85600
C  -7.74200 43.13800 38.79700
C  -9.02400 43.66200 39.14000
C  -9.90500 42.52000 39.36600
C  -6.39700 43.84300 38.60500
C  -9.43700 45.10600 39.21000
O  -8.60900 45.95200 38.85400
C  -10.78100 45.62300 39.62800
N  -11.94000 40.16800 39.74100
C  -12.23300 41.49500 39.86900
C  -13.72100 41.65200 40.18300
C  -14.26500 40.17200 40.34900
C  -13.02200 39.38300 40.12900
C  -14.11600 42.59700 41.36700
C  -15.41100 39.82000 39.40000
C  -16.65000 39.43100 40.09800
N  -10.78600 37.49200 39.67000
C  -12.06200 37.10100 39.95900
C  -12.13700 35.67500 39.84100
C  -10.87400 35.30200 39.30500
C  -10.08000 36.48900 39.19600
C  -13.35600 34.78000 40.06900
C  -10.04500 34.20900 38.96000
O  -10.35900 33.02000 39.02700
C  -8.67300 34.86200 38.52700
C  -7.57100 34.18700 39.25900
O  -7.41400 34.12000 40.44500
O  -6.68900 33.67700 38.36900
C  -5.42600 33.16600 38.95300
H  -5.89300 41.30800 38.55100
H  -11.72400 43.50000 39.72100
H  -14.09200 37.58100 40.55300
H  -5.87100 36.29200 39.15300
H  -4.98900 38.72900 37.99100
H  -4.12100 39.50100 40.04300
H  -4.26500 37.72600 40.44800
H  -5.35900 38.88700 41.01500
H  -6.26200 35.60700 36.80100
H  -4.87800 36.79200 36.79100
H  -6.07500 37.94700 35.25900
H  -7.33000 38.14100 36.48100
H  -6.48000 44.93000 38.64400
H  -5.92700 43.49200 37.68700
H  -5.89500 43.53400 39.52200
H  -11.10800 45.21000 40.58200
H  -11.62200 45.54400 38.93900
H  -10.73400 46.68900 39.85100
H  -14.00400 42.05500 39.21000
H  -14.40700 39.96800 41.41100
H  -14.92600 43.31500 41.23800
H  -13.22400 43.11600 41.71500
H  -14.50300 41.97400 42.17400
H  -15.08700 39.02800 38.72400
H  -15.62100 40.68300 38.76800
H  -16.62700 39.71300 41.15100
H  -16.86500 38.37100 39.96600
H  -17.41700 39.98100 39.55200
H  -14.07700 35.14900 40.79900
H  -12.96100 33.80400 40.35100
H  -13.95000 34.75100 39.15500
H  -8.57800 34.55300 37.48600
H  -5.63100 32.15600 39.30900
H  -4.95800 33.72900 39.76000
H  -4.69900 33.23900 38.14400

