158

Mg 26.99400 50.28700 26.64800
C  24.90000 51.35300 29.28000
C  29.48000 49.86500 28.95000
C  28.97000 49.86600 24.03800
C  24.39300 51.41500 24.36000
N  27.12400 50.61600 28.92700
C  26.13500 50.92900 29.78400
C  26.53800 50.81800 31.22700
C  28.01900 50.27500 31.04000
C  28.26800 50.27700 29.53400
C  29.11900 51.07700 31.78500
C  25.65600 49.97900 32.11600
C  24.96100 50.57500 33.37700
H  24.93700 49.70400 34.70900
N  28.93200 49.88000 26.52800
C  29.82500 49.66000 27.59400
C  31.11800 49.41400 26.99700
C  30.98800 49.50400 25.53200
C  29.54500 49.78500 25.34200
C  32.30000 49.23000 27.89300
C  32.09500 49.35700 24.53800
O  31.88600 49.64600 23.36300
C  33.43500 48.94100 25.03400
N  26.63900 50.46900 24.45000
C  27.63800 50.22900 23.63300
C  27.18700 50.29300 22.18400
C  25.70300 50.66100 22.29100
C  25.52600 50.88100 23.79200
C  28.04900 51.10500 21.19800
C  24.66600 49.65100 21.71700
C  23.81400 49.97700 20.44300
N  25.02100 51.15900 26.70900
C  24.16300 51.57600 25.71500
C  22.98800 52.17600 26.27700
C  23.18500 52.01500 27.73100
C  24.47700 51.47700 27.94600
C  21.94000 53.04100 25.57500
C  22.63300 52.37200 29.02000
O  21.59700 53.01600 29.28500
C  23.65300 51.85800 30.12800
C  23.98500 53.04600 30.93200
O  24.78800 53.90100 30.60900
O  23.15000 53.14500 32.06800
C  23.35600 54.20200 32.96600
H  30.19000 49.52800 29.70900
H  29.59200 49.81400 23.14100
H  23.52900 51.66400 23.74100
H  26.57600 51.84900 31.57900
H  28.08100 49.25700 31.42400
H  29.97800 50.44100 31.99900
H  28.66000 51.43600 32.70600
H  29.33700 51.95300 31.17400
H  26.17900 49.10200 32.49900
H  24.86600 49.54200 31.50400
H  23.89500 50.64800 33.16500
H  25.28100 51.59600 33.58700
H  32.97300 50.02900 27.58100
H  32.73100 48.24200 27.73000
H  32.18300 49.37100 28.96700
H  33.99200 48.59100 24.16500
H  33.44500 48.11200 25.74200
H  33.81800 49.79800 25.58900
H  27.24000 49.34300 21.65100
H  25.49700 51.61700 21.81000
H  27.40600 51.77200 20.62400
H  28.46200 50.43600 20.44300
H  28.92700 51.62400 21.58200
H  23.83900 49.41100 22.38500
H  25.15500 48.74100 21.36700
H  24.14400 50.93200 20.03400
H  22.76800 50.12900 20.70900
H  23.72900 49.26800 19.62000
H  22.50200 53.91100 25.23400
H  21.11800 53.33600 26.22700
H  21.53500 52.44700 24.75500
H  23.22400 51.06300 30.73800
H  24.09800 53.86300 33.69000
H  22.42800 54.41900 33.49500
H  23.76900 55.11200 32.53100
Mg 1.56800 41.98500 25.33500
C  3.70400 42.17900 28.19400
C  -0.98200 41.01000 27.34600
C  -0.24400 41.27500 22.56200
C  4.42900 42.21500 23.37800
N  1.42300 41.61600 27.46800
C  2.27900 41.97300 28.41500
C  1.59000 41.87700 29.83000
C  0.12900 41.46900 29.52400
C  0.17100 41.32800 28.03800
C  -0.37200 40.17700 30.19600
C  1.74500 43.25700 30.52900
C  1.75500 43.23500 32.01600
H  1.64800 41.98100 32.91900
N  -0.42800 41.34100 25.04200
C  -1.30300 40.86000 25.95600
C  -2.58400 40.41500 25.34700
C  -2.41700 40.63000 23.90200
C  -0.95800 41.05700 23.75300
C  -3.68600 39.78900 26.16800
C  -3.26600 40.39400 22.70500
O  -2.92800 40.50300 21.55000
C  -4.65700 39.99100 22.90300
N  1.93500 41.87200 23.27200
C  1.07500 41.61500 22.30400
C  1.73200 41.51300 20.94600
C  3.12600 42.19200 21.19300
C  3.20900 42.12500 22.74900
C  1.77700 40.12700 20.30300
C  3.29300 43.62400 20.47500
C  2.96400 44.84600 21.38500
N  3.63900 42.35700 25.67200
C  4.65400 42.39900 24.74400
C  5.91700 42.66200 25.45000
C  5.57300 42.54300 26.87000
C  4.21800 42.33000 26.91200
C  7.20400 42.92100 24.83600
C  6.15100 42.45900 28.15900
O  7.32800 42.45200 28.43900
C  4.93300 42.30500 29.09700
C  5.17500 41.14900 29.99100
O  4.86500 39.97500 29.77600
O  5.64200 41.56400 31.20800
C  5.74500 40.61000 32.25400
H  -1.81800 40.69100 27.97100
H  -0.79000 41.08400 21.63500
H  5.27000 42.31600 22.68900
H  2.04300 41.01900 30.32700
H  -0.56600 42.25600 29.81500
H  -1.31200 40.49200 30.65100
H  0.26900 39.61500 30.87600
H  -0.63100 39.51000 29.37400
H  0.86900 43.69400 30.04900
H  2.49500 43.92000 30.09700
H  0.97100 43.92200 32.33300
H  2.69100 43.75200 32.22800
H  -4.66200 40.05700 25.76400
H  -3.59800 40.10800 27.20700
H  -3.56200 38.70600 26.14600
H  -4.57400 39.17700 23.62300
H  -5.10700 39.71500 21.95000
H  -5.24600 40.78000 23.37100
H  1.10900 42.03700 20.22200
H  3.82500 41.44300 20.82100
H  1.49100 39.47500 21.12800
H  2.73500 39.96400 19.80900
H  1.02500 40.09700 19.51400
H  2.80900 43.63300 19.49800
H  4.36700 43.59000 20.29700
H  2.52200 44.59400 22.34900
H  2.34200 45.55500 20.83800
H  3.81800 45.51000 21.52300
H  7.58800 43.93900 24.90300
H  7.12900 42.53900 23.81800
H  7.83400 42.13400 25.25100
H  4.90900 43.14900 29.78600
H  4.77600 40.13900 32.42000
H  5.93200 41.05300 33.23200
H  6.43200 39.79100 32.03800

