158

Mg 41.02600 41.23800 27.56200
C  40.14800 43.71200 29.79300
C  41.72400 39.26200 30.12700
C  41.83900 38.73000 25.21100
C  40.60100 43.35000 24.89900
N  40.84500 41.49500 29.78100
C  40.34400 42.53100 30.50100
C  40.07300 42.21200 31.97400
C  40.63600 40.72300 31.98100
C  41.08700 40.42300 30.53400
C  41.68100 40.37000 33.06100
C  38.59300 42.37500 32.41800
C  38.41500 41.93500 33.82300
H  38.75400 42.83500 35.06900
N  41.67300 39.27100 27.70400
C  41.92900 38.62300 28.91600
C  42.34400 37.28900 28.63400
C  42.41600 37.19000 27.20900
C  41.95200 38.46000 26.59500
C  42.58800 36.26400 29.78200
C  42.96300 36.03500 26.39500
O  43.22100 36.05500 25.22800
C  43.20700 34.66500 27.08600
N  41.17900 41.05000 25.39700
C  41.41800 39.91400 24.66100
C  41.36000 40.12300 23.13200
C  40.71200 41.54200 23.07200
C  40.79900 42.03400 24.55300
C  42.73100 40.04900 22.46800
C  39.24700 41.63500 22.52800
C  38.12500 41.13700 23.48300
N  40.52500 43.17600 27.35100
C  40.47200 43.92200 26.19300
C  40.14600 45.31000 26.57500
C  40.02800 45.25100 27.99400
C  40.24900 43.94800 28.40200
C  39.92500 46.51400 25.59500
C  39.79200 46.02000 29.19800
O  39.71400 47.23000 29.29500
C  39.78100 45.07100 30.37000
C  40.87800 45.46600 31.29200
O  42.04900 45.26800 31.15800
O  40.35700 46.08900 32.40100
C  41.30700 46.24800 33.54300
H  41.86100 38.69700 31.05100
H  42.24500 38.02600 24.48100
H  40.61600 44.01900 24.03600
H  40.68100 42.84100 32.62300
H  39.74100 40.10400 32.03800
H  41.24500 39.65200 33.75600
H  41.99200 41.27600 33.58200
H  42.58200 39.88200 32.69000
H  37.86800 41.82600 31.81600
H  38.41500 43.44800 32.47900
H  39.00000 41.03400 34.00400
H  37.35500 41.71500 33.95100
H  43.62400 35.94900 29.90600
H  41.91500 35.41900 29.63300
H  42.39400 36.71900 30.75300
H  42.35100 34.46400 27.73100
H  44.14700 34.92400 27.57200
H  43.36000 33.87200 26.35300
H  40.67900 39.41900 22.65300
H  41.37500 42.21700 22.53000
H  42.95500 40.71800 21.63700
H  42.88700 39.06200 22.03300
H  43.43800 40.08200 23.29700
H  39.22900 41.13400 21.56000
H  39.02100 42.67500 22.29000
H  38.61500 40.83400 24.40900
H  37.55500 40.30000 23.08000
H  37.46600 41.95300 23.77800
H  39.81900 46.17800 24.56300
H  40.70900 47.22500 25.85300
H  38.99700 46.93200 25.98400
H  38.83100 45.07300 30.90400
H  42.16900 46.76600 33.12300
H  41.59200 45.26800 33.92600
H  40.81300 46.74500 34.37800
Mg -2.73900 34.82500 26.67800
C  -3.84800 33.19400 29.57300
C  -0.96000 36.91000 28.67200
C  -1.89200 36.57700 23.86000
C  -4.62800 32.54800 24.83700
N  -2.43300 34.94800 28.95200
C  -2.92100 34.22900 29.92400
C  -2.37700 34.60900 31.31300
C  -1.48300 35.88700 30.94500
C  -1.61200 35.95300 29.41900
C  -1.82900 37.07500 31.71800
C  -1.65400 33.39900 31.96900
C  -2.39600 32.89800 33.32800
H  -1.49600 32.74600 34.54400
N  -1.59300 36.49000 26.26200
C  -0.94400 37.19700 27.26200
C  -0.14100 38.19000 26.63700
C  -0.19400 37.90900 25.26700
C  -1.20400 36.92100 25.06400
C  0.81100 39.17200 27.37500
C  0.63400 38.48100 24.05900
O  0.33700 38.29300 22.94600
C  1.92400 39.36700 24.34000
N  -3.57100 34.83700 24.70100
C  -2.94900 35.60300 23.72300
C  -3.53400 35.20300 22.38600
C  -4.06300 33.75100 22.67600
C  -4.12300 33.71800 24.19500
C  -4.51500 36.21800 21.71800
C  -3.19200 32.58300 22.15700
C  -3.29900 32.24700 20.67500
N  -3.99000 33.21900 27.07700
C  -4.67300 32.40100 26.25500
C  -5.48300 31.45000 26.92300
C  -5.17500 31.76700 28.28700
C  -4.24400 32.81800 28.25800
C  -6.50500 30.57800 26.39600
C  -5.35800 31.31800 29.67200
O  -5.98200 30.38600 30.15000
C  -4.57800 32.28000 30.54100
C  -5.54800 32.92500 31.49500
O  -6.31300 33.86600 31.23800
O  -5.52400 32.33900 32.70700
C  -6.50800 32.63700 33.69400
H  -0.33700 37.71300 29.07300
H  -1.62100 37.05800 22.91700
H  -5.11900 31.80600 24.20400
H  -3.21300 34.90700 31.94600
H  -0.47500 35.80000 31.35100
H  -0.92200 37.58800 32.03600
H  -2.47400 36.85800 32.56900
H  -2.36500 37.77800 31.08100
H  -0.60200 33.60800 32.16000
H  -1.51300 32.61200 31.22800
H  -2.73000 31.87100 33.17900
H  -3.26800 33.52500 33.51500
H  1.80300 38.74100 27.51100
H  0.45800 39.39300 28.38300
H  0.94200 40.02500 26.70900
H  2.59500 38.90800 25.06600
H  1.57400 40.36800 24.59500
H  2.46100 39.37700 23.39100
H  -2.67700 35.21000 21.71300
H  -5.03700 33.65600 22.19700
H  -5.47600 35.76700 21.47100
H  -4.24300 36.59100 20.73100
H  -4.80900 37.02300 22.39200
H  -3.46600 31.65300 22.65600
H  -2.17000 32.92300 22.32600
H  -4.14400 32.72200 20.17500
H  -3.46800 31.18200 20.52000
H  -2.39300 32.55600 20.15300
H  -6.17900 29.54700 26.54000
H  -6.66300 30.76600 25.33400
H  -7.42200 30.80700 26.93700
H  -3.98300 31.79300 31.31300
H  -6.04700 33.30500 34.42100
H  -6.78200 31.69200 34.16300
H  -7.36700 33.13500 33.24300

