158

Mg 47.08100 24.91500 29.14900
C  47.93900 27.26900 31.68100
C  45.90900 22.77500 31.56200
C  46.65700 22.53700 26.78300
C  48.52500 26.96500 26.80100
N  46.71400 25.13700 31.26800
C  47.22000 26.11200 32.08200
C  46.97900 25.73400 33.61100
C  46.51100 24.28000 33.48400
C  46.29300 24.07600 31.98400
C  47.52100 23.30700 34.14900
C  45.93400 26.77300 34.24800
C  46.05200 27.30900 35.73700
H  46.73600 26.41900 36.81500
N  46.30600 22.95000 29.14500
C  45.85800 22.30900 30.20500
C  45.32800 21.01000 29.82800
C  45.46000 20.91200 28.44900
C  46.20500 22.14000 28.02700
C  44.61300 19.97300 30.80600
C  45.10800 19.78000 27.50100
O  45.18300 19.91600 26.26300
C  44.49200 18.51600 28.11900
N  47.43500 24.73200 27.04600
C  47.28700 23.72300 26.32200
C  47.75500 23.94400 24.88300
C  48.12800 25.40100 24.88800
C  48.02500 25.76700 26.34400
C  48.74400 22.90300 24.32500
C  47.17100 26.25100 23.95400
C  45.71700 26.19800 24.26800
N  48.03800 26.81600 29.16100
C  48.63200 27.47700 28.12500
C  49.20300 28.70300 28.61200
C  48.94500 28.64500 30.04400
C  48.30200 27.44500 30.30300
C  49.90800 29.69500 27.73200
C  49.10400 29.39900 31.24800
O  49.63300 30.48900 31.27700
C  48.63200 28.46800 32.39300
C  49.64200 28.11900 33.33200
O  50.54500 27.29100 33.17800
O  49.50800 28.81300 34.52400
C  50.43100 28.33300 35.53000
H  45.61200 22.12800 32.39000
H  46.73000 21.74800 26.03200
H  48.86800 27.54900 25.94400
H  47.96500 25.88100 34.05300
H  45.51400 24.17600 33.91400
H  48.27800 23.86600 34.69900
H  48.05400 22.76500 33.36700
H  47.08000 22.60200 34.85400
H  44.99400 26.22200 34.28100
H  45.83900 27.60500 33.55100
H  45.01600 27.46900 36.03700
H  46.57900 28.26100 35.79900
H  44.29000 20.38100 31.76400
H  45.40700 19.27300 31.06600
H  43.73100 19.40500 30.50900
H  45.29300 18.08500 28.71900
H  44.32600 17.81500 27.30100
H  43.52300 18.60600 28.61100
H  46.84800 23.77600 24.30200
H  49.19100 25.50600 24.67000
H  49.75700 23.30500 24.32900
H  48.44500 22.81000 23.28100
H  48.84300 21.93900 24.82300
H  47.26300 25.85600 22.94300
H  47.44800 27.30200 23.86700
H  45.26700 25.82700 23.34700
H  45.30300 27.15700 24.57800
H  45.39100 25.54400 25.07700
H  50.65800 29.29400 27.05100
H  50.36600 30.39400 28.43200
H  49.27300 30.28600 27.07200
H  47.83100 28.90900 32.98600
H  50.16500 27.36400 35.95400
H  50.29800 28.94300 36.42300
H  51.49800 28.48200 35.36300
Mg 35.65800 48.74300 24.53400
C  35.80200 46.92100 27.60000
C  34.68000 51.54400 26.16700
C  35.01300 50.01100 21.61700
C  36.82000 45.74900 23.07900
N  35.24000 49.18500 26.66400
C  35.41100 48.32200 27.71200
C  35.08200 49.03700 29.03000
C  34.53800 50.45800 28.51000
C  34.84600 50.45800 27.03100
C  33.06000 50.71400 28.85500
C  36.40000 49.05900 29.90900
C  36.27000 48.81300 31.39000
H  34.86200 48.83100 32.03000
N  35.03400 50.53800 23.92800
C  34.66800 51.60900 24.74800
C  34.49400 52.80800 23.84800
C  34.39300 52.33500 22.51600
C  34.84900 50.93800 22.64300
C  34.28200 54.13300 24.42100
C  33.95700 53.02600 21.29100
O  33.99900 52.47100 20.21600
C  33.55900 54.50000 21.29900
N  35.83700 47.98300 22.64800
C  35.58200 48.75100 21.58000
C  35.65400 47.94100 20.30200
C  36.60900 46.78600 20.75700
C  36.36400 46.75600 22.32300
C  34.40000 47.36400 19.64300
C  38.00200 47.04600 20.27500
C  38.80600 45.81800 19.74300
N  36.06600 46.62500 25.11900
C  36.70400 45.61100 24.48900
C  36.89900 44.45000 25.28800
C  36.47500 44.89300 26.54700
C  36.09000 46.27000 26.41000
C  37.46100 43.10900 25.00700
C  36.48200 44.57400 28.00200
O  36.82900 43.55000 28.60200
C  35.99600 45.84400 28.66500
C  34.72400 45.53400 29.37600
O  33.56100 45.36200 28.87800
O  35.09500 45.42800 30.71400
C  33.98800 44.98900 31.51100
H  34.40200 52.43100 26.74000
H  34.87100 50.35200 20.59000
H  37.35300 44.92400 22.60100
H  34.24000 48.54600 29.52000
H  35.11500 51.28600 28.92300
H  32.64300 49.95800 29.52000
H  32.44200 50.79700 27.96100
H  32.84900 51.68600 29.30200
H  36.79300 50.07600 29.88100
H  37.08400 48.28700 29.55800
H  36.82900 49.55600 31.96000
H  36.69300 47.83300 31.61000
H  33.23700 54.39600 24.58700
H  34.70000 54.95000 23.83200
H  34.69200 54.13100 25.43100
H  34.46500 55.00500 21.63600
H  32.72000 54.55200 21.99300
H  33.23100 54.76300 20.29400
H  36.07600 48.58200 19.52800
H  36.18600 45.84700 20.40000
H  34.57400 46.35500 19.27000
H  34.29100 48.03000 18.78700
H  33.46800 47.39700 20.20700
H  38.59000 47.41900 21.11400
H  37.92600 47.73600 19.43400
H  39.04800 45.84700 18.68000
H  38.31900 44.86800 19.96200
H  39.68500 45.83400 20.38800
H  36.76900 42.55200 24.37500
H  37.53000 42.54600 25.93800
H  38.43100 43.13400 24.51000
H  36.88500 46.05300 29.25900
H  33.70700 44.01300 31.11500
H  33.22700 45.73500 31.28100
H  34.20200 45.05700 32.57800

