158

Mg 43.81100 3.66900 46.77500
C  41.86900 6.62300 46.31100
C  40.83600 1.88400 46.87100
C  45.68700 0.91200 46.22600
C  46.63300 5.66700 46.01200
N  41.59300 4.21900 46.49400
C  41.05100 5.48100 46.41800
C  39.55400 5.46000 46.88900
C  39.37100 3.93700 47.29400
C  40.61100 3.28700 46.86900
C  39.08400 3.72200 48.79700
C  38.52000 5.90400 45.76500
C  38.72900 5.60600 44.25500
H  38.97400 6.81900 43.35400
N  43.36900 1.68900 46.64900
C  42.05000 1.13700 46.70300
C  42.25700 -0.30800 46.69700
C  43.60400 -0.63700 46.66200
C  44.30200 0.67600 46.55000
C  41.04200 -1.20800 46.84700
C  44.20600 -1.97200 46.89200
O  43.52200 -2.99800 47.03500
C  45.68800 -2.20900 47.09300
N  45.81000 3.30500 46.11000
C  46.35400 2.07900 46.12200
C  47.87200 2.15400 45.66800
C  48.17300 3.65900 45.66900
C  46.78700 4.29400 45.92900
C  48.75900 1.40600 46.69200
C  48.81700 4.07800 44.31600
C  50.30000 3.80600 44.16400
N  44.24100 5.72600 46.19900
C  45.41500 6.37100 46.06300
C  45.20000 7.77800 45.98900
C  43.83000 7.96800 46.09200
C  43.26500 6.67800 46.25500
C  46.27700 8.84400 45.69800
C  42.79300 8.98000 46.06400
O  42.92400 10.19300 46.04300
C  41.40300 8.11400 46.17900
C  40.60600 8.59800 47.34600
O  40.68400 8.24300 48.51300
O  39.58900 9.41500 46.85800
C  38.73400 9.95300 47.92100
H  39.96100 1.30000 47.16400
H  46.24100 -0.02400 46.12600
H  47.47400 6.35700 45.92400
H  39.37600 6.06900 47.77600
H  38.57600 3.39800 46.77800
H  40.04400 3.87500 49.28900
H  38.83800 2.68000 49.00400
H  38.32100 4.43100 49.11800
H  38.41700 6.98900 45.73200
H  37.53200 5.54200 46.04900
H  37.82300 5.14300 43.86200
H  39.57800 4.92400 44.22500
H  40.25200 -0.77100 47.45800
H  41.24400 -2.20400 47.24200
H  40.56800 -1.30000 45.87000
H  46.26200 -1.41000 47.56400
H  46.14100 -2.27000 46.10400
H  45.89000 -3.06300 47.74000
H  47.83500 1.78600 44.64200
H  48.87300 4.02900 46.41700
H  49.08900 0.50400 46.17800
H  48.14300 1.11400 47.54200
H  49.68700 1.94200 46.89300
H  48.66900 5.14900 44.17700
H  48.28500 3.61900 43.48200
H  50.80200 4.76000 44.00300
H  50.46800 3.21500 43.26400
H  50.74300 3.24500 44.98800
H  46.61600 8.57700 44.69700
H  47.08700 8.78500 46.42500
H  46.01900 9.87700 45.92900
H  40.87600 8.12800 45.22500
H  39.20900 10.89300 48.20000
H  38.61600 9.37500 48.83700
H  37.72500 10.17600 47.57200
Mg -12.04800 16.86200 41.81600
C  -8.82900 15.42000 41.45400
C  -10.83200 19.81500 40.52200
C  -15.22400 17.96300 41.78900
C  -13.25300 13.59500 42.14800
N  -10.01100 17.46100 40.96100
C  -8.83000 16.66700 40.98000
C  -7.66500 17.52200 40.41300
C  -8.26300 18.98100 40.35300
C  -9.81800 18.77800 40.56900
C  -7.60600 20.08400 41.20700
C  -7.16700 16.95700 39.00800
C  -5.69900 17.33000 38.58800
H  -5.47300 17.80800 37.09700
N  -12.91000 18.64900 41.26600
C  -12.25000 19.76400 40.77100
C  -13.15900 20.82100 40.57400
C  -14.36800 20.34900 41.05100
C  -14.22900 18.94000 41.40000
C  -12.84600 22.22300 39.96800
C  -15.60700 21.22700 41.12800
O  -15.72300 22.36900 40.74500
C  -16.93800 20.69900 41.66600
N  -13.93700 15.89100 41.84000
C  -15.07400 16.57500 42.05000
C  -16.35800 15.71700 42.03900
C  -15.69700 14.36100 42.28800
C  -14.23200 14.56400 42.01100
C  -17.52600 16.06400 42.99800
C  -16.26100 13.26300 41.33800
C  -16.45000 11.69900 41.86500
N  -11.21500 14.95900 42.11000
C  -11.85500 13.74000 42.22300
C  -10.81300 12.65500 42.22600
C  -9.61300 13.32400 42.06400
C  -9.94100 14.70200 41.86300
C  -11.03300 11.19500 42.24300
C  -8.17900 13.07200 42.02800
O  -7.52100 12.05400 42.05700
C  -7.63100 14.50200 41.68600
C  -6.75100 14.94300 42.81400
O  -7.10700 14.89200 44.01400
O  -5.57300 15.32700 42.32200
C  -4.50600 15.56400 43.32300
H  -10.35700 20.79200 40.41200
H  -16.27400 18.26100 41.81800
H  -13.76800 12.64900 42.32600
H  -6.82900 17.55300 41.11200
H  -8.07100 19.32600 39.33700
H  -7.24900 20.77500 40.44300
H  -6.79600 19.64500 41.79000
H  -8.30600 20.62100 41.84700
H  -7.89400 17.32500 38.28300
H  -7.19000 15.87600 38.87300
H  -5.14600 16.40300 38.74000
H  -5.28000 17.97000 39.36400
H  -13.39800 22.41600 39.04900
H  -11.77700 22.17600 39.76100
H  -13.11900 22.91200 40.76700
H  -17.60000 21.52700 41.92100
H  -16.75800 20.21200 42.62500
H  -17.50300 20.07500 40.97500
H  -16.83800 15.69500 41.06100
H  -15.73100 14.03200 43.32700
H  -17.35500 16.95600 43.60100
H  -17.71900 15.26500 43.71300
H  -18.46900 16.33000 42.52000
H  -15.70900 13.12100 40.40800
H  -17.27500 13.51800 41.03200
H  -17.46900 11.34400 41.70700
H  -16.23200 11.64800 42.93200
H  -15.81600 11.14800 41.17100
H  -11.65300 10.99600 43.11800
H  -10.12300 10.59700 42.28400
H  -11.60800 10.94300 41.35200
H  -7.04400 14.32400 40.78600
H  -4.91400 16.35300 43.95500
H  -3.59100 15.90100 42.83600
H  -4.36400 14.61600 43.84300

