158

Mg 26.16400 50.62100 27.03600
C  24.15900 51.74000 29.56200
C  28.35500 49.40500 29.42200
C  28.05400 49.30500 24.68100
C  24.08000 51.98900 24.64100
N  26.24000 50.66500 29.19100
C  25.32300 51.11800 30.04600
C  25.72700 50.99400 31.49600
C  27.19500 50.52900 31.37600
C  27.23800 50.22400 29.87300
C  28.17500 51.52800 31.93100
C  24.85600 50.02600 32.24200
C  24.45700 50.34200 33.63500
H  25.48900 50.83200 34.65300
N  27.91600 49.38100 27.06400
C  28.61600 49.02100 28.12400
C  29.78900 48.21300 27.68500
C  29.85700 48.24800 26.26700
C  28.58100 48.98600 25.94100
C  30.84500 47.63900 28.70500
C  30.89800 47.71700 25.29200
O  30.72200 47.85500 24.10400
C  32.07900 47.06000 25.76500
N  26.14200 50.77600 25.05100
C  26.96900 50.01700 24.31200
C  26.66500 50.10500 22.76500
C  25.20100 50.59400 22.79900
C  25.09200 51.14500 24.25900
C  27.68200 51.13200 22.00100
C  24.20900 49.58300 22.41700
C  22.91800 50.10300 21.66800
N  24.55100 51.86300 27.03600
C  23.74600 52.26500 26.01600
C  22.51400 52.76700 26.58500
C  22.63800 52.67100 27.96800
C  23.90100 52.06000 28.19200
C  21.36600 53.29800 25.81000
C  22.02200 52.87900 29.22800
O  20.90600 53.40400 29.53900
C  22.95000 52.24600 30.32600
C  23.37700 53.25900 31.29800
O  24.23900 54.08600 31.10100
O  22.62800 53.09600 32.46100
C  22.85400 54.13700 33.44800
H  29.07000 49.06000 30.17100
H  28.61700 48.90500 23.83500
H  23.38800 52.37600 23.89000
H  25.71300 51.95500 32.01000
H  27.39800 49.65000 31.98700
H  28.53700 51.28100 32.92900
H  27.87300 52.57500 31.90000
H  29.06900 51.53500 31.30700
H  25.38200 49.09100 32.43500
H  23.94600 49.86200 31.66500
H  24.11300 49.36500 33.97400
H  23.69000 51.10700 33.51800
H  30.69400 47.86300 29.76100
H  31.78700 48.01800 28.31100
H  30.90500 46.55400 28.61500
H  32.60900 46.49900 24.99500
H  31.88600 46.23400 26.45000
H  32.80300 47.77000 26.16500
H  26.76400 49.12800 22.29100
H  25.16200 51.48100 22.16600
H  28.24500 51.58200 22.81900
H  27.30300 51.98700 21.44200
H  28.20300 50.53100 21.25700
H  23.83200 49.22100 23.37400
H  24.61900 48.77100 21.81600
H  22.06800 49.90800 22.32200
H  22.78000 49.61900 20.70100
H  22.93300 51.19000 21.58000
H  20.38300 53.22200 26.27500
H  21.30700 52.95300 24.77800
H  21.53100 54.37200 25.73100
H  22.42300 51.45100 30.85400
H  21.92200 54.27700 33.99500
H  23.18000 55.11600 33.09800
H  23.59200 53.84200 34.19300
Mg -5.23100 25.71500 26.23700
C  -4.11800 27.46500 28.97200
C  -6.61200 23.35800 28.34800
C  -6.07500 23.77900 23.48300
C  -2.93200 27.48000 24.20000
N  -5.33500 25.39100 28.40800
C  -4.89900 26.34000 29.33000
C  -5.33400 26.01400 30.69600
C  -5.88400 24.48900 30.52400
C  -5.93500 24.37900 29.01100
C  -5.12300 23.31700 31.09300
C  -6.36700 27.02100 31.28100
C  -7.07900 26.58400 32.59700
H  -6.45400 25.48300 33.45700
N  -6.43300 24.06200 25.92700
C  -7.02300 23.36700 26.96600
C  -7.92100 22.33700 26.36800
C  -7.77600 22.47700 24.92500
C  -6.70800 23.48500 24.71500
C  -8.84600 21.41500 27.22300
C  -8.41800 21.83100 23.80200
O  -8.27400 22.10900 22.64100
C  -9.63100 20.81700 24.00700
N  -4.43500 25.55600 24.17200
C  -5.05200 24.71800 23.27600
C  -4.48800 24.97300 21.88900
C  -3.61300 26.35600 22.08800
C  -3.69100 26.52700 23.56500
C  -3.77500 23.78400 21.26200
C  -4.18000 27.53600 21.21700
C  -3.21700 28.69100 21.00600
N  -3.82100 27.14400 26.50000
C  -2.99700 27.78800 25.59000
C  -2.26200 28.78300 26.31000
C  -2.66700 28.62900 27.67700
C  -3.59500 27.61500 27.70100
C  -1.26300 29.82900 25.77600
C  -2.35200 29.11500 28.94500
O  -1.63800 29.96400 29.44100
C  -3.36500 28.48100 29.86400
C  -2.76700 27.84100 31.00300
O  -1.94500 26.93700 31.00500
O  -3.30500 28.39600 32.16900
C  -2.80600 27.69600 33.35100
H  -7.16900 22.64300 28.95700
H  -6.25200 23.27200 22.53200
H  -2.16200 28.09300 23.72700
H  -4.47000 25.81200 31.32900
H  -6.92100 24.44400 30.85700
H  -4.57000 22.76100 30.33700
H  -5.84600 22.75400 31.68400
H  -4.33800 23.63700 31.77800
H  -7.14900 27.19700 30.54200
H  -5.84000 27.95600 31.47200
H  -8.08600 26.37800 32.23600
H  -7.02600 27.45000 33.25700
H  -8.50900 20.39800 27.02000
H  -9.89300 21.70700 27.13900
H  -8.65400 21.46400 28.29500
H  -9.84000 20.43900 23.00600
H  -10.44800 21.36900 24.47100
H  -9.19400 19.97700 24.54800
H  -5.34500 25.19600 21.25500
H  -2.58800 26.13500 21.79200
H  -3.80000 22.99100 22.00900
H  -2.70900 23.97200 21.13200
H  -4.26700 23.41800 20.36200
H  -5.12400 27.84300 21.66600
H  -4.39200 27.15000 20.22000
H  -2.74800 28.64600 20.02300
H  -2.49700 28.80400 21.81600
H  -3.85400 29.56800 21.12100
H  -0.76800 29.62900 24.82600
H  -0.44400 29.88000 26.49300
H  -1.77200 30.78400 25.64500
H  -3.99800 29.32900 30.12500
H  -2.55000 26.63900 33.27900
H  -3.58800 27.64100 34.10800
H  -2.01200 28.34500 33.71900

