158

Mg 42.88800 42.10700 26.39600
C  41.82700 44.45700 28.81400
C  44.29500 40.32700 28.84000
C  43.73700 39.94800 24.07800
C  42.00600 44.44000 23.85900
N  43.01900 42.45400 28.61000
C  42.39100 43.32200 29.37600
C  42.46300 42.92400 30.88500
C  43.49400 41.71200 30.82800
C  43.61500 41.47300 29.33400
C  44.93600 41.95200 31.37600
C  41.05700 42.72100 31.51600
C  40.72400 43.32300 32.94600
H  41.73800 43.11600 34.09900
N  43.77400 40.29400 26.46100
C  44.39700 39.72900 27.52900
C  44.85000 38.40000 27.22100
C  44.61400 38.25300 25.84900
C  43.98800 39.51300 25.41700
C  45.56900 37.40500 28.22900
C  44.91900 37.11300 24.95400
O  44.94200 37.16200 23.70700
C  45.32900 35.82900 25.64000
N  42.95200 42.13800 24.32800
C  43.21300 41.09100 23.61700
C  43.08200 41.42500 22.12700
C  42.37000 42.82100 22.05600
C  42.48100 43.18300 23.52600
C  44.45000 41.52200 21.35000
C  40.95200 42.71600 21.51700
C  39.87200 41.93700 22.26400
N  42.13600 44.07600 26.31800
C  41.75700 44.88800 25.22200
C  41.12500 46.12000 25.71500
C  41.14700 46.00500 27.16200
C  41.71800 44.72600 27.45600
C  40.59900 47.09700 24.80800
C  40.84600 46.62300 28.41200
O  40.33500 47.72500 28.65600
C  41.16900 45.62800 29.53400
C  42.05300 46.33400 30.52700
O  43.25400 46.49300 30.55300
O  41.19200 46.73600 31.49900
C  41.71700 47.57400 32.61800
H  44.63700 39.65200 29.62800
H  43.99800 39.26000 23.27100
H  41.64100 45.08400 23.05600
H  42.94000 43.74300 31.42300
H  43.20600 40.90200 31.49700
H  45.13500 42.96500 31.72500
H  45.70700 41.62800 30.67700
H  44.99900 41.30400 32.24900
H  40.81400 41.65800 31.52200
H  40.25900 43.15100 30.91100
H  39.77000 42.86900 33.21300
H  40.70100 44.41200 32.95300
H  46.56900 37.40300 27.79600
H  45.25700 36.37300 28.38900
H  45.53700 37.91800 29.19000
H  46.28300 35.94700 26.15300
H  45.12100 35.00300 24.96000
H  44.71000 35.50500 26.47700
H  42.46200 40.69200 21.61100
H  43.03200 43.49300 21.50900
H  45.12400 40.81500 21.83500
H  44.99700 42.45900 21.45900
H  44.30000 41.34500 20.28500
H  40.96300 42.20900 20.55200
H  40.65700 43.73000 21.24800
H  40.26000 41.47400 23.17100
H  39.41300 41.10700 21.72700
H  39.11200 42.65600 22.57100
H  40.32900 47.86300 25.53400
H  39.81500 46.45100 24.41400
H  41.47000 47.26700 24.17500
H  40.28700 45.31800 30.09400
H  42.44800 48.31400 32.29100
H  42.15800 46.97100 33.41200
H  40.96900 48.22200 33.07500
Mg 36.31600 49.74200 24.92000
C  36.65100 48.05500 28.01800
C  35.00200 52.30200 26.75000
C  35.56700 51.18000 22.02400
C  37.32600 46.87300 23.34300
N  35.78700 50.11900 27.13900
C  36.14000 49.32700 28.19900
C  35.83900 49.96200 29.55200
C  35.02700 51.22900 29.11000
C  35.25700 51.24800 27.58100
C  33.56200 51.18500 29.46800
C  37.04300 50.27600 30.49800
C  36.83800 50.03200 32.00800
H  35.43800 50.24400 32.58300
N  35.57800 51.52500 24.42900
C  35.07200 52.43600 25.34000
C  34.74400 53.64600 24.65600
C  34.94300 53.37800 23.21900
C  35.33300 51.96700 23.17900
C  33.99100 54.85000 25.28500
C  34.60700 54.23500 22.02800
O  34.68100 53.89400 20.84300
C  34.34900 55.71800 22.19500
N  36.29700 49.11700 22.97300
C  35.98900 49.91500 21.91800
C  36.21200 49.22800 20.52700
C  37.10800 47.97700 21.00000
C  36.99200 48.02100 22.54700
C  34.87800 48.89600 19.90400
C  38.49900 48.03600 20.33000
C  39.81500 48.01800 21.21900
N  36.94400 47.82800 25.50700
C  37.30600 46.76100 24.73500
C  37.68500 45.60700 25.52600
C  37.43600 46.08200 26.83900
C  36.92300 47.44300 26.78000
C  38.15100 44.35300 25.08900
C  37.31000 45.66100 28.22400
O  37.64700 44.59100 28.69200
C  36.89300 46.94000 28.93900
C  35.73300 46.56800 29.85400
O  34.55800 46.43100 29.54400
O  36.24900 46.18500 31.08300
C  35.23900 45.45700 31.97100
H  34.55900 53.17100 27.24200
H  35.35300 51.71500 21.09600
H  37.62700 45.91200 22.92100
H  35.20800 49.25200 30.08800
H  35.46600 52.16900 29.44400
H  33.16100 50.22800 29.80000
H  32.94100 51.61300 28.68000
H  33.35900 51.82600 30.32600
H  37.32900 51.31900 30.36000
H  37.83200 49.62500 30.12300
H  37.51600 50.75100 32.46700
H  37.22800 49.04900 32.27100
H  34.43200 55.80100 24.98500
H  33.94200 54.92600 26.37100
H  32.95900 54.68300 24.97900
H  34.33000 56.17500 21.20500
H  35.05500 56.29900 22.78900
H  33.37100 55.77800 22.67200
H  36.75300 49.92900 19.89100
H  36.55800 47.07100 20.74400
H  34.86500 49.21800 18.86300
H  34.08900 49.46300 20.39800
H  34.63700 47.83600 19.82500
H  38.47800 48.84300 19.59700
H  38.52700 47.09800 19.77500
H  40.37900 47.18600 20.79800
H  39.59400 47.91700 22.28200
H  40.37200 48.94700 21.10300
H  37.31200 43.74200 24.75500
H  38.64500 43.75100 25.85200
H  38.84500 44.63000 24.29600
H  37.69000 47.31300 29.58200
H  34.78700 44.59900 31.47200
H  34.48000 46.15000 32.33500
H  35.77100 45.18100 32.88100

