158

Mg 25.26900 2.04200 29.76600
C  27.34000 1.98100 32.53700
C  22.46500 2.46900 32.03000
C  23.19600 1.82000 27.13200
C  27.92800 1.25400 27.66600
N  24.91500 2.21800 32.08400
C  25.99400 2.25100 32.90200
C  25.54600 2.53400 34.37900
C  23.93400 2.54100 34.24000
C  23.74100 2.36600 32.71100
C  23.25700 1.49600 35.01600
C  26.27900 3.66100 35.18100
C  27.17100 3.23100 36.42500
H  27.15100 4.08700 37.71100
N  23.14900 1.99600 29.63300
C  22.17500 2.19400 30.64600
C  20.85500 2.03000 30.04100
C  21.10800 1.92800 28.65100
C  22.58200 1.98400 28.41000
C  19.56500 2.20000 30.93300
C  20.05600 1.75200 27.59400
O  20.29200 1.64400 26.35100
C  18.65500 1.80700 27.94800
N  25.50000 1.61800 27.73600
C  24.55100 1.66800 26.82000
C  24.99200 1.69100 25.36700
C  26.50400 1.65800 25.52600
C  26.68200 1.56100 27.09300
C  24.36900 0.65000 24.44300
C  27.16900 2.99800 24.96900
C  26.91000 4.21200 25.84000
N  27.26200 1.84400 30.00200
C  28.22500 1.45300 29.04900
C  29.53600 1.33000 29.71000
C  29.19300 1.47400 31.06000
C  27.78600 1.75300 31.19400
C  30.82200 0.90200 29.09100
C  29.72000 1.36800 32.39600
O  30.89200 1.09200 32.74900
C  28.57600 1.67100 33.39100
C  28.40700 0.55100 34.35100
O  27.68100 -0.44900 34.22100
O  29.26100 0.87000 35.40100
C  29.16300 -0.14000 36.52600
H  21.53700 2.65200 32.57500
H  22.55200 1.77100 26.25100
H  28.71600 1.14500 26.91800
H  25.91600 1.66500 34.92200
H  23.61500 3.50200 34.64400
H  22.91400 0.72600 34.32500
H  22.44200 1.92800 35.59700
H  23.95900 1.04800 35.72000
H  25.52900 4.31800 35.62200
H  26.97500 4.11400 34.47500
H  28.18200 3.33900 36.03100
H  27.05500 2.18000 36.69000
H  19.33000 3.26400 30.89400
H  19.70100 1.99200 31.99400
H  18.69000 1.67500 30.54700
H  18.34100 0.87000 28.40800
H  18.09400 1.98400 27.03000
H  18.43400 2.65800 28.59200
H  24.57700 2.61800 24.97100
H  26.94700 0.74000 25.14000
H  23.42100 0.16100 24.66900
H  25.19600 -0.03100 24.24400
H  24.29200 1.11800 23.46100
H  26.84400 3.14600 23.93900
H  28.21600 2.78800 24.74800
H  26.56900 4.97600 25.14200
H  27.91100 4.36400 26.24400
H  26.16700 3.99500 26.60700
H  30.71700 0.99400 28.01000
H  31.02900 -0.14700 29.30400
H  31.64600 1.49500 29.48900
H  28.85100 2.61600 33.86000
H  28.16100 -0.08200 36.95200
H  29.82000 0.03300 37.37800
H  29.31100 -1.17100 36.20400
Mg 9.79400 47.98500 25.80500
C  7.38600 47.88400 28.35800
C  12.12600 49.08000 27.99800
C  11.79100 48.79700 23.20300
C  7.21100 47.30600 23.48000
N  9.72800 48.35600 27.89500
C  8.66900 48.34000 28.77100
C  9.18500 48.60600 30.25600
C  10.52100 49.36700 29.95200
C  10.87900 48.81800 28.54500
C  10.46400 50.98800 30.05000
C  9.50400 47.29400 30.99500
C  9.12700 47.47700 32.49700
H  9.23000 46.17800 33.34300
N  11.78000 48.54200 25.59300
C  12.60800 48.97700 26.60800
C  13.94500 49.33300 26.09000
C  13.89600 48.97900 24.67100
C  12.46300 48.84000 24.40200
C  15.18000 49.74700 26.93000
C  14.96700 48.86200 23.67600
O  14.80000 48.50900 22.49300
C  16.35900 49.00600 24.19600
N  9.42900 48.12900 23.71300
C  10.45900 48.41700 22.92800
C  10.09400 48.14700 21.44400
C  8.79800 47.38900 21.55000
C  8.44400 47.62200 23.00200
C  10.05200 49.46200 20.55800
C  8.75600 45.92400 21.07300
C  7.91900 45.72700 19.77500
N  7.64400 47.69000 25.89700
C  6.75600 47.40400 24.83700
C  5.39300 47.17000 25.41500
C  5.64300 47.30400 26.82300
C  6.95800 47.59500 27.03200
C  4.09700 46.86500 24.55900
C  4.95100 47.24900 28.08000
O  3.83500 46.97800 28.45400
C  6.12800 47.64900 29.17400
C  6.25300 46.43100 29.94100
O  6.80300 45.38300 29.64500
O  5.46700 46.58900 30.97400
C  5.36600 45.46000 31.92200
H  12.96200 49.38700 28.63000
H  12.46800 49.14500 22.42000
H  6.49300 46.98200 22.72300
H  8.61100 49.24400 30.92700
H  11.33300 49.03000 30.59600
H  10.60900 51.35500 29.03300
H  11.07900 51.27400 30.90400
H  9.41800 51.18900 30.28200
H  10.56400 47.05100 30.92200
H  9.08800 46.41000 30.51200
H  8.07300 47.74300 32.57700
H  9.80100 48.23600 32.89500
H  14.72200 50.03800 27.87500
H  15.64900 50.64300 26.52100
H  15.96800 49.01100 27.09000
H  16.53700 50.00300 24.59900
H  16.99700 48.74600 23.35200
H  16.47600 48.29600 25.01500
H  10.84500 47.49500 20.99600
H  8.01700 47.98300 21.07700
H  9.07900 49.57700 20.08000
H  10.76100 49.26800 19.75400
H  10.43000 50.34300 21.07800
H  8.33900 45.21900 21.79300
H  9.81100 45.68000 20.95100
H  7.21700 44.90000 19.87700
H  8.61100 45.57600 18.94700
H  7.34100 46.59000 19.44400
H  3.81700 45.84200 24.80900
H  4.31400 46.86900 23.49100
H  3.43600 47.68200 24.84800
H  6.00800 48.52000 29.81800
H  5.03800 45.93000 32.84900
H  6.28300 44.91100 32.13400
H  4.59200 44.77200 31.58000

