158

Mg 7.32700 3.05600 27.59200
C  8.87900 1.98600 30.52100
C  5.38500 5.24400 29.50700
C  5.58000 3.86900 24.68500
C  9.14400 0.74900 25.75300
N  7.18500 3.55500 29.79200
C  8.01700 3.06200 30.76600
C  7.67800 3.73700 32.08000
C  6.48000 4.70400 31.75100
C  6.29000 4.49500 30.23800
C  5.15700 4.62000 32.53100
C  8.94900 4.45500 32.70700
C  8.69000 5.36200 33.97900
H  9.60300 5.11200 35.21600
N  5.79700 4.46400 27.13700
C  5.09500 5.20900 28.11600
C  4.10100 5.98500 27.42700
C  4.26900 5.73600 26.03000
C  5.18900 4.61600 25.87100
C  3.16400 7.01000 28.16800
C  3.67900 6.41300 24.79500
O  4.06300 6.20000 23.65300
C  2.89500 7.69100 25.05900
N  7.33900 2.38600 25.51800
C  6.54900 2.81900 24.53300
C  6.70700 2.04300 23.24500
C  7.85900 1.01000 23.52200
C  8.18900 1.41400 25.03500
C  5.43400 1.36000 22.71700
C  9.07700 1.20800 22.63800
C  9.64600 -0.10800 22.05600
N  8.80800 1.72100 27.97900
C  9.42900 0.87800 27.11900
C  10.31200 0.08900 27.98200
C  10.15600 0.45800 29.29500
C  9.23300 1.47800 29.21600
C  11.21900 -1.05400 27.57700
C  10.49200 0.14700 30.70100
O  11.17500 -0.73600 31.19000
C  9.67300 1.18800 31.57200
C  8.93400 0.54500 32.70800
O  7.77100 0.04100 32.60700
O  9.56700 0.80900 33.85800
C  8.91300 0.73500 35.12300
H  4.71500 5.86400 30.10600
H  4.91600 4.01900 23.83100
H  9.73900 -0.06000 25.32200
H  7.42400 3.05300 32.89100
H  6.84800 5.72700 31.81400
H  4.44700 4.15300 31.84900
H  4.76600 5.60900 32.77000
H  5.27700 4.02800 33.43900
H  9.41800 5.04200 31.91700
H  9.66600 3.68100 32.98300
H  7.63200 5.53100 34.17700
H  8.99000 6.40000 33.84000
H  3.50200 8.01800 27.92700
H  3.16500 6.92400 29.25500
H  2.16100 7.01600 27.74100
H  3.50800 8.28000 25.74100
H  1.89100 7.50200 25.43700
H  2.79800 8.27700 24.14500
H  7.02200 2.74000 22.46800
H  7.56900 -0.03800 23.44800
H  4.57000 1.87500 23.13700
H  5.43900 0.30700 22.99800
H  5.25300 1.58300 21.66500
H  9.85100 1.82600 23.09200
H  8.90200 1.78900 21.73200
H  10.36200 0.10700 21.26200
H  8.76200 -0.65400 21.72900
H  10.21000 -0.61900 22.83600
H  12.29200 -0.86000 27.54400
H  10.93500 -1.55100 26.64900
H  10.99100 -1.84300 28.29300
H  10.44300 1.78300 32.06400
H  9.35400 -0.01100 35.78500
H  7.86100 0.46000 35.04700
H  9.01500 1.67000 35.67500
Mg 50.10600 35.52600 29.10200
C  47.45200 34.03300 31.08100
C  50.27800 37.94200 31.53500
C  51.74700 37.43300 27.02600
C  49.30300 33.23100 26.64500
N  48.94600 35.89900 30.95900
C  48.05100 35.13000 31.66400
C  47.87700 35.75000 33.05600
C  48.25600 37.22500 32.85400
C  49.26100 36.99000 31.75000
C  47.04700 38.08900 32.36800
C  48.64900 34.94000 34.10100
C  50.05200 35.37400 34.66800
H  50.12400 35.90100 36.05100
N  51.07500 37.35100 29.36000
C  51.11600 38.12000 30.46700
C  51.98000 39.26200 30.22400
C  52.35000 39.20400 28.84600
C  51.75600 37.97500 28.37000
C  51.97700 40.50700 31.15200
C  53.04200 40.22200 27.91700
O  53.02900 40.08600 26.71900
C  53.74900 41.45500 28.49800
N  50.50400 35.28300 27.08100
C  51.15100 36.30400 26.40100
C  51.34000 35.89300 24.93800
C  50.64900 34.50900 24.78400
C  50.19100 34.28800 26.21700
C  50.93500 36.91500 23.88300
C  51.34800 33.21800 24.15300
C  50.74200 32.73100 22.82900
N  48.75000 33.88100 28.90800
C  48.56000 33.03400 27.81500
C  47.61300 31.97800 28.19400
C  47.10000 32.37100 29.46600
C  47.80000 33.58200 29.79000
C  47.15000 30.87000 27.30100
C  46.12500 32.03500 30.48900
O  45.44000 30.99800 30.65600
C  46.28700 33.18400 31.52400
C  46.40600 32.49200 32.93200
O  46.98800 31.44100 33.23100
O  45.89800 33.31500 33.90500
C  45.78700 32.66500 35.25500
H  50.24800 38.62700 32.38500
H  52.23200 37.93100 26.18400
H  49.06700 32.47000 25.89800
H  46.89100 35.71300 33.52100
H  48.71900 37.74300 33.69300
H  46.21900 37.47300 32.01600
H  47.33200 38.71100 31.52000
H  46.65100 38.75500 33.13500
H  48.81400 33.94400 33.68900
H  48.08100 34.79900 35.02100
H  50.42300 36.22500 34.09600
H  50.74600 34.53400 34.70700
H  51.29000 41.31300 30.89300
H  52.98900 40.90900 31.11300
H  51.74200 40.19700 32.17100
H  54.27700 41.10800 29.38600
H  52.96200 42.16200 28.76300
H  54.38700 42.01300 27.81400
H  52.41600 35.71400 24.92400
H  49.76900 34.53700 24.14200
H  50.22900 37.69800 24.16100
H  50.52600 36.34300 23.05100
H  51.73900 37.52000 23.46400
H  51.23800 32.42500 24.89300
H  52.40400 33.40200 23.95600
H  50.08800 31.88200 23.02800
H  51.53200 32.57800 22.09500
H  50.01400 33.42400 22.40600
H  46.06500 30.78200 27.35600
H  47.67600 29.95000 27.55700
H  47.55500 31.14100 26.32600
H  45.39400 33.80800 31.50600
H  46.73500 32.50900 35.76800
H  45.23500 31.72900 35.33600
H  45.24000 33.20800 36.02600

