158

Mg 43.77100 2.81700 46.79000
C  42.59400 6.00700 45.75800
C  40.66500 1.59200 45.91000
C  45.05500 -0.30200 46.84000
C  46.92600 4.18000 46.85400
N  41.86600 3.74700 45.90600
C  41.59800 5.01600 45.62900
C  40.19900 5.19300 45.08400
C  39.45300 3.83500 45.56800
C  40.72900 2.99200 45.86100
C  38.71700 3.95400 46.94100
C  40.08900 5.54500 43.59800
C  39.46000 6.89500 43.26300
H  38.47400 6.76100 42.17000
N  42.98500 0.87800 46.38200
C  41.67100 0.58600 46.12000
C  41.54000 -0.87900 46.04900
C  42.80300 -1.50100 46.24900
C  43.67400 -0.30600 46.45900
C  40.25100 -1.52300 45.75700
C  43.09500 -3.02600 46.25000
O  42.13400 -3.83800 46.15800
C  44.48000 -3.57300 46.51200
N  45.73600 2.03500 46.71800
C  45.94600 0.73100 47.02700
C  47.28700 0.50700 47.68100
C  47.86400 1.95500 47.65900
C  46.80200 2.81800 46.99700
C  47.34400 -0.29500 49.01400
C  49.33000 2.06500 47.02600
C  50.43500 2.40600 47.91000
N  44.60200 4.71500 46.59000
C  45.91700 5.10800 46.54500
C  45.99200 6.55400 46.50600
C  44.67200 6.95100 46.24900
C  43.86000 5.73100 46.16300
C  47.18200 7.41900 46.62800
C  43.86700 8.11500 45.98800
O  44.16400 9.31000 45.88900
C  42.49900 7.46700 45.62000
C  41.47400 8.05100 46.47800
O  41.21800 7.62900 47.58000
O  40.79800 9.09300 45.87600
C  39.83800 9.79400 46.68600
H  39.63600 1.22500 45.89600
H  45.33300 -1.22200 47.35900
H  47.87100 4.60600 47.19700
H  39.70300 5.99200 45.63500
H  38.71900 3.34700 44.92700
H  38.29400 4.95900 46.95100
H  39.47600 3.84800 47.71600
H  38.01100 3.12400 46.96900
H  39.47000 4.87400 43.00300
H  41.08100 5.46500 43.15600
H  40.20300 7.64800 43.00000
H  39.00200 7.34700 44.14300
H  39.77700 -1.01900 44.91400
H  39.53400 -1.49500 46.57800
H  40.38700 -2.54700 45.40900
H  44.64100 -3.39500 47.57600
H  44.99900 -2.85700 45.87400
H  44.51400 -4.61700 46.20200
H  47.91900 -0.11500 47.04700
H  47.86700 2.35100 48.67400
H  46.36600 -0.19500 49.48500
H  48.06800 0.16800 49.68400
H  47.55900 -1.35700 48.89700
H  49.28100 2.89000 46.31600
H  49.56800 1.12100 46.53700
H  51.29700 1.77700 47.69000
H  50.24200 2.56900 48.97000
H  50.80600 3.38800 47.61800
H  47.42700 7.54900 47.68200
H  46.96400 8.43300 46.29100
H  47.98500 6.89900 46.10400
H  42.35600 7.61500 44.54900
H  38.93700 10.07300 46.14000
H  40.32000 10.71900 47.00100
H  39.43500 9.21100 47.51400
Mg -8.75300 40.26200 43.09000
C  -7.72600 37.11900 41.89900
C  -5.90000 41.67000 41.57400
C  -10.22200 43.33600 43.20000
C  -11.78800 38.80400 44.09900
N  -7.02100 39.46800 41.69400
C  -6.82600 38.17200 41.45000
C  -5.64000 37.98900 40.49900
C  -4.87400 39.35000 40.63600
C  -5.94600 40.26700 41.31100
C  -3.57300 39.25800 41.53700
C  -6.07400 37.47800 39.03100
C  -5.19400 36.33000 38.52400
H  -4.22200 36.65400 37.39700
N  -8.18300 42.20000 42.48600
C  -6.96500 42.55400 42.00000
C  -6.85400 44.01900 41.98200
C  -8.03700 44.52800 42.61200
C  -8.87900 43.35100 42.74600
C  -5.82100 44.78900 41.27000
C  -8.24500 45.95800 42.80700
O  -7.30100 46.76000 42.74000
C  -9.63700 46.54200 43.14700
N  -10.68500 40.92800 43.52700
C  -11.05200 42.23600 43.53400
C  -12.49800 42.44900 43.86300
C  -12.99600 41.00600 44.28700
C  -11.77300 40.16800 43.97600
C  -12.77100 43.49600 45.02500
C  -14.37200 40.52500 43.70100
C  -14.35900 40.34800 42.13100
N  -9.51300 38.26800 43.22100
C  -10.73900 37.88700 43.70200
C  -10.74000 36.43700 43.64900
C  -9.55200 36.07400 42.91500
C  -8.88800 37.22300 42.69100
C  -11.78600 35.48700 44.16400
C  -8.84100 34.95500 42.31100
O  -9.04400 33.71100 42.28300
C  -7.58300 35.65700 41.56700
C  -6.39000 34.97100 42.10700
O  -5.97100 34.94000 43.24500
O  -5.82700 34.13100 41.19000
C  -4.68700 33.27400 41.63000
H  -4.99700 42.20400 41.27100
H  -10.72900 44.28900 43.36600
H  -12.69200 38.30000 44.44900
H  -5.09500 37.13100 40.89300
H  -4.53600 39.74700 39.67800
H  -3.54700 38.18900 41.74900
H  -3.71700 39.83400 42.45200
H  -2.63500 39.49300 41.03400
H  -6.06700 38.40900 38.46400
H  -7.13200 37.23500 39.13400
H  -5.87400 35.55200 38.17900
H  -4.50500 35.89300 39.24600
H  -6.16500 45.42700 40.45600
H  -5.03200 44.27200 40.72300
H  -5.22300 45.37300 41.96900
H  -9.63700 47.62400 43.28100
H  -9.89900 46.09900 44.10800
H  -10.39600 46.31700 42.39800
H  -13.02100 42.75000 42.95500
H  -13.01700 40.89200 45.37100
H  -13.67700 43.19800 45.55200
H  -12.88700 44.54000 44.73200
H  -11.93800 43.50300 45.72800
H  -15.03600 41.35000 43.95600
H  -14.70900 39.57200 44.10900
H  -13.37400 40.60300 41.73900
H  -15.04600 41.05600 41.66800
H  -14.72000 39.33800 41.93800
H  -11.33600 34.50300 44.03200
H  -12.55200 35.69600 43.41700
H  -12.24800 35.70800 45.12600
H  -7.63300 35.50700 40.48800
H  -3.84000 33.96000 41.59600
H  -4.51200 32.64400 40.75900
H  -4.65400 32.65400 42.52600

