158

Mg 17.42600 -0.68600 27.71900
C  16.18800 1.12900 30.34800
C  19.67400 -2.25900 29.77700
C  18.81200 -2.09200 25.01600
C  15.52300 1.43400 25.58300
N  17.87700 -0.58300 29.73800
C  17.08200 0.06500 30.64800
C  17.53500 -0.25200 32.05200
C  18.84600 -1.04900 31.88700
C  18.82600 -1.34600 30.35800
C  20.22700 -0.22800 32.24800
C  16.42000 -0.86800 33.04500
C  16.71000 -0.95800 34.57700
H  17.98900 -0.19900 35.13600
N  18.93500 -2.07900 27.41800
C  19.71400 -2.69800 28.38300
C  20.50500 -3.72100 27.84500
C  20.24100 -3.70900 26.43400
C  19.28900 -2.67100 26.26700
C  21.49800 -4.63500 28.64800
C  20.77300 -4.58900 25.29700
O  20.34200 -4.50000 24.14000
C  21.65700 -5.74300 25.56500
N  17.30600 -0.28400 25.59500
C  18.02100 -0.96100 24.67800
C  17.82200 -0.32100 23.22700
C  16.56200 0.54900 23.44100
C  16.49900 0.59500 24.97400
C  19.11100 0.34000 22.68600
C  15.27200 -0.06600 22.74900
C  14.22000 0.75300 21.99700
N  16.03600 0.90400 27.83700
C  15.32300 1.69300 26.95500
C  14.51200 2.68500 27.66500
C  14.86500 2.43200 28.99800
C  15.80600 1.43700 29.01200
C  13.63000 3.76100 27.04700
C  14.64600 2.90700 30.34800
O  13.90700 3.79800 30.72400
C  15.50100 2.06000 31.29700
C  16.34700 2.97500 32.10400
O  17.28000 3.60500 31.65500
O  15.61100 3.17000 33.29100
C  16.22900 4.09800 34.17600
H  20.24000 -2.75300 30.57000
H  19.14100 -2.50000 24.05900
H  14.82600 2.03700 24.99800
H  17.84800 0.73100 32.40200
H  18.84400 -1.95700 32.49200
H  20.95400 -0.35400 31.44500
H  20.72100 -0.59600 33.14700
H  20.09000 0.80900 32.55800
H  16.04900 -1.81500 32.65200
H  15.54600 -0.22000 32.97300
H  16.72000 -1.99100 34.92400
H  15.90200 -0.50400 35.15000
H  21.25500 -4.74200 29.70500
H  22.54500 -4.44400 28.41200
H  21.35800 -5.65700 28.29800
H  22.44900 -5.67100 26.31000
H  22.18300 -6.05500 24.66200
H  20.97500 -6.49800 25.95600
H  17.66400 -1.10000 22.48100
H  16.69800 1.59900 23.17900
H  18.93000 1.37800 22.40800
H  19.44700 -0.20200 21.80200
H  19.93000 0.40600 23.40200
H  14.62000 -0.45400 23.53200
H  15.59300 -0.81900 22.03000
H  13.93000 0.35800 21.02400
H  14.52600 1.77300 21.76200
H  13.38400 0.82800 22.69200
H  12.71800 3.76300 27.64300
H  13.28900 3.37200 26.08800
H  14.07300 4.74900 26.92700
H  14.83700 1.38400 31.83700
H  16.91500 3.47500 34.75100
H  15.52900 4.64500 34.80600
H  16.69200 4.95200 33.68100
Mg 48.18900 34.91000 27.81900
C  46.29700 33.28500 30.22900
C  48.34800 37.66800 30.07400
C  49.37100 36.99900 25.39700
C  47.62700 32.44800 25.60800
N  47.39800 35.35200 29.92100
C  46.79400 34.45500 30.74600
C  46.86300 35.02800 32.20600
C  47.06000 36.50600 31.93300
C  47.68100 36.50600 30.55300
C  45.80600 37.41500 32.22300
C  48.14700 34.34800 32.87600
C  48.44700 34.51700 34.36700
H  47.54100 35.48600 35.20300
N  48.84800 36.98100 27.74900
C  48.90000 37.88900 28.81400
C  49.66300 39.02000 28.43500
C  49.91000 38.93600 27.02700
C  49.28500 37.61400 26.63200
C  49.95600 40.16800 29.39200
C  50.65100 39.92300 26.02900
O  50.80500 39.62700 24.86200
C  51.12300 41.29000 26.50800
N  48.22200 34.89100 25.73700
C  48.88300 35.74900 24.94400
C  48.99300 35.21900 23.51400
C  48.63900 33.69600 23.69900
C  48.16500 33.66900 25.12900
C  48.07500 36.07100 22.54600
C  49.83900 32.82700 23.33600
C  49.39400 31.58200 22.52900
N  47.23800 33.09500 27.87700
C  47.04300 32.17500 26.94100
C  46.41100 30.96700 27.43800
C  46.08600 31.36800 28.72900
C  46.58700 32.71900 28.95900
C  45.93600 29.69800 26.76000
C  45.31600 31.07100 29.99100
O  44.61800 30.08700 30.24500
C  45.38500 32.29200 30.93200
C  45.76200 31.74800 32.33100
O  46.66700 31.00500 32.59300
O  44.82400 32.12300 33.21900
C  45.11100 31.79400 34.62700
H  48.48500 38.39600 30.87600
H  49.75300 37.54700 24.53300
H  47.49000 31.71300 24.81100
H  45.98400 34.69200 32.75600
H  47.71000 36.95500 32.68400
H  44.92100 36.87200 32.55400
H  45.40600 38.05900 31.44100
H  45.91900 38.04400 33.10600
H  49.07500 34.66700 32.40100
H  48.18100 33.26400 32.77200
H  49.44700 34.89800 34.57300
H  48.43500 33.58200 34.92800
H  50.97000 40.54500 29.25400
H  49.92700 39.87900 30.44200
H  49.27100 41.00400 29.25300
H  50.43200 41.71800 27.23400
H  51.13300 41.91000 25.61100
H  52.13900 41.23400 26.89900
H  50.04000 35.34900 23.24000
H  47.75000 33.39600 23.14400
H  47.18400 35.44600 22.50300
H  48.47400 36.42300 21.59500
H  47.98200 37.00300 23.10400
H  50.34500 32.48400 24.23800
H  50.62300 33.38200 22.82000
H  48.82100 31.83200 21.63600
H  48.71800 31.02600 23.17800
H  50.18800 30.91400 22.19600
H  44.98200 29.56600 26.25000
H  45.73300 28.92700 27.50300
H  46.71400 29.35600 26.07700
H  44.44100 32.82700 31.03800
H  46.05300 31.28400 34.82800
H  44.25700 31.14100 34.80700
H  45.14400 32.74800 35.15400

