158

Mg 44.99100 4.60600 47.18700
C  43.25400 7.63900 46.72200
C  42.00800 3.00500 46.41900
C  46.78700 1.80300 46.85800
C  47.93400 6.54300 47.06400
N  42.85400 5.30000 46.55200
C  42.38600 6.55700 46.61400
C  40.88400 6.60700 46.32100
C  40.50400 5.09400 46.33600
C  41.84500 4.40100 46.43200
C  39.54900 4.58200 47.40900
C  40.41700 7.54900 45.18900
C  41.13500 7.70200 43.84800
H  40.30300 7.32800 42.60100
N  44.44200 2.68800 46.78500
C  43.15800 2.18000 46.55800
C  43.20800 0.78300 46.31400
C  44.61500 0.44500 46.47100
C  45.30900 1.69800 46.74400
C  42.07600 -0.04600 45.73300
C  45.15200 -0.97500 46.21900
O  44.39900 -1.89700 46.02700
C  46.67500 -1.29600 46.24700
N  47.09400 4.25700 46.85400
C  47.55300 2.94300 47.05500
C  49.10200 2.88600 47.09300
C  49.43100 4.35800 47.02700
C  48.06600 5.12100 46.93100
C  49.58400 2.08100 48.38500
C  50.38500 4.86800 45.86600
C  51.56800 5.89600 46.17300
N  45.53900 6.70300 47.08700
C  46.75200 7.31000 47.12300
C  46.59400 8.79400 47.21100
C  45.22100 8.95300 47.08000
C  44.62000 7.63400 46.91800
C  47.72900 9.84500 47.23600
C  44.16900 9.92200 46.91300
O  44.23900 11.15600 46.99800
C  42.92200 9.09900 46.67700
C  41.96400 9.39300 47.76600
O  41.72400 8.68200 48.75000
O  41.33700 10.51200 47.47800
C  39.94400 10.41100 47.96100
H  41.07800 2.47000 46.22200
H  47.41600 0.91500 46.94300
H  48.83400 7.14800 47.19100
H  40.43600 7.12000 47.17200
H  40.17500 4.80100 45.33900
H  38.81500 5.27500 47.81900
H  40.16900 4.30600 48.26200
H  38.92800 3.73000 47.13400
H  40.22400 8.56800 45.52200
H  39.44700 7.20700 44.82900
H  42.07200 7.14600 43.79900
H  41.29500 8.77400 43.73100
H  42.38300 -0.50900 44.79500
H  41.20300 0.58900 45.58700
H  41.96900 -0.89200 46.41200
H  46.72700 -2.37600 46.11100
H  47.02600 -1.01600 47.24000
H  47.30000 -0.75100 45.53900
H  49.31300 2.42300 46.12900
H  49.86300 4.74900 47.94800
H  49.37300 1.01200 48.39900
H  49.14200 2.57800 49.24900
H  50.65200 2.26100 48.50500
H  49.83600 5.22200 44.99400
H  50.90900 3.98100 45.51100
H  51.38800 6.75100 45.52200
H  52.52700 5.48700 45.85600
H  51.50400 6.30400 47.18200
H  48.12500 10.19500 46.28300
H  48.46000 9.16000 47.66700
H  47.70600 10.64700 47.97300
H  42.41300 9.41600 45.76700
H  39.37900 11.25300 47.56000
H  39.84100 10.32100 49.04300
H  39.40300 9.56100 47.54600
Mg 34.71100 2.43300 29.61700
C  32.52700 3.42500 32.12600
C  37.27900 2.43300 31.80000
C  36.73400 1.46000 27.05500
C  32.11300 2.96800 27.31900
N  34.90600 2.92000 31.63300
C  33.85300 3.23200 32.51100
C  34.32600 3.13000 33.99100
C  35.90200 3.25300 33.79100
C  36.05400 2.81300 32.32200
C  36.46300 4.67700 34.07700
C  33.86700 1.84600 34.72400
C  33.13000 2.09200 36.09900
H  33.72000 3.09000 37.02900
N  36.71700 1.96000 29.47500
C  37.58600 1.95700 30.49000
C  38.85800 1.47600 29.98500
C  38.76100 1.23500 28.64200
C  37.35600 1.49400 28.30900
C  40.01700 1.28200 30.91100
C  39.80500 0.76700 27.66300
O  39.62400 0.68600 26.48200
C  41.18500 0.48700 28.13800
N  34.46300 2.17100 27.54300
C  35.44400 1.80100 26.69100
C  34.98500 1.75600 25.28600
C  33.42300 1.95700 25.44700
C  33.30900 2.43100 26.89800
C  35.58500 2.79600 24.29800
C  32.57000 0.65400 25.27200
C  31.43700 0.71800 24.17200
N  32.80600 3.11900 29.59000
C  31.82500 3.26500 28.67700
C  30.54500 3.71400 29.25500
C  30.79700 3.65800 30.62500
C  32.14600 3.34000 30.78000
C  29.24200 3.92900 28.47900
C  30.18100 3.72000 31.92200
O  29.04000 3.86800 32.34600
C  31.38900 3.66700 32.92400
C  31.51800 5.07700 33.45300
O  31.87400 6.09100 32.84800
O  31.02500 5.15700 34.76100
C  31.21600 6.45400 35.40200
H  38.12000 2.60100 32.47600
H  37.32000 1.07700 26.21700
H  31.28600 3.04500 26.61000
H  33.76800 3.99700 34.34300
H  36.49100 2.56000 34.39200
H  37.37800 4.68000 34.67000
H  35.70400 5.23700 34.62300
H  36.78900 5.27700 33.22800
H  34.74900 1.21800 34.84600
H  33.10400 1.27600 34.19300
H  33.25300 1.20500 36.72000
H  32.05300 2.08400 35.92900
H  40.48100 0.30400 30.78300
H  39.78400 1.37600 31.97100
H  40.78200 2.00900 30.63700
H  41.89800 0.38600 27.32100
H  41.17500 -0.33800 28.85000
H  41.40900 1.42400 28.64800
H  35.23000 0.74900 24.94900
H  33.09700 2.80500 24.84400
H  36.21100 2.21100 23.62400
H  36.13000 3.54100 24.87600
H  34.78500 3.28400 23.74100
H  32.01800 0.51300 26.20200
H  33.17300 -0.24000 25.11600
H  30.46800 0.38400 24.54500
H  31.77000 0.05000 23.37800
H  31.33300 1.73000 23.78100
H  29.55200 4.45300 27.57400
H  28.69700 4.74400 28.95500
H  28.69000 2.99800 28.35100
H  31.15800 2.97900 33.73800
H  30.85100 7.25400 34.75800
H  32.27300 6.49700 35.66400
H  30.65100 6.34700 36.32900

