158

Mg 26.41800 50.77400 26.41700
C  24.03400 51.72500 28.97700
C  28.44200 49.72000 29.04600
C  28.80800 50.24600 24.21500
C  24.37200 52.29900 24.16700
N  26.18700 50.62500 28.69900
C  25.11600 51.06200 29.54100
C  25.43500 50.80700 31.07100
C  26.91300 50.22100 31.04900
C  27.17700 50.07300 29.54700
C  27.89500 51.17100 31.83500
C  24.45300 49.82300 31.68800
C  24.04700 50.07000 33.20700
H  24.99000 50.75800 34.22800
N  28.38200 50.12400 26.56300
C  28.96900 49.67600 27.71300
C  30.22900 48.99700 27.38200
C  30.43900 49.33600 26.01400
C  29.18100 49.94200 25.54000
C  31.04800 48.16900 28.34500
C  31.70900 49.09300 25.14100
O  31.86800 49.43800 24.00200
C  32.90200 48.36600 25.81700
N  26.56200 51.35700 24.53900
C  27.57300 50.80600 23.76100
C  27.24500 51.02500 22.26000
C  25.71400 51.38600 22.26900
C  25.53600 51.72000 23.72300
C  28.09500 52.15600 21.59700
C  24.65900 50.36800 21.86200
C  23.58600 50.65900 20.82000
N  24.58800 51.80000 26.48000
C  23.89400 52.31700 25.48400
C  22.61000 52.91600 25.91700
C  22.61300 52.67100 27.30200
C  23.84900 51.97800 27.59100
C  21.54900 53.62000 25.05000
C  21.90700 52.91000 28.50700
O  20.86800 53.51000 28.69800
C  22.81000 52.32300 29.62400
C  23.27800 53.50100 30.45800
O  24.10700 54.32600 30.13600
O  22.75300 53.35500 31.76900
C  23.00200 54.55000 32.61100
H  29.05100 49.35500 29.87600
H  29.40600 49.97000 23.34400
H  23.61200 52.53700 23.41900
H  25.36200 51.80600 31.50200
H  26.95300 49.25700 31.55500
H  28.76100 51.50200 31.26200
H  28.13100 50.54200 32.69300
H  27.36500 52.02600 32.25400
H  24.83100 48.80400 31.76200
H  23.59100 49.73900 31.02700
H  23.70800 49.11700 33.61300
H  23.14100 50.67500 33.16700
H  30.63700 48.23400 29.35200
H  32.04600 48.59800 28.43400
H  31.12200 47.13300 28.01600
H  33.75600 48.31800 25.14100
H  32.69600 47.30900 25.98400
H  33.20900 48.85900 26.73900
H  27.34600 50.11400 21.66900
H  25.52500 52.34300 21.78300
H  28.98700 52.38100 22.18000
H  27.53500 53.09000 21.53700
H  28.40400 51.84100 20.60000
H  24.14000 49.90700 22.70200
H  25.32300 49.58200 21.50200
H  23.77600 50.26200 19.82300
H  23.46200 51.74100 20.79900
H  22.73200 50.08200 21.17800
H  20.64100 53.04900 25.24500
H  21.90400 53.73300 24.02500
H  21.44300 54.65600 25.37100
H  22.28400 51.59300 30.23900
H  23.10900 55.47000 32.03500
H  23.84100 54.43300 33.29800
H  22.08100 54.62200 33.19000
Mg -10.63400 16.64600 43.11600
C  -7.12800 17.23600 42.86700
C  -11.14800 19.94400 42.58900
C  -13.76100 15.97800 43.32500
C  -9.94700 13.20400 43.58600
N  -9.23000 18.42100 42.60100
C  -7.91500 18.42800 42.63600
C  -7.36600 19.83900 42.31400
C  -8.61200 20.76500 42.56100
C  -9.72600 19.70800 42.49000
C  -8.62600 21.56000 43.91700
C  -6.82100 20.04500 40.89900
C  -5.47200 20.84000 40.91700
H  -4.28800 20.08300 40.26500
N  -12.25400 17.73800 42.77100
C  -12.30300 19.11100 42.55400
C  -13.65600 19.52000 42.47400
C  -14.45900 18.40100 42.87300
C  -13.50400 17.32400 43.08000
C  -14.06900 20.91700 42.02000
C  -16.03700 18.36800 42.94000
O  -16.64300 19.28600 42.42400
C  -16.81100 17.21400 43.49800
N  -11.77000 14.72100 43.14700
C  -12.97300 14.83500 43.49800
C  -13.59800 13.46100 43.76700
C  -12.38600 12.50100 43.65500
C  -11.28200 13.49500 43.43100
C  -14.43400 13.41000 45.09400
C  -12.36700 11.48400 42.43400
C  -12.49500 10.00100 42.73400
N  -8.91100 15.37700 43.15700
C  -8.80900 14.02300 43.40100
C  -7.36500 13.72200 43.51400
C  -6.68200 14.89400 43.25300
C  -7.64200 15.94800 43.10000
C  -6.86900 12.31400 43.86300
C  -5.36000 15.51200 43.11700
O  -4.22900 15.00500 43.22700
C  -5.58600 17.01400 43.01000
C  -5.06800 17.50400 44.29500
O  -5.62900 17.35300 45.40100
O  -3.90600 18.15600 44.05500
C  -3.34800 18.65700 45.30400
H  -11.37600 20.97800 42.32400
H  -14.83200 15.77400 43.26200
H  -9.81000 12.20200 43.99900
H  -6.65900 20.25500 43.03200
H  -8.72200 21.52900 41.79200
H  -7.91500 21.08200 44.59100
H  -9.61600 21.62900 44.36800
H  -8.32600 22.58900 43.71900
H  -7.53700 20.66500 40.36000
H  -6.66600 19.03300 40.52600
H  -5.07200 21.09000 41.90000
H  -5.68200 21.79800 40.44100
H  -14.88300 21.28800 42.64300
H  -14.41000 20.69800 41.00800
H  -13.33200 21.71500 41.93300
H  -17.81900 17.47800 43.82100
H  -16.32700 16.85100 44.40500
H  -16.90800 16.42100 42.75700
H  -14.23700 13.30700 42.89800
H  -12.26200 12.02400 44.62700
H  -15.28400 14.07100 44.92600
H  -13.89400 13.82100 45.94700
H  -14.61900 12.35900 45.31800
H  -11.35200 11.61200 42.05700
H  -13.03100 11.80700 41.63200
H  -13.47900 9.75300 43.13100
H  -11.56500 9.80100 43.26700
H  -12.37300 9.52600 41.76000
H  -6.06900 12.40800 44.59700
H  -6.53200 11.73100 43.00500
H  -7.71300 11.83500 44.35800
H  -5.01600 17.42700 42.17800
H  -2.33900 19.04700 45.17700
H  -3.23000 17.82000 45.99100
H  -4.01000 19.46400 45.61700

