158

Mg 26.61300 50.45200 25.99600
C  24.83300 51.40300 28.85300
C  29.39700 49.53800 28.14900
C  28.57400 49.74900 23.34900
C  24.27300 51.76800 24.04900
N  27.02400 50.51800 28.22300
C  26.08700 50.82200 29.20300
C  26.55500 50.47400 30.57100
C  28.03600 49.96000 30.36500
C  28.21200 50.10400 28.83000
C  29.08800 50.79400 31.12200
C  25.71300 49.33400 31.37000
C  25.02900 49.86000 32.70100
H  25.92700 50.34300 33.91300
N  28.61700 49.73700 25.83700
C  29.57400 49.48800 26.76200
C  30.86700 49.35800 26.08900
C  30.73700 49.30300 24.70600
C  29.24000 49.55200 24.55100
C  32.16100 49.28300 26.80200
C  31.68100 49.02600 23.60700
O  31.45400 48.99800 22.40700
C  33.12600 48.92400 24.03300
N  26.58200 50.85400 23.92400
C  27.31400 50.29500 23.02500
C  26.70300 50.32300 21.60500
C  25.22800 50.85300 21.89900
C  25.38000 51.21600 23.38600
C  27.58300 51.11500 20.57100
C  24.02400 49.92900 21.55100
C  22.69000 50.51000 21.17300
N  24.90400 51.44200 26.27900
C  24.01500 51.89200 25.41000
C  22.88500 52.44100 26.15800
C  23.26900 52.42400 27.49400
C  24.45400 51.68500 27.53500
C  21.63900 52.99100 25.56100
C  22.77500 52.69700 28.80300
O  21.79600 53.15900 29.23200
C  23.84900 52.10200 29.73800
C  24.37400 53.25300 30.63900
O  25.36900 53.90800 30.41200
O  23.50200 53.40000 31.69000
C  23.86900 54.33400 32.81400
H  30.21100 49.24100 28.81400
H  29.11400 49.41500 22.46000
H  23.36300 51.99000 23.48600
H  26.50000 51.44600 31.06100
H  28.15500 48.92200 30.67600
H  29.49500 50.20500 31.94400
H  28.53900 51.64700 31.52100
H  29.85000 51.25500 30.49300
H  26.30300 48.44000 31.57200
H  24.93300 49.09400 30.64700
H  24.27000 49.14300 33.01400
H  24.51600 50.76400 32.37300
H  31.97800 49.63000 27.81900
H  32.85900 50.07600 26.53600
H  32.74200 48.36000 26.78800
H  33.29100 48.06500 24.68400
H  33.40500 49.93100 24.34300
H  33.62300 48.59200 23.12100
H  26.68400 49.32100 21.17700
H  25.27300 51.70300 21.21800
H  28.31900 51.59700 21.21500
H  27.05000 52.02700 20.30400
H  28.07200 50.62300 19.73000
H  23.98200 49.35000 22.47400
H  24.16800 49.38400 20.61800
H  22.62800 51.59000 21.31100
H  21.99400 49.81800 21.64800
H  22.51400 50.38300 20.10400
H  21.12500 52.33700 24.85700
H  22.02100 53.83100 24.98100
H  20.87600 53.31800 26.26700
H  23.56800 51.31200 30.43500
H  24.80400 54.13700 33.33800
H  23.03500 54.45700 33.50500
H  23.98000 55.31400 32.34900
Mg 10.06900 47.55000 26.59300
C  8.29700 47.68100 29.50800
C  12.75600 49.05600 28.14900
C  11.65200 47.39700 23.72900
C  7.01300 46.56200 24.84500
N  10.40200 48.37100 28.56500
C  9.59000 48.08400 29.67600
C  10.28800 48.47600 30.98200
C  11.63000 49.19000 30.47500
C  11.65100 48.73600 29.00400
C  11.49300 50.79200 30.58200
C  10.60500 47.22800 31.82100
C  10.81400 47.42600 33.33800
H  10.35800 46.30000 34.23100
N  12.02000 48.06800 26.04300
C  12.93400 48.72700 26.78300
C  14.15300 48.84100 26.04300
C  13.84000 48.32100 24.67300
C  12.43800 47.94300 24.75800
C  15.54200 49.25700 26.70000
C  14.81900 48.20900 23.42700
O  14.38800 47.95200 22.31300
C  16.33100 48.58200 23.57000
N  9.31900 47.25400 24.50600
C  10.31900 47.05400 23.56600
C  9.73000 46.46600 22.23200
C  8.30200 46.16600 22.67000
C  8.20500 46.63600 24.12100
C  9.84900 47.43800 21.00700
C  7.93700 44.72400 22.47500
C  8.82500 43.72700 23.20900
N  7.99800 47.20900 27.07600
C  6.90600 46.83600 26.25300
C  5.72800 46.87300 27.12000
C  6.23900 47.10200 28.44200
C  7.60200 47.40000 28.30800
C  4.38400 46.57200 26.71400
C  5.89100 47.15800 29.83200
O  4.84900 46.94800 30.39900
C  7.17500 47.43400 30.56800
C  7.33700 46.16900 31.30500
O  7.83700 45.13000 30.82900
O  6.90400 46.37000 32.62200
C  6.81000 45.13600 33.46400
H  13.66900 49.47000 28.58300
H  12.28300 47.39700 22.83800
H  6.09800 46.14800 24.41800
H  9.65900 49.16900 31.54200
H  12.51300 48.92800 31.05800
H  10.62200 51.05300 31.18300
H  11.42700 51.20600 29.57500
H  12.34000 51.12000 31.18500
H  11.53100 46.85700 31.38200
H  9.84900 46.45400 31.68500
H  10.31400 48.35600 33.60800
H  11.89400 47.47400 33.47500
H  15.81000 50.28100 26.44100
H  16.39100 48.61500 26.46500
H  15.55300 49.16000 27.78500
H  16.93400 48.44200 22.67300
H  16.73800 47.91200 24.32800
H  16.39800 49.58400 23.99400
H  10.32500 45.55600 22.30100
H  7.60800 46.81600 22.13600
H  9.69700 48.35900 21.57100
H  9.07900 47.14700 20.29300
H  10.73000 47.58400 20.38200
H  7.94900 44.51300 21.40500
H  6.89100 44.67300 22.77800
H  9.48300 44.23600 23.91300
H  9.42400 43.13700 22.51600
H  8.20800 43.05600 23.80700
H  4.27000 45.66600 26.11800
H  4.17500 47.44600 26.09800
H  3.60300 46.61200 27.47200
H  7.23000 48.37700 31.11200
H  7.75400 44.60200 33.35400
H  6.09000 44.37000 33.17600
H  6.80600 45.40800 34.52000

