158

Mg 35.69700 0.92700 29.80100
C  33.29700 1.65800 32.31400
C  38.13500 1.52000 32.19000
C  37.92000 0.42500 27.45500
C  33.07300 1.13100 27.38300
N  35.57600 1.31700 32.04100
C  34.58500 1.45400 32.82500
C  34.99200 1.83600 34.22000
C  36.51400 2.19700 34.00000
C  36.80700 1.65900 32.61900
C  36.97200 3.64700 34.07900
C  34.67400 0.78500 35.26100
C  34.16100 1.40200 36.55100
H  35.03400 2.39000 37.28400
N  37.77300 0.79300 29.85200
C  38.62500 1.07900 30.85600
C  39.97900 1.02900 30.45200
C  39.89700 0.56900 29.09100
C  38.52100 0.61400 28.75800
C  41.11600 1.36800 31.43700
C  41.03400 0.36000 28.05900
O  40.83000 0.02800 26.89500
C  42.38700 0.32200 28.48600
N  35.51700 0.80400 27.80600
C  36.60400 0.49000 27.03900
C  36.19300 0.34700 25.57300
C  34.67700 0.50000 25.62600
C  34.37700 0.78700 27.04900
C  36.97500 1.21000 24.56300
C  33.87100 -0.65400 25.04100
C  33.76100 -1.96600 25.88900
N  33.61600 1.42700 29.78800
C  32.77400 1.45600 28.74800
C  31.49100 1.94200 29.24700
C  31.63200 1.98700 30.66300
C  32.94200 1.63300 30.92900
C  30.30800 2.37600 28.45800
C  30.98600 2.31000 31.86500
O  29.92600 2.85400 32.04100
C  32.05700 2.11800 33.01500
C  32.31300 3.38400 33.73000
O  33.09400 4.26100 33.33500
O  31.64200 3.42300 34.98900
C  31.85900 4.63700 35.83500
H  38.90600 1.86300 32.88200
H  38.51600 0.08700 26.60400
H  32.34700 1.28600 26.58300
H  34.56200 2.79400 34.51200
H  37.14300 1.65800 34.70800
H  36.15900 4.29300 34.41100
H  37.27900 4.05100 33.11400
H  37.77300 3.77000 34.80800
H  35.52000 0.14900 35.52200
H  33.85000 0.14800 34.94000
H  33.99700 0.60400 37.27500
H  33.23000 1.91600 36.31100
H  41.17000 2.45300 31.53200
H  42.10900 1.05100 31.11800
H  40.87900 0.91700 32.40000
H  42.94300 -0.15400 27.67800
H  42.40000 -0.34500 29.34800
H  42.71500 1.32500 28.75800
H  36.37500 -0.68800 25.28400
H  34.40800 1.41700 25.10200
H  36.37900 2.10200 24.36800
H  37.30600 0.71800 23.64800
H  37.92600 1.50000 25.00800
H  34.11100 -0.87500 24.00100
H  32.82200 -0.35800 25.05300
H  34.57200 -1.91400 26.61600
H  33.92700 -2.83700 25.25500
H  32.79600 -2.06200 26.38600
H  30.55500 3.18700 27.77300
H  29.44100 2.62900 29.06800
H  30.05400 1.49600 27.86800
H  31.58400 1.41900 33.70400
H  32.21000 5.47900 35.23900
H  32.64200 4.33700 36.53100
H  30.94000 4.90200 36.35800
Mg 0.04100 42.41500 26.48100
C  2.36200 41.89100 29.04900
C  -2.46900 41.52900 28.67800
C  -2.21000 42.27000 23.98900
C  2.67500 42.63600 24.31900
N  -0.01900 41.54100 28.56100
C  0.99700 41.68300 29.37100
C  0.51000 41.81700 30.86700
C  -0.99900 41.32600 30.69300
C  -1.21500 41.42100 29.21800
C  -1.18700 39.84400 31.04700
C  0.72700 43.29500 31.36200
C  0.93500 43.42300 32.87500
H  0.38900 42.41300 33.91300
N  -2.00400 41.92100 26.27500
C  -2.80300 41.71500 27.38600
C  -4.25700 41.74700 26.95900
C  -4.22100 41.85400 25.54900
C  -2.80800 42.00100 25.17200
C  -5.44100 41.65400 27.93400
C  -5.41800 41.91000 24.57800
O  -5.26600 41.95300 23.34800
C  -6.89000 41.90300 25.02800
N  0.22500 42.23700 24.43300
C  -0.85800 42.36600 23.59500
C  -0.39900 42.56000 22.15300
C  1.19300 42.50500 22.33600
C  1.41300 42.49000 23.77000
C  -1.03200 41.57000 21.08500
C  1.89800 43.70500 21.55200
C  1.52100 45.18400 22.04200
N  2.10700 42.39800 26.60900
C  3.04900 42.54900 25.67400
C  4.41100 42.50300 26.20000
C  4.16200 42.24300 27.54300
C  2.73100 42.13000 27.72800
C  5.71100 42.60300 25.40800
C  4.78100 41.93100 28.83000
O  5.99900 41.59400 29.05700
C  3.55300 41.91400 29.84800
C  3.66600 40.69500 30.74300
O  2.94600 39.71600 30.76000
O  4.83700 40.79300 31.46200
C  4.93600 39.81500 32.55400
H  -3.19500 41.57400 29.49300
H  -2.95100 42.38500 23.19500
H  3.54000 42.71300 23.65700
H  0.97200 41.08700 31.53100
H  -1.71700 41.96600 31.20600
H  -0.65700 39.61000 31.97100
H  -0.85600 39.14300 30.28100
H  -2.20800 39.60000 31.33900
H  -0.14400 43.93100 31.20500
H  1.63200 43.70900 30.91800
H  0.47200 44.29500 33.33800
H  2.01000 43.49100 33.03800
H  -5.29100 42.51800 28.58100
H  -5.38500 40.85800 28.67600
H  -6.46500 41.74100 27.56800
H  -7.63600 41.86200 24.23400
H  -7.01000 42.82700 25.59300
H  -7.13400 41.00200 25.59000
H  -0.60200 43.57400 21.80900
H  1.57100 41.60500 21.85000
H  -0.24400 41.00000 20.59400
H  -1.41400 42.25600 20.32800
H  -1.74200 40.88200 21.54400
H  1.60400 43.59500 20.50800
H  2.97700 43.55300 21.58000
H  2.38900 45.81600 22.22900
H  0.82000 45.20000 22.87700
H  1.00200 45.71400 21.24300
H  5.80100 43.64900 25.11600
H  5.65400 41.97000 24.52300
H  6.62200 42.34300 25.94700
H  3.63300 42.77700 30.51000
H  5.95200 39.42200 32.52100
H  4.24100 38.98500 32.68100
H  4.77100 40.32600 33.50300

