158

Mg 40.18300 9.11600 29.15800
C  42.06000 10.49600 31.84600
C  38.32800 7.35400 31.48100
C  38.55000 7.73800 26.64600
C  42.83300 9.82900 27.02500
N  40.10500 9.09500 31.40600
C  40.90200 9.82200 32.31000
C  40.47200 9.59500 33.78300
C  39.34700 8.46100 33.63500
C  39.29900 8.22500 32.07300
C  39.38800 7.19200 34.45200
C  40.14200 10.99100 34.35500
C  39.13300 11.00100 35.53800
H  39.40200 11.89200 36.79000
N  38.55300 7.82600 29.04000
C  37.94100 7.22600 30.09700
C  36.71400 6.46300 29.56600
C  36.69400 6.75300 28.22500
C  37.95900 7.47100 27.88500
C  35.78900 5.63200 30.39900
C  35.64400 6.29000 27.15900
O  35.74000 6.60000 25.97500
C  34.47000 5.53100 27.54100
N  40.53800 8.96900 27.15600
C  39.72700 8.31200 26.27300
C  40.19700 8.42100 24.83200
C  41.67600 8.86400 24.99200
C  41.71100 9.20500 26.46800
C  40.02500 7.08200 24.06900
C  42.26500 9.98800 23.98600
C  41.71800 11.38200 24.24100
N  42.02500 10.09100 29.33500
C  42.99700 10.25000 28.36000
C  44.09000 10.89600 28.98100
C  43.75300 11.07600 30.29600
C  42.52000 10.49600 30.51000
C  45.42600 11.27000 28.41900
C  44.30300 11.52400 31.51600
O  45.31700 12.21400 31.75800
C  43.19000 11.20600 32.58300
C  43.68600 10.39200 33.67400
O  43.84100 9.20100 33.62400
O  43.97500 11.08900 34.80600
C  44.39400 10.40700 36.02600
H  37.67400 6.84800 32.19400
H  37.91600 7.36300 25.83900
H  43.65100 10.08100 26.34800
H  41.31100 9.22200 34.36900
H  38.33100 8.82900 33.77900
H  38.40400 7.05600 34.90100
H  40.16200 7.25700 35.21700
H  39.60400 6.36400 33.77800
H  39.71400 11.62600 33.57900
H  41.11100 11.43500 34.58500
H  38.88600 10.01200 35.92500
H  38.23800 11.42200 35.08000
H  36.16400 5.51600 31.41600
H  35.67100 4.67000 29.89900
H  34.81400 6.11900 30.43800
H  33.93900 5.23700 26.63500
H  33.93500 6.01100 28.36000
H  34.83700 4.58200 27.93200
H  39.69000 9.29100 24.41400
H  42.32700 7.99000 24.96100
H  40.94400 6.82200 23.54300
H  39.25800 7.12400 23.29500
H  39.79500 6.26400 24.75100
H  42.02200 9.80200 22.94000
H  43.35000 9.91900 24.06300
H  40.89800 11.40200 24.95900
H  41.40100 11.80000 23.28500
H  42.60000 11.97400 24.48600
H  45.38300 10.99100 27.36600
H  46.19900 10.75100 28.98500
H  45.45100 12.35300 28.53600
H  42.86000 12.14900 33.01900
H  43.69700 10.75100 36.79000
H  45.41300 10.72900 36.24200
H  44.33200 9.32800 36.17200
Mg 16.91700 52.61300 25.70200
C  18.57500 51.24600 28.57400
C  14.44000 53.76500 27.66000
C  15.19300 53.08600 22.88600
C  19.38900 50.99000 23.73100
N  16.51300 52.39700 27.88300
C  17.35700 51.98900 28.84100
C  16.80600 52.31200 30.24000
C  15.46200 53.10000 29.91000
C  15.45900 53.10300 28.37400
C  14.14300 52.52300 30.49600
C  17.80200 52.96700 31.19700
C  17.91300 52.56400 32.68300
H  16.89700 51.66000 33.31600
N  15.03000 53.33300 25.25600
C  14.11400 53.75100 26.21500
C  12.88700 54.25100 25.55600
C  13.11800 54.10100 24.14300
C  14.50100 53.50600 24.03500
C  11.64300 54.68500 26.33100
C  12.16400 54.41700 22.94400
O  12.46500 54.07200 21.79500
C  10.81900 55.20600 23.14700
N  17.31000 52.21300 23.61700
C  16.40700 52.44600 22.65600
C  16.97600 51.99500 21.29300
C  18.50000 51.90700 21.50600
C  18.46800 51.73300 23.04500
C  16.37800 50.71200 20.74600
C  19.30800 53.11600 20.93500
C  20.24900 52.68400 19.88700
N  18.68500 51.50100 26.06800
C  19.49200 50.83800 25.13700
C  20.46200 50.05100 25.77100
C  20.18400 50.17400 27.14700
C  19.06100 51.08000 27.25700
C  21.37500 49.12900 25.17100
C  20.55600 49.65900 28.44100
O  21.47500 48.93400 28.74900
C  19.51400 50.41800 29.47900
C  18.79900 49.37800 30.27600
O  17.61900 49.09200 30.17700
O  19.63300 48.92100 31.26000
C  19.18400 47.95200 32.24100
H  13.72600 54.30000 28.28900
H  14.79400 53.26600 21.88500
H  20.12900 50.52000 23.08000
H  16.48900 51.38700 30.72200
H  15.62200 54.14100 30.19200
H  14.42000 51.53000 30.85100
H  13.35000 52.42900 29.75500
H  13.71800 53.23200 31.20700
H  17.46300 53.99700 31.30700
H  18.79100 52.94900 30.73900
H  18.25900 53.41500 33.27000
H  18.75000 51.87100 32.60000
H  11.62400 55.77100 26.42200
H  11.53500 54.10800 27.24900
H  10.78300 54.26500 25.81000
H  10.33800 55.43000 22.19600
H  11.02500 56.09800 23.73800
H  10.18600 54.58800 23.78500
H  16.68400 52.72800 20.54100
H  18.88300 50.96700 21.11000
H  15.31700 50.96200 20.72800
H  16.57700 49.94500 21.49500
H  16.84600 50.48200 19.78900
H  19.88400 53.58800 21.73100
H  18.65000 53.84100 20.45500
H  20.27000 53.12000 18.88800
H  20.19000 51.63400 19.60000
H  21.28500 52.72500 20.22100
H  22.19900 49.69800 24.74100
H  20.90900 48.57100 24.35900
H  21.80900 48.37700 25.83000
H  20.06900 51.14500 30.07200
H  19.93500 48.05300 33.02500
H  19.20500 46.89500 31.97300
H  18.22800 48.27100 32.65800

