158

Mg 55.52700 23.42800 44.34500
C  53.10400 25.51100 43.24000
C  53.60400 20.74600 43.36100
C  58.20500 21.38700 44.65300
C  57.58300 26.15800 45.07500
N  53.57300 23.15400 43.35400
C  52.71300 24.19600 43.07400
C  51.39300 23.63100 42.47200
C  51.48500 22.17500 42.93500
C  52.92900 21.95600 43.21700
C  50.62700 21.83100 44.23400
C  51.20600 23.81800 40.94700
C  49.81700 24.52200 40.60000
H  49.17100 24.34000 39.26800
N  55.90800 21.39100 44.06200
C  54.95100 20.47000 43.73700
C  55.44800 19.18400 43.83200
C  56.84400 19.25700 44.14900
C  57.08000 20.70200 44.29800
C  54.61300 17.93200 43.54700
C  57.79500 18.13000 44.41100
O  57.43400 16.97200 44.36600
C  59.22800 18.37200 44.89400
N  57.66900 23.72500 44.71300
C  58.52200 22.71500 44.91900
C  59.78300 23.15700 45.59400
C  59.68400 24.76600 45.42300
C  58.25200 24.95300 45.06300
C  60.08400 22.71500 46.94500
C  60.56800 25.41600 44.38700
C  61.99100 25.73700 44.79800
N  55.44000 25.44600 44.29700
C  56.31300 26.44600 44.65400
C  55.57100 27.68700 44.71700
C  54.34300 27.34700 44.16300
C  54.35300 26.00700 43.84000
C  56.10900 29.00200 45.17100
C  53.07900 27.95800 43.82000
O  52.73300 29.10300 43.89300
C  52.28000 26.80800 43.11300
C  52.17600 27.27600 41.70900
O  53.10100 27.11800 40.94300
O  50.98500 27.90200 41.36300
C  50.95500 28.37300 39.95300
H  52.90600 19.90900 43.29600
H  59.12600 20.84400 44.87500
H  58.17500 26.99700 45.44700
H  50.56700 24.19400 42.90600
H  51.16800 21.60900 42.05900
H  51.13400 21.22400 44.98500
H  49.71900 21.25700 44.05100
H  50.41900 22.79600 44.69700
H  51.15900 22.88600 40.38300
H  52.13500 24.32800 40.69400
H  49.85100 25.61200 40.62300
H  49.01700 24.18600 41.25900
H  55.05800 16.95700 43.35100
H  54.01200 18.10300 42.65500
H  53.82400 17.74600 44.27600
H  59.83500 18.88100 44.14600
H  59.75300 17.43100 45.06200
H  59.31200 18.79000 45.89700
H  60.61700 22.79400 44.99300
H  59.77200 25.18900 46.42400
H  60.95800 23.30100 47.22800
H  60.14200 21.63100 47.04700
H  59.23100 23.11000 47.49600
H  60.15500 26.35900 44.02900
H  60.64800 24.79700 43.49400
H  62.32700 26.76600 44.67100
H  62.71800 25.02400 44.41100
H  62.06400 25.64900 45.88200
H  57.02200 29.33500 44.67700
H  56.36600 28.83400 46.21700
H  55.40500 29.79700 44.92300
H  51.26700 26.67300 43.49300
H  50.08100 29.02400 39.93800
H  50.78700 27.57900 39.22400
H  51.81500 28.94600 39.60600
Mg -10.91800 40.41500 39.62900
C  -9.56000 37.31400 38.60500
C  -7.85500 41.84600 38.77600
C  -12.27400 43.39900 40.06000
C  -14.06000 38.87200 39.66900
N  -8.99000 39.69500 38.73300
C  -8.64100 38.38500 38.50600
C  -7.20200 38.25700 38.01000
C  -6.59500 39.64900 38.28700
C  -7.86000 40.42600 38.66500
C  -5.57700 39.80100 39.43600
C  -7.21000 37.91600 36.49900
C  -6.15800 37.04100 35.87900
H  -6.65900 36.20800 34.67500
N  -10.20300 42.37300 39.32400
C  -8.87000 42.79500 39.06800
C  -8.79200 44.20500 39.19800
C  -10.05700 44.69800 39.48100
C  -10.94000 43.47700 39.64800
C  -7.54300 45.09100 38.98300
C  -10.47000 46.16800 39.52100
O  -9.55900 46.99800 39.43000
C  -11.92200 46.60300 39.55600
N  -12.92000 40.97600 39.75900
C  -13.16800 42.33000 39.96000
C  -14.65200 42.56600 40.26100
C  -15.26700 41.16900 40.11200
C  -14.00900 40.25400 39.80600
C  -15.01500 43.09900 41.69800
C  -16.34500 41.13600 38.86300
C  -17.68700 41.76100 39.32200
N  -11.72400 38.41400 39.39400
C  -12.98400 37.97400 39.41800
C  -13.00000 36.54500 39.24500
C  -11.66300 36.23100 38.93700
C  -10.92900 37.45700 39.00900
C  -14.18600 35.60100 39.36500
C  -10.73900 35.17100 38.52100
O  -10.89300 33.98700 38.32900
C  -9.32200 35.82100 38.25500
C  -8.39500 35.12500 39.14400
O  -8.66000 34.76100 40.27200
O  -7.33800 34.69900 38.36600
C  -6.41400 33.78800 39.06800
H  -6.85300 42.26100 38.64800
H  -12.63300 44.34800 40.46400
H  -15.09300 38.58400 39.87300
H  -6.62700 37.49300 38.53400
H  -6.06800 40.10600 37.45000
H  -5.12100 40.77600 39.26600
H  -4.73200 39.11700 39.35500
H  -5.98700 39.81400 40.44600
H  -7.10700 38.83900 35.92900
H  -8.17900 37.52600 36.18700
H  -5.69100 36.40000 36.62600
H  -5.42200 37.69700 35.41500
H  -7.53600 45.47800 37.96400
H  -6.65700 44.45800 38.92800
H  -7.35000 45.81800 39.77200
H  -11.95300 47.45600 38.87800
H  -12.36500 46.77300 40.53700
H  -12.50500 45.87600 38.99000
H  -15.13100 43.27600 39.58600
H  -15.82000 40.84200 40.99300
H  -14.13000 43.50000 42.19300
H  -15.52700 42.53100 42.47400
H  -15.64100 43.95200 41.43700
H  -16.56800 40.22300 38.31000
H  -15.87500 41.80200 38.14000
H  -17.44100 42.65400 39.89700
H  -18.10300 40.98200 39.96100
H  -18.34600 42.03300 38.49800
H  -14.28500 35.01900 38.44900
H  -15.11700 36.16500 39.42600
H  -14.12200 34.84800 40.14900
H  -9.01100 35.66700 37.22200
H  -5.37100 34.03700 38.87300
H  -6.72400 32.74500 39.00100
H  -6.45200 33.92000 40.15000

