158

Mg 41.26500 8.46800 30.14400
C  43.26200 10.01200 32.76500
C  39.21400 7.27000 32.42400
C  39.75700 6.92500 27.67000
C  43.88100 9.50900 27.94500
N  41.17400 8.75400 32.32400
C  42.02500 9.36400 33.20600
C  41.44800 9.42500 34.62900
C  40.26200 8.29600 34.48600
C  40.17000 8.10500 32.98400
C  40.47400 6.96100 35.20900
C  41.01500 10.84000 35.06600
C  40.45800 11.06400 36.47000
H  41.25900 11.92400 37.41100
N  39.69600 7.25200 30.03400
C  38.88200 6.91600 31.08200
C  37.75800 6.22500 30.57000
C  37.90300 6.16500 29.19100
C  39.13300 6.74000 28.90700
C  36.66100 5.76600 31.44300
C  36.89700 5.49100 28.19700
O  37.03700 5.60400 26.93900
C  35.58900 4.85700 28.70800
N  41.82800 8.18400 28.14200
C  40.91100 7.58300 27.27200
C  41.33100 7.74400 25.78900
C  42.66500 8.52600 25.87700
C  42.82900 8.75000 27.43000
C  41.20700 6.43800 25.02500
C  42.90000 9.77700 25.01400
C  41.94600 11.00600 25.36400
N  43.17100 9.51100 30.26200
C  44.07400 9.79600 29.29600
C  45.23000 10.48300 29.79800
C  44.95100 10.59300 31.17800
C  43.67000 9.95700 31.42300
C  46.36400 11.01000 28.99300
C  45.44300 11.10200 32.39600
O  46.51600 11.67100 32.61700
C  44.38000 10.74100 33.47900
C  45.09000 9.89700 34.52100
O  45.55700 8.80300 34.36900
O  44.77700 10.37900 35.73500
C  45.14200 9.46900 36.85800
H  38.46900 6.88200 33.12100
H  39.19800 6.45400 26.85900
H  44.55700 9.83100 27.15000
H  42.17200 9.08800 35.37000
H  39.31100 8.71200 34.81800
H  39.84000 6.81200 36.08300
H  41.48200 6.91700 35.62100
H  40.34900 6.07000 34.59400
H  40.30600 11.19600 34.31900
H  41.90800 11.46000 34.98900
H  40.33900 10.07700 36.91800
H  39.43400 11.42800 36.39200
H  36.87500 5.84100 32.50900
H  36.59400 4.69700 31.24200
H  35.75800 6.25700 31.08200
H  35.03200 5.57200 29.31300
H  35.88700 3.99900 29.31100
H  35.08500 4.47000 27.82200
H  40.69400 8.39800 25.19400
H  43.37900 7.77800 25.53100
H  40.51400 5.76600 25.53000
H  42.18300 5.96500 24.92000
H  40.83700 6.63500 24.01900
H  42.77000 9.54400 23.95800
H  43.94400 10.07300 25.11500
H  41.14500 10.75700 26.06000
H  41.30700 11.34200 24.54700
H  42.55300 11.84400 25.70700
H  46.34800 10.83300 27.91800
H  47.30000 10.55000 29.30800
H  46.54400 12.05200 29.25600
H  44.09600 11.68500 33.94400
H  46.22300 9.36600 36.94900
H  44.85900 8.44600 36.61300
H  44.77200 9.77300 37.83700
Mg -0.30100 43.88900 26.13100
C  1.81800 43.77100 28.81000
C  -2.91400 43.14000 28.41700
C  -2.41600 43.23600 23.61400
C  2.44900 44.42400 23.93200
N  -0.40500 43.27700 28.40600
C  0.51900 43.55200 29.27000
C  0.03400 43.50000 30.71600
C  -1.46100 43.15400 30.55200
C  -1.60800 43.17300 29.04800
C  -1.86300 41.85000 31.14900
C  0.31200 44.84400 31.47200
C  0.77900 44.77300 32.96700
H  0.51200 43.55600 33.82200
N  -2.37000 43.30900 26.02300
C  -3.28000 43.08700 27.06000
C  -4.51600 42.68500 26.50700
C  -4.35700 42.56300 25.10900
C  -3.01800 43.04200 24.83200
C  -5.73500 42.34500 27.38200
C  -5.33000 41.93600 24.14000
O  -5.07900 41.98900 22.94800
C  -6.64100 41.38700 24.48500
N  -0.01200 43.93500 24.10100
C  -1.07000 43.63700 23.27200
C  -0.54000 43.57600 21.86300
C  0.94300 44.05700 21.95100
C  1.15000 44.10900 23.41900
C  -0.69700 42.13600 21.16200
C  1.21800 45.38000 21.14100
C  1.10600 46.79900 21.77900
N  1.75600 44.18400 26.24300
C  2.70100 44.45600 25.32400
C  3.98100 44.54700 25.97300
C  3.67800 44.21000 27.35200
C  2.33000 44.02600 27.45900
C  5.34300 44.79600 25.25600
C  4.27300 43.92000 28.64200
O  5.41700 43.80800 29.08000
C  3.03300 43.80900 29.63900
C  3.18500 42.63400 30.44700
O  3.18400 41.53900 29.95000
O  3.52400 42.87400 31.78300
C  4.13700 41.78400 32.54600
H  -3.77400 42.90900 29.04900
H  -3.04000 42.96800 22.75900
H  3.25300 44.56400 23.20700
H  0.53500 42.63600 31.15400
H  -2.06200 43.95600 30.98200
H  -0.93800 41.47100 31.58200
H  -2.38100 41.22600 30.42100
H  -2.55200 41.92100 31.99100
H  -0.59300 45.45100 31.47100
H  1.06800 45.35900 30.87900
H  0.10300 45.50400 33.41100
H  1.81900 45.09100 33.03800
H  -6.67300 42.35000 26.82600
H  -5.88900 42.77800 28.37100
H  -5.45500 41.33200 27.67200
H  -6.62600 40.55000 25.18300
H  -6.97700 40.95800 23.54100
H  -7.52800 41.96800 24.73600
H  -1.08200 44.27900 21.23000
H  1.54300 43.21500 21.60500
H  0.25100 41.64600 20.94200
H  -1.31700 42.24600 20.27200
H  -1.32200 41.50800 21.79700
H  0.44400 45.29100 20.37800
H  2.17900 45.41300 20.62700
H  0.25600 47.30200 21.31700
H  1.98800 47.35000 21.45100
H  0.91500 46.85800 22.85100
H  5.38600 44.60900 24.18300
H  6.05500 44.17700 25.80300
H  5.61000 45.84400 25.39000
H  3.06800 44.78200 30.12800
H  4.45600 42.28200 33.46100
H  5.05600 41.41800 32.08600
H  3.40000 41.00800 32.75000

