158

Mg 48.12600 34.46400 27.38100
C  46.07200 32.72200 29.66900
C  48.26600 37.03100 29.40900
C  49.59000 36.15300 24.91000
C  47.52300 31.65700 25.06800
N  47.29200 34.82200 29.30300
C  46.53200 33.95500 30.14500
C  46.33300 34.51300 31.52800
C  46.84100 36.01200 31.37400
C  47.55400 35.99600 30.02100
C  45.73300 37.03600 31.37400
C  47.03900 33.67400 32.63000
C  48.02700 34.42900 33.50900
H  47.50200 35.36400 34.65100
N  48.93600 36.31700 27.23300
C  48.94700 37.25000 28.25300
C  49.60700 38.39500 27.74200
C  49.99100 38.20300 26.40500
C  49.46900 36.87200 26.10000
C  49.74600 39.61700 28.50800
C  50.86800 39.03300 25.49300
O  51.10100 38.73600 24.32300
C  51.52700 40.30900 25.93100
N  48.46100 33.97800 25.31000
C  49.17000 34.89000 24.51800
C  49.58400 34.20800 23.18000
C  48.95100 32.82900 23.29600
C  48.30800 32.75100 24.67000
C  49.23100 35.00600 21.82100
C  49.83300 31.58200 22.93000
C  51.10200 31.26900 23.83800
N  47.13900 32.46300 27.35300
C  46.95800 31.51300 26.36700
C  46.15900 30.46400 26.86400
C  45.68900 30.91700 28.13700
C  46.36200 32.15100 28.41800
C  45.75200 29.25700 26.17300
C  44.93800 30.56300 29.23600
O  44.17500 29.57400 29.50100
C  44.99800 31.73400 30.23100
C  45.10800 31.13500 31.53900
O  45.95100 30.21600 31.86500
O  44.17400 31.72000 32.38300
C  44.11600 31.12000 33.75100
H  48.28600 37.86500 30.11300
H  50.03900 36.74400 24.10900
H  47.45100 30.82600 24.36300
H  45.26600 34.63100 31.71700
H  47.61200 36.34200 32.06900
H  44.73000 36.73100 31.67200
H  45.56200 37.44700 30.37900
H  45.89800 37.79300 32.14100
H  47.67000 32.86200 32.27000
H  46.29300 33.24400 33.29900
H  48.73300 34.88300 32.81400
H  48.55500 33.72700 34.15400
H  49.38800 40.52700 28.02700
H  50.81500 39.67200 28.71700
H  49.23300 39.45500 29.45500
H  52.15700 40.16300 26.80800
H  50.75300 41.06700 26.05400
H  52.25200 40.61900 25.17900
H  50.67100 34.20900 23.25500
H  48.11900 32.78300 22.59400
H  49.26100 34.40400 20.91200
H  50.00900 35.76200 21.71400
H  48.26000 35.49900 21.86100
H  50.23900 31.74800 21.93200
H  49.08800 30.78600 22.95500
H  51.99100 31.58900 23.29500
H  51.28800 30.30600 24.31400
H  51.11600 32.06600 24.58100
H  45.95900 28.38500 26.79300
H  46.20200 29.04600 25.20300
H  44.69800 29.17700 25.90500
H  44.05300 32.27200 30.16100
H  43.34000 30.36800 33.60700
H  43.71800 31.84500 34.46000
H  45.05300 30.65500 34.05900
Mg 6.67800 53.74900 41.14600
C  6.58200 50.12300 41.37000
C  10.18000 53.36100 40.59000
C  6.83200 57.03100 40.38800
C  3.38600 53.82700 41.59000
N  8.19900 51.98900 40.90200
C  7.92100 50.64700 41.15700
C  9.22400 49.82100 40.82100
C  10.33800 50.86200 41.09900
C  9.54500 52.21700 40.85100
C  11.09400 50.88700 42.52300
C  9.34900 49.21200 39.41100
C  8.85500 50.09500 38.25900
H  7.54000 49.78600 37.58200
N  8.28900 55.03900 40.50000
C  9.65100 54.68600 40.48800
C  10.36300 55.84900 40.25000
C  9.45400 56.94000 39.91100
C  8.14200 56.38000 40.22600
C  11.94600 55.84200 40.03500
C  9.83000 58.40000 39.36700
O  10.98800 58.68300 39.28900
C  8.68000 59.40400 39.01900
N  5.36700 55.17300 40.81700
C  5.59900 56.49000 40.69700
C  4.35400 57.31800 40.85900
C  3.19500 56.32000 40.99000
C  4.02400 55.00800 41.18500
C  4.41500 58.23900 42.13900
C  2.29600 56.35500 39.71400
C  0.77600 56.39600 39.92500
N  5.16600 52.34900 41.38500
C  3.84400 52.51400 41.63700
C  3.21900 51.23100 42.01500
C  4.29400 50.28100 41.85900
C  5.41100 50.97900 41.46900
C  1.80200 51.04400 42.49400
C  4.54700 48.91900 41.99900
O  3.87100 47.99900 42.45100
C  6.05500 48.76300 41.67300
C  6.04500 47.87600 40.54900
O  5.66900 48.20500 39.44200
O  6.31200 46.61700 40.94000
C  6.22600 45.65400 39.85200
H  11.25400 53.16700 40.55800
H  6.94600 58.10000 40.19800
H  2.30900 54.00100 41.61800
H  9.16900 49.03000 41.56800
H  11.14300 50.78300 40.36900
H  10.70800 51.73900 43.08200
H  12.18200 50.82400 42.56700
H  10.75300 50.01500 43.08100
H  8.72100 48.32100 39.37300
H  10.41300 48.97900 39.37400
H  9.60800 49.98700 37.47800
H  8.77600 51.14600 38.53500
H  12.42200 55.07900 40.65100
H  12.36900 56.77500 40.40800
H  12.27100 55.77100 38.99700
H  8.21600 59.70100 39.96000
H  7.94800 58.98600 38.32800
H  9.16500 60.27100 38.57200
H  4.34200 57.94600 39.96900
H  2.66400 56.39500 41.93900
H  4.88700 59.19100 41.89500
H  5.04400 57.63600 42.79300
H  3.43100 58.30200 42.60400
H  2.53800 55.51200 39.06700
H  2.56700 57.27100 39.18800
H  0.23000 55.52200 39.57000
H  0.44200 57.29800 39.41200
H  0.51800 56.52000 40.97700
H  1.75500 50.10700 43.04900
H  1.04500 51.01300 41.71000
H  1.54500 51.84600 43.18700
H  6.57100 48.23800 42.47700
H  6.52300 44.62700 40.06800
H  6.73400 45.97700 38.94300
H  5.17800 45.67700 39.55400

