158

Mg 49.38500 44.60100 43.18300
C  46.09600 45.42900 42.30000
C  48.99700 41.53400 41.53300
C  52.74400 44.20200 43.20200
C  49.78000 47.92800 44.11600
N  47.75000 43.65400 41.95900
C  46.51400 44.18300 41.73000
C  45.62300 43.20200 40.98800
C  46.36000 41.87900 41.32400
C  47.80800 42.34600 41.64700
C  45.62300 40.95100 42.45400
C  45.40700 43.50600 39.49200
C  43.95800 43.60200 38.88400
H  43.74800 44.39800 37.61000
N  50.65600 43.08900 42.52800
C  50.31400 41.87800 41.90600
C  51.47100 40.96900 41.74600
C  52.61700 41.76400 42.20200
C  52.03600 43.09000 42.66100
C  51.47900 39.46000 41.28700
C  54.03800 41.30300 42.12600
O  54.45700 40.22600 41.66200
C  55.13800 42.22000 42.69600
N  51.05500 45.96500 43.45500
C  52.32900 45.45200 43.57500
C  53.34700 46.54000 43.94800
C  52.41000 47.75600 44.33600
C  50.96200 47.17100 43.97500
C  54.38900 46.24100 45.06000
C  52.77800 49.17300 43.71200
C  53.02600 50.26500 44.63600
N  48.10900 46.31100 43.28200
C  48.43500 47.57500 43.79900
C  47.23000 48.41500 43.91500
C  46.31500 47.63600 43.27800
C  46.83500 46.35500 42.95200
C  47.07800 49.84800 44.30500
C  44.97500 47.65400 42.69400
O  44.07800 48.47700 42.61900
C  44.77300 46.17100 42.12900
C  43.60700 45.41300 42.62600
O  42.80000 44.89000 41.91000
O  43.34500 45.61000 43.92300
C  42.05400 45.12200 44.43500
H  48.86700 40.49800 41.21300
H  53.81400 44.18900 43.42100
H  50.02900 48.93400 44.46200
H  44.63000 43.09400 41.42300
H  46.26700 41.31100 40.39900
H  44.92600 41.61500 42.96600
H  46.40200 40.73200 43.18400
H  45.34100 39.97300 42.06300
H  45.97700 42.73000 38.98200
H  45.98100 44.37500 39.17000
H  43.17400 43.90100 39.57900
H  43.67700 42.56000 38.73100
H  51.88000 39.35900 40.27800
H  50.47100 39.04500 41.29700
H  52.04100 38.80900 41.95700
H  55.22000 43.10500 42.06600
H  56.13000 41.77300 42.63800
H  54.93400 42.50000 43.73000
H  53.96900 46.81900 43.09800
H  52.48500 47.94700 45.40600
H  54.16800 46.87800 45.91600
H  55.40100 46.37400 44.67800
H  54.13000 45.27300 45.48800
H  51.96600 49.51700 43.07100
H  53.66800 48.98400 43.11100
H  52.52800 50.25300 45.60600
H  52.64500 51.17800 44.17900
H  54.05400 50.55600 44.85400
H  47.93600 50.37400 43.88700
H  47.16800 49.85100 45.39100
H  46.17900 50.34900 43.94700
H  44.63700 46.23600 41.04900
H  41.19600 45.51200 43.88800
H  41.96000 45.50500 45.45100
H  41.96900 44.03700 44.49400
Mg 0.87000 43.04100 26.03400
C  3.14500 43.38200 28.68800
C  -1.65600 42.46400 28.20400
C  -0.93800 42.06200 23.38700
C  3.65100 43.46900 23.78500
N  0.82000 42.78800 28.22200
C  1.84700 43.13000 29.10300
C  1.34000 43.00500 30.56300
C  -0.16500 42.58900 30.35100
C  -0.39000 42.69700 28.86500
C  -0.48100 41.24200 30.96000
C  1.48500 44.35100 31.33600
C  1.41000 44.28600 32.88900
H  1.32000 42.97400 33.72100
N  -1.05700 42.32800 25.82700
C  -2.02000 42.26300 26.86400
C  -3.28800 41.87600 26.29000
C  -3.08200 41.83300 24.86600
C  -1.65300 42.05400 24.63300
C  -4.51800 41.55900 27.15900
C  -4.12200 41.43400 23.77500
O  -3.83200 41.38900 22.58800
C  -5.56200 41.12600 24.12700
N  1.22700 42.88100 23.92400
C  0.38000 42.46500 23.04400
C  0.88900 42.45700 21.56100
C  2.24900 43.23900 21.79700
C  2.38300 43.27500 23.29100
C  0.94800 41.07600 20.81300
C  2.22500 44.65300 21.07000
C  1.74000 45.84700 22.02700
N  2.92800 43.52400 26.08700
C  3.90600 43.60900 25.10300
C  5.16900 43.84600 25.76000
C  4.92800 43.65800 27.13700
C  3.54000 43.51400 27.33400
C  6.48800 43.96800 25.04300
C  5.53200 43.57700 28.47600
O  6.70700 43.55800 28.70900
C  4.34800 43.50900 29.57400
C  4.55000 42.40300 30.53500
O  4.17800 41.29800 30.41100
O  5.14200 42.88500 31.62400
C  5.28900 41.97300 32.80300
H  -2.47300 42.38400 28.92400
H  -1.55500 41.89600 22.50100
H  4.47000 43.56700 23.06900
H  1.85800 42.19100 31.07100
H  -0.89600 43.22000 30.85700
H  -1.29100 40.79400 30.38500
H  -0.74100 41.30300 32.01700
H  0.39700 40.59700 30.94100
H  0.64700 44.97200 31.02100
H  2.35000 44.85300 30.90300
H  0.55200 44.91500 33.12900
H  2.33300 44.76200 33.21900
H  -4.72600 40.49400 27.25600
H  -5.42100 42.05400 26.80200
H  -4.34100 42.05700 28.11300
H  -6.18900 41.00300 23.24400
H  -5.97300 41.96400 24.69000
H  -5.65800 40.18000 24.66000
H  0.19500 42.98200 20.90500
H  3.02100 42.60100 21.36800
H  0.59200 40.30300 21.49300
H  2.00400 40.84500 20.67200
H  0.35100 40.99800 19.90500
H  1.71400 44.59700 20.10900
H  3.22800 45.05300 20.92000
H  2.57200 45.97500 22.72000
H  0.87900 45.62500 22.65700
H  1.46600 46.76300 21.50300
H  6.32700 44.08300 23.97100
H  7.10000 43.06800 25.10400
H  7.02800 44.88500 25.28100
H  4.43600 44.43300 30.14600
H  4.74100 41.03100 32.79800
H  4.94300 42.54600 33.66300
H  6.35300 41.74700 32.88100

