158

Mg 26.62000 49.29700 26.95800
C  24.49600 50.52100 29.26200
C  28.85700 48.37000 29.50800
C  28.92100 48.20700 24.61800
C  24.64000 50.61400 24.42100
N  26.68200 49.48000 29.15200
C  25.62400 49.87400 29.89500
C  25.83800 49.57800 31.39100
C  27.36100 49.09800 31.38500
C  27.68400 48.93400 29.93000
C  28.24500 50.16600 32.09100
C  24.85400 48.60300 31.91700
C  24.11000 49.03900 33.21400
H  24.95600 49.78700 34.26700
N  28.54400 48.26900 27.12500
C  29.25100 48.00300 28.26500
C  30.44300 47.24600 27.93300
C  30.53100 47.31000 26.49100
C  29.30700 47.96600 26.02700
C  31.46800 46.75700 29.02000
C  31.55900 46.65600 25.61400
O  31.42700 46.45000 24.37800
C  32.80200 45.95400 26.33800
N  26.79300 49.45100 24.83900
C  27.76000 48.85500 24.16600
C  27.54900 48.99100 22.62300
C  26.18300 49.70100 22.48100
C  25.84100 50.00100 23.98500
C  28.76800 49.78700 21.91700
C  25.18800 48.80000 21.75100
C  24.54000 47.66700 22.62100
N  24.99100 50.44200 26.85500
C  24.28000 50.87100 25.75600
C  23.14100 51.64500 26.21800
C  23.20200 51.57300 27.60900
C  24.33500 50.78900 27.95800
C  22.08000 52.31500 25.37400
C  22.48700 51.87400 28.81000
O  21.43100 52.44500 29.00500
C  23.21900 51.16900 29.90000
C  23.75800 52.31400 30.71300
O  24.67500 53.07700 30.52200
O  22.87400 52.46000 31.66800
C  23.27200 53.31200 32.80300
H  29.58400 48.08800 30.27300
H  29.67000 47.77700 23.95000
H  24.01000 50.98500 23.61000
H  25.71600 50.57800 31.80700
H  27.60100 48.16100 31.88900
H  28.73200 49.79500 32.99300
H  27.73000 51.10400 32.29800
H  29.09700 50.37000 31.44300
H  25.22200 47.63400 32.25400
H  24.02600 48.45900 31.22400
H  23.70300 48.13000 33.65800
H  23.26800 49.65000 32.88700
H  31.62400 45.68600 28.88500
H  31.08800 46.77500 30.04100
H  32.40000 47.32200 28.98800
H  33.52000 45.46300 25.68000
H  32.32600 45.13700 26.87900
H  33.24700 46.69300 27.00400
H  27.53800 48.04700 22.07800
H  26.24000 50.67800 22.00200
H  29.60900 49.78700 22.61100
H  28.54500 50.82200 21.65500
H  29.15500 49.26700 21.04100
H  25.74400 48.34400 20.93200
H  24.33600 49.39500 21.42000
H  23.47500 47.84000 22.77500
H  25.06000 47.53300 23.57000
H  24.59100 46.70300 22.11500
H  21.12100 52.19400 25.87600
H  22.01300 51.85600 24.38700
H  22.34300 53.36600 25.24700
H  22.69000 50.42200 30.49100
H  24.35700 53.31800 32.90800
H  22.95300 53.13300 33.83000
H  22.93400 54.32500 32.58200
Mg -9.97200 40.27500 38.91900
C  -8.94000 36.89000 38.12300
C  -6.86500 41.36800 37.95000
C  -11.31500 43.34300 38.83500
C  -13.29300 38.91000 39.32300
N  -8.18300 39.19000 37.96500
C  -7.92300 37.86700 37.95700
C  -6.43300 37.63900 37.72200
C  -5.79400 39.08200 37.84700
C  -7.05500 39.95500 38.06100
C  -4.88200 39.20500 39.10600
C  -6.15900 36.95500 36.36500
C  -6.71500 37.79100 35.17900
H  -7.81000 37.10500 34.27300
N  -9.18100 42.01000 38.45800
C  -7.87400 42.35600 38.14400
C  -7.73900 43.72000 37.82100
C  -9.03500 44.30500 37.90200
C  -9.91300 43.22600 38.39200
C  -6.47500 44.39900 37.34100
C  -9.41100 45.68100 37.38600
O  -8.57300 46.49800 36.98600
C  -10.83800 46.11500 37.31700
N  -11.99400 41.01600 39.15400
C  -12.22100 42.37500 39.10300
C  -13.75100 42.61200 39.21100
C  -14.34300 41.20500 39.55200
C  -13.18500 40.30200 39.35800
C  -14.05800 43.62700 40.26200
C  -15.68900 40.71300 38.89400
C  -16.66600 39.96300 39.85000
N  -10.95600 38.31300 38.86000
C  -12.26300 37.95900 39.11300
C  -12.38700 36.54700 39.00500
C  -11.10400 36.05100 38.72400
C  -10.31700 37.19100 38.52500
C  -13.68400 35.70200 39.20800
C  -10.31700 34.87400 38.41800
O  -10.56100 33.68400 38.44700
C  -8.89300 35.34600 38.02500
C  -7.86700 34.88200 39.11000
O  -8.00200 34.88100 40.30900
O  -6.79800 34.29000 38.39800
C  -5.76500 33.61100 39.21400
H  -5.85300 41.70900 37.72300
H  -11.78500 44.32500 38.91500
H  -14.27600 38.53500 39.61600
H  -6.05100 37.01200 38.52800
H  -5.18400 39.43400 37.01500
H  -4.79400 38.31400 39.72900
H  -5.28100 39.96100 39.78100
H  -3.88300 39.54200 38.82900
H  -6.64600 35.98000 36.32700
H  -5.09600 36.90900 36.13100
H  -5.80400 38.02700 34.62800
H  -7.07400 38.75700 35.53600
H  -6.55600 44.52200 36.26100
H  -5.60600 43.75200 37.46200
H  -6.11700 45.28900 37.85900
H  -11.22000 46.46800 38.27500
H  -11.52800 45.32600 37.01900
H  -10.86000 46.86500 36.52700
H  -14.16100 42.98600 38.27300
H  -14.37700 41.10600 40.63700
H  -13.14600 44.08100 40.65000
H  -14.46000 43.11800 41.13800
H  -14.79600 44.33900 39.89300
H  -15.59300 40.09300 38.00300
H  -16.26000 41.57200 38.54200
H  -16.15600 39.60900 40.74600
H  -16.78800 39.03200 39.29500
H  -17.60900 40.49700 39.96400
H  -14.11600 35.26700 38.30700
H  -14.49400 36.27700 39.65800
H  -13.48500 35.03800 40.05000
H  -8.69900 35.01600 37.00500
H  -5.94700 32.56300 39.45300
H  -5.81500 33.99400 40.23300
H  -4.71000 33.75900 38.98500

