158

Mg 30.05100 58.07000 39.75000
C  27.28700 56.02600 38.79300
C  32.05900 55.40200 38.77800
C  32.68900 60.17900 39.71900
C  27.75700 60.74800 40.03500
N  29.68800 56.02400 38.79200
C  28.48800 55.43800 38.65900
C  28.70300 53.93500 38.36500
C  30.21900 53.63100 38.71800
C  30.69500 55.08100 38.84200
C  30.49000 52.81300 39.99800
C  28.21200 53.46000 36.93800
C  28.65500 54.39600 35.84300
H  28.28000 53.82100 34.45300
N  32.08800 57.80700 39.53300
C  32.74000 56.62600 39.05400
C  34.17700 56.91300 38.99600
C  34.38400 58.28800 39.42600
C  32.98400 58.82500 39.55700
C  35.23400 55.87500 38.69500
C  35.69000 58.93400 39.63700
O  36.68700 58.35500 39.35400
C  35.82800 60.25700 40.37700
N  30.14600 60.21900 39.95100
C  31.37700 60.82500 39.83800
C  31.16800 62.36700 40.03300
C  29.62600 62.49200 40.30500
C  29.11100 61.09500 40.09100
C  32.13800 63.14000 41.04800
C  28.90500 63.71600 39.50200
C  28.13600 64.72900 40.33900
N  28.01900 58.40700 39.50000
C  27.24500 59.51500 39.68000
C  25.82900 59.18000 39.39500
C  25.83900 57.81800 39.05200
C  27.17300 57.36900 39.15400
C  24.67000 60.07800 39.46900
C  25.00200 56.67900 38.63100
O  23.81700 56.60800 38.45100
C  25.95600 55.47000 38.48900
C  25.62300 54.20000 39.14700
O  25.58800 54.11600 40.39100
O  25.17800 53.24300 38.29400
C  24.67400 51.98100 38.85000
H  32.72100 54.54100 38.89200
H  33.48200 60.89200 39.48400
H  26.98400 61.50700 40.17200
H  28.04700 53.37800 39.03400
H  30.84000 53.30000 37.88500
H  29.54900 52.60900 40.50900
H  31.19100 53.39500 40.59600
H  30.97500 51.90100 39.65100
H  27.17000 53.14000 36.93300
H  28.82000 52.60400 36.64400
H  29.74100 54.40700 35.74400
H  28.31600 55.43000 35.90300
H  34.82000 54.92800 38.34700
H  35.63400 55.45900 39.62000
H  36.07100 56.29000 38.13500
H  36.65300 60.29200 41.08800
H  34.98500 60.69100 40.91400
H  36.13200 61.03700 39.68000
H  31.45800 62.76800 39.06200
H  29.38400 62.57400 41.36400
H  32.80100 63.79800 40.48500
H  32.73500 62.39300 41.57000
H  31.54400 63.63000 41.81900
H  28.11200 63.25200 38.91400
H  29.65800 64.16600 38.85600
H  28.53800 64.67600 41.35000
H  27.06900 64.50600 40.30300
H  28.29700 65.75300 40.00000
H  24.74500 60.86400 38.71700
H  24.52900 60.57500 40.42900
H  23.84400 59.40100 39.25000
H  26.05400 55.33900 37.41100
H  24.58800 51.29100 38.01000
H  23.71000 52.09400 39.34600
H  25.41400 51.64400 39.57600
Mg 0.78400 43.95400 24.46100
C  2.65100 43.82600 27.32100
C  -2.19000 43.95500 26.22600
C  -0.84100 43.33900 21.49500
C  3.81200 43.96100 22.50700
N  0.23600 43.64400 26.51000
C  1.21200 43.80800 27.54600
C  0.54600 43.92900 28.93400
C  -1.01900 44.00100 28.54800
C  -1.01700 43.84300 27.01600
C  -1.97000 43.02700 29.20800
C  0.96300 45.11100 29.86700
C  1.38700 44.82200 31.28400
H  0.93900 43.49700 31.95200
N  -1.20800 43.89200 23.93600
C  -2.29300 43.92200 24.78600
C  -3.47900 43.97300 23.98800
C  -3.07900 43.87800 22.61500
C  -1.62300 43.69700 22.64800
C  -4.80700 44.11400 24.66900
C  -3.95700 43.98500 21.36600
O  -3.41000 43.93300 20.22500
C  -5.46500 44.35500 21.55900
N  1.35900 43.83000 22.32200
C  0.51900 43.53600 21.31000
C  1.26800 43.00200 20.07800
C  2.59900 43.77700 20.33200
C  2.63100 43.88700 21.80300
C  1.39900 41.48400 20.05700
C  2.66000 45.24700 19.77000
C  4.03500 45.73700 19.25700
N  2.84300 43.90400 24.75000
C  3.96900 43.92400 23.97000
C  5.09300 43.80200 24.80500
C  4.66300 43.84900 26.12700
C  3.28000 43.86200 26.04100
C  6.56000 43.84100 24.25800
C  5.11800 43.75700 27.45100
O  6.28400 43.55600 27.86800
C  3.84300 43.89100 28.33300
C  3.80100 42.87500 29.34200
O  3.35900 41.73400 29.17400
O  4.42800 43.27200 30.48700
C  4.71300 42.24000 31.62200
H  -3.05500 43.99400 26.89100
H  -1.36200 42.94700 20.61900
H  4.77500 43.78800 22.02200
H  0.70300 42.96100 29.41000
H  -1.34500 45.02300 28.74000
H  -1.47200 42.49800 30.02100
H  -2.26500 42.31600 28.43600
H  -2.89200 43.44700 29.61000
H  0.16500 45.84400 29.98800
H  1.81500 45.59200 29.38700
H  0.86600 45.49900 31.96100
H  2.42400 45.05600 31.52600
H  -5.31700 45.06400 24.50800
H  -4.74000 44.00500 25.75200
H  -5.46800 43.28400 24.42100
H  -6.01200 43.60600 22.13200
H  -5.88100 44.47800 20.56000
H  -5.53900 45.30000 22.09800
H  0.76700 43.47200 19.23200
H  3.46700 43.22300 19.97600
H  2.40200 41.06400 19.98200
H  0.82200 41.06800 19.23100
H  0.90800 41.02600 20.91600
H  2.39200 46.07100 20.43100
H  1.91300 45.28500 18.97700
H  4.01300 45.95300 18.18900
H  4.76600 44.95100 19.44800
H  4.35800 46.62800 19.79500
H  6.66500 43.08400 23.48100
H  7.26600 43.60800 25.05500
H  6.86600 44.83700 23.93900
H  3.93300 44.90200 28.73200
H  5.79900 42.20600 31.54300
H  4.33900 41.21900 31.54100
H  4.46200 42.56500 32.63100

