158

Mg 25.42300 1.28300 29.83500
C  27.56100 1.39900 32.66800
C  22.81600 1.36000 32.07700
C  23.30900 1.08900 27.28800
C  28.14900 1.01700 27.76800
N  25.18000 1.26900 32.16600
C  26.20100 1.46600 33.10800
C  25.71400 1.67500 34.53500
C  24.18700 1.54600 34.35000
C  24.01900 1.44400 32.75500
C  23.61300 0.36700 35.19400
C  26.14000 3.08600 35.03500
C  26.85800 3.22000 36.38100
H  26.27400 4.20400 37.36300
N  23.29300 1.13600 29.73200
C  22.42500 1.23300 30.74600
C  21.15900 1.23200 30.22700
C  21.19700 0.99600 28.86100
C  22.65400 1.02500 28.57000
C  19.94700 1.42100 30.98000
C  20.08500 0.85700 27.77100
O  20.39000 0.61200 26.59900
C  18.66800 0.98100 28.07800
N  25.62800 1.02000 27.81700
C  24.67300 1.12900 26.86700
C  25.17500 1.24400 25.42200
C  26.69700 1.29500 25.69500
C  26.83100 1.14000 27.20700
C  24.69900 0.28900 24.33600
C  27.30600 2.50000 25.01100
C  26.90700 3.85000 25.67400
N  27.44200 1.09000 30.12700
C  28.40600 0.92200 29.14300
C  29.67600 0.83300 29.78400
C  29.41000 1.02000 31.20200
C  28.05100 1.16800 31.34200
C  30.93400 0.61900 29.03500
C  30.03200 1.12200 32.45000
O  31.23600 1.21200 32.67200
C  28.85000 1.57600 33.49400
C  28.96200 0.51000 34.65100
O  28.74500 -0.69500 34.55700
O  29.32700 1.16500 35.79300
C  29.90800 0.45200 36.95800
H  21.95900 1.52100 32.73400
H  22.70000 1.21100 26.39000
H  29.03400 0.98500 27.12900
H  26.10100 0.90700 35.20500
H  23.57200 2.42800 34.53200
H  22.84200 -0.14500 34.61800
H  23.04900 0.81900 36.01000
H  24.34900 -0.31700 35.61700
H  25.25000 3.71400 34.99700
H  26.87700 3.46800 34.32700
H  27.79600 3.66100 36.04300
H  27.01600 2.23700 36.82500
H  19.47000 2.31600 30.58100
H  20.10100 1.57800 32.04800
H  19.30300 0.54200 30.99200
H  18.37500 0.20000 28.78000
H  18.13200 0.84500 27.13900
H  18.36400 1.93800 28.50300
H  24.94400 2.26800 25.12900
H  27.20800 0.46300 25.20900
H  24.12300 0.77500 23.54800
H  24.02300 -0.46600 24.73900
H  25.60500 -0.13700 23.90500
H  26.89900 2.50500 24.00000
H  28.39200 2.41800 25.07000
H  26.39900 3.58000 26.60000
H  26.13000 4.33800 25.08500
H  27.73800 4.54500 25.79800
H  31.07400 1.39100 28.27900
H  30.89900 -0.33100 28.50100
H  31.83200 0.64100 29.65100
H  29.16400 2.51300 33.95500
H  30.39700 -0.51900 36.88700
H  29.16100 0.41200 37.75100
H  30.69400 1.08400 37.37100
Mg 8.79300 48.43200 25.85000
C  7.00700 48.17700 28.87600
C  11.54300 49.31400 27.69100
C  10.44200 49.01400 22.90700
C  5.90200 47.93200 24.10400
N  9.21900 48.78400 28.01600
C  8.37700 48.45200 29.10500
C  9.07000 48.73900 30.44800
C  10.44200 49.30900 29.99900
C  10.44400 49.12900 28.46600
C  10.97800 50.67300 30.48500
C  9.11600 47.54100 31.42200
C  9.85800 47.88500 32.69800
H  8.96500 47.65100 33.97600
N  10.75000 48.99100 25.38900
C  11.75800 49.27300 26.28500
C  12.97800 49.47700 25.59200
C  12.73400 49.39700 24.17800
C  11.26600 49.10400 24.10700
C  14.28900 49.82600 26.31200
C  13.63100 49.39500 22.97600
O  13.27900 49.06700 21.87100
C  15.16300 49.46900 23.28100
N  8.24300 48.64700 23.87700
C  9.14500 48.80800 22.84800
C  8.38400 48.77000 21.46200
C  7.03900 48.12300 21.84700
C  7.00800 48.26700 23.39000
C  8.27200 50.18300 20.72400
C  6.86200 46.68400 21.43400
C  7.70900 45.64500 22.20500
N  6.82800 48.19300 26.32900
C  5.75300 47.84000 25.52000
C  4.52000 47.58300 26.23200
C  4.98800 47.65000 27.58100
C  6.38300 48.07200 27.59000
C  3.16800 47.41300 25.78300
C  4.61200 47.53200 28.91500
O  3.54900 47.13600 29.38800
C  5.86800 47.77000 29.78800
C  6.08400 46.41100 30.41500
O  6.69300 45.41400 29.97400
O  5.34200 46.40400 31.50600
C  5.51100 45.22100 32.36200
H  12.43100 49.45400 28.31100
H  10.93600 49.07300 21.93500
H  5.00700 47.62000 23.56100
H  8.32300 49.37600 30.92100
H  11.18600 48.62700 30.41100
H  11.77000 50.54500 31.22200
H  10.30800 51.26700 31.10700
H  11.28800 51.30900 29.65500
H  9.57000 46.74900 30.82500
H  8.07000 47.36900 31.67600
H  10.34100 48.85900 32.77900
H  10.57200 47.06400 32.76800
H  14.07600 50.12500 27.33900
H  14.96500 50.50400 25.79100
H  14.83300 48.88200 26.28800
H  15.49400 50.42100 23.69700
H  15.75500 49.20700 22.40400
H  15.56800 48.70600 23.94600
H  8.87700 48.05100 20.80900
H  6.18900 48.58900 21.34800
H  7.20800 50.37900 20.59000
H  8.78200 50.01300 19.77600
H  8.84700 50.82600 21.39000
H  7.10800 46.67100 20.37200
H  5.79000 46.50200 21.50600
H  8.51500 46.16000 22.72600
H  8.04700 44.98600 21.40500
H  6.92300 45.19000 22.80800
H  2.97400 46.41600 26.18000
H  3.01700 47.45800 24.70500
H  2.48700 48.15400 26.20200
H  5.57400 48.58700 30.44700
H  5.38300 44.31500 31.77100
H  4.77500 45.29100 33.16200
H  6.47200 45.19100 32.87600

