158

Mg 23.82800 -7.65400 46.65800
C  26.56100 -5.66600 45.79500
C  22.01300 -6.35400 43.95700
C  21.59100 -10.04400 47.02800
C  26.03400 -9.36700 48.84400
N  24.26100 -6.21100 44.97200
C  25.48500 -5.53000 44.90600
C  25.56900 -4.77600 43.61600
C  24.02500 -4.77400 43.15700
C  23.30300 -5.85400 44.05800
C  23.41200 -3.33900 43.32800
C  26.57700 -5.36800 42.56500
C  27.60500 -4.33900 41.87300
H  27.26400 -3.64100 40.50800
N  21.91700 -7.92900 45.87900
C  21.37200 -7.25700 44.74200
C  20.04500 -7.86300 44.46900
C  19.92500 -8.97600 45.35100
C  21.14700 -9.04500 46.17600
C  19.17900 -7.31400 43.37600
C  18.77100 -9.96100 45.28400
O  17.97200 -9.80700 44.35100
C  18.48100 -11.10500 46.25200
N  23.76200 -9.39200 47.90500
C  22.73100 -10.19600 47.81200
C  22.97500 -11.48600 48.69000
C  24.44400 -11.20000 49.24300
C  24.79500 -9.94700 48.60100
C  21.87300 -11.68000 49.78400
C  25.35500 -12.43200 48.89200
C  24.88700 -13.92200 49.09600
N  25.85700 -7.54300 47.29700
C  26.57500 -8.26000 48.23500
C  27.91900 -7.69300 48.36400
C  27.96300 -6.66000 47.39800
C  26.71800 -6.64700 46.79000
C  28.90300 -8.15700 49.30300
C  28.81600 -5.61600 46.86400
O  29.95400 -5.28800 47.06600
C  27.90400 -4.89000 45.75400
C  27.85600 -3.42700 46.03300
O  27.16800 -2.91500 46.98100
O  28.65900 -2.83300 45.12300
C  28.71700 -1.37100 45.31700
H  21.42300 -5.92100 43.14600
H  20.92500 -10.88600 47.22900
H  26.70100 -9.96900 49.46500
H  25.87500 -3.79500 43.97900
H  24.02100 -5.07500 42.10900
H  23.55800 -2.94500 42.32300
H  23.97200 -2.76500 44.06600
H  22.34900 -3.32000 43.56900
H  26.00600 -5.88100 41.79100
H  27.02800 -6.24100 43.03500
H  28.63100 -4.70400 41.82300
H  27.58300 -3.52300 42.59500
H  19.26500 -6.24700 43.17000
H  18.12200 -7.35400 43.64100
H  19.38000 -7.99600 42.55000
H  18.35600 -10.73600 47.27000
H  19.30100 -11.82200 46.25900
H  17.54900 -11.62600 46.03200
H  23.04600 -12.32700 48.00000
H  24.37000 -11.04200 50.31900
H  21.44500 -12.67400 49.65600
H  21.14600 -10.86700 49.77400
H  22.38700 -11.59800 50.74100
H  26.19600 -12.36500 49.58300
H  25.66500 -12.30400 47.85500
H  24.07300 -14.15000 48.40700
H  24.59900 -14.08600 50.13400
H  25.71200 -14.58100 48.82700
H  29.65800 -7.46400 49.67400
H  29.51400 -8.88400 48.76800
H  28.45100 -8.73400 50.11000
H  28.36900 -4.92000 44.76800
H  29.43600 -1.22600 46.12400
H  27.82500 -0.77900 45.51800
H  29.19400 -1.04200 44.39300
Mg 53.93000 22.43200 44.52200
C  51.51900 24.83500 43.49400
C  51.76600 19.98400 43.48400
C  56.46400 20.24000 44.76400
C  56.06300 24.97500 45.28400
N  51.91100 22.50300 43.56700
C  51.09300 23.56900 43.13200
C  49.88800 23.03600 42.38000
C  49.89200 21.55100 42.63700
C  51.23600 21.33600 43.39200
C  48.67200 21.00800 43.47600
C  49.89300 23.36100 40.87400
C  48.50000 23.45400 40.17000
H  48.15800 22.73400 38.81000
N  54.09900 20.37400 44.12600
C  53.08500 19.52200 43.75200
C  53.56800 18.16300 43.65500
C  54.92700 18.18200 44.16200
C  55.21000 19.66500 44.39000
C  52.77000 16.97200 43.20600
C  55.86900 16.90400 44.29900
O  55.50600 15.77600 44.01100
C  57.32600 17.09600 44.67200
N  56.01900 22.58900 44.69400
C  56.84900 21.55100 44.90700
C  58.27200 21.94700 45.20100
C  58.06000 23.38100 45.59800
C  56.60200 23.71500 45.13800
C  58.95800 21.13400 46.34000
C  59.13500 24.51800 45.09500
C  60.10600 25.01700 46.22900
N  53.79200 24.51200 44.51200
C  54.76300 25.42300 44.92300
C  54.11300 26.74400 45.00400
C  52.88300 26.54500 44.37600
C  52.73800 25.17300 44.14800
C  54.77300 28.00300 45.56600
C  51.65100 27.22700 43.97700
O  51.26500 28.36500 44.13500
C  50.70400 26.10400 43.37400
C  50.48800 26.51600 41.90400
O  51.44100 26.55900 41.11300
O  49.22200 26.90100 41.65800
C  48.93900 27.37600 40.30000
H  51.05300 19.15800 43.45200
H  57.21900 19.55800 45.15900
H  56.69600 25.72700 45.76200
H  49.02900 23.43600 42.91800
H  49.83900 21.06600 41.66200
H  48.93900 20.50400 44.40500
H  48.13800 20.31900 42.82100
H  47.93300 21.77800 43.69800
H  50.40100 22.60600 40.27300
H  50.43500 24.29400 40.71800
H  48.20900 24.48200 39.95100
H  47.75900 23.10100 40.88600
H  53.37900 16.51400 42.42600
H  51.78200 17.16800 42.78900
H  52.63100 16.40900 44.12900
H  57.67100 17.74600 43.86800
H  57.80500 16.11700 44.68200
H  57.48800 17.52300 45.66200
H  58.88900 21.90000 44.30400
H  57.92400 23.50500 46.67300
H  59.62400 20.35700 45.96500
H  58.09700 20.67000 46.82100
H  59.49900 21.72500 47.07900
H  58.65100 25.25700 44.45500
H  59.73800 23.98800 44.35800
H  61.05700 24.63400 45.85700
H  59.90600 24.46200 47.14500
H  59.97600 26.08900 46.37500
H  55.85500 27.98300 45.44200
H  54.48400 28.19900 46.59900
H  54.41500 28.79300 44.90600
H  49.73600 26.08900 43.87500
H  48.79500 28.45600 40.33400
H  47.99400 26.96400 39.94600
H  49.68000 27.21200 39.51800

