158

Mg 3.21600 0.07900 44.43700
C  6.09100 1.85200 44.00600
C  1.44100 2.84900 43.22000
C  0.43000 -1.89600 44.11400
C  5.10100 -2.70900 45.29800
N  3.79500 2.10700 43.56400
C  4.99500 2.61200 43.52900
C  5.06400 3.98900 42.84400
C  3.54600 4.40700 42.99700
C  2.85100 3.04000 43.27600
C  3.27900 5.44000 44.00600
C  5.64500 4.00800 41.42400
C  5.51700 2.80000 40.44800
H  5.93700 3.14400 38.94500
N  1.16500 0.39600 43.77900
C  0.64100 1.69600 43.49700
C  -0.80600 1.56900 43.35800
C  -1.10300 0.25900 43.61900
C  0.18500 -0.50600 43.90300
C  -1.70900 2.76900 42.92100
C  -2.56700 -0.39200 43.77600
O  -3.50000 0.35600 43.64800
C  -2.85400 -1.86500 44.09900
N  2.89400 -1.99800 44.40600
C  1.64700 -2.59200 44.30200
C  1.71600 -4.13500 44.69600
C  3.24800 -4.38400 45.00100
C  3.75800 -2.94100 44.98500
C  0.70500 -4.60900 45.69500
C  3.91400 -5.36900 43.98900
C  4.87300 -6.21400 44.76600
N  5.16700 -0.32900 44.87500
C  5.76300 -1.48300 45.34400
C  7.18000 -1.23100 45.52400
C  7.33200 0.12500 45.10000
C  6.08900 0.57100 44.60900
C  8.20700 -2.22100 45.96900
C  8.26300 1.20000 44.87300
O  9.47100 1.17600 45.10700
C  7.50400 2.36000 44.13800
C  7.70800 3.64300 44.87000
O  8.68600 4.36300 44.84100
O  6.60700 3.91400 45.60600
C  6.79100 5.14000 46.45700
H  0.95000 3.76100 42.87600
H  -0.38100 -2.59400 43.89600
H  5.70700 -3.56600 45.59900
H  5.76900 4.67700 43.31000
H  3.15500 4.69700 42.02100
H  4.06600 5.77300 44.68300
H  2.42900 5.15800 44.62700
H  3.02400 6.32200 43.41900
H  6.68200 4.33100 41.51600
H  5.21000 4.89200 40.95700
H  4.49600 2.42300 40.38700
H  6.08300 1.93000 40.78100
H  -2.61200 2.38100 42.45000
H  -1.38400 3.35700 42.06300
H  -2.01000 3.36500 43.78200
H  -3.91100 -2.11200 44.00100
H  -2.69800 -2.15300 45.13800
H  -2.31100 -2.58300 43.48500
H  1.41700 -4.56300 43.73900
H  3.41900 -4.73000 46.02000
H  -0.01000 -5.28600 45.22600
H  0.17100 -3.76000 46.12200
H  1.21800 -5.15600 46.48500
H  4.49100 -4.87500 43.20700
H  3.19100 -6.04700 43.53600
H  4.96000 -6.04300 45.83900
H  5.85400 -5.99400 44.34600
H  4.58600 -7.23500 44.51400
H  9.20300 -1.81200 45.79900
H  8.08500 -3.16900 45.44400
H  7.93800 -2.42500 47.00600
H  7.99900 2.40900 43.16800
H  6.07800 5.21800 47.27800
H  6.84700 6.06800 45.88700
H  7.73100 4.97700 46.98300
Mg 45.00000 2.97000 46.56500
C  42.67500 5.66500 46.15500
C  42.49900 0.82000 45.98200
C  47.30500 0.64700 46.78100
C  47.55600 5.45500 46.26800
N  42.77000 3.22300 46.10000
C  42.07000 4.37900 45.94300
C  40.59000 4.12900 45.65700
C  40.48400 2.58200 45.83300
C  42.01800 2.13900 45.80100
C  39.76400 2.19800 47.21900
C  40.29000 4.59300 44.12100
C  38.98500 5.26700 43.94900
H  38.15700 4.94900 42.65400
N  44.95700 0.92700 46.43400
C  43.81900 0.21000 46.20700
C  44.10900 -1.23100 46.13400
C  45.55100 -1.29400 46.46600
C  46.01500 0.07600 46.65400
C  43.15500 -2.28700 45.70600
C  46.31800 -2.59400 46.70200
O  45.85600 -3.63600 46.48700
C  47.71600 -2.57200 47.21200
N  47.04500 3.00500 46.21100
C  47.74300 1.95200 46.72800
C  49.23000 2.27300 46.83800
C  49.41300 3.63000 46.09500
C  47.91700 4.10500 46.09500
C  49.71800 2.27800 48.35000
C  49.96900 3.46800 44.65500
C  51.47200 3.05900 44.44100
N  45.15500 5.10400 46.44000
C  46.24000 5.96200 46.44000
C  45.86200 7.32000 46.40300
C  44.44100 7.26700 46.33800
C  44.08600 5.88700 46.38000
C  46.74600 8.51300 46.35100
C  43.19100 8.02400 46.32600
O  43.00400 9.21500 46.43400
C  41.93700 7.01200 46.22300
C  41.14900 7.06100 47.50400
O  41.28000 6.28900 48.41400
O  40.07800 7.93500 47.45900
C  39.16100 7.76000 48.61700
H  41.70300 0.07400 45.93400
H  48.13000 -0.03900 46.98600
H  48.38600 6.16300 46.31600
H  39.96300 4.66400 46.37000
H  39.93800 2.15000 44.99500
H  38.91400 1.55600 46.98900
H  39.40500 3.12300 47.67000
H  40.49400 1.76400 47.90300
H  40.37300 3.77000 43.41200
H  41.06900 5.32400 43.90300
H  39.21900 6.33100 43.92200
H  38.30000 5.10500 44.78100
H  43.67500 -3.06200 45.14200
H  42.51700 -1.80300 44.96600
H  42.58100 -2.75100 46.50700
H  48.25200 -2.31600 46.29800
H  48.17600 -3.51800 47.49600
H  47.70800 -1.84300 48.02300
H  49.70500 1.46200 46.28500
H  49.99600 4.34000 46.68100
H  50.46500 3.02900 48.60600
H  50.04700 1.29600 48.69300
H  48.76600 2.49900 48.83100
H  49.61500 4.39700 44.20900
H  49.40500 2.65400 44.19900
H  52.17200 3.87600 44.26400
H  51.52200 2.29400 43.66700
H  51.76300 2.71900 45.43600
H  46.55200 9.20800 47.16800
H  46.45100 9.08200 45.47000
H  47.81900 8.31900 46.32400
H  41.21300 7.28900 45.45700
H  39.30800 8.41800 49.47400
H  39.10400 6.79000 49.11100
H  38.12900 7.99200 48.35300

