158

Mg 26.19200 -0.27600 29.11600
C  27.85800 -0.65100 32.08100
C  23.17700 0.16600 30.83700
C  24.54100 -0.27900 26.14100
C  29.22600 -0.87600 27.34800
N  25.53100 -0.50300 31.18200
C  26.44900 -0.41200 32.21900
C  25.63200 -0.08100 33.57200
C  24.12900 0.19700 33.04500
C  24.27100 -0.08600 31.56700
C  23.04400 -0.72700 33.81700
C  26.15100 1.04500 34.54000
C  26.46800 0.47200 35.94800
H  27.30100 1.39900 36.82600
N  24.16500 -0.03100 28.60100
C  23.06700 0.16300 29.43900
C  21.84800 0.37200 28.63100
C  22.24600 0.27200 27.22200
C  23.70100 -0.00900 27.27500
C  20.48000 0.55300 29.28100
C  21.45600 0.33300 25.92700
O  21.90300 0.24900 24.79800
C  19.98100 0.49900 26.11200
N  26.81500 -0.49100 27.08900
C  25.95000 -0.52300 26.04100
C  26.60500 -0.90100 24.72200
C  28.10800 -0.66600 25.01800
C  28.07900 -0.66900 26.62500
C  26.22300 -2.34900 24.37300
C  28.74500 0.72400 24.61800
C  29.12300 0.86900 23.06500
N  28.08700 -0.70700 29.60700
C  29.21800 -0.92000 28.78500
C  30.31700 -1.22400 29.67300
C  29.89500 -1.06200 30.96500
C  28.51200 -0.83900 30.84600
C  31.71000 -1.52300 29.28900
C  30.24100 -0.97700 32.34000
O  31.33500 -1.00900 32.96700
C  28.95000 -0.70600 33.13300
C  28.72300 -1.93200 34.05700
O  28.43200 -3.08400 33.77000
O  29.10400 -1.55700 35.33500
C  29.14100 -2.70400 36.30700
H  22.36800 0.49800 31.49100
H  24.09400 -0.38700 25.15100
H  30.14300 -1.04400 26.78000
H  25.68200 -1.04500 34.07900
H  23.90400 1.26100 33.11700
H  22.47400 -1.37700 33.15200
H  22.30600 -0.19100 34.41400
H  23.64500 -1.37900 34.45100
H  25.46200 1.88900 34.57200
H  27.14500 1.29800 34.17200
H  26.88900 -0.52600 35.82500
H  25.47500 0.35700 36.38200
H  20.07900 1.54000 29.05400
H  20.65000 0.54900 30.35700
H  19.83000 -0.27800 29.00600
H  19.51000 0.58100 25.13200
H  19.84100 1.40100 26.70800
H  19.57400 -0.42600 26.52000
H  26.22200 -0.36700 23.85200
H  28.73400 -1.49800 24.69400
H  25.28600 -2.62200 24.85800
H  26.98500 -3.04800 24.71800
H  26.00100 -2.53400 23.32200
H  29.69900 0.99000 25.07400
H  27.99400 1.47600 24.86200
H  28.45900 1.55300 22.53700
H  28.92100 -0.08500 22.57900
H  30.13700 1.22300 22.87900
H  31.91200 -1.22100 28.26100
H  31.89300 -2.59700 29.27600
H  32.44300 -1.13700 29.99700
H  29.06900 0.17600 33.76200
H  28.37300 -2.58000 37.07100
H  30.11500 -2.83400 36.78000
H  28.99000 -3.69600 35.88100
Mg 47.13200 44.19900 43.13800
C  43.73900 43.37900 42.74500
C  47.83100 40.84400 42.42900
C  50.36500 45.08600 42.79800
C  46.23000 47.67200 42.77000
N  45.87300 42.30900 42.70000
C  44.52400 42.19700 42.67900
C  44.09200 40.75900 42.54800
C  45.45600 39.98600 42.55100
C  46.44600 41.07500 42.49500
C  45.64700 38.85800 43.56800
C  43.13700 40.54300 41.32500
C  43.57500 41.20800 39.99400
H  43.23900 40.48200 38.67000
N  48.87700 43.14800 42.71400
C  48.90000 41.78100 42.41300
C  50.25600 41.40200 42.19100
C  51.07500 42.59400 42.32000
C  50.11100 43.69900 42.56600
C  50.71600 39.94700 41.92300
C  52.55100 42.63600 42.04600
O  53.21100 41.65100 41.62800
C  53.22800 43.90800 42.17700
N  48.14500 46.14100 42.63300
C  49.51700 46.17900 42.90900
C  50.00100 47.65500 42.97600
C  48.65300 48.43700 42.87300
C  47.58200 47.34800 42.68000
C  50.98700 47.96500 44.18400
C  48.57000 49.52300 41.74500
C  48.41400 50.96800 42.27100
N  45.44800 45.37200 42.96600
C  45.18700 46.68500 42.85600
C  43.74000 46.96100 42.81500
C  43.17900 45.65700 42.81400
C  44.23100 44.75900 42.86000
C  43.02100 48.30000 42.74700
C  41.93200 45.02300 42.71100
O  40.77800 45.46200 42.53000
C  42.23400 43.49600 42.79800
C  41.74200 43.15300 44.16700
O  40.91600 42.29600 44.30600
O  42.35300 43.79700 45.21200
C  42.02500 43.24800 46.54400
H  48.13100 39.80300 42.29800
H  51.38900 45.39000 43.02500
H  45.90300 48.71200 42.83600
H  43.51900 40.48100 43.43200
H  45.52500 39.52400 41.56700
H  44.85700 38.58300 44.26700
H  46.43400 39.09800 44.28300
H  45.92500 37.95400 43.02600
H  42.15000 40.90800 41.60800
H  43.05800 39.47300 41.13200
H  44.65400 41.34500 40.06100
H  43.02600 42.14000 39.86200
H  51.78600 39.75100 41.85900
H  50.14600 39.51800 41.09900
H  50.46600 39.36600 42.81000
H  52.76400 44.62600 41.50100
H  54.26600 43.82300 41.85600
H  53.19600 44.19200 43.22900
H  50.50400 47.82100 42.02300
H  48.55300 48.91500 43.84800
H  52.00700 47.95200 43.80000
H  50.97800 47.13800 44.89300
H  50.63700 48.85600 44.70500
H  47.85500 49.16400 41.00500
H  49.55500 49.59600 41.28300
H  49.16000 51.66500 41.88800
H  48.56700 51.04500 43.34800
H  47.36100 51.22200 42.15300
H  42.06100 48.27400 43.26300
H  42.77700 48.51200 41.70600
H  43.71000 49.03300 43.16500
H  41.68900 42.95300 42.02600
H  42.68300 42.39900 46.72500
H  41.03500 42.81500 46.68800
H  42.14800 44.02000 47.30400

