158

Mg 30.77700 58.75800 40.91700
C  27.92400 56.91500 39.92900
C  32.73300 56.26400 39.53000
C  33.51900 60.74500 41.34700
C  28.68600 61.43100 41.70300
N  30.34300 56.91000 39.72700
C  29.13600 56.32400 39.57600
C  29.22700 54.80100 39.05200
C  30.79800 54.65500 39.10400
C  31.30800 56.03500 39.45200
C  31.39300 53.37800 39.96600
C  28.60100 54.68900 37.67500
C  28.40700 55.90800 36.80800
H  28.09600 55.68400 35.36400
N  32.80700 58.51700 40.61000
C  33.38400 57.37300 40.03400
C  34.78700 57.60700 40.05400
C  35.07200 58.79700 40.71700
C  33.80000 59.40700 41.02700
C  35.76000 56.60100 39.34900
C  36.49700 59.39000 40.93600
O  37.51100 58.84200 40.49400
C  36.70300 60.55100 41.88300
N  31.05700 60.84500 41.37300
C  32.27200 61.39300 41.44300
C  32.12900 62.92100 41.60300
C  30.60500 63.10200 41.92300
C  30.05200 61.69300 41.68500
C  33.12900 63.62000 42.57600
C  30.05200 64.21400 41.02000
C  28.87600 65.06400 41.52500
N  28.70000 59.20300 40.85100
C  27.99400 60.27300 41.24400
C  26.58000 59.98900 41.12100
C  26.53200 58.66900 40.59000
C  27.82600 58.23200 40.49500
C  25.54900 61.01900 41.42200
C  25.60900 57.54400 40.24800
O  24.37900 57.46000 40.24100
C  26.52100 56.35500 39.80000
C  26.34300 55.20800 40.71800
O  26.86900 55.10700 41.79900
O  25.41400 54.44800 40.07300
C  24.88500 53.31900 40.88500
H  33.30400 55.41300 39.15300
H  34.36900 61.40400 41.15900
H  28.17700 62.38300 41.86600
H  28.72300 54.08800 39.70500
H  31.22300 54.45900 38.12000
H  30.61700 52.66400 40.24100
H  31.96300 53.53300 40.88100
H  32.19700 52.95100 39.36700
H  27.55400 54.39400 37.75300
H  29.12000 53.94200 37.07500
H  29.34100 56.46800 36.76100
H  27.54500 56.51300 37.09000
H  36.18000 57.22500 38.56000
H  35.27500 55.69400 38.98800
H  36.52200 56.20700 40.02100
H  36.87100 61.53200 41.43800
H  37.57000 60.38900 42.52200
H  35.91000 60.73900 42.60600
H  32.53900 63.31900 40.67500
H  30.46600 63.30100 42.98500
H  33.61800 64.44600 42.06000
H  33.89300 62.92300 42.92300
H  32.65300 63.95000 43.49900
H  29.71400 63.90700 40.03000
H  30.89900 64.89000 40.91000
H  28.11700 65.15000 40.74700
H  29.34100 66.04400 41.63500
H  28.49300 64.76800 42.50100
H  25.88100 62.05600 41.37400
H  25.10000 60.69800 42.36200
H  24.79200 60.89200 40.64800
H  26.45900 55.95700 38.78700
H  24.27300 53.55200 41.75700
H  25.68800 52.60400 41.06600
H  24.21700 52.76400 40.22800
Mg 16.79400 51.97700 26.66800
C  18.56400 50.54000 29.23600
C  14.30000 52.94200 28.94900
C  15.19100 53.51900 24.15000
C  19.17500 50.69200 24.41000
N  16.49000 51.74600 28.74100
C  17.38200 51.19500 29.60600
C  16.88600 51.37900 31.02600
C  15.35200 51.82100 30.93500
C  15.35200 52.18700 29.47400
C  14.29400 50.75800 31.37600
C  17.74800 52.33400 31.84500
C  17.76200 52.16900 33.36900
H  16.61600 51.32100 33.97600
N  15.04800 53.11000 26.59400
C  14.20100 53.37700 27.62700
C  13.18100 54.34000 27.13500
C  13.42700 54.57900 25.77000
C  14.56400 53.69600 25.45800
C  12.02300 54.79200 27.98300
C  12.73800 55.48300 24.70600
O  13.11200 55.56900 23.55300
C  11.56200 56.34100 25.13700
N  17.08900 52.00300 24.63800
C  16.24500 52.72700 23.75500
C  16.70400 52.50900 22.27800
C  18.15700 51.99100 22.45700
C  18.13500 51.48000 23.90400
C  15.77900 51.54800 21.47200
C  19.33400 52.98400 22.25600
C  20.18400 52.71800 21.04400
N  18.49700 50.78600 26.76000
C  19.46700 50.40900 25.78000
C  20.61700 49.71900 26.41400
C  20.30700 49.78000 27.74800
C  19.02400 50.36100 27.94000
C  21.86200 49.18700 25.72000
C  20.81000 49.43700 29.07100
O  21.86900 48.94100 29.37600
C  19.71300 49.99400 30.09500
C  19.33800 48.84900 31.02600
O  18.70000 47.83700 30.80700
O  19.85900 49.13900 32.27500
C  19.40700 48.18700 33.25800
H  13.52900 53.27800 29.64600
H  14.55900 53.79800 23.30500
H  20.05900 50.38600 23.84800
H  16.90000 50.36600 31.42800
H  15.19400 52.70800 31.55000
H  13.47300 50.69800 30.66100
H  13.87100 51.17300 32.29100
H  14.80100 49.80600 31.53300
H  17.41400 53.33500 31.57500
H  18.78300 52.25300 31.51100
H  17.69000 53.17300 33.78600
H  18.71400 51.80900 33.76000
H  12.25800 55.83600 28.19300
H  11.82400 54.28500 28.92700
H  11.11400 54.85300 27.38500
H  10.72500 55.64800 25.21700
H  11.31500 57.10500 24.40000
H  11.69300 56.82800 26.10400
H  16.69900 53.46200 21.74900
H  18.25600 51.20700 21.70600
H  15.53600 52.10000 20.56400
H  14.84000 51.36300 21.99400
H  16.30000 50.62800 21.20700
H  19.97600 52.93600 23.13600
H  18.94500 53.98700 22.08500
H  21.18800 52.37300 21.29100
H  20.21700 53.58900 20.38900
H  19.77000 51.86400 20.50800
H  21.52800 48.64100 24.83800
H  22.24400 48.47500 26.45200
H  22.51700 50.03200 25.50500
H  20.06500 50.79800 30.74100
H  19.65700 47.13100 33.15200
H  18.32000 48.24100 33.21000
H  19.76400 48.48300 34.24400

