158

Mg 25.64700 1.82200 29.94400
C  27.81100 1.63800 32.84800
C  23.06200 2.16200 32.14300
C  23.72600 1.64100 27.37100
C  28.49700 1.38700 28.03200
N  25.48800 1.88700 32.22700
C  26.49200 1.93500 33.14800
C  25.94400 2.26300 34.58300
C  24.39800 2.23200 34.41300
C  24.30200 2.13200 32.84800
C  23.54200 1.20900 35.19000
C  26.55800 3.62600 35.17100
C  27.20100 3.46600 36.59300
H  26.64300 4.38300 37.64900
N  23.64400 1.88900 29.72900
C  22.71000 2.00300 30.76700
C  21.39500 1.95300 30.23600
C  21.52500 1.76000 28.81400
C  23.00300 1.73700 28.55700
C  20.17300 2.24000 31.09800
C  20.42500 1.54200 27.74700
O  20.88500 1.22400 26.65000
C  18.89300 1.61000 27.95400
N  26.03100 1.47000 27.98700
C  25.05900 1.51700 27.07000
C  25.60800 1.45800 25.68800
C  27.17600 1.45600 25.86400
C  27.25600 1.42600 27.34300
C  25.05100 0.33600 24.80200
C  27.91300 2.68300 25.17900
C  27.46400 2.92900 23.76300
N  27.80000 1.51200 30.29800
C  28.81000 1.28200 29.42400
C  30.08900 1.01100 30.13000
C  29.71000 1.23700 31.50400
C  28.36100 1.48300 31.56500
C  31.36200 0.59400 29.45400
C  30.26600 1.28800 32.76200
O  31.41400 1.01800 33.12700
C  29.12700 1.50900 33.71600
C  29.06600 0.36200 34.64700
O  28.25300 -0.54000 34.49200
O  29.86700 0.53900 35.77000
C  29.52300 -0.34500 36.92800
H  22.31000 2.48300 32.86700
H  23.12500 1.71000 26.46200
H  29.33800 1.38800 27.33500
H  26.31300 1.43800 35.19200
H  23.98900 3.22800 34.58400
H  23.28100 0.40900 34.49700
H  22.70200 1.66100 35.71600
H  23.98200 0.71900 36.05800
H  25.80000 4.40700 35.23500
H  27.29600 4.07100 34.50500
H  28.26100 3.67200 36.74000
H  26.88100 2.48800 36.95500
H  19.82900 1.45000 31.76600
H  19.41100 2.41000 30.33800
H  20.15800 3.15700 31.68700
H  18.35800 1.17000 27.11200
H  18.69400 2.67900 28.03000
H  18.53900 1.15100 28.87800
H  25.20900 2.35800 25.22000
H  27.53900 0.52900 25.41900
H  24.38800 -0.34100 25.34000
H  25.77800 -0.40100 24.46300
H  24.46200 0.76100 23.98800
H  28.99600 2.58100 25.10900
H  27.62300 3.48800 25.85500
H  26.89600 2.12300 23.29900
H  28.24500 3.12000 23.02800
H  26.76100 3.76000 23.82200
H  32.09100 1.39600 29.56400
H  31.11900 0.46600 28.39900
H  31.65500 -0.34100 29.93300
H  29.29800 2.39700 34.32500
H  28.67000 0.10500 37.43600
H  30.34600 -0.32600 37.64300
H  29.30500 -1.35300 36.57700
Mg 29.79700 58.10300 41.23700
C  26.85200 56.55800 39.81100
C  31.53400 55.37100 39.92000
C  32.39700 59.98700 41.33800
C  27.60500 60.78200 42.21600
N  29.22200 56.22700 39.80100
C  27.96800 55.78000 39.49400
C  28.03800 54.54500 38.66000
C  29.46900 53.95800 39.09100
C  30.16000 55.19800 39.75000
C  29.31800 52.85200 40.25100
C  27.83600 54.88700 37.12900
C  27.12400 53.88700 36.31700
H  27.60300 53.90800 34.82900
N  31.75200 57.70800 40.78000
C  32.29300 56.52200 40.27200
C  33.75700 56.64000 40.28300
C  34.05900 58.02100 40.54000
C  32.74300 58.66000 40.89400
C  34.75800 55.55400 39.92800
C  35.39100 58.69100 40.36700
O  36.30900 58.05300 39.91200
C  35.49700 60.21200 40.65700
N  29.98700 60.09100 41.74700
C  31.19600 60.64300 41.65900
C  31.23300 62.02300 42.30600
C  29.74300 62.28200 42.52300
C  29.03900 60.99000 42.11400
C  32.15400 62.18900 43.52400
C  29.25500 63.36900 41.61900
C  28.14700 64.26400 42.26400
N  27.72400 58.60000 41.12500
C  27.00300 59.63900 41.67400
C  25.61400 59.42600 41.42300
C  25.53000 58.23400 40.74400
C  26.82300 57.78200 40.53000
C  24.42100 60.26900 41.76900
C  24.62700 57.36500 40.08600
O  23.42600 57.34400 39.95200
C  25.46000 56.23100 39.39100
C  24.88700 54.99100 39.91000
O  25.35000 54.37900 40.83000
O  23.78500 54.59100 39.17400
C  23.02900 53.42200 39.62900
H  32.09900 54.50900 39.55800
H  33.23700 60.65400 41.53800
H  27.04600 61.69200 42.44600
H  27.28600 53.81700 38.96400
H  30.10000 53.51300 38.32200
H  29.52300 53.15000 41.28000
H  29.99900 52.03600 40.00900
H  28.35000 52.36000 40.16000
H  28.79600 55.03300 36.63300
H  27.34300 55.85600 37.05200
H  26.11200 54.28800 36.28200
H  26.99300 52.91500 36.79300
H  35.04300 55.53200 38.87600
H  34.31800 54.60400 40.23100
H  35.61600 55.70700 40.58300
H  36.53300 60.48700 40.46100
H  35.26300 60.35900 41.71100
H  34.77200 60.77000 40.06400
H  31.73000 62.70200 41.61300
H  29.51300 62.53300 43.55800
H  32.49800 61.25800 43.97400
H  31.74200 62.82700 44.30600
H  32.99700 62.72000 43.08200
H  28.90700 62.98400 40.66000
H  29.94800 64.18000 41.39400
H  28.44200 65.29300 42.05900
H  28.06200 64.09000 43.33700
H  27.22600 64.02000 41.73500
H  23.95500 59.83000 42.65100
H  23.70500 60.34200 40.94900
H  24.60100 61.31400 42.02200
H  25.33700 56.38500 38.32000
H  22.60500 52.80200 38.83800
H  22.21400 53.76700 40.26600
H  23.61800 52.72400 40.22300

