158

Mg 0.56400 7.72000 27.52500
C  1.49000 9.76400 30.07700
C  0.37400 5.03800 29.72300
C  -0.13100 5.59400 24.88500
C  0.97800 10.34900 25.33000
N  1.02100 7.42000 29.59900
C  1.25500 8.45300 30.51200
C  1.10300 7.88600 31.92900
C  1.18900 6.30100 31.66600
C  0.85500 6.22800 30.20800
C  2.48500 5.60900 32.04100
C  -0.25500 8.34300 32.66800
C  -0.35100 8.02000 34.18000
H  1.02300 7.89700 34.90000
N  0.32300 5.53600 27.35200
C  0.15200 4.63100 28.42700
C  -0.34000 3.39200 27.83000
C  -0.38100 3.52500 26.45200
C  -0.09900 4.95600 26.19400
C  -0.61200 2.23700 28.72500
C  -0.76700 2.48900 25.39000
O  -0.78000 2.73000 24.20400
C  -1.13900 1.04600 25.82900
N  0.51200 7.98400 25.36900
C  0.19100 6.97900 24.51300
C  0.24700 7.44300 23.10600
C  0.63400 8.92600 23.20000
C  0.67000 9.17000 24.71700
C  1.37000 6.64100 22.38800
C  -0.16000 9.93400 22.34200
C  -1.40000 10.49200 22.91400
N  1.06700 9.73700 27.60700
C  1.18400 10.71800 26.63500
C  1.54000 11.97600 27.30000
C  1.69100 11.67600 28.66800
C  1.32400 10.29500 28.78300
C  1.91800 13.33300 26.57300
C  2.08100 12.10100 29.99700
O  2.55300 13.13500 30.38700
C  1.89000 10.96100 30.97800
C  3.01600 10.75200 31.95900
O  3.92000 9.95100 32.02800
O  2.68400 11.57800 32.99500
C  3.50800 11.53100 34.24900
H  0.15400 4.27800 30.47600
H  -0.44100 4.99400 24.02700
H  1.08400 11.23200 24.69700
H  1.91700 8.31500 32.51300
H  0.44500 5.73900 32.23100
H  2.93200 5.09200 31.19200
H  2.33600 4.90500 32.86000
H  3.17100 6.41700 32.29500
H  -1.12600 7.94900 32.14400
H  -0.30300 9.43200 32.64300
H  -0.92200 7.09200 34.22600
H  -0.88100 8.75100 34.79000
H  -1.63200 1.98500 28.43500
H  -0.63200 2.52700 29.77600
H  0.10000 1.44400 28.49700
H  -0.42400 0.54900 26.48600
H  -1.30600 0.46300 24.92400
H  -2.16100 0.97300 26.19900
H  -0.71000 7.20900 22.63900
H  1.66000 9.02500 22.84800
H  2.00500 6.10000 23.08900
H  2.00500 7.26200 21.75600
H  0.88300 5.90000 21.75400
H  -0.36500 9.54500 21.34500
H  0.58300 10.73000 22.39200
H  -1.15400 11.45000 23.37200
H  -1.80400 9.74700 23.60000
H  -2.10400 10.64700 22.09600
H  2.54200 13.02600 25.73400
H  2.40000 14.12500 27.14600
H  0.95800 13.74600 26.26100
H  1.05800 11.24100 31.62400
H  2.89200 11.08700 35.03100
H  3.82700 12.50900 34.60800
H  4.43700 10.97400 34.13200
Mg 0.85400 42.72800 26.42400
C  1.98900 43.42500 29.65000
C  -2.13500 41.52000 27.81400
C  -0.12300 41.99100 23.32200
C  3.88700 43.63500 25.16300
N  -0.04000 42.63000 28.59600
C  0.61800 43.04400 29.69500
C  -0.32300 42.91500 30.92100
C  -1.52500 42.17000 30.35500
C  -1.15700 41.97000 28.81700
C  -2.01100 40.76900 31.05100
C  -0.69900 44.24300 31.77900
C  0.01100 44.39700 33.07600
H  -0.61200 43.73500 34.46100
N  -0.82900 41.92600 25.71700
C  -1.96200 41.53800 26.41300
C  -2.93900 41.05800 25.52300
C  -2.39400 41.25400 24.21100
C  -1.06800 41.82700 24.37000
C  -4.41300 40.55900 25.93400
C  -3.05600 40.85800 22.88100
O  -2.75400 41.18600 21.79100
C  -4.33400 39.95500 22.89900
N  1.84600 42.59600 24.51500
C  1.16700 42.39900 23.36200
C  1.96700 42.64100 22.11500
C  3.16800 43.37800 22.76900
C  2.94300 43.20700 24.21900
C  2.37600 41.31300 21.35000
C  3.24600 44.83400 22.22700
C  3.26100 45.07200 20.72900
N  2.63100 43.28700 27.21800
C  3.79300 43.57300 26.55000
C  4.79600 43.99700 27.52300
C  4.08400 43.95000 28.73600
C  2.77500 43.48400 28.49800
C  6.15700 44.51900 27.32600
C  4.29100 44.17900 30.16000
O  5.26000 44.56800 30.82900
C  2.93800 43.75300 30.84900
C  3.08500 42.57000 31.79300
O  3.15500 41.43000 31.34800
O  3.26400 43.00500 33.04500
C  3.57300 41.93000 34.02200
H  -3.06900 41.06900 28.15800
H  -0.55900 41.91300 22.32400
H  4.72500 44.24400 24.81700
H  0.00200 42.22500 31.70100
H  -2.45600 42.70400 30.54600
H  -2.02600 39.93700 30.34600
H  -3.00800 40.88600 31.47600
H  -1.41100 40.44500 31.90200
H  -1.78000 44.31500 31.90500
H  -0.43100 45.13200 31.20800
H  -0.00100 45.47800 33.21600
H  1.06500 44.13200 32.99400
H  -5.18500 40.94600 25.26800
H  -4.74400 40.90700 26.91300
H  -4.45100 39.47000 25.94800
H  -5.23600 40.39100 23.32900
H  -4.01400 38.96900 23.23700
H  -4.51100 39.72800 21.84800
H  1.37400 43.30100 21.48300
H  4.14200 42.97100 22.49600
H  1.99000 40.46100 21.90900
H  3.41700 41.13500 21.08000
H  1.82600 41.29300 20.40900
H  4.16600 45.29000 22.59200
H  2.47700 45.47900 22.65300
H  4.08000 45.78300 20.62400
H  2.41800 45.64900 20.35000
H  3.64600 44.22600 20.16000
H  6.41700 45.24900 28.09200
H  6.11200 45.02900 26.36400
H  6.92300 43.74600 27.26100
H  2.43300 44.50300 31.45700
H  3.21000 40.97400 33.64700
H  3.05800 42.03300 34.97800
H  4.65400 41.89800 34.15400

