158

Mg 10.44600 47.41300 26.53700
C  8.31600 47.66900 29.57400
C  12.99000 48.59100 28.50600
C  12.29200 47.75500 23.73500
C  7.53200 46.88600 24.60800
N  10.59000 47.91800 28.80400
C  9.66300 47.86500 29.81700
C  10.44400 48.16700 31.21900
C  11.78300 48.78700 30.77400
C  11.82500 48.37200 29.25800
C  11.93600 50.28500 30.87200
C  10.64900 46.95800 32.22300
C  10.35400 47.41800 33.60600
H  10.48900 46.35800 34.80200
N  12.36900 47.87900 26.16100
C  13.26900 48.34800 27.10200
C  14.60400 48.39200 26.56100
C  14.43900 48.04700 25.20800
C  13.00000 47.91100 24.96900
C  15.73500 48.82200 27.43500
C  15.51500 47.96100 24.10600
O  15.19100 47.78100 22.90800
C  17.01300 48.11300 24.32400
N  10.00400 47.37800 24.53500
C  10.92800 47.51900 23.58300
C  10.38500 47.26300 22.17700
C  8.91000 46.80400 22.43300
C  8.75200 47.01900 23.95200
C  10.48700 48.54700 21.30500
C  8.59800 45.34100 22.04800
C  9.57800 44.27100 22.60800
N  8.27700 47.30700 26.92500
C  7.25400 47.06500 26.02200
C  6.02700 47.09400 26.78500
C  6.34700 47.28400 28.18500
C  7.75700 47.43800 28.21300
C  4.66200 46.79400 26.18200
C  5.80100 47.34600 29.60400
O  4.67500 47.23300 30.03500
C  7.14100 47.57000 30.49100
C  7.24900 46.33100 31.31200
O  7.78300 45.27600 30.93500
O  6.64900 46.48600 32.52400
C  6.67300 45.28900 33.41700
H  13.76600 48.94300 29.18900
H  12.74100 47.67100 22.74300
H  6.68700 46.74900 23.92900
H  9.75000 48.85400 31.70400
H  12.67600 48.36500 31.23300
H  11.22000 50.78300 31.52600
H  11.81200 50.76600 29.90100
H  12.95700 50.47300 31.20200
H  11.71000 46.70700 32.21600
H  9.96400 46.17100 31.90700
H  9.31300 47.73700 33.55100
H  10.98400 48.25600 33.90600
H  15.90200 48.01400 28.14800
H  15.52000 49.74900 27.96600
H  16.67300 48.89400 26.88400
H  17.21300 48.90100 25.05000
H  17.52700 48.46400 23.42800
H  17.53300 47.21500 24.65600
H  10.86700 46.42000 21.68200
H  8.22300 47.53000 21.99900
H  10.67700 49.40800 21.94600
H  9.67600 48.64100 20.58300
H  11.44000 48.27300 20.85100
H  8.67900 45.25000 20.96500
H  7.56400 45.05300 22.24100
H  9.09100 43.56700 23.28300
H  10.34900 44.74500 23.21600
H  10.03700 43.61000 21.87300
H  4.82600 46.32800 25.21000
H  4.01500 47.63400 25.93200
H  4.22600 46.18400 26.97300
H  7.08400 48.46900 31.10400
H  5.68700 44.84900 33.26800
H  6.89900 45.42300 34.47400
H  7.38500 44.53400 33.08500
Mg -11.07700 38.98200 42.37500
C  -8.79700 36.23100 41.63400
C  -9.02200 41.09700 40.74900
C  -13.55400 41.13200 42.55500
C  -13.34500 36.44600 43.58500
N  -9.18500 38.59200 41.25600
C  -8.46600 37.44100 40.97700
C  -7.31900 37.74800 39.97300
C  -7.33200 39.34200 39.84500
C  -8.60400 39.72800 40.62900
C  -6.12900 40.01500 40.58000
C  -7.41900 36.95600 38.66500
C  -6.14600 36.32900 38.13500
H  -5.47200 37.20400 37.10600
N  -11.18200 40.82900 41.93400
C  -10.20400 41.58600 41.34300
C  -10.57700 42.94000 41.35500
C  -11.87400 43.01700 41.83900
C  -12.26700 41.64600 42.18500
C  -9.68700 44.03800 40.89700
C  -12.68800 44.24700 42.08500
O  -12.14900 45.34000 41.89800
C  -14.16200 44.31400 42.54700
N  -13.18800 38.74100 42.94400
C  -14.03900 39.86700 42.87700
C  -15.48600 39.50500 43.15800
C  -15.46300 37.95400 43.50700
C  -13.90800 37.73200 43.45400
C  -16.02200 40.40000 44.29400
C  -16.24000 37.07800 42.40600
C  -16.75000 35.76300 42.87500
N  -11.10200 36.88200 42.80900
C  -12.00600 36.08400 43.36100
C  -11.47100 34.75900 43.54900
C  -10.22700 34.76800 42.89400
C  -9.99700 36.09100 42.45000
C  -12.06800 33.53300 44.23600
C  -9.00200 33.95300 42.59200
O  -8.75900 32.79400 42.89900
C  -8.17100 34.88300 41.63500
C  -6.74300 34.81300 42.16200
O  -5.94300 33.83100 41.89900
O  -6.52100 35.98100 42.84600
C  -5.12700 36.01800 43.45400
H  -8.57200 41.91900 40.18900
H  -14.39100 41.83200 42.58200
H  -13.95000 35.57700 43.85200
H  -6.42200 37.48900 40.53500
H  -7.43600 39.72800 38.83100
H  -5.39900 39.23800 40.80400
H  -6.29600 40.46000 41.56100
H  -5.78800 40.86600 39.99000
H  -7.68500 37.70000 37.91400
H  -8.11900 36.12100 38.70500
H  -6.38100 35.33800 37.74600
H  -5.51300 36.13200 39.00000
H  -9.87600 44.94200 41.47600
H  -9.81800 44.30700 39.84900
H  -8.62000 43.81700 40.93600
H  -14.41300 45.37300 42.61800
H  -14.29100 44.03200 43.59200
H  -14.73700 43.76300 41.80300
H  -16.01800 39.55000 42.20800
H  -15.98300 37.78900 44.45100
H  -16.00100 39.83800 45.22700
H  -17.04100 40.74900 44.12500
H  -15.39100 41.26400 44.50200
H  -15.63300 36.93800 41.51200
H  -17.04700 37.70200 42.02200
H  -16.33000 35.62500 43.87100
H  -16.26900 35.02000 42.23900
H  -17.83800 35.72200 42.81700
H  -12.30800 33.99600 45.19300
H  -11.48900 32.62100 44.38500
H  -13.02900 33.33000 43.76500
H  -8.23500 34.54400 40.60100
H  -4.43100 36.66100 42.91600
H  -4.69400 35.01800 43.48200
H  -5.26800 36.33200 44.48800

