158

Mg 17.09500 -0.41900 27.76700
C  15.94300 1.61400 30.41600
C  19.10300 -2.02400 29.92600
C  18.72400 -1.75900 25.19200
C  15.28100 1.61700 25.52400
N  17.55300 -0.12500 29.91300
C  16.88400 0.68800 30.87100
C  17.51900 0.49400 32.22900
C  18.74600 -0.48300 31.91700
C  18.42700 -0.93700 30.45600
C  20.19900 0.06100 32.13300
C  16.33600 -0.16900 33.15600
C  16.36500 0.33500 34.63500
H  17.64900 0.91000 35.25600
N  18.58600 -1.87700 27.61100
C  19.19700 -2.45800 28.61100
C  19.98800 -3.50300 28.09500
C  20.01800 -3.33600 26.68900
C  19.09500 -2.29100 26.40600
C  20.83900 -4.38200 28.99800
C  20.78800 -4.13300 25.57300
O  20.45300 -4.00300 24.38300
C  21.76500 -5.18900 25.90600
N  16.95000 -0.15900 25.67600
C  17.84200 -0.71800 24.80800
C  17.68000 -0.30600 23.43300
C  16.43400 0.57500 23.49300
C  16.18800 0.73200 25.00200
C  18.93500 0.32300 22.74900
C  15.24500 -0.15200 22.77100
C  15.11500 0.20500 21.28300
N  15.66800 1.06900 27.91200
C  15.04200 1.80500 26.91900
C  14.24000 2.91800 27.47500
C  14.48000 2.75300 28.84100
C  15.45000 1.76400 29.04900
C  13.27500 3.85400 26.80000
C  14.23900 3.33500 30.18100
O  13.37800 4.18000 30.53500
C  15.14000 2.63200 31.25800
C  15.89700 3.62900 32.06000
O  16.90700 4.29300 31.80300
O  15.19300 3.72800 33.25800
C  15.70600 4.70900 34.17800
H  19.75100 -2.53600 30.63900
H  19.35900 -1.97500 24.33000
H  14.77100 2.31000 24.85200
H  17.83600 1.46700 32.60300
H  18.51800 -1.38800 32.48000
H  20.63700 -0.60700 32.87600
H  20.17400 0.99200 32.70000
H  20.74800 0.27800 31.21700
H  16.59000 -1.22300 33.26900
H  15.34300 0.06800 32.77300
H  16.01100 -0.45800 35.29300
H  15.58800 1.09900 34.63100
H  20.14700 -4.76200 29.74900
H  21.51500 -3.75400 29.57800
H  21.35700 -5.26700 28.62700
H  22.43400 -5.36800 25.06400
H  21.11400 -6.01900 26.18000
H  22.28500 -4.74800 26.75700
H  17.48800 -1.26200 22.94600
H  16.56400 1.60800 23.17000
H  19.73800 0.46800 23.47100
H  18.80500 1.30900 22.30100
H  19.18300 -0.37900 21.95300
H  14.32400 0.21400 23.22600
H  15.22300 -1.21000 23.03000
H  15.98700 0.74300 20.91100
H  14.21900 0.76000 21.00700
H  15.13100 -0.65900 20.61800
H  13.51400 3.88600 25.73700
H  13.36900 4.85600 27.21900
H  12.30400 3.41500 27.03300
H  14.40600 2.14000 31.89600
H  15.20700 5.66700 34.02700
H  16.79200 4.78700 34.21900
H  15.43900 4.40200 35.18900
Mg 36.54200 48.64700 24.51400
C  36.82400 46.81300 27.47000
C  35.49100 51.42600 26.33400
C  36.01600 50.30300 21.67000
C  37.73000 45.98800 22.78800
N  36.04100 48.97300 26.61400
C  36.37400 48.16000 27.71400
C  36.17000 48.89400 29.05200
C  35.81100 50.32400 28.63000
C  35.78000 50.27200 27.08400
C  34.40700 50.82300 29.18200
C  37.36400 48.74400 30.00100
C  37.08600 48.14400 31.36600
H  35.76500 48.27200 32.08700
N  35.80100 50.60700 24.07000
C  35.43800 51.57500 24.91500
C  34.86800 52.67600 24.23600
C  35.07200 52.45100 22.85000
C  35.65300 51.09700 22.81700
C  34.46900 53.92500 24.94500
C  34.66200 53.28400 21.57100
O  34.92500 52.88900 20.42800
C  33.90100 54.60500 21.69700
N  36.70300 48.11300 22.54700
C  36.46700 48.95900 21.55400
C  36.90400 48.44100 20.19600
C  37.48200 47.07200 20.50300
C  37.28400 47.03300 22.04600
C  35.96100 48.33600 19.05700
C  38.92700 46.92000 19.97500
C  40.15500 47.14800 20.98500
N  37.21000 46.72900 25.01800
C  37.65000 45.74900 24.19200
C  37.95800 44.54200 24.92600
C  37.62300 44.91200 26.23400
C  37.21600 46.26500 26.20100
C  38.45100 43.13700 24.38100
C  37.58400 44.42700 27.58600
O  37.96700 43.38200 28.08900
C  37.14900 45.63400 28.47000
C  36.04800 45.26700 29.32900
O  34.92100 45.23700 28.86700
O  36.48900 44.89100 30.57900
C  35.48100 44.31700 31.49100
H  35.17300 52.18300 27.05400
H  35.95400 50.85100 20.72800
H  38.17200 45.19400 22.18200
H  35.28500 48.45700 29.51400
H  36.55600 51.06600 28.91500
H  34.65700 51.53600 29.96700
H  33.84200 50.03500 29.68000
H  33.76500 51.20700 28.38900
H  37.84300 49.68400 30.27600
H  38.06100 48.16400 29.39600
H  37.84700 48.66400 31.94900
H  37.43900 47.11300 31.37800
H  35.21200 54.66600 24.65100
H  34.32600 53.75300 26.01200
H  33.49400 54.25000 24.58100
H  34.39900 55.28900 22.38400
H  32.91700 54.42200 22.12700
H  33.71500 55.04600 20.71700
H  37.63300 49.21900 19.96800
H  36.97300 46.17500 20.14800
H  35.88900 49.31500 18.58300
H  35.00900 48.08000 19.52200
H  36.26800 47.59500 18.31900
H  39.05900 47.57800 19.11600
H  39.07100 45.87800 19.68800
H  40.42100 46.13900 21.30300
H  39.96500 47.85400 21.79400
H  40.98300 47.64800 20.48200
H  37.79900 42.33300 24.71900
H  39.49600 42.97700 24.64500
H  38.46200 43.12200 23.29100
H  37.94000 45.91000 29.16700
H  35.80600 44.47100 32.52000
H  35.36300 43.25900 31.25600
H  34.53300 44.84900 31.41900

