158

Mg 55.38600 23.49300 45.35000
C  52.94500 25.71800 44.49200
C  53.39300 20.94200 44.04200
C  58.04900 21.43000 45.14200
C  57.40400 26.10200 46.39700
N  53.29400 23.39700 44.49300
C  52.49800 24.42500 44.14200
C  51.26600 23.88600 43.37000
C  51.33000 22.33900 43.57500
C  52.81400 22.22700 44.08000
C  50.26700 21.67800 44.57100
C  51.22700 24.38300 41.88000
C  49.86000 24.84000 41.34600
H  49.30200 24.33600 39.99100
N  55.65200 21.45900 44.77300
C  54.69300 20.52900 44.29300
C  55.24500 19.26600 44.13600
C  56.59000 19.32400 44.42700
C  56.84300 20.76600 44.79900
C  54.35700 18.11600 43.74500
C  57.64600 18.20500 44.37100
O  57.32400 17.05100 44.14600
C  59.16100 18.37000 44.55000
N  57.48500 23.73600 45.57200
C  58.36300 22.71400 45.57000
C  59.68600 23.09600 46.09600
C  59.48100 24.53000 46.54800
C  58.02000 24.85300 46.19700
C  60.22300 22.09400 47.15500
C  60.37700 25.65700 45.89700
C  61.61700 26.10900 46.66300
N  55.14600 25.45000 45.61200
C  56.07600 26.42900 46.01100
C  55.45000 27.73600 46.01000
C  54.23100 27.48100 45.41600
C  54.10200 26.12700 45.16400
C  56.13500 29.04700 46.39500
C  52.98700 28.09300 45.00100
O  52.66700 29.23900 45.05100
C  52.13500 26.99500 44.41600
C  51.67100 27.55800 43.10300
O  52.34300 27.66300 42.08200
O  50.44000 28.12800 43.24200
C  49.90900 29.03300 42.24300
H  52.73800 20.13100 43.71600
H  58.96600 20.83800 45.09600
H  57.96200 26.90500 46.88300
H  50.46200 24.39000 43.90600
H  51.27700 21.91300 42.57300
H  50.83300 21.13400 45.32600
H  49.65800 21.03200 43.93900
H  49.60300 22.38200 45.07300
H  51.63400 23.52300 41.34800
H  52.05400 25.08300 41.76500
H  49.94900 25.92600 41.32000
H  49.22100 24.50600 42.16400
H  54.07800 18.29900 42.70700
H  53.41300 18.04100 44.28600
H  54.91600 17.18000 43.73500
H  59.39100 19.11800 43.79200
H  59.54400 17.37000 44.34600
H  59.31900 18.76700 45.55300
H  60.38600 22.96000 45.27200
H  59.53400 24.56400 47.63700
H  61.17300 21.68600 46.80900
H  59.51900 21.27700 47.31100
H  60.41200 22.65600 48.07000
H  59.84300 26.56100 45.60500
H  60.74100 25.14000 45.00800
H  61.59300 27.16500 46.93000
H  62.58500 25.78500 46.28200
H  61.60200 25.71100 47.67800
H  57.07000 29.14100 45.84400
H  56.37500 28.98500 47.45700
H  55.49900 29.91300 46.20900
H  51.15300 26.91700 44.88100
H  48.87600 29.29500 42.47400
H  49.94300 28.62100 41.23500
H  50.42100 29.99400 42.27200
Mg -2.09300 35.07500 26.52900
C  -3.41700 33.66500 29.39300
C  -0.73400 37.58200 28.53700
C  -1.16200 36.79200 23.79600
C  -3.71600 32.80100 24.57900
N  -2.20200 35.66800 28.68100
C  -2.66400 34.75100 29.70800
C  -2.27400 35.39500 31.01500
C  -1.51700 36.66900 30.76900
C  -1.44400 36.62700 29.25300
C  -2.25700 37.97000 31.31100
C  -1.56000 34.35200 31.95900
C  -1.67600 34.61600 33.49900
H  -2.51600 33.70000 34.41700
N  -1.04500 36.97500 26.18800
C  -0.58300 37.84200 27.13600
C  0.19700 38.86800 26.45300
C  -0.02300 38.75900 25.06800
C  -0.70900 37.45600 24.93400
C  0.96400 39.85900 27.30500
C  0.48600 39.61700 23.96000
O  0.39800 39.18400 22.77800
C  1.20900 40.91200 24.24000
N  -2.31300 34.76300 24.48400
C  -1.83400 35.62300 23.53400
C  -2.01900 35.01300 22.11200
C  -2.53800 33.57800 22.40400
C  -2.94300 33.72500 23.84500
C  -2.70200 35.82600 21.06300
C  -1.58600 32.37400 22.16600
C  -0.14500 32.30800 22.77000
N  -3.34100 33.54600 26.85400
C  -3.91800 32.70200 25.94300
C  -4.71500 31.74000 26.72000
C  -4.56200 32.12400 28.03100
C  -3.74800 33.23100 28.05800
C  -5.37100 30.56600 26.23200
C  -4.92600 31.71700 29.36000
O  -5.60200 30.79300 29.78200
C  -4.41000 32.83700 30.26000
C  -5.52900 33.61800 30.78200
O  -5.97000 34.65300 30.30600
O  -5.99500 33.00600 31.85900
C  -7.25300 33.40800 32.44700
H  -0.28100 38.32300 29.19900
H  -0.90200 37.33100 22.88300
H  -4.10700 31.95700 24.00600
H  -3.16900 35.61400 31.59800
H  -0.53600 36.67500 31.24400
H  -2.55300 38.65600 30.51700
H  -1.56400 38.44000 32.00900
H  -3.15400 37.75800 31.89200
H  -0.50900 34.28600 31.67600
H  -1.83900 33.31100 31.79900
H  -2.18000 35.58000 33.57000
H  -0.63700 34.66500 33.82200
H  0.98500 39.78700 28.39200
H  0.55200 40.86200 27.19100
H  1.99300 39.80200 26.95100
H  0.53200 41.68400 24.60500
H  1.75800 41.31300 23.38800
H  1.94800 40.59400 24.97600
H  -0.97400 34.95700 21.80600
H  -3.42000 33.39600 21.78900
H  -2.85300 36.83100 21.45800
H  -3.59300 35.37100 20.62900
H  -1.98300 35.92100 20.25000
H  -1.55400 32.22900 21.08600
H  -2.02600 31.42100 22.46000
H  -0.17700 31.77800 23.72200
H  0.17700 33.33700 22.93100
H  0.49700 31.86900 22.00600
H  -6.39500 30.58300 26.60500
H  -4.83600 29.69300 26.60600
H  -5.28900 30.58100 25.14500
H  -4.00000 32.21900 31.05800
H  -7.13700 34.26700 33.10700
H  -7.65700 32.54900 32.98200
H  -8.06600 33.55000 31.73400

