158

Mg 40.98200 9.99400 29.51600
C  42.70700 11.13300 32.45100
C  38.96100 8.09800 31.61100
C  39.43500 8.77600 26.79900
C  43.60800 11.14800 27.68800
N  40.80700 9.78500 31.84700
C  41.59600 10.36000 32.83200
C  40.99900 10.06200 34.20300
C  39.99500 8.89200 33.83800
C  39.96100 8.79400 32.31300
C  40.12200 7.59400 34.63400
C  40.45200 11.33200 34.86700
C  39.93900 11.15000 36.36100
H  40.49500 12.09200 37.45100
N  39.30600 8.75200 29.27500
C  38.65800 8.06900 30.26100
C  37.59100 7.28900 29.60800
C  37.63500 7.56100 28.19100
C  38.81300 8.36300 28.02400
C  36.75200 6.27400 30.36300
C  36.79300 7.03600 27.13200
O  36.93100 7.24400 25.95900
C  35.52800 6.28300 27.49500
N  41.38000 10.09900 27.54600
C  40.67700 9.45100 26.58900
C  41.38700 9.45200 25.18900
C  42.65800 10.28400 25.50300
C  42.57400 10.53700 27.02700
C  41.61600 8.11800 24.52000
C  42.79700 11.45500 24.55900
C  42.16900 12.81500 24.89900
N  42.79200 10.99300 29.92500
C  43.67600 11.48100 29.06000
C  44.74700 12.02900 29.77600
C  44.38400 12.00800 31.19200
C  43.18200 11.32700 31.13600
C  46.08500 12.35800 29.15100
C  44.83500 12.32800 32.52600
O  45.76300 12.95300 33.00100
C  43.69100 11.77400 33.42500
C  44.30000 10.88800 34.47200
O  44.97100 9.88600 34.17700
O  44.00400 11.31500 35.73900
C  44.76900 10.62000 36.81000
H  38.43700 7.56600 32.40800
H  39.17900 8.36100 25.82200
H  44.36000 11.57300 27.02000
H  41.91100 9.70100 34.67800
H  39.01400 9.13600 34.24400
H  40.20100 6.79300 33.89800
H  39.21200 7.53400 35.23100
H  40.96300 7.45600 35.31300
H  39.88600 11.97500 34.19400
H  41.28500 11.97500 35.15300
H  40.34900 10.16100 36.56400
H  38.85100 11.11300 36.29600
H  36.75600 5.38400 29.73300
H  35.73400 6.63500 30.51000
H  37.34900 6.14800 31.26700
H  34.78900 6.85400 28.05900
H  35.83000 5.34800 27.96700
H  34.96600 6.02300 26.59800
H  40.74500 10.03400 24.52800
H  43.53200 9.66000 25.31700
H  41.34500 7.32700 25.21900
H  42.65800 7.99300 24.22500
H  40.88800 8.07200 23.71000
H  42.51400 11.18600 23.54100
H  43.85100 11.73000 24.51700
H  41.47100 13.13800 24.12700
H  43.00500 13.51000 24.96900
H  41.64400 12.95100 25.84500
H  46.70200 12.60400 30.01500
H  46.11400 13.20500 28.46500
H  46.26600 11.44800 28.57900
H  43.30400 12.65800 33.93300
H  44.70300 11.20200 37.72900
H  45.81800 10.40700 36.60400
H  44.38900 9.60900 36.95500
Mg 27.20900 50.24600 26.01200
C  25.28900 51.49800 28.74000
C  29.47300 49.04700 28.34600
C  29.28200 49.45200 23.55100
C  25.09600 51.82600 23.80700
N  27.39400 50.35400 28.27100
C  26.43400 50.81700 29.19000
C  26.74200 50.43000 30.64500
C  28.20100 49.85800 30.51600
C  28.36600 49.67000 28.97800
C  29.29100 50.90500 30.93700
C  25.72600 49.54200 31.38000
C  24.99800 50.26300 32.60500
H  25.89800 50.38700 33.91000
N  29.09300 49.35400 25.92000
C  29.82000 48.89300 26.96000
C  31.03800 48.24300 26.46300
C  31.03400 48.38000 25.03600
C  29.77300 49.01700 24.76300
C  32.13400 47.62200 27.36800
C  32.03500 47.85300 24.04400
O  31.97500 48.11200 22.88600
C  33.02800 46.80500 24.41900
N  27.24800 50.72400 23.97500
C  28.10800 50.22700 23.17500
C  27.71600 50.32700 21.70000
C  26.43700 51.14500 21.78100
C  26.23000 51.25100 23.26900
C  28.75600 50.98100 20.75300
C  25.37800 50.53300 20.87700
C  24.23800 49.72700 21.43800
N  25.51900 51.36200 26.20800
C  24.69900 51.86200 25.17800
C  23.50000 52.44600 25.72800
C  23.68900 52.41700 27.10700
C  24.90700 51.71100 27.34900
C  22.46300 53.16100 24.97300
C  23.21000 52.78400 28.46300
O  22.20300 53.41900 28.76700
C  24.14200 52.27100 29.57100
C  24.78300 53.39400 30.22100
O  25.74400 53.97400 29.79200
O  24.17500 53.54400 31.47200
C  24.57000 54.85000 32.20000
H  30.05600 48.57500 29.13900
H  29.81700 49.12000 22.65800
H  24.35500 52.28800 23.15200
H  26.70800 51.37300 31.19000
H  28.24700 48.86400 30.96100
H  28.78000 51.86000 31.05600
H  30.01000 51.17400 30.16200
H  29.68100 50.57500 31.90000
H  26.26300 48.65100 31.70600
H  24.97600 49.24700 30.64600
H  24.11200 49.69400 32.88300
H  24.73200 51.25800 32.24900
H  32.25600 46.57400 27.09600
H  31.84900 47.65000 28.42000
H  33.02000 48.25700 27.34900
H  33.61600 47.14800 25.27000
H  33.77900 46.81300 23.63000
H  32.53900 45.84800 24.60500
H  27.61700 49.25600 21.52200
H  26.57200 52.19100 21.50600
H  28.25900 51.75400 20.16700
H  29.16700 50.22800 20.08000
H  29.55400 51.45900 21.32200
H  25.95100 49.95400 20.15300
H  24.89200 51.26100 20.22900
H  24.04500 49.83100 22.50600
H  24.42300 48.69200 21.15100
H  23.35200 50.07500 20.90700
H  21.45200 52.97400 25.33500
H  22.36700 52.74300 23.97000
H  22.69300 54.22300 25.04800
H  23.59800 51.57900 30.21400
H  24.61300 55.61500 31.42500
H  25.60400 54.84600 32.54700
H  24.04200 55.05600 33.13100

