158

Mg 35.94700 0.54000 30.51900
C  33.55700 2.23700 32.49600
C  38.09700 0.62800 33.18100
C  38.34700 -0.60800 28.48100
C  33.74300 0.76100 27.71000
N  35.94900 1.59000 32.51600
C  34.83300 2.06400 33.12400
C  35.10300 2.30300 34.61700
C  36.64700 2.11400 34.73200
C  36.93500 1.45500 33.41100
C  37.46500 3.47400 34.96300
C  34.28800 1.18700 35.40200
C  33.97700 1.65800 36.83600
H  34.84100 2.88200 37.33300
N  37.94300 0.10700 30.78000
C  38.61400 0.17600 31.96300
C  39.92600 -0.26500 31.78700
C  40.12500 -0.54100 30.39800
C  38.81200 -0.31700 29.81900
C  40.86700 -0.34300 32.91100
C  41.35700 -0.83100 29.52400
O  41.24000 -1.23900 28.35100
C  42.65100 -0.76300 30.01300
N  36.07700 0.11900 28.39700
C  37.19000 -0.31700 27.77500
C  37.07200 -0.54500 26.26500
C  35.47100 -0.46100 26.13500
C  35.04900 0.25300 27.47800
C  37.74200 0.61600 25.42400
C  34.68900 -1.79300 25.94100
C  33.87400 -1.84300 24.63000
N  34.03700 1.40200 30.13500
C  33.25300 1.36000 28.94400
C  31.93200 1.88700 29.30800
C  32.07200 2.29200 30.68900
C  33.31600 1.91600 31.11400
C  30.70600 1.94100 28.43400
C  31.33700 2.92600 31.73300
O  30.19200 3.34000 31.68300
C  32.24600 2.82100 33.05400
C  32.53100 4.17500 33.65800
O  33.46500 4.95300 33.32200
O  31.67000 4.45900 34.59200
C  31.77900 5.72000 35.37500
H  38.65200 0.57400 34.12000
H  39.09200 -0.83900 27.71600
H  33.00600 0.70700 26.90700
H  34.84500 3.34700 34.79100
H  36.87900 1.48900 35.59400
H  36.86700 4.31400 35.31700
H  37.83700 3.71200 33.96600
H  38.29700 3.37200 35.65900
H  34.94400 0.33300 35.56800
H  33.30200 0.91000 35.02800
H  34.29200 0.85500 37.50300
H  32.92700 1.94200 36.89700
H  40.65900 0.53400 33.52400
H  41.92500 -0.33400 32.65000
H  40.62500 -1.16700 33.58200
H  42.49300 -1.56400 30.73600
H  42.75000 0.06800 30.71100
H  43.55300 -0.92200 29.42200
H  37.37800 -1.54400 25.95500
H  35.16000 0.25700 25.37600
H  37.98400 1.44500 26.08900
H  37.04600 1.07100 24.71900
H  38.69200 0.32400 24.97600
H  34.07500 -1.82000 26.84100
H  35.43400 -2.56900 26.11900
H  34.07900 -0.96300 24.01900
H  32.80600 -1.83200 24.84600
H  34.11300 -2.74100 24.06000
H  31.07400 1.73100 27.43000
H  30.17000 2.88500 28.53100
H  29.93800 1.19200 28.62300
H  31.79400 2.19600 33.82400
H  32.58300 6.28600 34.90600
H  32.04300 5.42200 36.39000
H  30.92500 6.38900 35.47500
Mg 0.03400 43.86900 25.90600
C  2.00100 43.21100 28.74900
C  -2.65100 42.27700 27.53900
C  -1.64600 43.81000 23.07300
C  2.97500 44.66200 24.18500
N  -0.23300 42.79100 27.83600
C  0.64900 42.87500 28.89500
C  0.00200 42.61600 30.26700
C  -1.40400 42.06800 29.85800
C  -1.44200 42.36000 28.30200
C  -1.80200 40.67100 30.25700
C  0.02700 43.87200 31.25700
C  0.34300 43.61000 32.74600
H  0.07400 42.22100 33.50300
N  -1.88800 43.21200 25.35300
C  -2.83400 42.57100 26.17600
C  -4.08900 42.35500 25.38900
C  -3.78100 42.83000 24.07100
C  -2.35200 43.32300 24.10800
C  -5.34000 41.68300 25.97300
C  -4.61600 42.94500 22.84200
O  -4.31000 43.44700 21.79100
C  -5.99100 42.37100 22.94700
N  0.62000 44.24700 23.89900
C  -0.33000 44.32900 22.94800
C  0.17500 44.87500 21.66900
C  1.66100 44.99400 21.93900
C  1.76500 44.61600 23.42500
C  -0.02800 43.92100 20.48000
C  2.20200 46.34200 21.46800
C  2.16200 47.43700 22.59000
N  2.02700 44.12000 26.32800
C  3.16700 44.41700 25.52500
C  4.38600 44.56600 26.32700
C  3.92200 44.08400 27.58500
C  2.58300 43.78400 27.59000
C  5.72000 45.08600 25.96000
C  4.31300 43.75100 28.94300
O  5.41200 43.78300 29.33600
C  3.11500 43.22900 29.74500
C  3.46700 41.88600 30.27700
O  3.49100 40.85600 29.56100
O  3.65200 41.92400 31.66100
C  4.09900 40.63700 32.32900
H  -3.55700 41.89500 28.01500
H  -2.16800 43.83500 22.11500
H  3.76900 45.13300 23.60100
H  0.58700 41.75900 30.60200
H  -2.08700 42.80500 30.28200
H  -2.48200 40.09900 29.62500
H  -2.21400 40.78900 31.25900
H  -0.87900 40.10300 30.37400
H  -0.89700 44.43900 31.14000
H  0.75300 44.53400 30.78400
H  -0.39000 44.26200 33.22200
H  1.37000 43.87800 32.99200
H  -6.15500 42.37500 25.76000
H  -5.30300 41.44900 27.03700
H  -5.40200 40.74700 25.41800
H  -5.83900 41.30800 23.13500
H  -6.49400 42.52100 21.99200
H  -6.58000 42.87300 23.71500
H  -0.43000 45.74700 21.42100
H  2.17500 44.16300 21.45700
H  -0.32400 44.46600 19.58400
H  -0.87700 43.23800 20.48100
H  0.87100 43.45100 20.08100
H  1.70300 46.72000 20.57600
H  3.18200 46.18400 21.01800
H  3.13900 47.88900 22.76100
H  1.71200 47.09400 23.52200
H  1.40200 48.17400 22.33000
H  6.30000 45.30600 26.85600
H  5.64800 46.06800 25.49300
H  6.36100 44.44200 25.35700
H  2.90900 43.87900 30.59500
H  4.06700 39.85600 31.56900
H  3.41800 40.40000 33.14600
H  5.12800 40.87300 32.60100

