158

Mg 17.09000 -3.26100 28.66000
C  16.12100 -1.09900 31.27700
C  19.49100 -4.66600 30.71400
C  18.46800 -4.75500 26.00300
C  14.96400 -1.34800 26.61500
N  17.73400 -2.83000 30.71400
C  17.22800 -1.95400 31.61100
C  17.92000 -2.07800 33.03000
C  19.02300 -3.10900 32.73300
C  18.74800 -3.58200 31.27500
C  20.47200 -2.55800 32.90300
C  16.89700 -2.66700 34.15300
C  17.12100 -2.17300 35.58100
H  18.48100 -1.57300 35.83800
N  18.69500 -4.64900 28.38400
C  19.45100 -5.18400 29.42400
C  20.35000 -6.23700 28.88200
C  20.04500 -6.33200 27.46500
C  18.98000 -5.24400 27.21200
C  21.33100 -7.00300 29.78400
C  20.54500 -7.24700 26.41600
O  20.04800 -7.33700 25.29300
C  21.57800 -8.21600 26.85300
N  16.66700 -3.13600 26.60900
C  17.52400 -3.77400 25.74300
C  17.16500 -3.36600 24.26200
C  15.99800 -2.31800 24.40800
C  15.79400 -2.27700 25.98600
C  18.37500 -2.88300 23.40600
C  14.65500 -2.65900 23.72600
C  14.36700 -1.88700 22.45000
N  15.69900 -1.68600 28.88600
C  14.87200 -1.07900 27.94200
C  14.08700 -0.08100 28.54500
C  14.45200 -0.16700 29.87900
C  15.52200 -1.08100 30.04000
C  13.09600 0.78500 27.84500
C  14.23600 0.41800 31.18800
O  13.54900 1.32400 31.56400
C  15.16900 -0.26800 32.19300
C  15.70300 0.85300 33.00000
O  16.71700 1.44800 32.71700
O  14.83800 1.14800 34.05200
C  15.40000 2.25200 34.88400
H  20.22600 -5.10600 31.39100
H  18.83000 -5.26400 25.10700
H  14.43500 -0.59100 26.03300
H  18.26600 -1.10300 33.37200
H  18.85300 -3.90800 33.45400
H  20.59100 -1.52400 33.22700
H  21.07400 -2.65200 31.99900
H  21.04800 -3.09300 33.65800
H  16.93700 -3.75100 34.04300
H  15.88200 -2.32800 33.94800
H  17.01100 -3.00000 36.28200
H  16.37500 -1.46000 35.93000
H  21.05200 -8.05000 29.90000
H  21.47400 -6.63000 30.79800
H  22.28900 -6.95200 29.26600
H  21.73100 -8.77700 25.93100
H  21.35700 -8.96200 27.61600
H  22.52700 -7.71300 27.04100
H  16.81300 -4.26600 23.75900
H  16.35000 -1.36500 24.01400
H  19.19000 -2.68600 24.10300
H  18.03200 -1.99300 22.87700
H  18.66300 -3.64800 22.68500
H  13.78500 -2.72000 24.38000
H  14.90100 -3.67400 23.41400
H  14.24400 -2.55900 21.60000
H  15.05200 -1.05600 22.28200
H  13.38900 -1.48900 22.71900
H  12.51100 1.37600 28.55100
H  12.42400 0.30800 27.13100
H  13.74100 1.50700 27.34500
H  14.48200 -0.88100 32.77600
H  14.57200 2.59600 35.50400
H  15.95100 3.00700 34.32300
H  16.14900 1.86500 35.57500
Mg -12.12300 16.78700 40.49200
C  -8.89300 15.47600 40.13000
C  -10.70200 19.90200 40.22600
C  -15.19600 18.03200 40.21000
C  -13.38900 13.55600 40.53600
N  -10.04500 17.65700 40.08300
C  -8.90800 16.90000 39.99700
C  -7.59400 17.80000 40.00200
C  -8.18800 19.28100 40.14300
C  -9.71200 18.96100 40.18800
C  -7.73800 20.20600 41.32800
C  -6.76800 17.69900 38.67100
C  -5.36500 17.08700 38.73400
H  -4.80700 15.73200 38.17200
N  -12.85600 18.74400 40.11600
C  -12.11400 19.84900 40.05800
C  -13.08800 20.95100 39.82700
C  -14.37400 20.42100 39.78400
C  -14.23200 18.99800 40.01900
C  -12.54500 22.34000 39.67000
C  -15.57400 21.21400 39.56000
O  -15.51600 22.43800 39.34800
C  -16.95400 20.56300 39.47600
N  -14.01500 15.87200 40.24900
C  -15.14200 16.60200 40.31100
C  -16.40500 15.74900 40.42700
C  -15.86200 14.34000 40.26500
C  -14.27400 14.58100 40.51800
C  -17.13100 15.99700 41.81800
C  -16.08200 13.60000 38.84600
C  -17.51100 13.31800 38.51300
N  -11.38000 14.90600 40.31300
C  -11.98800 13.66700 40.50600
C  -11.06500 12.61500 40.48700
C  -9.79000 13.22900 40.26300
C  -10.04700 14.65900 40.22700
C  -11.47100 11.19500 40.62800
C  -8.35200 13.08600 40.19300
O  -7.67400 12.08000 40.34800
C  -7.74700 14.49000 40.14300
C  -6.82000 14.53100 41.26400
O  -7.09900 14.99800 42.34000
O  -5.55100 14.18000 40.89000
C  -4.57300 14.35500 41.96300
H  -10.23500 20.88300 40.12100
H  -16.23300 18.36500 40.13800
H  -13.80200 12.54500 40.55600
H  -6.99400 17.51000 40.86400
H  -8.10000 19.88400 39.24000
H  -8.60100 20.45500 41.94600
H  -7.40000 21.11900 40.83800
H  -6.95800 19.67900 41.87800
H  -6.74800 18.61700 38.08300
H  -7.29200 17.05300 37.96700
H  -5.11500 17.15500 39.79300
H  -4.63000 17.75800 38.29000
H  -13.08800 22.92200 38.92500
H  -11.53100 22.36200 39.26900
H  -12.49400 22.93700 40.58000
H  -16.80800 19.75000 38.76400
H  -17.73900 21.25300 39.17000
H  -17.20400 20.24700 40.48900
H  -17.06800 16.04200 39.61200
H  -16.18800 13.63700 41.03200
H  -18.05400 16.57500 41.86300
H  -16.41300 16.29000 42.58300
H  -17.55700 15.02800 42.08100
H  -15.39100 12.78000 38.65100
H  -15.68600 14.36500 38.17700
H  -17.69900 12.24500 38.49000
H  -17.82900 13.60100 37.50900
H  -18.18500 13.81100 39.21400
H  -11.84800 10.76200 39.70100
H  -12.11100 10.91400 41.46400
H  -10.46500 10.79300 40.75200
H  -7.14500 14.60000 39.24000
H  -4.40200 15.43000 42.02400
H  -3.58100 13.99200 41.69400
H  -4.83300 13.98500 42.95400

