158

Mg 1.70100 8.91600 27.38900
C  2.30000 11.01200 30.00100
C  1.64800 6.36100 29.51300
C  1.21100 6.95600 24.61200
C  1.85500 11.70000 25.16000
N  2.11000 8.74900 29.48900
C  2.01900 9.73300 30.39300
C  1.91000 9.27000 31.82000
C  2.18900 7.71900 31.68700
C  1.94300 7.56200 30.13800
C  3.61600 7.19100 32.02800
C  0.56100 9.67200 32.47000
C  0.64800 9.64000 34.00700
H  1.94100 9.02900 34.75700
N  1.49100 6.94200 27.11800
C  1.45000 5.98700 28.14400
C  1.18600 4.71100 27.62500
C  1.08000 4.84000 26.16700
C  1.25300 6.35300 25.93700
C  1.28600 3.45200 28.54800
C  0.89600 3.74500 25.12100
O  0.76000 4.05200 23.90900
C  1.03300 2.35900 25.44000
N  1.61300 9.27200 25.29700
C  1.47200 8.27800 24.35400
C  1.81600 8.78100 22.95800
C  1.46900 10.31800 23.16700
C  1.73400 10.43700 24.64700
C  3.31600 8.59000 22.46800
C  0.05600 10.69200 22.89500
C  -0.29100 11.58300 21.67800
N  2.21500 10.92400 27.45400
C  2.21100 11.99600 26.54700
C  2.52400 13.20400 27.10700
C  2.58800 12.90800 28.49900
C  2.36900 11.48900 28.69500
C  2.71500 14.66200 26.43600
C  2.81500 13.48900 29.81900
O  3.09200 14.60400 30.22300
C  2.50400 12.27900 30.89700
C  3.61700 12.19500 31.91900
O  4.62600 11.56700 31.80200
O  3.23000 12.84800 33.06200
C  3.99500 12.78000 34.28400
H  1.55500 5.49400 30.17100
H  1.11500 6.22200 23.80900
H  1.83900 12.52200 24.44200
H  2.71500 9.74500 32.38000
H  1.39800 7.04200 32.01000
H  4.05600 7.77100 32.84000
H  4.32500 7.19700 31.20100
H  3.62300 6.14100 32.32100
H  -0.19600 9.00200 32.06300
H  0.43000 10.71600 32.18600
H  -0.26100 9.31400 34.51200
H  0.77100 10.71700 34.12700
H  0.86500 2.56700 28.07100
H  0.74700 3.60500 29.48300
H  2.34200 3.38600 28.80800
H  1.81700 2.18800 26.17600
H  1.23300 1.77500 24.54100
H  0.06900 2.10500 25.88000
H  1.11200 8.25500 22.31200
H  2.16200 10.88000 22.54100
H  3.68100 7.79900 23.12200
H  3.83000 9.53100 22.66600
H  3.30600 8.14100 21.47500
H  -0.30900 11.31900 23.70900
H  -0.57000 9.80300 22.81800
H  0.59600 11.59100 21.04500
H  -0.55800 12.56300 22.07300
H  -1.13700 11.16900 21.12900
H  3.77600 14.90600 26.48500
H  2.22500 15.48500 26.95600
H  2.46900 14.68800 25.37400
H  1.59800 12.64600 31.38000
H  3.33400 12.53500 35.11500
H  4.59100 13.67400 34.46900
H  4.67400 11.93100 34.20300
Mg 41.04400 40.85400 26.99300
C  40.54600 43.20100 29.60700
C  42.16700 38.69400 29.27500
C  41.78700 38.71000 24.42900
C  40.40400 43.31200 24.68000
N  41.25700 40.94300 29.22100
C  40.95600 41.95900 30.04900
C  40.98600 41.51400 31.56900
C  41.56200 40.04200 31.39200
C  41.71500 39.85900 29.87700
C  42.89000 39.84800 32.17900
C  39.57600 41.56900 32.23800
C  39.41000 42.43800 33.51200
H  39.05800 41.88100 34.96900
N  41.82300 38.95500 26.88100
C  42.17600 38.25400 27.94900
C  42.62500 36.94400 27.49600
C  42.45500 36.84000 26.08800
C  41.98000 38.19000 25.79100
C  43.26300 35.97900 28.41900
C  42.60400 35.68500 25.20500
O  42.52100 35.87000 23.96900
C  42.88900 34.30000 25.66200
N  41.00600 40.88000 24.88700
C  41.35100 39.89100 23.98200
C  41.09200 40.20800 22.52100
C  40.81700 41.77700 22.62700
C  40.65400 41.99800 24.18500
C  42.17000 39.88500 21.39600
C  39.53900 42.29700 21.92500
C  39.88000 43.45600 21.00000
N  40.34000 42.79200 27.03000
C  40.12400 43.70900 26.02800
C  39.95200 44.97700 26.53800
C  39.95900 44.82300 27.87900
C  40.30600 43.48200 28.20000
C  39.74400 46.26700 25.78200
C  39.80900 45.51800 29.17600
O  39.40100 46.63500 29.42000
C  40.17300 44.49100 30.31200
C  41.31100 45.00400 31.17600
O  42.46600 45.08900 30.84800
O  40.84600 45.28300 32.45300
C  41.73900 45.98700 33.40500
H  42.49800 37.96000 30.01300
H  41.96300 38.02900 23.59400
H  40.20700 44.09900 23.94900
H  41.71300 42.10700 32.12500
H  40.76300 39.40200 31.76900
H  43.12800 40.78200 32.68800
H  43.69000 39.73200 31.44800
H  43.02000 39.02700 32.88500
H  39.12200 40.61600 32.50900
H  38.90500 42.03900 31.51900
H  38.56300 43.08800 33.29400
H  40.30200 43.03100 33.71500
H  42.58800 35.21800 28.81000
H  43.71000 36.44400 29.29800
H  44.03600 35.44000 27.87200
H  42.21400 34.10900 26.49600
H  43.92200 34.30100 26.00800
H  42.76100 33.58100 24.85200
H  40.16600 39.68400 22.28300
H  41.66900 42.41300 22.38500
H  42.62400 40.78000 20.97000
H  41.73400 39.25100 20.62400
H  42.97800 39.40500 21.94800
H  38.76300 42.64700 22.60600
H  39.16700 41.53800 21.23700
H  39.10100 44.20100 21.15900
H  39.93300 43.13700 19.95900
H  40.83500 43.95900 21.15000
H  39.15100 46.99800 26.33200
H  39.28000 46.11400 24.80800
H  40.72600 46.73300 25.70000
H  39.32700 44.23500 30.95000
H  42.72600 46.07900 32.95100
H  41.82500 45.31100 34.25600
H  41.19700 46.91600 33.58200

