158

Mg 40.36000 41.20400 26.80300
C  39.72400 43.52000 29.38900
C  41.58500 39.06500 29.15700
C  41.63000 39.21700 24.28000
C  39.74000 43.69700 24.46500
N  40.71700 41.33100 28.95500
C  40.27100 42.32100 29.87200
C  40.48300 41.93800 31.36000
C  41.14300 40.53500 31.19200
C  41.17400 40.29600 29.65700
C  42.50400 40.37200 31.86300
C  39.18400 41.97700 32.16700
C  39.10400 42.74600 33.53200
H  38.69800 42.00400 34.79200
N  41.45100 39.39300 26.69700
C  41.81200 38.63900 27.81700
C  42.39000 37.45800 27.39100
C  42.38900 37.40100 25.97200
C  41.83200 38.71600 25.59000
C  42.96900 36.40800 28.26400
C  42.84600 36.30900 25.02500
O  42.83700 36.39000 23.78100
C  43.40200 34.98400 25.49400
N  40.73700 41.45900 24.67100
C  41.13100 40.47500 23.86300
C  40.88900 40.70300 22.33900
C  40.04900 42.03000 22.42200
C  40.17200 42.44300 23.97600
C  42.06000 40.65800 21.29600
C  38.57100 42.03700 21.96100
C  37.61400 41.27900 22.87600
N  39.84900 43.19000 26.84400
C  39.49800 44.07500 25.80800
C  38.97000 45.25200 26.42300
C  39.02800 45.04600 27.83100
C  39.56600 43.78400 28.00400
C  38.56100 46.43500 25.57100
C  38.81800 45.75300 29.04200
O  38.33800 46.90600 29.22800
C  39.24100 44.75100 30.14000
C  40.38000 45.31000 30.99900
O  41.50100 45.62700 30.63300
O  39.91300 45.47500 32.25300
C  40.85700 45.95100 33.23300
H  41.85800 38.28900 29.87500
H  42.06500 38.65700 23.45000
H  39.41500 44.51900 23.82400
H  41.18200 42.66800 31.76700
H  40.56900 39.71100 31.61600
H  42.60300 41.28800 32.44600
H  43.30600 40.37800 31.12400
H  42.60700 39.51800 32.53200
H  38.97300 40.92300 32.34900
H  38.34300 42.33500 31.57400
H  38.39300 43.57200 33.52900
H  40.09200 43.19100 33.65500
H  42.34500 35.52000 28.16300
H  42.99800 36.76400 29.29400
H  44.02400 36.26500 28.03300
H  44.13200 35.17400 26.28000
H  43.99600 34.63300 24.65000
H  42.62000 34.28000 25.78100
H  40.20900 39.88300 22.10600
H  40.61000 42.87300 22.01900
H  42.91900 40.19100 21.77600
H  42.29600 41.66200 20.94300
H  41.78300 40.10000 20.40100
H  38.58500 41.46800 21.03200
H  38.23200 43.05300 21.75800
H  36.96100 42.03300 23.31700
H  38.21600 40.65000 23.53200
H  37.07000 40.57500 22.24700
H  38.10800 47.19100 26.21400
H  37.91100 46.06600 24.77800
H  39.50100 46.77900 25.13900
H  38.53100 44.35600 30.86700
H  40.37700 46.66100 33.90700
H  41.77700 46.35000 32.80500
H  41.08200 45.08400 33.85500
Mg 34.53000 49.17200 26.47800
C  34.92600 46.80300 28.95900
C  33.66800 51.46600 28.71700
C  33.54500 51.09900 23.90100
C  35.30600 46.63700 24.10800
N  34.44200 49.12000 28.58600
C  34.59700 48.03500 29.45200
C  34.68200 48.48100 30.89400
C  34.15300 50.02600 30.83000
C  34.13700 50.28700 29.28000
C  32.86200 50.46500 31.63400
C  36.05900 48.37200 31.52100
C  36.15800 48.05100 32.95600
H  36.28200 49.21800 33.93100
N  33.84500 51.10700 26.31400
C  33.54100 51.86700 27.36000
C  33.35800 53.25800 26.84400
C  33.39500 53.17500 25.39600
C  33.53800 51.74800 25.17800
C  33.31400 54.47900 27.70400
C  33.21900 54.29400 24.38500
O  33.28700 54.12000 23.18300
C  32.70900 55.53300 24.89300
N  34.38800 48.94600 24.40000
C  33.97500 49.88400 23.54900
C  34.12700 49.48200 22.05600
C  34.97200 48.20500 22.20000
C  34.86800 47.90000 23.66800
C  32.75900 49.23400 21.23600
C  36.41200 48.38100 21.72400
C  37.21800 47.10200 21.36800
N  35.01900 47.12000 26.45500
C  35.21700 46.18700 25.45700
C  35.45900 44.86200 26.03200
C  35.45500 45.07000 27.44400
C  35.07700 46.40200 27.57200
C  35.97200 43.63700 25.24700
C  35.68500 44.47800 28.75400
O  35.89300 43.33000 29.07900
C  35.36000 45.58300 29.76800
C  34.27300 45.10500 30.61400
O  33.13300 44.83100 30.21700
O  34.73000 44.89900 31.85700
C  33.67800 44.72800 32.87600
H  33.49700 52.21000 29.49700
H  33.36300 51.77300 23.06200
H  35.48200 45.89100 23.33000
H  33.97300 47.87800 31.46100
H  34.87000 50.74400 31.22900
H  32.03300 50.57800 30.93500
H  33.08400 51.38700 32.17100
H  32.46300 49.76800 32.37000
H  36.44300 49.39200 31.50600
H  36.70100 47.77000 30.87900
H  37.08000 47.48300 33.08100
H  35.25700 47.47800 33.17800
H  34.14600 55.12100 27.41500
H  33.70400 54.22800 28.69000
H  32.35300 54.99200 27.66200
H  32.36700 56.05300 23.99800
H  33.62100 56.05000 25.19100
H  31.89300 55.44100 25.60900
H  34.64100 50.31100 21.56900
H  34.51900 47.45600 21.55000
H  32.97000 49.88700 20.38800
H  31.99000 49.67100 21.87400
H  32.57500 48.22800 20.86000
H  36.92800 48.85000 22.56200
H  36.42500 49.02600 20.84500
H  37.57000 47.26100 20.34900
H  36.60100 46.21000 21.48000
H  38.14600 46.93900 21.91700
H  36.87900 44.04100 24.79700
H  35.30300 43.27900 24.46500
H  36.34500 42.83900 25.88800
H  36.25200 45.75800 30.36800
H  33.98500 45.54200 33.53200
H  33.84800 43.77800 33.38400
H  32.66000 44.92600 32.54200

