158

Mg 8.83900 3.72500 27.84500
C  10.00500 1.99600 30.73100
C  6.89900 5.56000 29.83900
C  7.63900 5.15500 25.04300
C  10.56000 1.39700 25.83400
N  8.53800 3.70600 30.08400
C  9.16000 3.08200 30.98500
C  8.66100 3.46200 32.38400
C  7.69000 4.63500 32.14900
C  7.70600 4.62400 30.60300
C  6.25100 4.57700 32.90600
C  9.81000 3.87400 33.37200
C  9.64200 5.10200 34.32400
H  10.29900 5.26900 35.68300
N  7.51400 5.14500 27.46700
C  6.85600 5.85300 28.44200
C  6.09100 6.92900 27.81200
C  6.33000 6.80600 26.42700
C  7.18000 5.65100 26.27600
C  5.18000 7.84400 28.61200
C  5.92400 7.72100 25.36700
O  6.10500 7.49000 24.17000
C  5.17200 8.96000 25.75400
N  9.10200 3.34100 25.78300
C  8.43900 4.07300 24.79600
C  8.83700 3.65300 23.38800
C  9.77900 2.45900 23.63800
C  9.87500 2.39300 25.17100
C  7.62700 3.35700 22.47600
C  11.14300 2.47900 22.89200
C  11.22700 1.28300 21.82300
N  10.02200 2.00900 28.13800
C  10.63300 1.18500 27.23900
C  11.27900 0.13600 27.99100
C  11.05800 0.37800 29.30700
C  10.29300 1.51200 29.40000
C  12.17400 -0.91800 27.30600
C  11.47500 -0.03300 30.70700
O  12.14600 -0.93000 31.12000
C  10.72300 1.05800 31.70100
C  9.87400 0.29900 32.74100
O  8.83300 -0.23500 32.51900
O  10.53100 0.37200 33.98000
C  9.97700 -0.18800 35.26100
H  6.33100 6.24400 30.47200
H  7.42100 5.67300 24.10700
H  11.16300 0.82200 25.12800
H  8.08000 2.61800 32.75800
H  8.07800 5.64900 32.24100
H  5.49600 4.21600 32.20800
H  6.04000 5.59200 33.24100
H  6.26000 3.91200 33.76900
H  10.72700 4.11000 32.83300
H  10.07200 3.01600 33.99100
H  8.61300 5.43900 34.45400
H  10.21500 5.88000 33.82000
H  4.26200 8.14300 28.10500
H  5.71000 8.72900 28.96400
H  4.73800 7.34500 29.47400
H  5.80500 9.57200 26.39600
H  4.16500 8.69600 26.08000
H  5.08500 9.45700 24.78800
H  9.35100 4.39800 22.78100
H  9.26600 1.52500 23.41000
H  7.70300 2.31700 22.15800
H  7.43500 4.01800 21.63100
H  6.80100 3.44900 23.18100
H  11.99500 2.37500 23.56400
H  11.26500 3.38900 22.30400
H  10.29800 0.74100 21.64400
H  12.05900 0.60100 22.00000
H  11.36100 1.70400 20.82600
H  13.19000 -0.52500 27.30600
H  11.76100 -1.22900 26.34600
H  12.05400 -1.79300 27.94400
H  11.57800 1.60000 32.10500
H  9.74500 0.55900 36.02000
H  10.72400 -0.83100 35.72600
H  9.08700 -0.75500 34.98800
Mg 54.94600 23.47600 44.39500
C  52.31000 25.89100 43.42000
C  52.62600 21.09500 43.51800
C  57.48600 21.52100 44.50400
C  56.97300 26.30600 45.00800
N  52.72200 23.55300 43.50800
C  51.93500 24.58700 43.12200
C  50.53900 24.09300 42.66100
C  50.49700 22.65500 43.33600
C  52.03600 22.38100 43.51600
C  49.70700 22.53200 44.80800
C  50.46400 24.04600 41.10700
C  49.01800 24.51000 40.63300
H  48.67200 24.43500 39.12300
N  55.12700 21.56900 44.12600
C  54.02800 20.74200 43.69500
C  54.57300 19.44800 43.46100
C  56.01800 19.51700 43.71700
C  56.29200 20.92400 44.10500
C  53.73600 18.24200 43.14300
C  56.91500 18.28700 43.79800
O  56.44400 17.18700 43.54000
C  58.41900 18.47000 44.04300
N  56.91500 23.83900 44.78700
C  57.84000 22.82100 44.88800
C  59.27800 23.28200 44.99900
C  59.06400 24.85000 44.75400
C  57.56300 25.00700 44.90300
C  59.95100 23.03800 46.42100
C  59.65700 25.28400 43.35600
C  60.45700 26.54000 43.28700
N  54.70100 25.61400 44.45400
C  55.56400 26.59100 44.80900
C  54.91200 27.89500 44.70900
C  53.67700 27.60500 44.16200
C  53.58700 26.22300 44.01600
C  55.51200 29.23400 45.10200
C  52.45400 28.28900 43.78400
O  52.17200 29.48000 43.99400
C  51.56500 27.17900 43.15000
C  51.47800 27.42000 41.67400
O  52.42200 27.45800 40.92000
O  50.19100 27.72200 41.28700
C  50.13500 27.95100 39.85600
H  51.93100 20.30800 43.21900
H  58.35900 20.86700 44.45100
H  57.71000 27.10800 44.93300
H  49.72700 24.65900 43.11900
H  50.03700 21.88700 42.71500
H  50.37200 22.19500 45.60300
H  48.78700 21.95700 44.70200
H  49.61400 23.57700 45.10300
H  50.40700 22.99200 40.83200
H  51.24300 24.54100 40.52600
H  48.87500 25.49800 41.07000
H  48.35300 23.88700 41.23000
H  52.72900 18.55700 42.87100
H  53.71900 17.49100 43.93300
H  54.20800 17.78800 42.27200
H  58.88600 19.27900 43.48200
H  58.83900 17.47900 43.86800
H  58.49500 18.68900 45.10800
H  59.86500 22.95100 44.14200
H  59.45200 25.50700 45.53300
H  60.91500 23.51100 46.23200
H  60.04800 21.96200 46.56500
H  59.48700 23.57800 47.24600
H  58.86700 25.41300 42.61600
H  60.18200 24.43600 42.91600
H  61.44800 26.30500 42.90000
H  60.54500 26.95000 44.29300
H  59.94100 27.26400 42.65600
H  56.05700 29.09500 46.03500
H  54.64000 29.86800 45.25900
H  56.17100 29.47200 44.26600
H  50.56200 27.19100 43.57600
H  49.07100 27.91200 39.62300
H  50.59200 27.18200 39.23400
H  50.44400 28.95800 39.57500

