158

Mg 0.83900 8.25700 26.86000
C  1.54200 10.44500 29.53400
C  0.81800 5.65400 28.94500
C  0.40900 6.19500 24.28900
C  1.13500 11.08200 24.67400
N  1.36400 8.08500 28.94200
C  1.53900 9.08100 29.84500
C  1.42000 8.49900 31.28400
C  1.45200 6.97900 31.08800
C  1.18500 6.87300 29.56300
C  2.85800 6.24800 31.38100
C  0.16700 9.02000 32.13900
C  0.36700 9.28200 33.69600
H  1.58700 8.56400 34.28200
N  0.44800 6.24900 26.69000
C  0.47000 5.33900 27.61700
C  0.27300 4.00900 27.12300
C  0.05700 4.11200 25.73300
C  0.30300 5.57700 25.51800
C  0.21600 2.75200 27.98600
C  -0.31000 3.04600 24.68200
O  -0.28000 3.20600 23.48200
C  -0.76400 1.64800 25.10800
N  1.05300 8.61900 24.78500
C  0.76600 7.58000 23.92600
C  0.72100 8.04500 22.45800
C  0.51200 9.61400 22.62800
C  0.98900 9.81200 24.11900
C  1.98400 7.55600 21.73600
C  -1.01200 9.99200 22.56500
C  -1.40600 10.68200 21.23000
N  1.32100 10.49600 26.99600
C  1.45500 11.45800 26.03300
C  1.56400 12.73300 26.75700
C  1.73400 12.47000 28.13600
C  1.52100 11.03200 28.24800
C  1.59800 14.00700 26.03400
C  1.88900 12.97500 29.44400
O  2.03500 14.09600 29.89600
C  1.76800 11.72200 30.34500
C  2.84100 11.63100 31.34000
O  3.90300 11.08300 31.11900
O  2.51100 12.24900 32.53700
C  3.48400 12.12400 33.61000
H  0.88400 4.88400 29.71700
H  0.21100 5.59600 23.39800
H  0.91000 11.84300 23.92400
H  2.28600 8.90900 31.80500
H  0.70500 6.42500 31.65700
H  3.36600 6.09800 30.42800
H  2.77700 5.37200 32.02400
H  3.46000 6.97500 31.92700
H  -0.67000 8.33300 32.01600
H  0.03700 9.99700 31.67300
H  -0.53700 9.04300 34.25700
H  0.51100 10.35800 33.78700
H  0.61300 1.97900 27.32900
H  -0.81500 2.52100 28.25200
H  0.83700 2.83700 28.87800
H  0.06800 0.99300 25.36800
H  -1.39300 1.28300 24.29600
H  -1.39500 1.63700 25.99700
H  -0.12300 7.50000 22.03600
H  1.07000 10.23100 21.92400
H  2.62400 7.03500 22.44800
H  2.62200 8.37100 21.39400
H  1.79000 6.84100 20.93700
H  -1.38100 10.59300 23.39600
H  -1.62500 9.10400 22.71700
H  -2.07400 10.03800 20.65900
H  -0.53700 10.93800 20.62500
H  -2.04000 11.55600 21.37600
H  0.56300 14.25900 25.80300
H  2.10600 13.82900 25.08700
H  2.18900 14.84500 26.40600
H  0.81200 11.79900 30.86400
H  4.41000 11.59800 33.38000
H  3.10000 11.62200 34.49800
H  3.63600 13.13100 34.00000
Mg 41.97600 40.60800 27.00400
C  41.28000 42.93400 29.32300
C  43.17300 38.40700 29.38900
C  42.17000 38.32300 24.57000
C  41.46200 43.03400 24.51300
N  42.13000 40.61000 29.10400
C  41.71600 41.68900 29.85900
C  41.85800 41.30800 31.35200
C  42.66500 39.93900 31.38300
C  42.73500 39.64000 29.87600
C  44.03100 39.92200 32.21800
C  40.50800 41.22200 32.10900
C  40.18000 42.15300 33.22800
H  39.74000 41.71500 34.61900
N  42.53900 38.62000 26.94700
C  42.98800 37.86600 28.05500
C  43.18600 36.51700 27.62100
C  42.92900 36.44500 26.26500
C  42.52100 37.82500 25.85800
C  43.62800 35.46100 28.52500
C  43.10500 35.26300 25.18300
O  42.81500 35.36700 23.95300
C  43.49500 33.90500 25.61600
N  41.98600 40.73000 24.79300
C  41.90200 39.62600 24.05200
C  41.55100 39.92500 22.60000
C  41.34700 41.39100 22.58400
C  41.63800 41.77200 24.01400
C  42.57500 39.38600 21.60400
C  40.02800 41.99500 21.96000
C  40.27600 43.11600 20.89800
N  41.52700 42.56700 26.87900
C  41.30300 43.41400 25.80900
C  40.96400 44.72800 26.30500
C  40.87200 44.58300 27.71700
C  41.27700 43.32600 27.99700
C  40.72500 45.95900 25.54500
C  40.49500 45.27600 28.95400
O  40.09200 46.42200 29.18000
C  40.83800 44.24300 30.04300
C  41.81400 44.71200 31.05700
O  42.99300 44.76800 30.89700
O  41.12600 45.24400 32.09400
C  41.80600 45.55500 33.35100
H  43.39600 37.76200 30.24200
H  42.12000 37.65500 23.70800
H  41.17300 43.68800 23.68700
H  42.40200 42.16000 31.75900
H  42.01000 39.15700 31.76700
H  43.74400 39.20400 32.98700
H  44.30400 40.86900 32.68500
H  44.86300 39.62400 31.57900
H  40.29000 40.19200 32.38800
H  39.83100 41.42800 31.28000
H  39.22000 42.54800 32.89400
H  40.82800 43.02800 33.27100
H  42.96000 34.61700 28.35300
H  43.65800 35.65900 29.59600
H  44.63500 35.17200 28.22500
H  42.70200 33.60300 26.30000
H  44.51100 33.87900 26.00800
H  43.43600 33.25900 24.74000
H  40.57500 39.49300 22.37900
H  42.12700 41.82800 21.96000
H  43.27600 38.71300 22.09900
H  43.08500 40.21900 21.11900
H  41.97000 38.89200 20.84400
H  39.42800 42.32900 22.80700
H  39.46100 41.22200 21.44300
H  39.94100 42.81800 19.90400
H  41.34100 43.32300 20.78800
H  39.53400 43.85700 21.19300
H  39.70000 45.92200 25.17600
H  41.47900 45.96800 24.75900
H  40.80500 46.87200 26.13600
H  39.92500 44.08000 30.61700
H  42.32900 46.51100 33.36800
H  42.45000 44.71800 33.62300
H  40.94000 45.53900 34.01200

