158

Mg 48.42900 35.78600 28.83400
C  46.22100 34.07900 31.00200
C  48.39800 38.33900 31.03600
C  50.05800 37.62800 26.59500
C  47.76300 33.34100 26.40600
N  47.40600 36.10200 30.76300
C  46.60400 35.26600 31.48600
C  46.31200 35.85000 32.85400
C  46.62200 37.36200 32.65400
C  47.59300 37.27000 31.42400
C  45.49300 38.27500 32.24900
C  46.92100 35.05800 34.03500
C  48.15400 35.54600 34.75900
H  48.00800 36.46300 35.94200
N  49.23000 37.69200 28.86600
C  49.19600 38.56900 29.95100
C  49.99700 39.68900 29.58500
C  50.52000 39.49600 28.27600
C  49.92900 38.26800 27.79200
C  50.37400 40.74000 30.64300
C  51.41200 40.38300 27.40400
O  51.69900 40.09600 26.27300
C  51.97400 41.67900 28.00900
N  48.54800 35.56600 26.64000
C  49.42200 36.43200 26.09200
C  49.89200 35.93400 24.77400
C  49.33600 34.45700 24.73200
C  48.58200 34.41400 26.04300
C  49.45900 36.84900 23.58800
C  50.46400 33.31300 24.76500
C  50.79600 32.68100 23.37500
N  47.37800 34.02700 28.71400
C  47.15500 33.13200 27.63600
C  46.34000 32.10000 28.04500
C  45.91200 32.39800 29.34800
C  46.58600 33.59300 29.72200
C  46.06400 30.88800 27.27500
C  45.07500 31.99700 30.42400
O  44.33800 31.02600 30.56600
C  45.09900 33.13400 31.46100
C  45.09900 32.48400 32.80200
O  45.71800 31.47400 33.18600
O  44.05700 33.09900 33.47700
C  43.83900 32.67900 34.92100
H  48.47300 39.19000 31.71600
H  50.71600 38.12800 25.88000
H  47.84500 32.51300 25.69900
H  45.24400 35.88100 33.06700
H  47.14100 37.77300 33.51900
H  44.58400 37.72500 32.00200
H  45.74300 38.82300 31.34000
H  45.29800 39.06700 32.97200
H  47.13600 34.01300 33.80800
H  46.11300 35.00900 34.76400
H  48.73800 36.07200 34.00300
H  48.75700 34.73800 35.17200
H  51.46400 40.78200 30.63800
H  49.91200 40.57800 31.61700
H  49.85800 41.66200 30.37600
H  52.27400 41.46700 29.03500
H  51.07200 42.28300 28.10600
H  52.78200 42.09800 27.41100
H  50.97600 35.86800 24.67700
H  48.66200 34.39100 23.87800
H  49.05800 36.31700 22.72500
H  50.31200 37.39100 23.17900
H  48.62000 37.47200 23.90000
H  50.15200 32.53800 25.46400
H  51.42800 33.76500 24.99700
H  50.38000 33.18400 22.50200
H  50.33900 31.69200 23.32500
H  51.83400 32.64100 23.04400
H  45.29000 30.25800 27.71200
H  47.00400 30.35200 27.14500
H  45.85200 31.20300 26.25300
H  44.14300 33.63100 31.29500
H  42.75800 32.60700 35.03500
H  44.31200 33.45300 35.52500
H  44.29800 31.69900 35.05800
Mg 36.41200 49.28100 24.47400
C  36.53500 47.39400 27.42500
C  35.04600 51.76700 26.13900
C  35.95100 50.75600 21.47700
C  37.50900 46.33600 22.70700
N  35.79300 49.51800 26.54700
C  36.02900 48.66400 27.60400
C  35.70500 49.35400 28.94700
C  35.02200 50.67000 28.42100
C  35.25500 50.63600 26.89800
C  33.55600 50.94700 28.87300
C  36.92600 49.56400 29.88800
C  36.84400 49.30400 31.41600
H  35.45400 49.35800 32.07500
N  35.73800 51.08200 23.89300
C  35.19200 51.95800 24.76000
C  34.84500 53.12400 24.03700
C  35.21500 52.86800 22.67700
C  35.64100 51.53800 22.62300
C  34.17800 54.27800 24.69700
C  34.92000 53.80200 21.52000
O  35.12000 53.42800 20.34700
C  34.44300 55.19700 21.70400
N  36.48900 48.52600 22.36900
C  36.40600 49.48400 21.40000
C  36.90200 48.90700 20.05200
C  37.42200 47.48200 20.40300
C  37.19300 47.46400 21.92900
C  35.82900 48.87700 18.96600
C  38.89900 47.14600 19.98700
C  39.95700 48.15500 20.50400
N  36.82200 47.23900 24.91900
C  37.42600 46.27300 24.15700
C  37.66800 45.14000 24.98800
C  37.30000 45.55700 26.26800
C  36.81800 46.87700 26.18900
C  38.15500 43.77400 24.62100
C  37.11100 45.14800 27.65000
O  37.27300 44.05100 28.16700
C  36.69400 46.41200 28.48300
C  35.39300 46.07800 29.23500
O  34.23500 46.41100 28.93500
O  35.72800 45.31600 30.32200
C  34.56300 44.88200 31.05400
H  34.55400 52.55100 26.71900
H  36.00500 51.29900 20.53100
H  37.96700 45.55100 22.10000
H  34.93700 48.79600 29.48400
H  35.57500 51.53100 28.79700
H  33.54200 51.89300 29.41500
H  33.23600 50.17100 29.56900
H  32.87100 51.12000 28.04300
H  37.36200 50.56300 29.86000
H  37.75300 48.99200 29.46800
H  37.37100 50.10100 31.94200
H  37.40500 48.37900 31.54400
H  34.65900 55.18800 24.33900
H  34.24400 54.41900 25.77600
H  33.13000 54.20500 24.40800
H  33.59400 55.33100 22.37500
H  34.33300 55.76300 20.78000
H  35.23500 55.58400 22.34500
H  37.66600 49.51600 19.57000
H  36.95600 46.60000 19.96300
H  34.83400 49.06500 19.36900
H  35.99500 47.95900 18.40300
H  35.97900 49.79700 18.40000
H  39.02800 47.26700 18.91200
H  39.18600 46.12000 20.21900
H  39.52300 48.60700 21.39600
H  40.22600 48.89200 19.74800
H  40.82100 47.56300 20.80700
H  38.21600 43.17000 25.52600
H  39.04100 43.75100 23.98700
H  37.37300 43.38500 23.96800
H  37.48800 46.52200 29.22100
H  34.90500 44.33300 31.93100
H  33.90600 44.18200 30.53600
H  33.93000 45.71000 31.37500

