158

Mg 16.82600 -2.34300 27.81800
C  15.75500 -0.27800 30.61300
C  18.45700 -4.31200 30.14000
C  18.04100 -4.00500 25.31600
C  15.07900 -0.18800 25.84600
N  16.99100 -2.32600 30.07500
C  16.53800 -1.39800 30.97400
C  16.99300 -1.75700 32.34800
C  18.01500 -2.91500 32.19600
C  17.90900 -3.18900 30.68400
C  19.47300 -2.56500 32.64000
C  15.84100 -2.01000 33.38600
C  16.01000 -1.32900 34.70800
H  17.40100 -1.05900 35.30600
N  18.18100 -3.86600 27.71900
C  18.63900 -4.62300 28.79000
C  19.41200 -5.69100 28.25300
C  19.33700 -5.76000 26.86600
C  18.51400 -4.53000 26.52800
C  20.25100 -6.61200 29.18300
C  19.99000 -6.71900 25.88800
O  19.77000 -6.59800 24.70400
C  20.80100 -7.83800 26.35900
N  16.61900 -2.12600 25.83000
C  17.21600 -2.94500 24.95400
C  16.96600 -2.48600 23.55500
C  15.82700 -1.47500 23.65200
C  15.86900 -1.19700 25.19300
C  18.22000 -2.03700 22.83400
C  14.43500 -1.97900 23.23500
C  14.20600 -1.96800 21.71100
N  15.63700 -0.62900 28.10800
C  14.98400 0.13700 27.20800
C  14.34400 1.31100 27.84200
C  14.58200 1.13000 29.20800
C  15.34600 -0.06300 29.30100
C  13.68000 2.43900 27.19500
C  14.37000 1.70600 30.53700
O  13.80600 2.73900 30.94000
C  15.18700 0.79300 31.47300
C  16.19400 1.63400 32.14000
O  17.16100 2.07900 31.64500
O  15.77500 1.86300 33.40400
C  16.49200 2.93200 34.08400
H  18.82300 -4.95600 30.94200
H  18.33300 -4.57000 24.42900
H  14.40200 0.33600 25.16800
H  17.50500 -0.85500 32.68300
H  17.70800 -3.79200 32.76700
H  19.63900 -2.93900 33.65000
H  19.52100 -1.47600 32.62600
H  20.20600 -2.86800 31.89100
H  15.70100 -3.08000 33.53800
H  14.90500 -1.61200 32.99400
H  15.37200 -1.90200 35.38100
H  15.49200 -0.37000 34.67000
H  19.58000 -7.44700 29.38800
H  20.60500 -6.23300 30.14200
H  21.20700 -7.01600 28.85200
H  20.27300 -8.25200 27.21900
H  21.76500 -7.45900 26.69900
H  20.92800 -8.49400 25.49800
H  16.61300 -3.36200 23.01000
H  16.13200 -0.53200 23.20000
H  18.31900 -1.06800 22.34600
H  18.59300 -2.67800 22.03500
H  19.01100 -2.08500 23.58300
H  13.68300 -1.41000 23.78200
H  14.39800 -3.04300 23.46800
H  13.81600 -0.99300 21.42000
H  13.47000 -2.72900 21.45300
H  15.17800 -2.11600 21.24100
H  12.65100 2.13900 26.99700
H  14.07400 2.76900 26.23400
H  13.69300 3.33500 27.81700
H  14.57700 0.24600 32.19100
H  16.94500 3.67900 33.43200
H  17.36200 2.49100 34.57100
H  15.82900 3.45800 34.77100
Mg 15.96400 51.52800 25.95800
C  18.07900 50.47800 28.57600
C  13.60900 52.39800 28.27900
C  14.14300 52.70600 23.44000
C  18.48100 50.40000 23.72700
N  15.93500 51.51400 28.22000
C  16.89900 51.10200 29.06800
C  16.48900 51.39300 30.45900
C  14.93100 51.59800 30.33000
C  14.77400 51.90600 28.88400
C  14.12100 50.41500 30.82200
C  17.23300 52.61000 31.10800
C  16.84500 53.17400 32.44500
H  16.11400 52.19400 33.41000
N  14.10700 52.49200 25.85800
C  13.28200 52.75700 26.88100
C  12.07700 53.40400 26.37800
C  12.15500 53.52100 24.95200
C  13.56600 52.90700 24.71400
C  11.01100 53.79800 27.33600
C  11.23400 54.09800 23.90000
O  11.44900 53.93700 22.68900
C  9.99900 54.85300 24.31600
N  16.35100 51.50500 23.82500
C  15.32700 52.07800 23.00900
C  15.71000 51.93700 21.49600
C  17.21000 51.40600 21.58300
C  17.40800 51.09400 23.06100
C  14.71200 51.03700 20.71000
C  18.43000 52.27900 21.06800
C  19.33800 51.59300 19.99300
N  17.83700 50.49100 26.04800
C  18.72600 50.13600 25.09600
C  19.83100 49.42800 25.63200
C  19.61800 49.49300 27.03100
C  18.44300 50.27900 27.19700
C  20.97700 48.84000 24.95400
C  20.19300 49.25400 28.32300
O  21.27000 48.75000 28.62000
C  19.18600 49.95700 29.35700
C  18.75200 48.96900 30.40200
O  17.99400 47.96000 30.29100
O  19.30400 49.40400 31.53400
C  18.79100 48.79000 32.75900
H  12.87900 52.60800 29.06400
H  13.78600 53.32800 22.61700
H  19.26400 49.98000 23.09300
H  16.59600 50.47700 31.04100
H  14.65400 52.50000 30.87800
H  13.42200 50.72800 31.59800
H  14.60700 49.53500 31.24300
H  13.58800 50.06300 29.93900
H  17.13100 53.39300 30.35600
H  18.27400 52.31100 31.22800
H  16.08600 53.94100 32.29200
H  17.68900 53.64400 32.95100
H  10.58700 54.74400 27.00000
H  11.39700 53.90100 28.35000
H  10.25100 53.01800 27.34500
H  10.46600 55.76200 24.69600
H  9.42800 54.19200 24.96900
H  9.49200 55.13100 23.39200
H  15.66900 52.95700 21.11500
H  17.21200 50.43000 21.09900
H  15.18500 50.23400 20.14500
H  14.24500 51.64000 19.93100
H  13.95000 50.58400 21.34500
H  19.04800 52.48500 21.94200
H  18.10200 53.24300 20.68000
H  19.25600 52.15400 19.06200
H  19.04200 50.56200 19.79600
H  20.37700 51.44900 20.29000
H  21.77800 48.50900 25.61500
H  21.50500 49.53600 24.30100
H  20.51200 47.98500 24.46300
H  19.76900 50.69700 29.90500
H  19.38300 49.00800 33.64800
H  18.85900 47.70400 32.69400
H  17.71400 48.95900 32.79200

