158

Mg 42.30500 41.74000 26.55000
C  41.31600 44.26000 28.78900
C  43.41600 39.93200 29.06000
C  43.51400 39.59500 24.31600
C  41.48200 44.08200 23.92800
N  42.28600 42.12100 28.62600
C  41.81100 43.14800 29.38200
C  41.89500 42.86900 30.87700
C  42.39600 41.38400 30.93600
C  42.70800 41.06900 29.44700
C  43.54400 41.08200 31.93600
C  40.56500 43.17400 31.69400
C  40.06800 42.31800 32.84900
H  39.41500 43.15800 33.98500
N  43.35200 39.98800 26.64100
C  43.60600 39.31700 27.78300
C  44.16500 37.98800 27.54200
C  44.17800 37.86700 26.07300
C  43.69200 39.16300 25.61600
C  44.52600 36.95700 28.66300
C  44.60900 36.74300 25.18600
O  44.50000 36.70900 23.93600
C  45.14500 35.57200 25.84100
N  42.69500 41.96700 24.44900
C  43.07200 40.78900 23.75100
C  42.75800 41.03200 22.24600
C  41.98300 42.35600 22.19600
C  42.09400 42.86600 23.63700
C  44.05200 40.98900 21.41400
C  40.53500 42.23700 21.78000
C  39.58900 41.45200 22.67700
N  41.56200 43.78400 26.35700
C  41.31500 44.57300 25.25600
C  40.77600 45.81100 25.70500
C  40.76300 45.77200 27.09000
C  41.22600 44.50400 27.44600
C  40.47900 46.95300 24.83500
C  40.53400 46.56100 28.23900
O  40.19100 47.73800 28.36300
C  40.87700 45.55700 29.47900
C  41.98200 46.13300 30.24100
O  43.15400 46.18000 29.91500
O  41.46000 46.76200 31.39400
C  42.45500 47.23700 32.35800
H  43.66700 39.31000 29.92100
H  43.81100 38.81700 23.60900
H  40.90300 44.71100 23.24900
H  42.69600 43.53600 31.19400
H  41.63600 40.66100 31.23300
H  43.49000 41.66100 32.85800
H  44.44900 41.24900 31.35200
H  43.40300 40.01900 32.13300
H  39.74100 43.20300 30.98100
H  40.66600 44.20200 32.04200
H  40.87300 41.74500 33.31000
H  39.29100 41.66000 32.46100
H  45.54500 36.61400 28.48500
H  43.84200 36.10900 28.61800
H  44.73700 37.39600 29.63900
H  44.36700 35.19200 26.50300
H  46.05300 35.83600 26.38300
H  45.36600 34.71900 25.19900
H  42.09700 40.21000 21.97000
H  42.37400 43.12600 21.53100
H  44.88200 41.22700 22.07900
H  44.05600 41.76000 20.64300
H  44.33900 40.07600 20.89100
H  40.67800 41.80400 20.79000
H  40.22000 43.27500 21.66500
H  39.03700 42.11500 23.34400
H  40.03500 40.68000 23.30400
H  38.86900 41.06100 21.95900
H  39.65800 46.62100 24.19900
H  41.43700 47.27900 24.43200
H  40.04500 47.81400 25.34400
H  40.05500 45.42500 30.18200
H  42.00500 48.04200 32.93800
H  43.40400 47.69900 32.08500
H  42.50300 46.36400 33.00900
Mg -5.46200 25.05000 26.59900
C  -4.06600 26.50200 29.47700
C  -7.63400 23.16200 28.53900
C  -6.44600 23.51900 23.88800
C  -3.13000 26.86300 24.74000
N  -5.77200 24.88600 28.75000
C  -5.08400 25.53100 29.74300
C  -5.47800 24.92600 31.04800
C  -6.53100 23.83000 30.77600
C  -6.67100 24.00100 29.25900
C  -6.15400 22.45500 31.34800
C  -5.94900 26.02700 32.03900
C  -5.64800 25.70700 33.50100
H  -5.08000 24.38200 33.88800
N  -6.90100 23.66300 26.30300
C  -7.65000 22.94100 27.20200
C  -8.59000 21.98700 26.51500
C  -8.30300 22.16000 25.15600
C  -7.16400 23.16800 25.06200
C  -9.45900 21.13600 27.24000
C  -9.04700 21.58600 23.98400
O  -8.66500 21.71800 22.82700
C  -10.27300 20.64000 24.20400
N  -4.88100 25.22600 24.63300
C  -5.42100 24.41800 23.68600
C  -4.70400 24.51900 22.31200
C  -3.86600 25.84200 22.58000
C  -3.97900 26.06300 24.06800
C  -3.91100 23.22800 21.77700
C  -4.40500 27.10400 21.84300
C  -3.51500 27.71000 20.78800
N  -3.92500 26.53000 26.96900
C  -3.06900 27.17700 26.13000
C  -2.13900 28.03700 26.82600
C  -2.44100 27.77600 28.17800
C  -3.58100 26.80200 28.17600
C  -1.04900 28.81700 26.16100
C  -2.09000 28.02800 29.57900
O  -1.35300 28.74500 30.20500
C  -3.13200 27.22700 30.40000
C  -2.41200 26.38800 31.33900
O  -2.05500 25.19900 31.09400
O  -1.99700 27.09900 32.47000
C  -1.38800 26.32100 33.50100
H  -8.42900 22.70600 29.13300
H  -6.70400 22.95700 22.98800
H  -2.38500 27.35100 24.10800
H  -4.51300 24.49600 31.31400
H  -7.48300 24.18600 31.17000
H  -6.16800 21.69100 30.57100
H  -6.86800 22.13200 32.10600
H  -5.17400 22.39100 31.82100
H  -7.02300 26.21600 32.06600
H  -5.53600 27.00100 31.77800
H  -6.50700 25.92500 34.13700
H  -4.93400 26.43200 33.89000
H  -9.18600 20.18300 26.78700
H  -10.48300 21.35200 26.93500
H  -9.34800 21.06200 28.32200
H  -10.02000 19.73200 24.75300
H  -10.50700 20.23400 23.22000
H  -11.10600 21.19600 24.63300
H  -5.47500 24.68500 21.56000
H  -2.82100 25.61900 22.36500
H  -2.83700 23.36400 21.65000
H  -4.28000 22.84400 20.82600
H  -3.99900 22.40600 22.48800
H  -4.68800 27.88600 22.54800
H  -5.34500 26.82900 21.36500
H  -4.15300 27.84600 19.91500
H  -2.61500 27.10300 20.68200
H  -3.22300 28.69600 21.14800
H  -0.48600 29.36300 26.91800
H  -1.26100 29.48800 25.32900
H  -0.29100 28.14400 25.76100
H  -3.63900 28.00200 30.97400
H  -2.10200 26.28100 34.32400
H  -0.53900 26.94600 33.77900
H  -1.09100 25.32600 33.16900

