158

Mg 3.30700 -0.37800 43.98200
C  6.25700 1.57000 44.14400
C  1.71400 2.33300 42.57700
C  0.61800 -2.34700 43.68600
C  5.10500 -3.09400 45.14800
N  4.06000 1.62300 43.21400
C  5.22600 2.23000 43.48600
C  5.27500 3.69500 42.99500
C  3.72900 4.01400 42.94700
C  3.06700 2.59200 42.91100
C  3.32300 4.95200 44.11400
C  6.03500 3.97900 41.64300
C  6.51700 2.64400 40.89600
H  7.02900 2.94600 39.49700
N  1.42200 -0.01800 43.19900
C  0.91300 1.12700 42.62600
C  -0.57400 0.93000 42.33500
C  -0.90900 -0.35600 42.74000
C  0.36600 -1.00300 43.21300
C  -1.44100 2.00500 41.72200
C  -2.31000 -0.90000 42.73300
O  -3.23300 -0.14300 42.41300
C  -2.82200 -2.29400 43.18900
N  2.97000 -2.49200 44.10300
C  1.72200 -3.01700 44.13200
C  1.76500 -4.53500 44.41400
C  3.24000 -4.82200 44.82300
C  3.83100 -3.42000 44.65300
C  0.60400 -5.09700 45.26200
C  4.05400 -5.86700 43.94400
C  4.69900 -6.91000 44.77800
N  5.32300 -0.80700 44.47200
C  5.91400 -1.88100 44.98900
C  7.29500 -1.66900 45.42300
C  7.45200 -0.29900 45.13300
C  6.24500 0.19200 44.51800
C  8.15800 -2.67900 46.16900
C  8.36700 0.85500 45.19300
O  9.48900 0.87400 45.67000
C  7.61400 2.09500 44.54700
C  7.58000 3.26600 45.48100
O  8.45400 4.10800 45.53500
O  6.53800 3.19100 46.34300
C  6.57200 4.08300 47.49900
H  1.05200 3.13200 42.23700
H  -0.23000 -3.01500 43.52300
H  5.59700 -4.00300 45.50000
H  5.80600 4.18800 43.80900
H  3.53100 4.56600 42.02800
H  3.12800 4.46700 45.07000
H  2.56200 5.65500 43.77500
H  4.18300 5.57800 44.34900
H  6.99200 4.48500 41.76900
H  5.41000 4.60400 41.00600
H  5.79000 1.83800 40.79800
H  7.36400 2.27000 41.47100
H  -2.03300 2.47800 42.50600
H  -2.02000 1.78900 40.82400
H  -0.73400 2.75300 41.36400
H  -2.69700 -2.34700 44.27100
H  -2.33100 -3.13200 42.69300
H  -3.87000 -2.39500 42.90700
H  1.56000 -5.02600 43.46300
H  3.28400 -5.19000 45.84800
H  0.98400 -5.99200 45.75300
H  -0.24800 -5.29200 44.61000
H  0.38800 -4.38200 46.05600
H  4.81100 -5.36900 43.33800
H  3.49600 -6.37200 43.15600
H  3.95300 -7.21300 45.51200
H  5.60300 -6.50700 45.23500
H  4.95400 -7.86800 44.32500
H  7.90900 -2.76800 47.22700
H  9.11200 -2.15200 46.17000
H  8.32700 -3.66100 45.72600
H  8.26900 2.44500 43.74900
H  5.97200 4.98300 47.37200
H  7.57000 4.41800 47.78100
H  6.28400 3.45800 48.34400
Mg 41.11500 7.50200 29.43500
C  42.63500 9.05500 32.09400
C  38.92500 5.99300 31.57900
C  39.75700 6.06800 26.78400
C  43.72600 8.84300 27.29000
N  41.01200 7.37200 31.59300
C  41.61000 8.20000 32.51000
C  40.94900 7.99800 33.88000
C  39.99200 6.77200 33.67200
C  39.94300 6.61400 32.14800
C  40.57100 5.44500 34.28900
C  40.19900 9.28200 34.20300
C  40.19600 9.68400 35.70700
H  40.85600 11.05400 36.02000
N  39.60000 6.26500 29.21200
C  38.70000 5.87600 30.22400
C  37.53900 5.18400 29.60600
C  37.81900 5.21700 28.18600
C  39.08000 5.85300 28.00600
C  36.39300 4.42700 30.38400
C  36.88500 4.77100 27.00800
O  37.22500 4.83200 25.81500
C  35.51600 4.46200 27.42200
N  41.76100 7.45000 27.32700
C  40.93000 6.82100 26.49700
C  41.43300 6.92900 25.00500
C  42.60500 7.91000 25.15300
C  42.71000 8.11600 26.64300
C  41.77900 5.57300 24.32500
C  42.49500 9.17300 24.35800
C  41.32900 10.14300 24.55000
N  42.83000 8.72000 29.66200
C  43.78600 9.17100 28.74500
C  44.72200 10.01900 29.41500
C  44.32700 10.01600 30.71800
C  43.14800 9.19400 30.81400
C  45.91400 10.71100 28.72800
C  44.61000 10.50600 32.05900
O  45.47500 11.27600 32.45400
C  43.47600 9.85700 32.98900
C  44.04100 8.87900 33.98700
O  44.90500 8.01500 33.72600
O  43.72300 9.20200 35.28500
C  44.18400 8.44600 36.53800
H  38.16300 5.69300 32.30200
H  39.45900 5.55100 25.87000
H  44.40300 9.40700 26.64500
H  41.68100 7.76400 34.65200
H  39.05200 6.91800 34.20400
H  40.59800 4.63800 33.55600
H  39.86300 5.17100 35.07000
H  41.51300 5.44700 34.83700
H  39.14800 9.24200 33.91600
H  40.63300 10.06700 33.58300
H  40.78600 8.94900 36.25300
H  39.17100 9.61500 36.07300
H  36.43800 4.45900 31.47200
H  36.28700 3.43200 29.95100
H  35.45600 4.93800 30.16100
H  34.97300 4.21600 26.51000
H  35.03900 5.32000 27.89600
H  35.61600 3.52200 27.96600
H  40.57200 7.36400 24.49900
H  43.54800 7.51500 24.77300
H  41.31500 4.76300 24.88700
H  42.86300 5.48500 24.25200
H  41.27700 5.50500 23.36000
H  42.40100 8.80000 23.33800
H  43.43500 9.72300 24.33300
H  40.66500 10.10900 23.68700
H  41.63000 11.17800 24.71300
H  40.65700 9.96500 25.38900
H  46.44400 11.47200 29.29900
H  45.56700 11.23700 27.83800
H  46.69100 9.98700 28.48100
H  43.12700 10.71900 33.55800
H  44.79900 9.04800 37.20700
H  44.74400 7.57200 36.20300
H  43.41200 8.01900 37.17800

