158

Mg 2.59600 -1.13700 43.52000
C  6.00800 -0.47700 42.89400
C  1.77800 1.88200 41.89000
C  -0.55000 -2.21900 43.13000
C  3.52100 -4.16800 44.96200
N  3.77200 0.41100 42.34000
C  5.15600 0.49400 42.29800
C  5.60500 1.75400 41.55800
C  4.24300 2.63000 41.47000
C  3.21300 1.60700 41.96200
C  4.27300 4.02400 42.21400
C  6.24500 1.35000 40.14900
C  7.33800 2.25000 39.59900
H  7.03300 2.77500 38.16200
N  0.83500 -0.34500 42.59400
C  0.72100 0.99700 42.08700
C  -0.63700 1.14700 41.69400
C  -1.33200 -0.14500 41.86100
C  -0.34300 -0.99200 42.56300
C  -1.06100 2.38800 41.07200
C  -2.69600 -0.53500 41.34100
O  -3.38100 0.31800 40.89800
C  -3.24600 -1.92100 41.34900
N  1.65200 -3.10200 43.82700
C  0.31700 -3.11500 43.87100
C  -0.20900 -4.22600 44.76300
C  1.16700 -4.74900 45.48100
C  2.17800 -4.00000 44.68000
C  -1.33100 -3.87400 45.72500
C  1.46300 -6.28300 45.46800
C  2.30200 -6.78400 46.69000
N  4.35200 -2.10400 44.07200
C  4.56200 -3.36200 44.56000
C  5.98400 -3.67100 44.66200
C  6.56100 -2.51200 44.07900
C  5.53000 -1.58900 43.68900
C  6.73700 -4.85500 45.25800
C  7.86100 -1.93600 43.66700
O  8.96800 -2.35000 43.71500
C  7.51300 -0.52200 42.97500
C  7.96600 0.63700 43.80600
O  7.31800 1.28800 44.64800
O  9.23500 0.96300 43.31200
C  9.84800 1.96100 44.21500
H  1.53500 2.89900 41.57400
H  -1.60200 -2.50500 43.19900
H  3.82800 -5.09400 45.45200
H  6.35800 2.31900 42.10800
H  3.98300 2.70000 40.41400
H  3.94600 4.70000 41.42400
H  5.26100 4.22700 42.62900
H  3.58200 3.93800 43.05200
H  5.44700 1.36700 39.40700
H  6.66900 0.34600 40.17600
H  8.23700 1.63800 39.52400
H  7.52000 3.08400 40.27700
H  -0.86400 2.39600 40.00000
H  -0.57600 3.27200 41.48700
H  -2.12800 2.52200 41.25000
H  -3.99000 -1.97900 40.55400
H  -3.58800 -2.20700 42.34400
H  -2.42600 -2.59400 41.09900
H  -0.65600 -4.92800 44.05900
H  1.22700 -4.38900 46.50800
H  -1.26400 -4.33500 46.71000
H  -2.27800 -4.14100 45.25600
H  -1.28900 -2.81600 45.98500
H  2.03800 -6.53100 44.57600
H  0.60900 -6.94300 45.31500
H  1.61200 -7.49200 47.14900
H  2.39900 -6.05200 47.49200
H  3.24500 -7.28500 46.47000
H  6.66400 -5.79300 44.70800
H  6.40200 -5.06800 46.27300
H  7.80300 -4.64900 45.35100
H  7.98600 -0.43300 41.99700
H  10.12300 1.59200 45.20400
H  9.12400 2.76100 44.36900
H  10.82300 2.23100 43.80900
Mg 36.28500 49.56600 24.83700
C  36.51800 47.85900 27.86400
C  35.22700 52.32000 26.46200
C  36.00100 51.05400 21.85000
C  37.43900 46.61700 23.19800
N  35.84200 49.98900 26.91200
C  36.14400 49.18100 27.99300
C  35.81600 49.93200 29.31100
C  35.47800 51.35900 28.87300
C  35.46000 51.23500 27.29800
C  34.16200 51.93600 29.45000
C  36.89600 49.92600 30.48500
C  36.42100 49.42600 31.83600
H  34.93400 49.38400 32.34600
N  35.68000 51.44900 24.21100
C  35.22600 52.47300 25.02900
C  34.90200 53.61500 24.20400
C  35.08400 53.22800 22.87200
C  35.57200 51.85600 22.92000
C  34.57500 55.04500 24.74700
C  34.79500 54.07700 21.59500
O  34.79000 53.65800 20.42600
C  34.61600 55.61000 21.69700
N  36.36600 48.83600 22.73400
C  36.33500 49.72300 21.76600
C  36.75000 49.12700 20.41700
C  37.32100 47.72100 20.78700
C  36.99200 47.70200 22.33900
C  35.55200 48.95500 19.43500
C  38.83900 47.48700 20.48900
C  39.92000 48.33500 21.25200
N  36.78300 47.59300 25.39800
C  37.26000 46.51800 24.62300
C  37.54400 45.39600 25.53800
C  37.22300 45.88000 26.81600
C  36.87500 47.21700 26.69400
C  38.09900 44.05500 25.24200
C  37.10200 45.56100 28.20500
O  37.31100 44.53400 28.82600
C  36.68900 46.81900 28.96600
C  35.36700 46.44300 29.69900
O  34.31000 46.47800 29.17400
O  35.69800 45.88700 30.91900
C  34.60100 45.41700 31.81000
H  34.80200 53.19000 26.96600
H  35.94000 51.56900 20.88900
H  37.82200 45.71800 22.71000
H  34.90400 49.46500 29.68200
H  36.36000 51.97100 29.06600
H  34.46500 52.39400 30.39100
H  33.47100 51.14000 29.72700
H  33.59200 52.61500 28.81600
H  37.29800 50.90100 30.76100
H  37.71100 49.25500 30.21400
H  36.99800 50.01800 32.54600
H  36.74600 48.39500 31.97100
H  33.67200 55.49200 24.32900
H  35.43200 55.71200 24.65500
H  34.19000 54.95900 25.76300
H  33.70300 55.69900 22.28600
H  34.39700 56.18500 20.79700
H  35.50800 55.98800 22.19600
H  37.47200 49.75100 19.89000
H  36.61400 46.99800 20.38100
H  34.79500 49.72300 19.59000
H  35.00400 48.02800 19.60300
H  35.90200 49.08200 18.41100
H  38.98700 47.50700 19.41000
H  38.96400 46.41700 20.65100
H  39.46900 48.72600 22.16400
H  40.23300 49.07700 20.51800
H  40.62400 47.58200 21.60700
H  38.23000 43.45900 26.14500
H  39.07500 44.19100 24.77600
H  37.63000 43.42600 24.48600
H  37.48100 47.17500 29.62400
H  34.62500 44.32800 31.75600
H  33.62200 45.72500 31.44400
H  34.75300 45.82100 32.81100

