158

Mg 8.16000 2.54500 27.11400
C  9.74300 1.51600 30.05900
C  6.11500 4.52200 29.15400
C  6.98900 3.86100 24.33000
C  9.97400 0.14700 25.27500
N  7.84800 2.86300 29.40800
C  8.81700 2.46700 30.39600
C  8.45800 3.09100 31.77200
C  7.14800 3.94600 31.46000
C  6.94000 3.73100 29.93300
C  5.90800 3.45100 32.18800
C  9.65500 3.87500 32.40700
C  9.28500 4.45500 33.78100
H  10.26400 4.31300 34.88300
N  6.70600 3.96100 26.71000
C  5.98500 4.66400 27.68800
C  5.15000 5.68400 26.99700
C  5.48000 5.52500 25.57300
C  6.39200 4.40700 25.47900
C  4.32700 6.68500 27.63200
C  5.02100 6.39600 24.40900
O  5.24200 6.16500 23.21300
C  4.38000 7.71100 24.63200
N  8.32700 1.93700 25.07900
C  7.82900 2.75200 24.17500
C  8.18700 2.23300 22.76300
C  9.33300 1.15000 23.01600
C  9.14400 0.98200 24.50700
C  6.96200 1.50600 22.07100
C  10.69500 1.73300 22.62000
C  11.81200 0.73800 22.13100
N  9.52000 1.02400 27.56000
C  10.15600 0.14200 26.70500
C  11.22600 -0.53400 27.43100
C  10.98300 -0.11300 28.78500
C  10.00800 0.93100 28.76500
C  12.37900 -1.37800 26.87000
C  11.58700 -0.07000 30.06600
O  12.52300 -0.74000 30.48200
C  10.84300 0.93700 30.94700
C  10.34500 0.13800 32.10700
O  9.37900 -0.53800 32.17500
O  11.20800 0.35800 33.22400
C  10.84000 -0.01500 34.57300
H  5.70100 5.40300 29.65000
H  6.77900 4.37500 23.39000
H  10.72600 -0.36900 24.67400
H  8.31300 2.29700 32.50400
H  7.27600 5.00400 31.68700
H  5.31900 4.23400 32.66600
H  6.21100 2.83100 33.03200
H  5.14200 3.03800 31.53200
H  10.03900 4.66200 31.75800
H  10.43500 3.14500 32.62200
H  8.25000 4.27200 34.06800
H  9.40400 5.53200 33.66800
H  3.35900 6.58900 27.14000
H  4.76600 7.66400 27.44300
H  4.36500 6.54100 28.71200
H  5.07000 8.34800 25.18500
H  3.38200 7.63600 25.06500
H  4.20400 8.18200 23.66500
H  8.52000 3.01300 22.07700
H  9.18500 0.18300 22.53600
H  6.02800 1.88500 22.48500
H  6.96400 0.42500 22.21100
H  6.99700 1.77500 21.01600
H  11.10500 2.13800 23.54500
H  10.56700 2.60400 21.97800
H  12.15900 0.78300 21.09800
H  11.38200 -0.26300 22.17900
H  12.67000 0.83700 22.79700
H  13.10800 -0.77300 26.33200
H  11.99400 -1.90900 26.00000
H  12.78500 -2.15300 27.52200
H  11.56200 1.71500 31.20500
H  10.71900 0.95600 35.05200
H  11.64900 -0.52900 35.09200
H  9.87700 -0.51100 34.69100
Mg 41.42900 9.24300 29.57300
C  43.08300 10.37800 32.53700
C  39.00700 8.00600 31.54400
C  40.22200 8.06300 26.88000
C  44.38000 10.42900 27.78700
N  41.08900 9.19500 31.84900
C  41.80300 9.78500 32.85800
C  41.14300 9.53600 34.25300
C  40.03000 8.54200 33.84000
C  40.01500 8.61600 32.35500
C  40.09600 7.05100 34.33900
C  40.76300 10.86400 34.90900
C  40.36700 10.72800 36.41800
H  41.14800 11.58000 37.46900
N  39.77700 8.18600 29.24300
C  38.80600 7.85500 30.14300
C  37.69900 7.26200 29.34800
C  38.09500 7.26900 27.91900
C  39.40100 7.81500 27.96500
C  36.42500 6.87300 29.99400
C  37.18400 6.99600 26.71300
O  37.63100 6.98600 25.54100
C  35.71200 6.66600 26.94600
N  42.21200 9.29500 27.62400
C  41.46400 8.69100 26.69700
C  42.18600 8.69700 25.30200
C  43.53900 9.47700 25.58900
C  43.38100 9.73900 27.12100
C  42.38600 7.27400 24.57600
C  43.50400 10.75700 24.80000
C  42.63400 11.99100 25.31300
N  43.30800 10.35700 29.98200
C  44.40800 10.68600 29.15000
C  45.34300 11.36500 29.98600
C  44.81600 11.24100 31.31700
C  43.61000 10.56800 31.26700
C  46.63300 11.90900 29.63500
C  45.07200 11.74800 32.61000
O  45.91500 12.48600 33.01500
C  44.00000 11.04300 33.53100
C  44.58600 10.03300 34.44800
O  45.14300 8.96800 34.15200
O  44.37100 10.40300 35.73400
C  44.29300 9.39400 36.84600
H  38.22800 7.54600 32.15400
H  39.86700 7.80300 25.88000
H  45.22100 10.83800 27.22400
H  41.98300 9.10500 34.79800
H  39.08200 9.02500 34.07600
H  39.17300 6.82300 34.87100
H  40.92900 6.75900 34.98000
H  40.14100 6.33100 33.52200
H  39.84000 11.22500 34.45400
H  41.48000 11.63200 34.61900
H  40.28600 9.69900 36.76700
H  39.35500 11.12800 36.36300
H  35.59500 7.42700 29.55600
H  36.48200 7.20400 31.03100
H  36.19600 5.80700 29.99600
H  35.53000 5.99900 27.78800
H  35.35400 6.17500 26.04100
H  35.08900 7.51300 27.23200
H  41.44800 9.25900 24.72900
H  44.42200 8.88200 25.35700
H  43.43200 6.97900 24.65800
H  41.97300 7.38300 23.57300
H  41.84500 6.55700 25.19300
H  43.09600 10.55000 23.81100
H  44.50000 11.16500 24.63000
H  42.24600 11.89700 26.32700
H  41.81300 12.24700 24.64300
H  43.31300 12.84400 25.29200
H  46.56500 12.38800 28.65800
H  47.38200 11.12200 29.54700
H  46.78100 12.64400 30.42600
H  43.45500 11.82900 34.05400
H  43.45800 9.55000 37.52900
H  45.16000 9.47400 37.50100
H  44.33800 8.39500 36.41100

