158

Mg 26.90300 49.74600 26.59600
C  24.91000 50.59400 29.44300
C  29.42400 49.01600 28.78200
C  28.87000 49.35400 24.02900
C  24.28900 50.99400 24.56600
N  27.07200 49.82500 28.80300
C  26.12900 50.04300 29.76300
C  26.60800 49.65300 31.19600
C  28.12900 49.41900 30.95700
C  28.22400 49.40700 29.42000
C  29.00500 50.45100 31.62800
C  25.84700 48.43600 31.76800
C  25.05700 48.85300 33.02600
H  25.81300 49.46600 34.25000
N  28.96300 49.18100 26.41600
C  29.80300 48.82500 27.46200
C  31.02200 48.42300 26.88000
C  30.96400 48.66900 25.47200
C  29.56300 49.09000 25.20900
C  32.19800 47.99000 27.68500
C  31.97500 48.65600 24.42500
O  31.87900 49.15900 23.26800
C  33.32500 48.09400 24.56600
N  26.61800 50.10000 24.61400
C  27.54300 49.73700 23.70300
C  27.04200 50.01500 22.27500
C  25.59800 50.42700 22.43100
C  25.46500 50.52400 23.98200
C  27.86500 51.07500 21.51700
C  24.45800 49.39500 21.93200
C  23.37800 49.95800 21.07300
N  25.08000 50.67700 26.87300
C  24.10100 51.11600 25.97300
C  22.91700 51.63300 26.64900
C  23.18500 51.37900 27.98500
C  24.47800 50.82700 28.12000
C  21.67900 52.25500 26.06300
C  22.63600 51.51600 29.28800
O  21.53500 51.95800 29.63700
C  23.67200 50.93200 30.33100
C  24.07100 52.00100 31.26300
O  24.94200 52.83800 31.05400
O  23.40000 51.91800 32.40500
C  23.67000 53.01100 33.37600
H  30.11800 48.80000 29.59700
H  29.45800 49.11500 23.14000
H  23.38300 51.27500 24.02400
H  26.39000 50.55800 31.76300
H  28.40300 48.39300 31.20200
H  29.64100 49.88700 32.31000
H  28.37300 51.04400 32.28800
H  29.69300 50.87400 30.89600
H  26.53600 47.62400 32.00400
H  25.10400 48.06800 31.06000
H  24.60600 47.91000 33.33400
H  24.21900 49.51800 32.81700
H  31.80100 47.54800 28.59900
H  32.85600 48.83200 27.89900
H  32.68100 47.25700 27.03900
H  33.84800 47.85400 23.64000
H  33.11500 47.11800 25.00300
H  33.97200 48.58900 25.29100
H  27.11700 49.06000 21.75500
H  25.38600 51.40800 22.00500
H  28.79000 51.39100 22.00000
H  27.42300 52.05100 21.32000
H  28.18200 50.75300 20.52500
H  23.96300 48.91400 22.77500
H  24.99500 48.64800 21.34800
H  22.49000 49.36700 21.29700
H  23.73000 50.03300 20.04400
H  23.25800 50.94800 21.51300
H  21.58300 53.33900 26.12100
H  20.87500 51.94200 26.72800
H  21.41400 51.84400 25.08900
H  23.32600 50.04400 30.86000
H  24.63200 53.50800 33.25100
H  23.55400 52.67200 34.40600
H  22.86300 53.73700 33.27600
Mg -2.08400 34.24400 26.53600
C  -3.77300 32.95100 29.29600
C  -0.60100 36.54000 28.65000
C  -0.53300 35.77300 23.84200
C  -3.84900 32.23500 24.44000
N  -2.27400 34.76700 28.68200
C  -2.89800 33.99500 29.64700
C  -2.44400 34.31100 31.05100
C  -1.60700 35.62300 30.79100
C  -1.51200 35.62700 29.25200
C  -2.09600 36.92500 31.38300
C  -1.64800 33.14600 31.76000
C  -1.01300 33.55000 33.09400
H  -1.46600 32.85700 34.34200
N  -0.79000 36.01400 26.25100
C  -0.21900 36.73600 27.25100
C  0.73000 37.70200 26.65300
C  0.74000 37.49500 25.20800
C  -0.20200 36.37200 25.00300
C  1.60000 38.64000 27.46800
C  1.43100 38.16400 24.09700
O  1.16600 37.90200 22.91000
C  2.49700 39.07200 24.40400
N  -2.28200 34.16900 24.41800
C  -1.52400 34.78900 23.53800
C  -1.52500 34.17400 22.16100
C  -2.48200 32.95900 22.33400
C  -2.92900 33.10700 23.85600
C  -2.17700 35.13200 20.97300
C  -1.77600 31.56100 22.10100
C  -2.83200 30.51800 21.69100
N  -3.59800 32.91200 26.72900
C  -4.13600 32.10700 25.79400
C  -4.93600 31.11500 26.42300
C  -4.89600 31.44300 27.83600
C  -4.07300 32.53100 27.93500
C  -5.67700 30.03900 25.73100
C  -5.39200 31.08600 29.15700
O  -6.17200 30.17400 29.52200
C  -4.59800 32.03800 30.16600
C  -5.57500 32.65700 31.00200
O  -6.70900 33.00500 30.60400
O  -5.22000 32.59200 32.31900
C  -6.36800 32.71100 33.28700
H  -0.04500 37.10400 29.40300
H  -0.06000 35.93700 22.87200
H  -4.48700 31.72000 23.71800
H  -3.40100 34.48800 31.54200
H  -0.63100 35.52900 31.26700
H  -2.57800 37.66700 30.74700
H  -1.30000 37.46900 31.89200
H  -2.85600 36.58400 32.08700
H  -0.94700 32.70900 31.04900
H  -2.40400 32.37500 31.90900
H  -1.03500 34.63200 33.22300
H  0.05700 33.34900 33.04100
H  2.62800 38.63800 27.10400
H  1.62400 38.30300 28.50500
H  1.14300 39.62900 27.46300
H  2.15000 39.94700 24.95300
H  2.86300 39.46700 23.45700
H  3.34800 38.60500 24.90000
H  -0.52500 33.90800 21.81800
H  -3.35200 33.04300 21.68200
H  -3.26400 35.09700 20.90000
H  -1.78400 34.89000 19.98600
H  -1.91500 36.18600 21.06200
H  -1.52700 31.28800 23.12600
H  -0.80600 31.52300 21.60500
H  -2.39400 29.92500 20.88800
H  -3.83800 30.92500 21.58900
H  -3.02000 29.75500 22.44700
H  -5.43600 29.09900 26.22700
H  -5.52000 29.87600 24.66400
H  -6.75700 30.12900 25.84400
H  -3.98900 31.37800 30.78400
H  -6.80000 31.73300 33.49800
H  -7.07400 33.43400 32.87800
H  -6.05800 33.26800 34.17100

