158

Mg 2.55600 -2.20300 43.94900
C  5.89500 -1.07900 44.30700
C  1.70300 0.88400 42.56000
C  -0.35900 -3.35100 42.83600
C  3.68900 -5.45600 44.73600
N  3.69200 -0.29200 43.38500
C  5.02700 -0.10400 43.65000
C  5.39300 1.40800 43.50200
C  3.98800 2.02700 43.26900
C  3.04800 0.82500 43.04900
C  3.43600 3.03000 44.33900
C  6.39000 1.63800 42.31300
C  6.05300 0.87400 40.99500
H  6.13400 1.59800 39.64800
N  0.78500 -1.26300 43.12300
C  0.71700 -0.07400 42.49200
C  -0.54400 0.11900 41.88100
C  -1.25300 -1.07000 42.08000
C  -0.25300 -1.98600 42.66000
C  -0.92800 1.25500 41.09500
C  -2.67100 -1.36900 41.70700
O  -3.34500 -0.46600 41.15500
C  -3.41200 -2.72000 42.08200
N  1.73400 -4.09600 43.91000
C  0.48800 -4.27600 43.46200
C  0.03800 -5.71200 43.76000
C  1.31000 -6.40900 44.44100
C  2.33000 -5.26500 44.42300
C  -1.29000 -5.84900 44.51900
C  1.78500 -7.67100 43.66400
C  2.60800 -7.52000 42.29600
N  4.46300 -3.21400 44.44100
C  4.72800 -4.50600 44.71100
C  6.10200 -4.57800 45.09900
C  6.63900 -3.29500 45.03900
C  5.61000 -2.49600 44.52900
C  6.80600 -5.84300 45.63600
C  7.78000 -2.46800 45.30900
O  8.92500 -2.69400 45.65700
C  7.32100 -1.00700 44.84900
C  7.40000 -0.03300 45.96900
O  6.67400 -0.04300 46.98700
O  8.29400 0.97300 45.68200
C  8.45900 1.88600 46.78900
H  1.42300 1.87900 42.20600
H  -1.32000 -3.77000 42.52900
H  3.92600 -6.47800 45.04100
H  5.76000 1.75700 44.46700
H  3.95600 2.63200 42.36300
H  2.88500 3.84400 43.86900
H  4.28300 3.46700 44.86800
H  2.92900 2.46900 45.12400
H  7.33300 1.26700 42.71100
H  6.52600 2.69300 42.07300
H  5.05700 0.43700 40.93900
H  6.73300 0.02800 41.08900
H  -1.62900 0.95200 40.31800
H  -0.13900 1.73600 40.51700
H  -1.22200 2.00000 41.83500
H  -4.49700 -2.75700 41.98800
H  -3.20000 -2.96700 43.12300
H  -2.94500 -3.50200 41.48400
H  -0.24100 -6.08600 42.77500
H  1.16000 -6.68100 45.48500
H  -1.02600 -6.10700 45.54400
H  -1.89800 -6.61900 44.04300
H  -1.84400 -4.91500 44.43200
H  0.93400 -8.32300 43.46700
H  2.26900 -8.30200 44.40900
H  3.60200 -7.91400 42.50500
H  2.64700 -6.49000 41.94000
H  2.03400 -8.06500 41.54600
H  6.08400 -6.16400 46.38600
H  7.85700 -5.70700 45.89400
H  6.72500 -6.59700 44.85300
H  7.99500 -0.59700 44.09700
H  7.80400 1.83300 47.65800
H  8.59700 2.89300 46.39500
H  9.41800 1.60500 47.22400
Mg 47.85300 16.30100 28.99800
C  45.83100 16.33500 31.92100
C  50.13400 18.18500 30.70000
C  49.55700 16.70600 26.08800
C  45.06300 15.26600 27.14600
N  48.01600 17.11000 31.09300
C  47.05200 17.00500 32.08600
C  47.52600 17.72500 33.37800
C  48.74500 18.49800 32.88500
C  48.96300 17.91300 31.49400
C  48.69500 20.10700 32.95100
C  47.78700 16.73200 34.56600
C  47.38200 17.08700 36.01500
H  47.50600 18.52800 36.45400
N  49.70700 17.20700 28.47300
C  50.53700 17.80900 29.34400
C  51.72500 18.20300 28.68000
C  51.58700 17.77800 27.29900
C  50.27500 17.12000 27.23800
C  52.78600 19.04300 29.32500
C  52.61400 17.88400 26.14700
O  52.25100 17.51600 25.02300
C  53.98500 18.52500 26.29200
N  47.44300 15.89100 26.85100
C  48.33100 16.09900 25.89900
C  47.71100 15.81900 24.53400
C  46.19000 15.41400 24.88200
C  46.25100 15.57000 26.39400
C  47.72900 17.01400 23.44700
C  45.74800 14.02300 24.32300
C  44.67600 14.09100 23.28600
N  45.88800 15.68600 29.41500
C  44.88500 15.23600 28.55600
C  43.79000 14.76500 29.36900
C  44.11100 15.13200 30.73500
C  45.39200 15.75400 30.67100
C  42.54800 14.08600 28.89800
C  43.65300 15.12500 32.10300
O  42.67400 14.60400 32.59400
C  44.66500 16.00600 32.88900
C  44.04500 17.27200 33.39400
O  43.87300 18.29200 32.77900
O  43.77800 17.11000 34.68200
C  43.36200 18.28600 35.43300
H  50.86500 18.92100 31.04200
H  49.88100 16.90500 25.06400
H  44.18100 14.85500 26.65000
H  46.80300 18.42800 33.79100
H  49.59500 18.17400 33.48600
H  48.77300 20.52200 31.94600
H  49.57000 20.51000 33.46000
H  47.80200 20.35500 33.52500
H  48.78200 16.28800 34.52500
H  47.23400 15.80500 34.42000
H  48.01300 16.44000 36.62500
H  46.33400 16.79700 36.08700
H  53.82200 18.76400 29.13400
H  52.70600 18.86600 30.39800
H  52.63700 20.09400 29.07500
H  54.40800 18.85800 25.34500
H  54.55700 17.72000 26.75400
H  53.80000 19.42500 26.87800
H  48.21800 14.93700 24.14200
H  45.48800 16.17100 24.53100
H  48.19900 16.61900 22.54600
H  48.35400 17.83800 23.79000
H  46.76100 17.47200 23.24200
H  45.34700 13.43900 25.15100
H  46.53300 13.43200 23.85100
H  44.75300 13.26500 22.58000
H  44.73300 15.06800 22.80600
H  43.75700 13.93100 23.85000
H  42.39600 14.68400 28.00000
H  41.65100 14.14100 29.51500
H  42.77400 13.04600 28.66700
H  44.99000 15.43500 33.75800
H  42.28400 18.40900 35.33700
H  43.92900 19.15800 35.10700
H  43.65700 18.24100 36.48200

