158

Mg 25.49500 0.16100 28.76400
C  27.45000 -0.23900 31.80800
C  22.80400 0.61200 30.71900
C  23.72300 0.51200 25.91200
C  28.44300 -0.26400 26.96600
N  25.21400 0.19700 31.04800
C  26.13600 0.13100 32.07900
C  25.47600 0.38500 33.48000
C  23.99800 0.75100 33.10200
C  24.01700 0.51500 31.52500
C  22.86000 0.14200 33.92300
C  26.18100 1.48000 34.29600
C  26.91900 1.11100 35.54800
H  26.60900 1.85600 36.86200
N  23.53900 0.40300 28.39700
C  22.55400 0.53900 29.32700
C  21.24800 0.77800 28.66300
C  21.48600 0.79300 27.23500
C  22.95900 0.51000 27.08500
C  19.93700 1.11000 29.37800
C  20.55700 1.00500 26.07300
O  20.95200 0.80300 24.94800
C  19.22600 1.52800 26.25000
N  25.99800 -0.08600 26.68400
C  25.10700 0.26800 25.74500
C  25.68700 0.24500 24.33400
C  27.24700 0.13900 24.63600
C  27.28800 0.01700 26.23100
C  25.26900 -1.07300 23.67900
C  28.03000 1.43200 24.13500
C  29.21200 1.22100 23.11500
N  27.47000 -0.29600 29.20100
C  28.58000 -0.46600 28.33800
C  29.79300 -0.66900 29.09600
C  29.31200 -0.51300 30.41200
C  27.95700 -0.30700 30.48200
C  31.25500 -0.84800 28.71600
C  29.88300 -0.54900 31.73900
O  31.02700 -0.77500 32.17700
C  28.67900 -0.28400 32.71300
C  28.61200 -1.34100 33.77900
O  27.87900 -2.35600 33.74300
O  29.35800 -1.02300 34.88400
C  29.17200 -1.84300 36.02800
H  21.90600 0.89700 31.27000
H  23.21400 0.66000 24.95700
H  29.40600 -0.27400 26.45100
H  25.56500 -0.52500 34.07400
H  23.83200 1.81900 33.25000
H  22.23500 -0.45100 33.25500
H  22.20200 0.92700 34.29500
H  23.24800 -0.40700 34.78100
H  25.49100 2.19400 34.74600
H  26.82900 1.91400 33.53400
H  27.97000 1.33900 35.37100
H  26.91000 0.03200 35.70600
H  19.81100 2.17200 29.16800
H  20.00500 0.94300 30.45300
H  19.02900 0.64900 28.99000
H  18.81400 1.45700 25.24300
H  19.24200 2.60100 26.44300
H  18.58200 0.96600 26.92700
H  25.34500 1.06200 23.69700
H  27.74800 -0.75200 24.25600
H  26.01600 -1.86500 23.64400
H  25.02400 -0.84200 22.64200
H  24.36400 -1.58400 24.00800
H  28.50800 1.89400 24.99900
H  27.28900 2.12700 23.74100
H  28.83500 1.38500 22.10500
H  29.55900 0.18800 23.07300
H  30.09600 1.84000 23.26700
H  31.44700 -0.13100 27.91800
H  31.39000 -1.88800 28.42000
H  31.84000 -0.59800 29.60000
H  28.86000 0.57200 33.36300
H  30.02000 -1.53600 36.63900
H  29.17000 -2.89200 35.73100
H  28.26300 -1.48200 36.50800
Mg 9.59800 47.09300 26.82200
C  7.52800 47.05400 29.76500
C  12.20600 47.76400 28.96800
C  11.35000 47.76600 24.13000
C  6.58100 47.07100 24.87600
N  9.77900 47.43600 29.10300
C  8.86800 47.22800 30.11200
C  9.49800 47.54400 31.53600
C  10.98400 48.05000 31.25300
C  10.97800 47.76600 29.67400
C  11.25400 49.56200 31.63900
C  9.21200 46.34400 32.57900
C  10.16600 46.23500 33.76100
H  9.61900 45.77900 35.11100
N  11.51900 47.37800 26.61200
C  12.44000 47.69900 27.58000
C  13.72900 48.01500 26.94500
C  13.43300 48.15100 25.55500
C  12.05400 47.68800 25.38500
C  14.96800 48.33000 27.73900
C  14.34900 48.63600 24.37600
O  13.98500 48.74100 23.18400
C  15.80800 48.82900 24.68200
N  9.02100 47.50400 24.75300
C  9.99800 47.63900 23.81500
C  9.27100 47.81700 22.40900
C  7.76300 47.46800 22.64700
C  7.79400 47.28100 24.16100
C  9.63700 49.22800 21.82800
C  7.28100 46.23700 21.78400
C  8.01900 44.91000 22.12900
N  7.48800 47.08000 27.13300
C  6.42900 47.00900 26.27400
C  5.19500 47.09300 27.02500
C  5.63400 46.97700 28.34400
C  6.98000 47.01800 28.40500
C  3.84300 47.05000 26.49800
C  5.08600 46.76600 29.70100
O  3.93800 46.69400 30.15600
C  6.38400 46.85000 30.66700
C  6.38800 45.52000 31.36600
O  6.95500 44.46300 31.02600
O  5.66100 45.61800 32.46400
C  5.54700 44.39700 33.31400
H  13.02600 47.94100 29.66600
H  11.82400 48.08900 23.20100
H  5.65700 46.93300 24.31000
H  8.91200 48.41400 31.83200
H  11.70100 47.39300 31.74500
H  11.98500 49.69500 32.43700
H  10.39400 50.03500 32.11300
H  11.53300 50.06900 30.71600
H  9.30100 45.45400 31.95600
H  8.19900 46.42100 32.97400
H  10.72300 47.15600 33.93100
H  10.79400 45.41200 33.41900
H  15.38300 49.24000 27.30400
H  15.70500 47.53400 27.63200
H  14.82300 48.57300 28.79100
H  15.93000 49.82400 25.11100
H  16.40400 48.67100 23.78300
H  16.12000 48.05100 25.38000
H  9.77800 47.18100 21.68400
H  7.19300 48.37900 22.46100
H  10.12300 49.78000 22.63300
H  8.82700 49.76300 21.33200
H  10.39000 49.14800 21.04300
H  7.32300 46.52600 20.73400
H  6.24900 46.06800 22.09200
H  8.63000 44.46000 21.34700
H  7.34400 44.13000 22.48300
H  8.74800 45.03100 22.93000
H  3.71100 48.01100 26.00200
H  3.19100 46.93900 27.36500
H  3.77100 46.31300 25.69700
H  6.30300 47.59100 31.46200
H  5.50500 43.42200 32.82700
H  4.59700 44.39900 33.84800
H  6.42400 44.38300 33.96100

