158

Mg 45.62700 44.49700 43.17000
C  42.19600 44.14800 42.95800
C  46.00700 41.23200 42.48200
C  48.84600 45.12000 42.81700
C  45.05400 48.00600 43.42500
N  44.22300 42.92700 42.83300
C  42.90400 42.93500 42.95800
C  42.33600 41.48800 42.79000
C  43.59500 40.59200 42.89600
C  44.69100 41.66600 42.83200
C  43.65000 39.81200 44.23700
C  41.47800 41.33900 41.58700
C  41.86700 42.07800 40.28500
H  41.75300 41.36200 38.97300
N  47.24300 43.30000 42.69000
C  47.18000 41.96800 42.52000
C  48.52300 41.46100 42.32200
C  49.43400 42.55100 42.39000
C  48.51900 43.73300 42.62600
C  48.89600 40.04400 42.04500
C  50.87600 42.51100 42.18000
O  51.52200 41.45900 42.11400
C  51.69300 43.75200 42.22500
N  46.82700 46.33100 43.19300
C  48.13400 46.31600 43.02300
C  48.68800 47.78700 42.95100
C  47.43700 48.58700 43.36800
C  46.37000 47.58000 43.37300
C  49.97700 47.99000 43.84000
C  47.28300 49.69200 42.30000
C  46.73900 50.97700 42.74400
N  43.99900 45.89600 43.23400
C  43.90400 47.24500 43.33500
C  42.52200 47.68600 43.35400
C  41.80300 46.46900 43.27500
C  42.70700 45.42400 43.20200
C  42.03700 49.10400 43.56100
C  40.39400 45.92500 43.18100
O  39.31500 46.47200 43.27400
C  40.65400 44.35300 42.90100
C  39.82100 43.56600 43.82800
O  38.92800 42.80100 43.53800
O  40.26300 43.83900 45.11600
C  39.90300 42.74200 45.95400
H  46.02600 40.16200 42.26300
H  49.87300 45.46800 42.69300
H  44.80700 49.04100 43.67000
H  41.69000 41.25400 43.63600
H  43.71400 39.88900 42.07200
H  42.89600 39.91700 45.01700
H  44.40100 40.29900 44.85800
H  43.90500 38.77900 44.00100
H  40.48200 41.70300 41.84000
H  41.44900 40.25600 41.47100
H  42.89900 42.40000 40.42200
H  41.26500 42.96900 40.10400
H  48.03400 39.43100 42.30600
H  49.70700 39.62500 42.64100
H  49.09400 39.98100 40.97500
H  51.69100 44.15100 43.23900
H  51.22700 44.46000 41.53900
H  52.72300 43.46600 42.01300
H  48.99000 47.81400 41.90400
H  47.63900 49.00800 44.35300
H  49.85900 48.85500 44.49100
H  50.80400 48.19000 43.15800
H  50.21300 47.13700 44.47700
H  46.65800 49.29500 41.50000
H  48.27000 49.93000 41.90300
H  47.56200 51.51300 43.21800
H  45.88900 50.87100 43.41700
H  46.43300 51.63300 41.92800
H  42.75900 49.82100 43.95000
H  41.22100 49.00900 44.27800
H  41.77900 49.48000 42.57100
H  40.29600 44.21500 41.88100
H  40.39600 42.70100 46.92600
H  40.24700 41.81500 45.49500
H  38.83100 42.79100 46.14400
Mg 44.95300 34.84800 28.13900
C  43.50100 32.59900 30.45700
C  45.17000 37.12200 30.70500
C  46.33900 36.93900 25.97800
C  44.58500 32.46600 25.68800
N  44.53100 34.77100 30.33900
C  43.98700 33.74600 31.10500
C  43.95200 34.09100 32.62600
C  43.78000 35.63100 32.41900
C  44.59900 35.86800 31.12900
C  42.27700 36.06400 32.36900
C  45.31700 33.56400 33.23500
C  45.31900 33.44300 34.78700
H  44.40100 34.28000 35.59500
N  45.64700 36.75200 28.32300
C  45.69700 37.50300 29.48000
C  46.23100 38.80200 29.09700
C  46.76800 38.71400 27.78300
C  46.30300 37.43900 27.27200
C  46.30100 39.89800 30.14600
C  47.50000 39.79300 27.09500
O  48.06900 39.57800 26.01600
C  47.63800 41.27500 27.67500
N  45.24800 34.77100 26.08600
C  45.90100 35.75000 25.38400
C  46.27900 35.27600 24.01300
C  45.47000 33.88200 23.89200
C  45.19300 33.62300 25.33600
C  45.76900 36.31700 22.92700
C  46.27300 32.82900 23.04400
C  45.56000 32.14300 21.90800
N  44.32600 32.90200 28.03200
C  44.10900 32.09500 26.93500
C  43.50700 30.86900 27.37500
C  43.06600 31.09300 28.72500
C  43.69600 32.33900 29.08900
C  43.36700 29.66600 26.65000
C  42.47900 30.44000 29.87200
O  41.97400 29.36900 30.02200
C  42.61200 31.45800 31.05500
C  43.10200 30.74500 32.24400
O  44.11000 30.07900 32.33200
O  42.24900 31.06200 33.34100
C  42.54200 30.28500 34.61500
H  45.18500 37.82200 31.54300
H  46.90700 37.59900 25.31800
H  44.64400 31.68600 24.92600
H  43.02900 33.79100 33.12300
H  44.30600 36.08700 33.25800
H  42.14800 36.91300 31.69700
H  42.09100 36.55400 33.32400
H  41.56700 35.28600 32.08900
H  46.17000 34.18500 32.96200
H  45.52600 32.57300 32.83100
H  46.36400 33.61600 35.04500
H  45.06900 32.38800 34.90200
H  45.98900 40.89000 29.81800
H  47.27800 39.92800 30.62700
H  45.67200 39.68000 31.00900
H  48.18000 41.27400 28.62000
H  46.61300 41.62300 27.79700
H  48.13100 41.93900 26.96500
H  47.33500 35.09300 23.81800
H  44.47800 33.95800 23.44600
H  45.03500 35.84600 22.27400
H  46.55100 36.76500 22.31300
H  45.29600 37.19000 23.37800
H  46.72300 32.06200 23.67500
H  47.15400 33.37400 22.70700
H  45.83700 31.09500 21.79700
H  45.79600 32.58700 20.94100
H  44.48000 32.20600 22.03900
H  44.27300 29.06400 26.58300
H  43.14000 29.94500 25.62100
H  42.58800 28.93100 26.85500
H  41.56500 31.73900 31.16400
H  41.73000 30.07100 35.31000
H  43.16800 30.81500 35.33300
H  43.17800 29.41200 34.46200

