158

Mg 2.48400 -0.48000 43.89800
C  5.86000 0.58000 43.91300
C  1.45700 2.60000 42.85800
C  -0.61400 -1.73100 43.65700
C  3.67600 -3.72400 44.80800
N  3.62700 1.40200 43.45000
C  4.97400 1.62900 43.54200
C  5.30800 3.06600 43.18500
C  3.84500 3.70000 43.01500
C  2.89800 2.49200 43.10700
C  3.54100 4.92000 43.97200
C  6.19500 3.29100 41.90700
C  5.65200 2.76200 40.56800
H  5.65400 3.72000 39.42000
N  0.66000 0.30000 43.21400
C  0.44100 1.62700 42.87400
C  -0.97100 1.74000 42.40800
C  -1.58900 0.48900 42.65700
C  -0.51900 -0.41200 43.25600
C  -1.52700 3.03500 41.86100
C  -3.04700 0.22400 42.46400
O  -3.77300 1.10600 42.07000
C  -3.61600 -1.08900 42.87700
N  1.68000 -2.64000 43.66200
C  0.32100 -2.75800 43.83000
C  0.05000 -4.05200 44.63200
C  1.38700 -4.64400 44.98800
C  2.34500 -3.66800 44.31100
C  -0.98200 -4.09400 45.71800
C  1.72100 -6.17300 44.66800
C  1.75400 -7.13400 45.85500
N  4.30500 -1.42000 44.31000
C  4.66800 -2.69600 44.70600
C  6.10100 -2.81100 44.94400
C  6.62600 -1.55200 44.59800
C  5.46800 -0.75900 44.26400
C  6.85500 -4.10500 45.42900
C  7.77700 -0.83100 44.51100
O  8.96100 -1.12400 44.73700
C  7.40700 0.57000 43.96900
C  8.05100 1.65700 44.74900
O  8.90700 2.44900 44.35100
O  7.46200 1.75700 45.92700
C  7.63300 3.07900 46.59700
H  1.10700 3.63400 42.83600
H  -1.61400 -2.03100 43.97800
H  4.00600 -4.62200 45.33500
H  5.74100 3.47300 44.09900
H  3.62900 4.03600 42.00100
H  3.38900 5.88300 43.48400
H  4.31100 5.02100 44.73700
H  2.62200 4.69500 44.51400
H  7.16000 2.80500 42.05200
H  6.20500 4.37300 41.77500
H  4.62500 2.41900 40.68900
H  6.26400 1.88900 40.34700
H  -0.69900 3.56700 41.39200
H  -1.95600 3.64100 42.65900
H  -2.34400 2.90200 41.15200
H  -3.53600 -1.18600 43.95900
H  -3.02300 -1.83900 42.35300
H  -4.65800 -1.01400 42.56700
H  -0.35000 -4.81000 43.95900
H  1.44900 -4.53200 46.07000
H  -1.10200 -3.01700 45.83900
H  -0.63100 -4.53000 46.65300
H  -1.86900 -4.62100 45.36700
H  2.61100 -6.15700 44.04000
H  0.91300 -6.60800 44.08000
H  1.08400 -7.98600 45.73900
H  1.54500 -6.56700 46.76200
H  2.75300 -7.57100 45.84600
H  7.24800 -4.67200 44.58500
H  6.36000 -4.80300 46.10400
H  7.69700 -3.67400 45.97100
H  7.88200 0.57000 42.98700
H  7.43900 3.99200 46.03400
H  8.68800 3.22000 46.83000
H  7.18200 3.14400 47.58700
Mg 15.82500 51.09700 26.20400
C  18.04000 50.21500 28.89400
C  13.42900 51.63200 28.49000
C  13.76000 51.41500 23.71100
C  18.56100 50.15300 24.02900
N  15.81200 50.92800 28.32300
C  16.80200 50.64100 29.20900
C  16.36100 51.10700 30.60400
C  14.79700 51.27600 30.57400
C  14.69100 51.43100 29.03100
C  14.13300 49.95000 31.04100
C  17.10300 52.50000 31.02300
C  17.59700 52.86500 32.46800
H  16.96100 52.11400 33.64400
N  13.89700 51.49800 26.14700
C  13.01300 51.71500 27.17000
C  11.68500 51.79600 26.68600
C  11.75000 51.56000 25.25100
C  13.16500 51.50200 24.99100
C  10.40100 51.88100 27.58500
C  10.68900 51.48200 24.18500
O  10.99100 51.09300 23.04600
C  9.22500 51.80400 24.58800
N  16.16800 50.90200 24.19000
C  15.07900 51.15000 23.35300
C  15.57200 51.05700 21.81900
C  17.07100 50.62000 21.96300
C  17.32400 50.58400 23.49700
C  14.69000 50.19300 20.81200
C  18.08100 51.42600 21.13600
C  19.03000 50.70900 20.19100
N  17.85300 50.32700 26.39300
C  18.79500 50.06500 25.40200
C  20.00200 49.63500 26.02700
C  19.83000 49.72900 27.42600
C  18.48200 50.09600 27.56000
C  21.33300 49.21000 25.39100
C  20.41900 49.55400 28.70100
O  21.52100 49.16000 29.06000
C  19.28800 49.83100 29.75200
C  19.11300 48.69400 30.68100
O  18.57600 47.64700 30.45700
O  19.64300 49.03200 31.89200
C  19.30200 48.11000 32.95500
H  12.63200 51.81800 29.21300
H  13.15500 51.64500 22.83200
H  19.40700 49.95000 23.36900
H  16.71100 50.28300 31.22500
H  14.25700 52.03900 31.13500
H  14.92600 49.20300 31.08800
H  13.29800 49.66000 30.40400
H  13.78800 50.20800 32.04200
H  16.52600 53.30300 30.56300
H  18.08400 52.63700 30.56800
H  17.35000 53.89100 32.74000
H  18.68400 52.83200 32.54600
H  9.90100 50.91500 27.64900
H  9.80500 52.63200 27.06700
H  10.66400 52.31800 28.54900
H  8.56900 51.74200 23.72000
H  9.17700 52.83800 24.92900
H  8.95600 51.05500 25.33300
H  15.48300 52.09100 21.48500
H  17.16100 49.57700 21.65800
H  13.73200 49.88900 21.23400
H  15.29600 49.55600 20.16700
H  14.31600 50.85300 20.03000
H  18.68300 52.01700 21.82700
H  17.50400 52.09200 20.49500
H  19.12200 51.45100 19.39700
H  18.48200 49.89900 19.71000
H  19.91900 50.37400 20.72600
H  22.15600 49.61100 25.98200
H  21.27600 49.68800 24.41200
H  21.38200 48.12100 25.36900
H  19.53600 50.71500 30.34000
H  20.00900 47.28900 33.08200
H  18.26900 47.76600 32.91400
H  19.31400 48.73300 33.84900

