158

Mg 1.53200 41.99100 25.01500
C  2.90300 42.09100 28.21400
C  -1.44500 41.34700 26.55500
C  0.29600 41.56400 21.99200
C  4.74300 42.62600 23.68200
N  0.83900 41.70000 27.18300
C  1.52800 41.85200 28.31400
C  0.66800 41.93100 29.51600
C  -0.67100 41.35300 28.92800
C  -0.43300 41.50100 27.44200
C  -1.21500 39.96900 29.34700
C  0.44200 43.29300 30.15500
C  1.20800 43.54700 31.44700
H  0.29700 43.62200 32.72400
N  -0.24300 41.57400 24.35900
C  -1.42100 41.37600 25.17100
C  -2.52600 41.07000 24.30500
C  -2.11800 41.29900 22.99000
C  -0.60200 41.47000 23.06000
C  -3.92900 40.77700 24.78000
C  -2.95600 41.30200 21.70600
O  -2.53200 41.47500 20.58700
C  -4.43000 41.21400 21.72700
N  2.44800 41.96500 23.11900
C  1.67600 41.83200 22.00700
C  2.36600 42.20100 20.76700
C  3.72300 42.82100 21.34500
C  3.66700 42.40500 22.78600
C  2.62900 40.99600 19.85200
C  3.80200 44.33200 21.15100
C  4.56600 44.79900 19.84900
N  3.51100 42.29700 25.76600
C  4.67000 42.58400 25.09000
C  5.77600 42.75500 26.06400
C  5.08100 42.52400 27.28100
C  3.72200 42.22100 27.05900
C  7.18700 43.04100 25.52400
C  5.35100 42.57700 28.71400
O  6.33600 42.76600 29.43000
C  3.94900 42.27100 29.31200
C  4.08500 40.96400 30.05500
O  4.64700 39.96700 29.56800
O  3.49900 41.01400 31.26700
C  3.14200 39.76900 31.94400
H  -2.45900 41.28800 26.95500
H  -0.18300 41.55200 21.01000
H  5.68100 42.83800 23.16400
H  1.08200 41.22200 30.23400
H  -1.48900 42.02700 29.18400
H  -1.07600 39.16100 28.62900
H  -2.27200 39.99400 29.61300
H  -0.75400 39.58700 30.25800
H  -0.58400 43.53700 30.43300
H  0.67000 44.10900 29.46900
H  1.87000 44.40000 31.30000
H  1.84800 42.70600 31.71400
H  -4.16500 39.85300 24.25300
H  -4.67000 41.54200 24.54700
H  -4.04900 40.74200 25.86200
H  -4.91400 41.41800 20.77200
H  -4.77600 41.99900 22.40000
H  -4.65300 40.24000 22.16200
H  1.84100 43.04800 20.32600
H  4.63200 42.37000 20.94900
H  1.87100 40.23100 20.02000
H  3.63700 40.60100 19.97800
H  2.46500 41.20100 18.79400
H  4.60800 44.58200 21.84100
H  2.88000 44.84300 21.42900
H  5.36900 45.45600 20.18300
H  3.88200 45.35700 19.21000
H  4.97000 43.97700 19.25900
H  7.64900 43.93200 25.94900
H  7.12200 43.16000 24.44200
H  7.84500 42.17700 25.62400
H  3.63100 43.02900 30.02700
H  3.57400 39.65100 32.93800
H  3.20900 38.87700 31.32100
H  2.09400 40.01300 32.11800
Mg -1.77400 33.57400 26.97100
C  -3.46800 32.08500 29.57900
C  -0.39400 35.76800 29.40500
C  -0.13000 35.16700 24.45800
C  -3.38900 31.54200 24.70000
N  -1.83300 33.84200 29.33100
C  -2.62600 33.07300 30.12500
C  -2.34400 33.26800 31.57800
C  -1.53600 34.64200 31.59500
C  -1.17500 34.82900 30.09000
C  -2.36500 35.91700 32.07700
C  -1.60400 32.03500 32.34100
C  -2.35800 31.39600 33.57400
H  -1.54200 31.44200 34.85700
N  -0.52600 35.31600 26.95500
C  -0.09900 36.05200 28.05900
C  0.85300 37.00600 27.52200
C  0.88400 36.88100 26.06500
C  0.05400 35.72900 25.75900
C  1.57400 37.91900 28.38700
C  1.65900 37.74400 25.00400
O  1.75300 37.45300 23.85600
C  2.38200 39.00500 25.49800
N  -1.73400 33.44100 24.86500
C  -0.90200 34.01900 24.04800
C  -1.04600 33.54100 22.53100
C  -1.90800 32.25000 22.82700
C  -2.43500 32.42100 24.24300
C  -1.74300 34.62700 21.57200
C  -1.19300 30.94900 22.61700
C  -2.12900 29.80800 22.02000
N  -3.13000 32.06500 27.11500
C  -3.77000 31.38500 26.04700
C  -4.75100 30.48600 26.56500
C  -4.65000 30.67000 27.95500
C  -3.68600 31.69900 28.25700
C  -5.67200 29.60800 25.79100
C  -5.05900 30.17500 29.26800
O  -5.90700 29.35800 29.61500
C  -4.40800 31.16900 30.35100
C  -5.47100 32.01800 31.05600
O  -5.73900 33.21400 30.84600
O  -5.99400 31.18700 31.99300
C  -6.91400 31.87300 32.86400
H  0.09600 36.43200 30.12000
H  0.49600 35.55600 23.65300
H  -3.65100 30.86400 23.88500
H  -3.32000 33.45400 32.02700
H  -0.58800 34.61600 32.13200
H  -3.40500 35.63500 32.24200
H  -2.21700 36.67700 31.31100
H  -1.92600 36.45100 32.91900
H  -0.61300 32.30500 32.70500
H  -1.36100 31.29300 31.58100
H  -2.60300 30.34600 33.41700
H  -3.27300 31.96500 33.74100
H  0.83100 38.11400 29.16100
H  1.83300 38.89200 27.96900
H  2.34700 37.41600 28.96900
H  1.58600 39.62900 25.90500
H  2.79900 39.46000 24.60000
H  3.09100 38.68700 26.26100
H  -0.11000 33.12400 22.15800
H  -2.77400 32.28400 22.16600
H  -1.03200 35.42000 21.34500
H  -2.60600 35.20400 21.90400
H  -1.98200 34.07500 20.66300
H  -0.81900 30.57800 23.57200
H  -0.42600 31.14400 21.86600
H  -1.63000 29.36000 21.16100
H  -3.09200 30.24200 21.75100
H  -2.28100 29.01500 22.75200
H  -5.40800 29.60400 24.73300
H  -6.68500 29.99000 25.91900
H  -5.68200 28.57200 26.13100
H  -3.88300 30.60200 31.12000
H  -7.47100 32.58600 32.25600
H  -6.42200 32.44300 33.65300
H  -7.48200 31.04200 33.28100

