158

Mg 2.35800 -1.46800 44.29100
C  5.38200 -0.02700 43.26600
C  0.64200 0.83500 42.40700
C  -0.45600 -3.10200 44.97900
C  4.21300 -4.20200 45.57600
N  2.97500 0.22800 43.14500
C  4.25100 0.64900 42.80400
C  4.18300 1.85500 41.86000
C  2.62900 2.21500 41.76600
C  2.02400 0.97700 42.47800
C  2.16300 3.64700 42.40300
C  4.99100 1.72200 40.58000
C  6.03600 2.82600 40.23000
H  5.93800 3.52900 38.85700
N  0.26200 -1.17000 43.82400
C  -0.17900 -0.16900 42.99300
C  -1.59800 -0.32900 42.79400
C  -1.95100 -1.48600 43.51100
C  -0.70500 -1.97400 44.08900
C  -2.38700 0.64700 41.93000
C  -3.34500 -2.09100 43.49400
O  -4.24700 -1.68300 42.78900
C  -3.65200 -3.32800 44.33200
N  1.92900 -3.46400 45.10700
C  0.72300 -3.68200 45.55500
C  0.71500 -4.97000 46.38500
C  2.24000 -5.41600 46.37400
C  2.81300 -4.28600 45.70000
C  0.05800 -5.00300 47.87000
C  2.43400 -6.83700 45.74200
C  3.36400 -7.66600 46.57200
N  4.33300 -2.08800 44.35400
C  4.91300 -3.20500 44.93000
C  6.36800 -3.16900 44.68900
C  6.57200 -1.91000 44.08900
C  5.32600 -1.26100 43.96400
C  7.27600 -4.19300 45.29400
C  7.55600 -0.97900 43.65200
O  8.79500 -1.10100 43.70500
C  6.84700 0.29300 43.07100
C  7.27700 1.47300 43.85900
O  6.85800 1.68300 44.98100
O  8.27100 2.24500 43.25600
C  8.78500 3.38900 44.04500
H  0.02500 1.54700 41.85400
H  -1.36100 -3.53500 45.41200
H  4.71700 -5.03100 46.07800
H  4.65200 2.67700 42.40000
H  2.31200 2.24300 40.72300
H  1.44700 3.61100 43.22500
H  1.67300 4.17800 41.58800
H  2.99200 4.22400 42.81100
H  4.32700 1.68800 39.71600
H  5.42000 0.72400 40.66400
H  6.99000 2.30100 40.17100
H  5.96200 3.52200 41.06500
H  -2.64000 0.24100 40.95100
H  -1.96200 1.63500 41.75300
H  -3.34600 0.86200 42.40100
H  -4.68300 -3.54600 44.05300
H  -3.59100 -3.01800 45.37500
H  -2.98200 -4.12000 43.99900
H  0.12000 -5.69000 45.82300
H  2.53900 -5.41200 47.42200
H  0.09800 -4.12000 48.50700
H  0.68500 -5.63700 48.49700
H  -0.96100 -5.33200 47.66800
H  3.01500 -6.73500 44.82600
H  1.57300 -7.45800 45.49500
H  3.36300 -8.65300 46.11000
H  3.01700 -7.71800 47.60400
H  4.31800 -7.14000 46.60000
H  7.21900 -5.08900 44.67600
H  7.01700 -4.59100 46.27500
H  8.25900 -3.79700 45.03500
H  7.32100 0.58600 42.13500
H  9.49700 3.10400 44.81900
H  7.96600 3.86600 44.58400
H  9.14200 4.22100 43.43800
Mg 26.53900 49.95500 26.67300
C  24.51400 51.28100 29.27000
C  28.89800 49.05100 29.02600
C  28.42500 48.82600 24.16500
C  24.19000 51.03000 24.45800
N  26.65700 50.09200 28.91200
C  25.77100 50.69500 29.75600
C  26.12300 50.42900 31.23600
C  27.64500 49.86500 31.08100
C  27.76500 49.62900 29.57200
C  28.80100 50.74600 31.71600
C  25.21000 49.31100 31.76000
C  24.69900 49.36500 33.23000
H  25.44600 49.97100 34.47900
N  28.53900 49.21300 26.59500
C  29.26900 48.81900 27.64500
C  30.41100 48.11100 27.21500
C  30.36100 48.13700 25.78400
C  29.05800 48.70000 25.41700
C  31.49500 47.63400 28.06100
C  31.44200 47.70600 24.78700
O  31.16600 47.85000 23.58700
C  32.82500 47.15000 25.34700
N  26.29500 49.85300 24.60400
C  27.21900 49.29300 23.79200
C  26.74100 49.32100 22.30700
C  25.40500 50.09100 22.49200
C  25.24500 50.30000 23.97800
C  27.76800 50.00400 21.24500
C  24.18700 49.43000 21.80000
C  23.67000 48.14200 22.47700
N  24.69400 50.89800 26.86500
C  23.89200 51.34300 25.82800
C  22.77700 51.97800 26.30400
C  22.91300 51.99300 27.72200
C  24.12200 51.32400 27.92800
C  21.61000 52.51800 25.46000
C  22.29000 52.35600 28.96500
O  21.21800 52.81600 29.20900
C  23.36000 51.93300 30.03500
C  23.77900 53.09100 30.99000
O  24.89100 53.62900 30.93100
O  22.83500 53.30600 31.96400
C  23.28700 54.15600 33.08400
H  29.70600 48.76100 29.70200
H  28.93100 48.41800 23.28700
H  23.46200 51.34300 23.70700
H  26.11100 51.32200 31.86100
H  27.78000 48.94500 31.65000
H  29.47800 51.12200 30.94900
H  29.34900 49.97800 32.26100
H  28.40600 51.58800 32.28400
H  25.51200 48.27600 31.60400
H  24.29800 49.38500 31.16900
H  24.59700 48.33300 33.56800
H  23.71100 49.81700 33.15400
H  31.25800 47.89300 29.09300
H  32.42400 48.13600 27.79300
H  31.51300 46.54700 28.13600
H  33.27200 48.06300 25.73900
H  33.52900 46.73700 24.62500
H  32.77700 46.33500 26.06900
H  26.49400 48.31100 21.98200
H  25.44900 51.07700 22.03000
H  28.76600 50.05700 21.68000
H  27.33900 50.92200 20.84300
H  27.83700 49.23500 20.47500
H  24.49600 49.17000 20.78800
H  23.34100 50.10900 21.69100
H  24.11900 47.95100 23.45200
H  23.80500 47.27400 21.83200
H  22.59600 48.21100 22.65200
H  21.48500 52.21300 24.42100
H  21.78400 53.59400 25.44800
H  20.66600 52.28300 25.95000
H  22.90600 51.16000 30.65500
H  23.93600 53.58900 33.75100
H  22.52900 54.47700 33.79800
H  23.76300 55.06200 32.70900

