158

Mg 7.27600 53.30800 40.35800
C  6.50700 49.79000 40.41300
C  10.48400 52.54000 39.71900
C  7.79700 56.65500 39.98500
C  3.79700 53.98400 40.79400
N  8.35000 51.41600 40.04300
C  7.84100 50.12200 40.21600
C  9.02300 49.15600 40.13300
C  10.24200 50.04100 40.22700
C  9.66600 51.40000 39.99900
C  11.13400 50.01700 41.43200
C  9.15200 48.21600 38.83900
C  8.83300 48.90000 37.50500
H  7.67600 48.38200 36.67500
N  8.95300 54.47900 39.83600
C  10.21200 53.90700 39.56000
C  11.08100 54.95100 39.23700
C  10.40300 56.17700 39.44700
C  8.96500 55.85400 39.70700
C  12.55200 54.71300 38.94800
C  11.06300 57.64100 39.30300
O  12.26800 57.78500 39.05400
C  10.26600 58.84100 39.41800
N  5.93800 55.08800 40.28900
C  6.46300 56.30900 40.23200
C  5.40000 57.37200 40.66600
C  4.06400 56.54300 40.86900
C  4.65200 55.12200 40.68700
C  5.84200 58.48100 41.72700
C  2.93200 56.86100 39.76400
C  1.56400 57.05300 40.42000
N  5.51200 52.21900 40.40800
C  4.20900 52.59700 40.70300
C  3.42900 51.39600 41.06400
C  4.35100 50.34800 40.93400
C  5.56200 50.86300 40.55600
C  1.95000 51.36800 41.29700
C  4.46200 48.90100 41.12500
O  3.57200 48.05400 41.47300
C  5.89600 48.48400 40.77800
C  5.66500 47.53800 39.67000
O  5.34200 47.83300 38.52500
O  5.80700 46.23900 40.14700
C  5.42500 45.17800 39.14200
H  11.51100 52.20700 39.55100
H  8.00200 57.72400 40.07100
H  2.75500 54.05700 41.11300
H  9.08400 48.60100 41.07000
H  10.94600 49.91800 39.40300
H  12.13500 50.32800 41.13200
H  11.21500 49.00000 41.81600
H  10.96900 50.70300 42.26300
H  8.45000 47.38200 38.85800
H  10.15500 47.80200 38.73800
H  9.68600 48.99200 36.83300
H  8.70300 49.96500 37.69700
H  12.80500 53.67100 38.75600
H  13.06900 54.92000 39.88400
H  12.84100 55.30600 38.07900
H  10.78900 59.74100 39.09500
H  10.01900 58.86400 40.47900
H  9.36500 58.60500 38.85200
H  5.37600 57.88900 39.70600
H  3.76500 56.72400 41.90100
H  6.85300 58.19900 42.02000
H  5.12600 58.53500 42.54700
H  5.78700 59.43800 41.20700
H  2.83500 56.04100 39.05300
H  3.17200 57.70300 39.11400
H  0.94100 57.68500 39.78800
H  1.65100 57.58400 41.36800
H  1.08500 56.08000 40.52900
H  1.51500 51.94700 40.48200
H  1.78500 51.78000 42.29200
H  1.48400 50.38300 41.32300
H  6.38200 47.96500 41.60400
H  6.10500 44.33800 39.28600
H  5.66300 45.48000 38.12200
H  4.35900 44.95700 39.20100
Mg 9.48000 47.40000 26.77300
C  7.64700 47.32300 29.81900
C  12.20700 48.68900 28.55500
C  10.99400 47.44800 23.92900
C  6.45200 46.42700 25.13800
N  9.90400 47.83100 28.84900
C  8.99500 47.69300 29.92000
C  9.63600 48.10700 31.24400
C  10.77900 48.99400 30.70100
C  11.01600 48.49300 29.30500
C  10.43800 50.49900 30.68900
C  10.04100 46.92700 32.10100
C  9.56500 47.07100 33.60700
H  9.32300 45.83000 34.49000
N  11.39000 47.99500 26.32600
C  12.37400 48.44100 27.12600
C  13.53500 48.50100 26.27300
C  13.24800 48.09700 24.95700
C  11.81000 47.89200 25.01600
C  14.85200 49.08500 26.85500
C  14.19900 47.92800 23.65200
O  13.86600 47.57500 22.50900
C  15.64000 48.21500 23.78000
N  8.75500 46.92800 24.77800
C  9.63600 47.02100 23.78500
C  9.01700 46.62100 22.40100
C  7.57600 46.09600 22.90200
C  7.55100 46.56700 24.31500
C  9.12400 47.83400 21.43600
C  7.33700 44.59200 22.78500
C  8.24900 43.52000 23.40900
N  7.37700 47.09900 27.30400
C  6.26900 46.70900 26.52100
C  5.07300 46.74900 27.29500
C  5.58300 46.94900 28.65900
C  6.99700 47.12600 28.54300
C  3.69200 46.45500 26.76700
C  5.22900 46.99200 30.00900
O  4.12300 46.92800 30.62100
C  6.61500 47.11100 30.83600
C  6.61800 45.77200 31.59800
O  7.06600 44.69000 31.15100
O  5.97900 45.97600 32.73900
C  5.61200 44.75100 33.46100
H  13.09400 48.93000 29.14500
H  11.50500 47.43700 22.96400
H  5.51900 46.18000 24.62800
H  8.99100 48.80500 31.77900
H  11.71800 48.82800 31.22900
H  11.15400 51.19500 31.12500
H  9.52300 50.66900 31.25700
H  10.23800 50.83400 29.67100
H  11.12500 46.81400 32.06200
H  9.67300 46.01400 31.63500
H  8.68500 47.70500 33.71100
H  10.47600 47.48100 34.04300
H  14.83400 49.35200 27.91200
H  15.14300 49.94800 26.25700
H  15.64300 48.33900 26.78100
H  15.94900 47.88500 24.77300
H  15.81600 49.29000 23.76300
H  16.15900 47.60800 23.03800
H  9.53700 45.83900 21.84800
H  6.78000 46.61400 22.36800
H  9.39500 48.72600 22.00100
H  8.19500 48.04100 20.90500
H  9.90700 47.66100 20.69800
H  7.27900 44.36100 21.72200
H  6.32900 44.26900 23.04400
H  8.69100 44.00500 24.27900
H  8.91100 43.15700 22.62300
H  7.72400 42.65500 23.81400
H  3.27700 47.17400 26.06100
H  2.98600 46.22200 27.56400
H  3.68400 45.52100 26.20500
H  6.56600 47.96600 31.50900
H  5.59600 44.95400 34.53200
H  6.33300 43.95900 33.25500
H  4.62000 44.43000 33.14400

