158

Mg 50.15800 46.45200 41.35100
C  47.33500 47.65000 40.01500
C  49.47700 43.27400 39.89100
C  53.41600 45.22800 42.04800
C  51.25200 49.66900 42.09100
N  48.70600 45.65400 40.17200
C  47.50700 46.24500 39.80400
C  46.50400 45.40500 39.11800
C  47.11200 43.98500 39.34600
C  48.51500 44.33300 39.81300
C  46.36200 42.96400 40.31600
C  46.17300 45.79400 37.66400
C  44.81700 45.20800 37.10300
H  44.90800 44.23700 35.92500
N  51.24500 44.55300 41.09100
C  50.81200 43.40400 40.41400
C  51.82300 42.36200 40.52900
C  52.93500 42.91800 41.25700
C  52.54800 44.30000 41.55400
C  51.62400 40.90700 40.10800
C  54.15500 42.16600 41.69900
O  54.31800 41.02900 41.29800
C  55.18000 42.67700 42.66100
N  52.19000 47.34700 41.82600
C  53.22700 46.65100 42.22400
C  54.25800 47.59900 42.73900
C  53.62600 48.98600 42.96100
C  52.26700 48.71200 42.16500
C  55.18400 47.13800 43.93000
C  54.39900 50.28200 42.56600
C  54.48900 51.39500 43.59300
N  49.41100 48.24400 41.24900
C  49.96300 49.51400 41.56000
C  48.98200 50.57200 41.33500
C  47.91400 49.81200 40.74800
C  48.27400 48.42600 40.62900
C  48.95500 52.05200 41.44600
C  46.53500 49.94200 40.40500
O  45.79200 50.91500 40.63100
C  46.19000 48.59300 39.76500
C  44.86700 48.14700 40.26300
O  44.64700 47.57100 41.31600
O  43.83400 48.36900 39.33100
C  42.55600 47.76600 39.64600
H  49.25300 42.26300 39.54400
H  54.44800 44.92800 42.24200
H  51.42600 50.71100 42.36700
H  45.59800 45.31400 39.71700
H  47.30000 43.53200 38.37300
H  46.93400 42.51900 41.13000
H  46.03900 42.13400 39.68700
H  45.46400 43.45200 40.69200
H  46.92000 45.36100 36.99900
H  46.24100 46.85500 37.42500
H  44.18100 46.02400 36.75900
H  44.40200 44.71500 37.98200
H  51.54300 40.31800 41.02200
H  52.46200 40.57400 39.49600
H  50.65700 40.64200 39.67900
H  54.73200 43.05200 43.58100
H  55.82500 43.41000 42.17600
H  55.82600 41.83800 42.91800
H  55.03400 47.83700 42.01200
H  53.38000 49.07400 44.01900
H  56.26600 47.21100 43.81800
H  54.99000 46.08400 44.12600
H  55.01400 47.62800 44.88900
H  53.87500 50.60000 41.66500
H  55.38500 49.95900 42.23200
H  54.09000 52.30700 43.14900
H  55.55400 51.41200 43.82400
H  53.80700 51.23000 44.42700
H  48.64300 52.56600 40.53700
H  50.01200 52.23700 41.64100
H  48.33500 52.41000 42.26800
H  46.09900 48.84300 38.70800
H  42.60300 46.73300 39.99100
H  41.88200 47.74000 38.79000
H  41.99500 48.35400 40.37300
Mg -5.44900 25.81500 25.69000
C  -4.09500 27.00800 28.66600
C  -7.01900 23.32800 27.57000
C  -6.41800 24.36400 22.88200
C  -3.07600 27.71400 23.97300
N  -5.56200 25.26500 27.88800
C  -4.95000 25.93000 28.93600
C  -5.41200 25.39600 30.29400
C  -6.01100 23.94400 29.91300
C  -6.22800 24.15900 28.38000
C  -5.18400 22.74600 30.41200
C  -6.42300 26.23800 31.07000
C  -6.12300 26.59700 32.52300
H  -5.30600 25.54300 33.35500
N  -6.72000 24.17200 25.31200
C  -7.30400 23.32000 26.17500
C  -8.12300 22.34700 25.44500
C  -8.03600 22.69200 24.05900
C  -6.99300 23.79300 24.06300
C  -8.93600 21.20500 26.07200
C  -8.80900 22.16500 22.81000
O  -8.54700 22.50400 21.66500
C  -9.83200 21.18100 22.91600
N  -4.73200 25.87700 23.73500
C  -5.40300 25.27200 22.79600
C  -4.79000 25.63700 21.40300
C  -3.85700 26.81300 21.72600
C  -3.87100 26.87300 23.22000
C  -4.08600 24.40800 20.72100
C  -4.29700 28.23000 21.15800
C  -3.33400 28.98200 20.20700
N  -3.88800 27.15700 26.14300
C  -3.02400 27.82600 25.31400
C  -2.38900 28.82100 26.17600
C  -2.79400 28.56300 27.47200
C  -3.67300 27.52700 27.41400
C  -1.57000 29.98800 25.73300
C  -2.60100 28.92600 28.83800
O  -1.85100 29.75800 29.39000
C  -3.31400 27.85400 29.66100
C  -2.51700 27.09800 30.63300
O  -1.90500 26.05100 30.40300
O  -2.47900 27.82500 31.78700
C  -1.39200 27.52700 32.69100
H  -7.51300 22.53200 28.13000
H  -6.74600 23.85900 21.97100
H  -2.57000 28.43300 23.32600
H  -4.51900 25.19600 30.88700
H  -6.98700 23.77200 30.36700
H  -5.08500 21.97300 29.64900
H  -5.64300 22.27100 31.27900
H  -4.18200 23.05100 30.71400
H  -7.38900 25.73400 31.06300
H  -6.63200 27.17900 30.56200
H  -7.14800 26.67100 32.88600
H  -5.58300 27.53100 32.67600
H  -8.37600 20.72000 26.87200
H  -9.26800 20.38900 25.43100
H  -9.76100 21.74000 26.54300
H  -9.43600 20.18000 23.08900
H  -10.41200 21.16600 21.99300
H  -10.56100 21.35900 23.70700
H  -5.54500 25.92600 20.67200
H  -2.88000 26.54500 21.32300
H  -4.27400 23.51200 21.31300
H  -3.03700 24.47900 20.43200
H  -4.67300 24.23300 19.82000
H  -4.49200 28.88100 22.01100
H  -5.23700 28.07900 20.62800
H  -2.37900 28.47700 20.06100
H  -3.19900 30.00500 20.55700
H  -3.69500 28.90100 19.18200
H  -0.54300 29.63500 25.63900
H  -1.72000 30.85300 26.37900
H  -1.88900 30.21100 24.71500
H  -4.09400 28.37300 30.21900
H  -0.45500 27.43300 32.14200
H  -1.59100 26.65300 33.31100
H  -1.34100 28.39100 33.35300

