158

Mg 35.16500 3.28200 30.41500
C  32.76500 4.17400 32.74100
C  37.52600 3.15400 33.09000
C  37.75200 2.94400 28.34200
C  32.99300 3.72700 27.84800
N  35.16500 3.65500 32.66900
C  34.00600 3.96200 33.34800
C  34.27100 3.83100 34.87600
C  35.83200 3.75000 34.98300
C  36.20200 3.49400 33.49500
C  36.58900 5.05000 35.49100
C  33.53700 2.57500 35.50500
C  32.94300 2.74100 36.87000
H  33.51900 3.74500 37.90600
N  37.21800 2.77100 30.69700
C  38.01800 2.79600 31.81100
C  39.40900 2.44800 31.47300
C  39.49600 2.33000 30.04600
C  38.13300 2.67500 29.65000
C  40.48200 2.33600 32.49500
C  40.68200 1.98100 29.12100
O  40.64200 1.94400 27.87600
C  42.05600 1.76900 29.63200
N  35.35000 3.14500 28.39400
C  36.52200 3.17800 27.72400
C  36.28000 3.24200 26.16800
C  34.65600 3.08500 26.08600
C  34.29000 3.26400 27.53200
C  36.74600 4.56600 25.62200
C  34.16800 1.81100 25.45500
C  32.91800 1.88300 24.63600
N  33.26100 3.81700 30.30300
C  32.46700 3.94700 29.16700
C  31.16000 4.34500 29.57300
C  31.20000 4.38700 31.00800
C  32.52000 4.12800 31.41400
C  30.06900 4.54100 28.60900
C  30.47900 4.70300 32.19800
O  29.33000 5.06800 32.24600
C  31.40100 4.45400 33.40100
C  31.42500 5.71900 34.25400
O  31.93000 6.80200 33.94700
O  30.73900 5.48800 35.43200
C  30.81100 6.63700 36.36200
H  38.33500 3.17400 33.82300
H  38.54600 2.92000 27.59200
H  32.37500 3.74400 26.94800
H  33.83800 4.68100 35.40400
H  36.23900 2.95200 35.60400
H  35.88200 5.75400 35.93000
H  37.03400 5.58500 34.65200
H  37.24300 4.73300 36.30400
H  34.24500 1.74600 35.50400
H  32.67400 2.30600 34.89700
H  33.09900 1.79200 37.38300
H  31.87200 2.92900 36.78600
H  41.21700 1.54600 32.34100
H  40.00100 1.90700 33.37400
H  40.91500 3.31000 32.72400
H  42.24200 2.57500 30.34100
H  42.87600 1.67600 28.91900
H  41.94900 0.84700 30.20300
H  36.86400 2.38000 25.84700
H  34.30600 3.80800 25.34800
H  37.19600 5.24700 26.34500
H  35.92300 5.10600 25.15300
H  37.47500 4.41100 24.82700
H  34.03400 1.03400 26.20800
H  34.89800 1.38400 24.76800
H  32.12200 1.28500 25.08100
H  33.19800 1.64600 23.60900
H  32.49500 2.88800 24.64500
H  29.63100 3.54300 28.59600
H  30.40500 4.84700 27.61800
H  29.35800 5.26400 29.00900
H  31.11100 3.57400 33.97600
H  30.64400 7.55700 35.80200
H  31.83000 6.66400 36.74700
H  30.06600 6.36900 37.11200
Mg -5.24000 24.95000 26.41200
C  -3.75600 26.40500 29.19700
C  -6.94300 22.78000 28.49800
C  -5.96400 22.89900 23.75600
C  -3.11400 26.85900 24.33400
N  -5.32400 24.64800 28.57600
C  -4.66100 25.37300 29.56500
C  -5.09800 24.96100 30.99100
C  -6.14800 23.73200 30.74200
C  -6.10800 23.69700 29.19500
C  -5.71500 22.40000 31.37700
C  -5.64000 26.10800 31.88300
C  -5.52800 26.11800 33.40700
H  -5.17000 24.80000 34.08400
N  -6.45400 23.29800 26.14800
C  -7.14100 22.60700 27.09600
C  -8.09400 21.67800 26.46900
C  -7.76100 21.64300 25.10000
C  -6.69800 22.65800 24.92300
C  -9.33400 21.04500 27.19700
C  -8.40300 20.82300 24.01400
O  -8.08100 21.00600 22.87200
C  -9.39000 19.71200 24.35700
N  -4.54500 24.81500 24.34800
C  -5.02400 23.87500 23.49400
C  -4.40900 24.08800 22.05300
C  -3.62700 25.42800 22.32000
C  -3.80400 25.76000 23.73600
C  -3.61400 22.81600 21.63800
C  -4.12500 26.64600 21.33200
C  -3.05600 27.44500 20.59700
N  -3.79900 26.42000 26.70900
C  -3.03900 27.14700 25.74300
C  -2.08400 27.95300 26.42900
C  -2.33800 27.76300 27.79100
C  -3.41700 26.78100 27.88600
C  -1.00000 28.75300 25.81700
C  -1.94100 28.02700 29.13700
O  -1.10500 28.88700 29.55600
C  -2.83600 27.14300 30.11000
C  -1.95000 26.13400 30.84700
O  -1.53600 25.08700 30.40700
O  -1.73200 26.52400 32.20000
C  -0.86000 25.66700 32.93800
H  -7.53600 22.12300 29.13800
H  -6.06100 22.15900 22.95800
H  -2.50800 27.52400 23.71600
H  -4.22200 24.59000 31.52300
H  -7.18200 23.93900 31.01800
H  -6.60500 21.80700 31.58900
H  -5.13800 22.54800 32.28900
H  -5.16400 21.78300 30.66700
H  -6.69600 25.89400 31.72100
H  -5.12600 27.00100 31.52900
H  -6.48000 26.45100 33.82000
H  -4.86300 26.87100 33.82900
H  -10.14400 21.18800 26.48200
H  -9.64900 21.71400 27.99900
H  -9.24600 20.01900 27.55200
H  -9.16400 19.23800 25.31200
H  -9.47500 19.03400 23.50800
H  -10.37100 20.18500 24.39400
H  -5.32800 24.19500 21.47700
H  -2.55700 25.26200 22.19400
H  -2.68100 22.96500 21.09400
H  -4.27900 22.24200 20.99300
H  -3.35200 22.26700 22.54300
H  -4.80000 27.28500 21.90200
H  -4.73300 26.09000 20.61800
H  -2.04300 27.05200 20.68000
H  -3.06300 28.43400 21.05400
H  -3.28100 27.40300 19.53200
H  -0.15500 28.09900 25.60400
H  -0.72100 29.46400 26.59500
H  -1.18700 29.18600 24.83400
H  -3.35700 27.79600 30.81000
H  0.15900 26.04100 33.04200
H  -0.88100 24.65500 32.53400
H  -1.19300 25.53200 33.96800

