158

Mg 23.90200 -4.52400 45.60800
C  26.18200 -2.43400 44.06800
C  21.35500 -3.33800 43.53200
C  22.10300 -7.31200 46.13500
C  26.68100 -6.14100 47.10400
N  23.85700 -3.10800 43.89900
C  24.93600 -2.36200 43.52700
C  24.46100 -1.33900 42.42300
C  22.92400 -1.30300 42.67500
C  22.64900 -2.68800 43.40600
C  22.46700 -0.07300 43.55700
C  24.90700 -1.96500 41.04500
C  25.71300 -1.07400 40.05500
H  25.45200 -1.16800 38.55200
N  21.90200 -5.10600 45.09100
C  21.01300 -4.47600 44.20200
C  19.80000 -5.22700 44.14600
C  19.95300 -6.39300 44.93300
C  21.34100 -6.32800 45.46000
C  18.52900 -4.71800 43.29600
C  18.84900 -7.35600 45.31700
O  17.69100 -7.20400 44.82700
C  19.02100 -8.55700 46.30700
N  24.34700 -6.40500 46.45500
C  23.40500 -7.38200 46.67300
C  24.04000 -8.70100 47.10100
C  25.44200 -8.23300 47.62800
C  25.53500 -6.85000 47.08900
C  23.27700 -9.29500 48.30400
C  26.57100 -9.12900 47.02000
C  27.68100 -9.62300 48.00400
N  26.00000 -4.19100 45.84100
C  26.97900 -4.93200 46.49500
C  28.24400 -4.20100 46.35400
C  27.96900 -3.19000 45.43000
C  26.62500 -3.26900 45.11600
C  29.57300 -4.36900 47.08500
C  28.48600 -2.01500 44.84300
O  29.57800 -1.50700 44.97100
C  27.36000 -1.42900 43.89100
C  27.14700 -0.01700 44.24000
O  26.47900 0.34300 45.22400
O  27.71100 0.85400 43.36200
C  27.45600 2.34200 43.54500
H  20.64400 -2.71300 42.98800
H  21.44000 -8.15200 46.35300
H  27.57500 -6.49800 47.62100
H  24.93200 -0.35700 42.39300
H  22.36300 -1.31600 41.74000
H  23.33600 0.41800 43.99600
H  21.89400 -0.34200 44.44400
H  21.89100 0.67000 43.00500
H  23.97600 -2.14500 40.50900
H  25.38700 -2.92000 41.26000
H  26.76900 -1.28100 40.22600
H  25.60700 -0.03000 40.34700
H  18.86000 -4.15700 42.42200
H  17.78200 -4.17000 43.86900
H  18.06900 -5.60700 42.86300
H  19.57200 -9.34100 45.78900
H  18.02100 -8.85700 46.62100
H  19.43800 -8.12800 47.21800
H  24.19300 -9.42600 46.30100
H  25.54400 -8.14600 48.71000
H  22.39500 -8.73800 48.62000
H  23.94500 -9.50500 49.13900
H  22.85700 -10.25600 48.00700
H  26.97700 -8.56400 46.18000
H  26.22500 -10.00200 46.46600
H  27.31700 -9.39900 49.00700
H  28.50400 -8.91500 47.90300
H  28.03200 -10.64600 47.86700
H  29.49400 -5.37400 47.49900
H  29.64500 -3.58200 47.83500
H  30.30600 -4.33700 46.27800
H  27.72300 -1.43300 42.86400
H  26.78500 2.44200 44.39900
H  27.06600 2.73800 42.60800
H  28.43400 2.71800 43.84500
Mg 53.78200 23.78900 44.05900
C  50.97500 25.79300 43.54400
C  51.89500 20.99900 43.37100
C  56.58400 22.02100 44.11600
C  55.68600 26.80300 44.47600
N  51.64500 23.51900 43.28400
C  50.71200 24.45600 43.29500
C  49.36600 23.81100 43.23300
C  49.59200 22.26500 43.28600
C  51.14100 22.21800 43.29700
C  48.95700 21.49500 44.50100
C  48.46400 24.25400 42.02200
C  49.18100 24.65500 40.74300
H  48.92200 23.87800 39.41100
N  54.19300 21.81300 43.64500
C  53.29300 20.81900 43.50500
C  53.94600 19.60100 43.51000
C  55.35600 19.84100 43.48100
C  55.45400 21.31700 43.74400
C  53.22000 18.25800 43.54800
C  56.46300 18.86900 43.30700
O  56.18900 17.68800 43.11700
C  57.90100 19.16400 43.34500
N  55.86500 24.43600 43.92500
C  56.74100 23.42900 44.18800
C  58.15400 24.02100 44.49600
C  57.95800 25.57600 44.39600
C  56.41600 25.65900 44.22400
C  58.80000 23.50100 45.83100
C  58.55500 26.33900 43.15800
C  60.11300 26.26500 43.12900
N  53.47300 25.92000 43.96000
C  54.28600 26.95700 44.33400
C  53.47700 28.07800 44.68200
C  52.18500 27.69900 44.32500
C  52.20900 26.35000 43.91500
C  53.85900 29.37400 45.17100
C  50.90000 28.20400 44.25200
O  50.44800 29.30800 44.61900
C  50.00900 27.05800 43.59000
C  49.53600 27.51300 42.25900
O  50.23900 27.63300 41.28800
O  48.23100 27.81200 42.35200
C  47.73100 28.65500 41.22700
H  51.32400 20.06800 43.34600
H  57.44800 21.44800 44.45600
H  56.23400 27.62900 44.93300
H  48.89000 24.19000 44.13800
H  49.17600 21.71600 42.44100
H  48.29500 20.77800 44.01400
H  48.41700 22.13000 45.20300
H  49.68900 20.95400 45.10000
H  47.70100 24.96100 42.34700
H  47.86500 23.34800 41.92900
H  50.25300 24.52800 40.89400
H  48.88600 25.68500 40.54100
H  52.83700 17.99000 42.56300
H  52.32700 18.37700 44.16100
H  53.92400 17.52100 43.93500
H  58.42700 18.45700 42.70400
H  58.17200 19.16500 44.40100
H  58.02600 20.14200 42.88000
H  58.87400 23.67200 43.75600
H  58.19900 25.97600 45.38100
H  58.08100 23.11000 46.55100
H  59.44700 24.19500 46.36700
H  59.43000 22.63600 45.62100
H  58.21200 27.33000 43.45600
H  57.96000 26.14100 42.26600
H  60.35200 27.26000 43.50500
H  60.60400 26.04600 42.18100
H  60.42600 25.57400 43.91100
H  53.66500 30.18300 44.46700
H  54.93100 29.40700 45.36600
H  53.21500 29.50300 46.04100
H  49.16000 26.74600 44.19800
H  47.48500 27.98300 40.40500
H  48.49400 29.38900 40.96800
H  46.84900 29.18600 41.58800

