158

Mg -2.39100 16.80000 25.95100
C  -3.10000 14.42100 28.32400
C  -3.02500 19.30600 28.18300
C  -2.48900 18.90000 23.32100
C  -2.77500 14.06600 23.48500
N  -2.93300 16.87900 27.99100
C  -3.11900 15.77200 28.82300
C  -3.34000 16.15600 30.30600
C  -3.34600 17.74100 30.23900
C  -3.05500 18.02400 28.73100
C  -4.64800 18.38900 30.82700
C  -2.31800 15.49100 31.34900
C  -1.73200 16.24200 32.61000
H  -1.37300 15.38300 33.80600
N  -2.55000 18.76500 25.79200
C  -2.66700 19.66000 26.84300
C  -2.60000 20.99500 26.38700
C  -2.33800 20.93200 24.99500
C  -2.47500 19.43400 24.63500
C  -2.78400 22.24500 27.18800
C  -1.95500 22.06700 24.06500
O  -1.80100 21.98200 22.86700
C  -1.58100 23.44500 24.56400
N  -2.59700 16.53900 23.69300
C  -2.56800 17.61800 22.89600
C  -2.81400 17.20100 21.42800
C  -2.93700 15.65700 21.52000
C  -2.70000 15.36000 22.98800
C  -3.86200 18.01000 20.64000
C  -1.96000 14.85100 20.54600
C  -2.76500 14.52100 19.26300
N  -2.95400 14.73000 25.85800
C  -2.80300 13.76300 24.86800
C  -2.91600 12.44700 25.38200
C  -3.14900 12.63900 26.73300
C  -3.11000 14.03800 26.97800
C  -2.84400 11.16100 24.74200
C  -3.30200 11.99800 27.95300
O  -3.49700 10.82400 28.22200
C  -3.17300 13.05300 29.06400
C  -2.09700 12.65000 29.94900
O  -0.92400 12.90000 29.76700
O  -2.71500 11.97200 30.99200
C  -1.72900 11.41800 31.96700
H  -3.16100 20.12500 28.89200
H  -2.48600 19.73200 22.61300
H  -2.71400 13.20000 22.82200
H  -4.29500 15.72000 30.59900
H  -2.49300 18.13500 30.79100
H  -4.35600 19.16900 31.52900
H  -5.24700 17.62200 31.31800
H  -5.09200 18.93700 29.99600
H  -1.43500 15.16000 30.80300
H  -2.73600 14.59700 31.81100
H  -2.41900 17.07100 32.77800
H  -0.77600 16.62800 32.25500
H  -1.97400 22.97400 27.19100
H  -3.05800 22.11600 28.23500
H  -3.57200 22.74700 26.62600
H  -2.46700 24.04500 24.77500
H  -1.01900 24.00700 23.81800
H  -0.87000 23.37900 25.38800
H  -1.83200 17.39700 20.99600
H  -3.98400 15.47200 21.27900
H  -4.59900 17.39800 20.12000
H  -3.55000 18.87700 20.05800
H  -4.42400 18.52500 21.42000
H  -1.45800 13.99300 20.99300
H  -1.17000 15.49500 20.15800
H  -3.70000 14.13700 19.67200
H  -2.31500 13.70800 18.69300
H  -2.89100 15.47300 18.74700
H  -3.84700 10.88900 24.41600
H  -2.59500 10.41400 25.49600
H  -2.21200 11.13500 23.85400
H  -4.10000 13.04900 29.63800
H  -2.29900 11.41000 32.89600
H  -0.80800 11.96400 32.16900
H  -1.48100 10.39900 31.66800
Mg 10.75000 47.80900 25.82200
C  8.92900 47.66900 28.79800
C  13.30600 49.21300 27.45300
C  12.46700 47.91800 22.80700
C  7.81100 47.02600 24.01600
N  10.99800 48.34700 27.83300
C  10.19100 48.27400 28.91500
C  10.74400 48.90900 30.22000
C  11.90600 49.70900 29.57300
C  12.17500 48.97000 28.25900
C  11.76100 51.18100 29.45000
C  11.12200 47.82000 31.30900
C  10.22500 47.81300 32.51900
H  10.27300 46.59900 33.48700
N  12.64200 48.41100 25.24700
C  13.58700 48.93300 26.06500
C  14.85500 49.07400 25.36100
C  14.60700 48.57100 24.06200
C  13.18900 48.33000 23.94800
C  16.13500 49.59700 26.08000
C  15.61000 48.18300 22.93500
O  15.36000 47.77100 21.84500
C  17.07900 48.33300 23.27800
N  10.22000 47.44300 23.72600
C  11.12100 47.48400 22.64400
C  10.47800 47.16100 21.27000
C  9.14800 46.63400 21.82900
C  8.99000 47.11200 23.28900
C  10.40000 48.26800 20.26700
C  8.80700 45.09100 21.63400
C  9.90900 44.15200 22.28700
N  8.81200 47.43700 26.21800
C  7.69700 47.12700 25.41800
C  6.55100 46.86300 26.25700
C  6.99100 47.06500 27.54400
C  8.35900 47.44300 27.47000
C  5.22200 46.47300 25.64000
C  6.50100 47.00800 28.94100
O  5.40400 46.60800 29.39500
C  7.85600 47.38700 29.77500
C  8.16800 46.08200 30.56600
O  9.02000 45.23400 30.29300
O  7.38200 46.07800 31.67600
C  7.24700 44.91200 32.57300
H  14.11200 49.60500 28.07600
H  13.04600 47.88200 21.88100
H  6.99300 46.67800 23.38200
H  10.04800 49.64300 30.62500
H  12.78700 49.63100 30.21000
H  10.78100 51.55000 29.75200
H  11.93100 51.30900 28.38100
H  12.51600 51.76800 29.97300
H  12.13000 48.02800 31.66800
H  11.26700 46.82600 30.88500
H  9.20300 47.98500 32.18100
H  10.50500 48.63800 33.17400
H  15.98100 49.52100 27.15600
H  16.42500 50.63700 25.93200
H  17.00200 48.96900 25.87300
H  17.34200 49.36400 23.51300
H  17.62200 47.89700 22.44000
H  17.35500 47.66600 24.09500
H  11.01600 46.31700 20.83700
H  8.28700 47.05000 21.30500
H  10.93400 47.98200 19.36200
H  10.91800 49.19000 20.52900
H  9.35900 48.57700 20.16500
H  8.47800 44.88400 20.61600
H  7.93600 44.86400 22.24900
H  9.52300 43.55700 23.11500
H  10.73400 44.73200 22.70200
H  10.47900 43.67300 21.49100
H  5.08500 46.79500 24.60700
H  4.46600 47.04300 26.18000
H  5.06100 45.39600 25.68200
H  7.82800 48.19900 30.50100
H  7.94100 44.11700 32.29700
H  6.20700 44.64900 32.76200
H  7.72500 45.26200 33.48800

