158

Mg -0.67600 7.80100 26.58500
C  0.26400 9.39900 29.63400
C  -0.76900 4.89900 28.24900
C  -0.62800 6.51700 23.70600
C  0.05500 11.04500 25.03500
N  -0.21300 7.30900 28.73700
C  -0.07900 8.06800 29.81500
C  -0.30900 7.32700 31.14100
C  -0.58000 5.86100 30.55200
C  -0.42900 5.98100 29.04200
C  0.20700 4.71600 31.21700
C  -1.53200 7.84000 32.00100
C  -1.32300 8.27500 33.43300
H  0.02800 7.84100 34.13100
N  -0.76800 5.92500 26.04400
C  -0.90400 4.80400 26.83500
C  -1.10100 3.62800 26.01200
C  -1.00600 4.18600 24.65100
C  -0.84800 5.67000 24.79100
C  -1.21200 2.18100 26.57700
C  -1.18000 3.43200 23.34500
O  -1.33900 3.96500 22.24800
C  -1.34400 1.91600 23.42100
N  -0.53900 8.72900 24.60800
C  -0.42700 7.89800 23.58300
C  -0.12300 8.70000 22.26600
C  -0.38800 10.18400 22.75300
C  -0.34900 10.04000 24.26100
C  1.35700 8.47600 21.87100
C  -1.60800 10.77100 22.03100
C  -1.34100 11.43100 20.65800
N  -0.04500 9.86400 27.18500
C  0.25900 11.01200 26.43600
C  0.79300 11.97900 27.29800
C  0.75800 11.41300 28.60200
C  0.25200 10.14200 28.43600
C  1.18800 13.36600 26.98700
C  1.05800 11.69500 29.95400
O  1.61400 12.61800 30.54800
C  0.53100 10.40600 30.72300
C  1.62800 10.08600 31.71100
O  2.63100 9.41700 31.45600
O  1.38500 10.80000 32.86800
C  2.56900 10.87800 33.70200
H  -1.00500 3.93500 28.70500
H  -0.52300 6.05200 22.72300
H  0.37700 12.02100 24.66600
H  0.62300 7.26900 31.70400
H  -1.63300 5.58800 30.49100
H  0.83300 5.17000 31.98500
H  0.99400 4.38800 30.53700
H  -0.43500 3.90300 31.55800
H  -2.32000 7.09300 31.89900
H  -1.83000 8.75900 31.49800
H  -2.12900 7.97900 34.10400
H  -1.26300 9.35700 33.55200
H  -0.38700 1.62100 26.13600
H  -2.13300 1.70900 26.23400
H  -0.94800 1.98400 27.61600
H  -1.48100 1.58700 22.39100
H  -2.23000 1.64300 23.99400
H  -0.48100 1.37900 23.81600
H  -0.86000 8.54300 21.47800
H  0.46000 10.83300 22.53600
H  1.95000 9.37300 22.05000
H  1.43900 8.10700 20.84900
H  1.79300 7.69500 22.49500
H  -1.92700 11.61200 22.64700
H  -2.39500 10.03900 21.84900
H  -0.69200 10.78300 20.06900
H  -0.91800 12.42600 20.79900
H  -2.31200 11.46600 20.16300
H  0.64400 14.08700 27.59700
H  1.08300 13.65400 25.94100
H  2.23700 13.41000 27.27700
H  -0.30400 10.60300 31.39700
H  3.23100 11.61400 33.24700
H  2.96300 9.86800 33.81100
H  2.30400 11.25900 34.68800
Mg 47.18300 25.46200 27.40700
C  47.97700 27.51400 30.15700
C  46.31400 23.03000 29.39700
C  46.90800 23.57600 24.61900
C  48.92800 27.92500 25.33500
N  47.23900 25.31000 29.56600
C  47.53100 26.27500 30.46600
C  47.34300 25.76800 31.92000
C  46.78700 24.28900 31.68000
C  46.86300 24.14400 30.13000
C  47.53600 23.11100 32.36700
C  46.35400 26.65300 32.69700
C  46.92900 27.26200 34.00400
H  45.95400 27.55800 35.09100
N  46.45100 23.59000 27.04200
C  46.08900 22.75200 28.00800
C  45.71100 21.47700 27.40600
C  45.93200 21.57200 26.00300
C  46.43800 22.97600 25.82200
C  45.22900 20.22300 28.22800
C  45.84600 20.45200 24.93500
O  46.34400 20.61300 23.85500
C  45.17000 19.07300 25.24400
N  47.92000 25.67100 25.27500
C  47.46300 24.79400 24.32100
C  47.76100 25.20000 22.92000
C  48.20600 26.64500 23.14800
C  48.38900 26.80600 24.70000
C  48.91600 24.35200 22.23100
C  47.11100 27.71700 22.77600
C  47.53600 29.05800 22.17300
N  48.24300 27.30000 27.66900
C  48.90900 28.13100 26.74800
C  49.26700 29.43900 27.38900
C  49.00900 29.18400 28.81300
C  48.32400 27.90100 28.84100
C  50.06900 30.63000 26.72100
C  49.15100 29.68400 30.14500
O  49.52200 30.79800 30.55400
C  48.60000 28.52800 31.04100
C  49.68100 27.99200 31.81900
O  50.34800 26.97500 31.51000
O  49.90100 28.65200 32.93300
C  51.09200 28.30600 33.76500
H  46.17800 22.22500 30.12300
H  46.84900 22.89200 23.76900
H  49.23200 28.66500 24.59100
H  48.28800 25.81200 32.46000
H  45.75700 24.09800 31.98100
H  46.77800 22.43000 32.75600
H  48.19200 23.50600 33.14200
H  48.09300 22.62300 31.56700
H  45.52000 25.99400 32.93700
H  46.01900 27.46600 32.05200
H  47.26500 28.27700 33.79400
H  47.81700 26.78400 34.41800
H  45.82800 19.36800 27.91400
H  44.23700 19.94500 27.87100
H  45.34800 20.47000 29.28300
H  45.86000 18.50800 25.87100
H  45.03300 18.57100 24.28700
H  44.16300 19.18500 25.64600
H  46.82900 25.12800 22.36000
H  49.15200 26.94200 22.69400
H  48.48900 23.92100 21.32600
H  49.21300 23.49200 22.83100
H  49.83400 24.84800 21.91300
H  46.51200 27.90900 23.66600
H  46.41500 27.27100 22.06500
H  48.56000 29.02900 21.80200
H  47.40000 29.81900 22.94100
H  47.00600 29.27600 21.24600
H  49.98900 30.65500 25.63500
H  51.12600 30.51900 26.96300
H  49.64400 31.57100 27.07000
H  47.90800 28.97900 31.75200
H  51.97700 28.07200 33.17300
H  50.80700 27.41300 34.32200
H  51.37000 29.20100 34.32100

