158

Mg 16.90500 -1.80800 27.97100
C  15.70000 0.41000 30.43100
C  19.03900 -3.12500 30.18600
C  18.44300 -3.54000 25.46100
C  15.39800 0.27100 25.60800
N  17.34700 -1.31300 30.12600
C  16.66000 -0.53600 30.92100
C  16.93600 -0.88000 32.36600
C  18.19700 -1.83600 32.32100
C  18.23200 -2.11600 30.74900
C  19.60400 -1.26600 32.79000
C  15.71400 -1.37100 33.17300
C  15.41200 -0.72000 34.56100
H  16.62200 -0.17900 35.31900
N  18.55800 -3.15600 27.79600
C  19.22100 -3.61800 28.87100
C  19.98000 -4.74400 28.49800
C  19.75900 -4.94300 27.09000
C  18.93300 -3.79400 26.70300
C  20.66100 -5.65900 29.56500
C  20.29700 -6.05900 26.12200
O  20.02500 -6.09200 24.88300
C  21.20600 -7.05800 26.72800
N  16.90200 -1.69400 25.83900
C  17.58100 -2.56500 25.03500
C  17.40700 -2.26500 23.53900
C  16.24400 -1.19900 23.58800
C  16.12200 -0.84700 25.08700
C  18.66700 -1.77300 22.80300
C  14.97900 -1.58400 22.70600
C  13.73200 -1.95700 23.56800
N  15.63500 -0.15600 27.95100
C  15.13500 0.56700 26.89800
C  14.35400 1.70000 27.41000
C  14.50300 1.57700 28.79500
C  15.31400 0.50700 29.06500
C  13.47500 2.58200 26.57700
C  14.07600 2.17700 30.03700
O  13.27300 3.03000 30.15800
C  14.85700 1.43600 31.13100
C  15.66100 2.40200 31.95900
O  16.69100 2.92900 31.59100
O  15.13200 2.65700 33.20000
C  15.75300 3.75000 33.93500
H  19.74700 -3.59400 30.87200
H  18.86100 -4.07300 24.60400
H  14.95300 0.88800 24.82500
H  17.21100 0.04200 32.87800
H  17.99300 -2.77100 32.84200
H  19.83300 -1.78600 33.72000
H  19.50200 -0.22800 33.10800
H  20.49000 -1.27800 32.15500
H  15.75700 -2.44300 33.36600
H  14.77500 -1.10700 32.68800
H  15.03100 -1.49200 35.23000
H  14.60300 0.00700 34.48800
H  20.32400 -6.67800 29.37400
H  20.34300 -5.38900 30.57200
H  21.74000 -5.51500 29.50800
H  21.82400 -7.37700 25.89000
H  20.75000 -8.00900 27.00400
H  21.84600 -6.76200 27.55900
H  17.04100 -3.23700 23.20800
H  16.60800 -0.29600 23.09900
H  18.55600 -0.80200 22.32000
H  19.12000 -2.43100 22.06100
H  19.45800 -1.63800 23.54000
H  15.29100 -2.39500 22.04800
H  14.64900 -0.73700 22.10400
H  13.32800 -1.09200 24.09300
H  14.00700 -2.67000 24.34500
H  12.98400 -2.52000 23.00900
H  13.00000 3.38000 27.14800
H  12.81800 1.92300 26.01000
H  14.20000 3.07500 25.93000
H  14.09000 0.89900 31.69000
H  15.36000 3.71800 34.95100
H  15.38200 4.69000 33.52700
H  16.83000 3.62100 34.04200
Mg -12.09900 16.96300 40.63000
C  -8.92400 15.51700 39.96800
C  -10.79500 19.91700 39.59400
C  -15.19600 18.22400 40.72700
C  -13.28700 13.71900 41.27500
N  -10.10100 17.65800 39.82700
C  -8.96500 16.90200 39.68000
C  -7.79200 17.72500 39.11900
C  -8.34600 19.17600 39.24100
C  -9.82100 18.91800 39.64400
C  -7.49100 20.15800 40.06500
C  -7.45900 17.26500 37.65000
C  -6.05300 17.52200 37.08400
H  -6.11200 17.85800 35.57200
N  -12.91000 18.79100 40.14400
C  -12.14900 19.91300 39.78400
C  -13.08300 21.02500 39.66900
C  -14.39200 20.58900 40.05800
C  -14.19600 19.15500 40.31700
C  -12.53000 22.42600 39.25700
C  -15.65400 21.48400 40.09100
O  -15.60700 22.68100 39.84200
C  -16.92900 20.95800 40.58900
N  -13.97800 16.09000 40.81400
C  -15.13000 16.88000 40.96800
C  -16.32000 15.92200 41.37700
C  -15.63400 14.63600 41.89900
C  -14.24600 14.77600 41.29000
C  -17.44900 16.46200 42.37300
C  -16.36600 13.24200 41.53300
C  -16.66700 12.16400 42.57700
N  -11.28000 14.99800 40.63200
C  -11.89300 13.77800 40.97500
C  -10.90700 12.70800 40.96000
C  -9.71600 13.30800 40.48500
C  -9.99900 14.68700 40.39200
C  -11.19500 11.35100 41.24800
C  -8.34900 13.09200 40.11700
O  -7.81000 11.99300 39.90800
C  -7.78500 14.45900 39.83900
C  -6.71000 14.73900 40.75700
O  -6.84300 15.00500 41.93000
O  -5.48500 14.49400 40.18200
C  -4.23600 14.72500 40.83300
H  -10.34700 20.90100 39.44500
H  -16.23000 18.54500 40.87400
H  -13.70900 12.81000 41.70800
H  -6.83300 17.55900 39.61000
H  -8.53800 19.58900 38.25100
H  -6.63000 19.64400 40.49200
H  -8.06000 20.57100 40.89900
H  -7.11000 20.94600 39.41600
H  -8.17300 17.85600 37.07700
H  -7.68100 16.20900 37.49500
H  -5.36600 16.67900 37.16600
H  -5.73700 18.49600 37.45700
H  -12.09300 22.28300 38.26900
H  -11.65000 22.79100 39.78600
H  -13.28600 23.21200 39.22200
H  -17.68400 21.71800 40.78700
H  -16.72800 20.42300 41.51700
H  -17.24600 20.17400 39.90100
H  -16.90000 15.70600 40.47900
H  -15.46800 14.80000 42.96400
H  -17.41500 17.53900 42.53900
H  -17.61700 15.90500 43.29500
H  -18.39500 16.25300 41.87300
H  -15.85500 12.77700 40.69000
H  -17.25600 13.58400 41.00500
H  -17.30600 11.52100 41.97100
H  -17.19300 12.68100 43.38000
H  -15.71400 11.71200 42.85400
H  -11.53200 10.80600 40.36600
H  -11.85800 11.23400 42.10500
H  -10.23700 10.89400 41.49600
H  -7.47700 14.42900 38.79400
H  -3.79400 13.82500 41.26100
H  -4.39200 15.45400 41.62800
H  -3.48700 15.28300 40.27000

