158

Mg 52.45000 24.42700 45.67200
C  49.85500 26.59700 44.79700
C  50.78800 21.73000 44.62000
C  55.38900 22.62000 45.99500
C  54.48100 27.31300 46.26500
N  50.57000 24.20400 44.76100
C  49.60100 25.18300 44.51800
C  48.19600 24.54500 44.38100
C  48.52400 23.02000 44.50100
C  50.05700 22.97100 44.61100
C  47.91500 22.34800 45.80800
C  47.43800 24.87100 43.03500
C  48.14200 24.68500 41.70000
H  47.50400 23.73600 40.74300
N  52.95000 22.40500 45.44100
C  52.16000 21.46700 44.97700
C  52.86500 20.15500 45.04900
C  54.11200 20.32000 45.68700
C  54.19400 21.82800 45.77200
C  52.22700 18.85000 44.41600
C  55.05600 19.24300 46.06900
O  54.82600 18.08100 45.78600
C  56.30900 19.55200 46.92100
N  54.63300 24.87800 45.97700
C  55.64000 23.97300 46.05400
C  56.99200 24.55100 46.42500
C  56.72300 26.08600 46.29500
C  55.18100 26.13000 46.25000
C  57.53900 24.01400 47.73600
C  57.33200 26.70100 44.92500
C  57.96000 28.10800 45.18300
N  52.20700 26.55000 45.77500
C  53.07400 27.58100 46.04700
C  52.44300 28.85700 45.99800
C  51.15100 28.49500 45.49100
C  51.09500 27.05800 45.37900
C  53.03500 30.12100 46.34100
C  49.89800 29.09600 45.00300
O  49.45500 30.24600 44.97700
C  48.98800 27.85000 44.44500
C  48.74900 28.03400 43.03100
O  49.40800 27.56300 42.08200
O  47.58300 28.74800 42.88800
C  47.06700 28.95300 41.51800
H  50.20200 20.82500 44.44600
H  56.22800 21.94400 46.17400
H  55.02100 28.25400 46.38800
H  47.47500 24.89000 45.12100
H  48.26700 22.45900 43.60200
H  47.88300 21.26800 45.66300
H  46.92200 22.71100 46.07400
H  48.65800 22.41500 46.60300
H  47.06500 25.89500 43.02000
H  46.57800 24.20200 43.05500
H  49.17100 24.34000 41.80600
H  48.04200 25.65800 41.22000
H  51.37500 19.01000 43.75500
H  51.94700 18.16200 45.21300
H  53.01900 18.40300 43.81500
H  56.69700 18.59200 47.26200
H  55.87600 20.15200 47.72100
H  56.95500 20.07500 46.21500
H  57.71000 24.18600 45.69100
H  57.12700 26.70300 47.09900
H  57.36700 22.95200 47.91300
H  56.99700 24.51500 48.53800
H  58.59600 24.25400 47.84900
H  56.62000 26.85900 44.11500
H  58.09200 26.04500 44.50200
H  59.00400 28.19400 44.87900
H  57.82900 28.47000 46.20300
H  57.58700 28.78900 44.41800
H  52.53800 30.89600 45.75800
H  54.11400 30.18000 46.19600
H  52.96700 30.26400 47.42000
H  48.04000 27.75100 44.97300
H  46.94700 28.02200 40.96500
H  47.80500 29.58100 41.02000
H  46.18400 29.58100 41.63900
Mg 47.47300 16.34900 28.50200
C  45.13400 16.52900 31.09800
C  49.29900 18.61400 30.28700
C  49.76800 16.06100 26.13000
C  45.24600 14.61000 26.57300
N  47.19500 17.45500 30.40300
C  46.21100 17.24500 31.31800
C  46.63900 17.74300 32.72400
C  47.81000 18.69100 32.33600
C  48.10200 18.27400 30.94500
C  47.56600 20.24900 32.39300
C  47.00100 16.58100 33.74400
C  46.59400 16.84500 35.17200
H  47.59500 16.59200 36.33700
N  49.32300 17.21100 28.29000
C  49.96600 18.08900 29.11300
C  51.32700 18.31700 28.60300
C  51.40700 17.52100 27.49800
C  50.12200 16.92300 27.19600
C  52.38100 19.11300 29.28400
C  52.69500 17.30800 26.63500
O  52.75300 16.62800 25.61000
C  53.96600 17.92600 27.11100
N  47.52000 15.44700 26.64200
C  48.54400 15.49900 25.79700
C  48.31700 14.69100 24.49900
C  46.94900 14.07700 24.73500
C  46.50700 14.77500 25.94300
C  48.37700 15.63800 23.20500
C  46.96100 12.59600 24.81500
C  47.33600 11.88300 23.51700
N  45.54400 15.81200 28.67400
C  44.77100 15.05600 27.81600
C  43.49500 14.70200 28.49200
C  43.59300 15.29300 29.78400
C  44.84900 15.87100 29.81800
C  42.31500 13.99000 27.72700
C  42.96400 15.44300 31.13000
O  41.91800 15.00600 31.57500
C  44.07500 16.16800 32.06700
C  43.51500 17.37200 32.78400
O  43.62100 18.56900 32.49500
O  42.90000 16.97800 33.92600
C  42.14800 18.00000 34.63300
H  49.95600 19.27100 30.86100
H  50.55000 15.87600 25.39000
H  44.65900 14.04800 25.84300
H  45.95800 18.45000 33.19800
H  48.70000 18.37500 32.87900
H  48.33000 20.71900 33.01300
H  46.58800 20.56900 32.75400
H  47.78400 20.84800 31.50900
H  48.07700 16.43100 33.82100
H  46.54200 15.62400 33.49300
H  45.75700 16.17200 35.36000
H  46.12900 17.83100 35.18400
H  52.90500 19.85900 28.68600
H  53.17200 18.61900 29.84800
H  51.93600 19.81100 29.99300
H  53.94700 18.99700 26.90900
H  54.77800 17.50600 26.51800
H  54.18100 17.56500 28.11700
H  49.04400 13.90600 24.29200
H  46.27200 14.27500 23.90300
H  47.49500 16.27700 23.22100
H  48.32200 15.11400 22.25100
H  49.19100 16.36300 23.19200
H  46.01200 12.17700 25.14900
H  47.74600 12.34800 25.53000
H  46.73800 10.97500 23.44800
H  48.35700 11.50900 23.59400
H  47.40000 12.53500 22.64600
H  42.58700 13.47800 26.80400
H  41.55700 14.65800 27.31800
H  41.91900 13.24100 28.41400
H  44.31500 15.36200 32.76100
H  41.58700 17.46800 35.40100
H  41.36200 18.34500 33.96100
H  42.68000 18.85400 35.05200

