158

Mg 1.96200 -1.94600 44.53200
C  5.09800 -0.67600 44.03100
C  0.64300 0.49700 42.56100
C  -1.04700 -3.53600 44.73200
C  3.37400 -4.69000 46.19200
N  2.83700 -0.29600 43.40600
C  4.13100 0.07200 43.32600
C  4.33500 1.23400 42.43300
C  2.87200 1.67600 42.13700
C  2.02900 0.52800 42.67100
C  2.46500 3.05600 42.69500
C  5.10400 0.95200 41.08800
C  6.07300 2.12400 40.58800
H  5.77900 2.89000 39.34900
N  0.04100 -1.59700 43.61300
C  -0.32000 -0.47200 42.96300
C  -1.81400 -0.49300 42.76900
C  -2.27800 -1.77400 43.21200
C  -1.08100 -2.35200 43.88800
C  -2.62200 0.65600 41.97800
C  -3.63500 -2.41800 43.05100
O  -4.58500 -1.80100 42.55800
C  -3.88300 -3.86400 43.36500
N  1.25500 -3.97600 45.21000
C  -0.04200 -4.25400 45.35600
C  -0.26800 -5.65000 45.90600
C  1.15100 -5.98100 46.47400
C  1.99800 -4.83000 45.94000
C  -1.38400 -5.66300 46.91900
C  1.73100 -7.35500 46.08900
C  2.54400 -8.04500 47.23900
N  3.84000 -2.58300 45.07000
C  4.25000 -3.73100 45.76100
C  5.69800 -3.65200 45.90100
C  6.03700 -2.50400 45.21300
C  4.92700 -1.85300 44.79700
C  6.37800 -4.67800 46.59100
C  7.12900 -1.63300 44.81900
O  8.34800 -1.76800 45.01200
C  6.59100 -0.49500 43.98900
C  7.09200 0.80400 44.58900
O  6.97200 1.14300 45.74200
O  7.59700 1.55000 43.64200
C  8.18900 2.84700 43.98900
H  0.20700 1.35500 42.04400
H  -2.02200 -3.98400 44.93300
H  3.69600 -5.51300 46.83400
H  4.77600 2.05800 42.99400
H  2.66100 1.80200 41.07500
H  2.30200 3.75800 41.87700
H  3.23900 3.45400 43.35100
H  1.51700 2.86400 43.19800
H  4.35300 0.88200 40.30100
H  5.63100 0.00000 41.15200
H  7.05000 1.70000 40.35300
H  6.17200 2.91800 41.32800
H  -3.34000 1.06900 42.68600
H  -3.02500 0.28400 41.03600
H  -2.02700 1.53200 41.72100
H  -2.96500 -4.36700 43.06100
H  -4.70200 -4.27100 42.77200
H  -4.12600 -4.05400 44.41100
H  -0.57400 -6.33200 45.11300
H  1.10100 -5.87200 47.55800
H  -2.12200 -6.41700 46.64500
H  -1.94900 -4.73800 47.03700
H  -1.08400 -5.91000 47.93700
H  2.30100 -7.29900 45.16100
H  0.88000 -7.98400 45.82700
H  3.55100 -8.38700 47.00100
H  1.95700 -8.91700 47.52900
H  2.54200 -7.37000 48.09500
H  6.68500 -5.39400 45.82800
H  5.73400 -5.06300 47.38200
H  7.31100 -4.36600 47.05900
H  6.98800 -0.60700 42.98000
H  9.10100 2.96300 43.40300
H  8.47400 3.01100 45.02800
H  7.57100 3.69000 43.67800
Mg 7.93400 2.99800 27.72900
C  9.60500 1.67000 30.53900
C  6.01100 4.90400 29.68200
C  6.05400 3.62600 24.96700
C  9.43800 0.34700 25.79000
N  7.95400 3.27400 29.85100
C  8.62300 2.60200 30.86300
C  8.28000 3.11300 32.22400
C  7.11700 4.12700 31.91200
C  6.98800 4.14200 30.37000
C  5.84900 3.73300 32.67900
C  9.53600 3.61400 32.99500
C  9.10500 4.58600 34.18500
H  9.74200 4.13900 35.45100
N  6.36800 4.22300 27.32400
C  5.69300 4.96400 28.26900
C  4.86200 5.88500 27.62300
C  4.81800 5.50400 26.25200
C  5.80700 4.43500 26.10000
C  4.21400 7.00300 28.36900
C  3.88700 6.00000 25.20500
O  3.88200 5.63000 24.03900
C  2.89400 7.14000 25.57700
N  7.90100 2.18000 25.60100
C  6.97700 2.60100 24.71000
C  7.09000 1.91500 23.40100
C  8.29900 0.86000 23.67100
C  8.58600 1.17900 25.11500
C  5.76400 1.22400 22.96000
C  9.58400 1.07300 22.78900
C  9.98600 -0.19500 21.92900
N  9.36100 1.52900 27.96700
C  9.84100 0.52500 27.11700
C  10.60300 -0.42900 27.87800
C  10.63300 0.08900 29.15300
C  9.79600 1.25000 29.18200
C  11.31400 -1.68100 27.38800
C  11.17400 -0.16900 30.39700
O  11.92500 -1.07400 30.78800
C  10.56000 0.88700 31.39800
C  9.86500 0.12500 32.52500
O  8.76100 -0.38800 32.41600
O  10.55600 0.18900 33.64200
C  10.23300 -0.69700 34.81200
H  5.50300 5.53500 30.41500
H  5.40700 3.90600 24.13300
H  9.85100 -0.53800 25.30200
H  7.96000 2.22500 32.76900
H  7.51000 5.11400 32.15300
H  5.81700 4.26000 33.63300
H  5.79400 2.66800 32.90500
H  4.99300 4.07900 32.10100
H  10.25800 4.01200 32.28200
H  9.96800 2.77200 33.53400
H  8.02300 4.63200 34.30600
H  9.59200 5.53800 33.97400
H  4.52500 7.10600 29.40900
H  3.14100 6.81300 28.33600
H  4.45800 7.94300 27.87500
H  2.26700 7.47500 24.75000
H  3.48500 7.99400 25.90700
H  2.25400 6.85900 26.41300
H  7.37800 2.61300 22.61400
H  7.98600 -0.18300 23.63500
H  4.98200 1.41700 23.69500
H  5.79900 0.15800 22.73400
H  5.43700 1.76600 22.07300
H  10.44000 1.21200 23.45000
H  9.46200 1.89400 22.08300
H  10.96900 -0.60400 22.16100
H  10.00600 -0.00400 20.85600
H  9.25700 -0.97700 22.13900
H  10.59100 -2.41900 27.04200
H  11.84900 -2.23600 28.15900
H  11.82100 -1.48300 26.44400
H  11.30500 1.54000 31.85400
H  9.71700 -1.63000 34.58700
H  9.50700 -0.09700 35.36100
H  11.13500 -0.91900 35.38300

