158

Mg -2.38000 17.15800 26.24700
C  -2.75400 15.12900 29.15900
C  -2.72500 19.88300 28.15100
C  -2.70500 19.16300 23.39500
C  -2.51600 14.28000 24.24600
N  -2.65700 17.41300 28.37900
C  -2.70400 16.52200 29.42000
C  -2.89400 17.18600 30.80800
C  -2.85800 18.68600 30.35600
C  -2.69100 18.67700 28.87100
C  -4.05600 19.46600 31.02200
C  -1.87700 16.77700 31.89600
C  -1.74800 17.85900 32.97100
H  -1.26200 17.27000 34.31100
N  -2.55900 19.29500 25.90100
C  -2.71700 20.21700 26.84100
C  -2.79900 21.55700 26.27000
C  -2.75800 21.37200 24.88800
C  -2.64700 19.89500 24.67400
C  -2.83300 22.77200 27.09200
C  -2.80500 22.39500 23.74600
O  -2.67800 21.96300 22.55300
C  -2.90100 23.88300 23.96600
N  -2.67700 16.75200 24.14400
C  -2.65300 17.77400 23.17400
C  -2.59200 17.12800 21.70100
C  -2.43700 15.61000 22.05000
C  -2.54000 15.51000 23.58800
C  -3.71800 17.48200 20.73500
C  -1.11200 14.92500 21.45100
C  -1.26000 14.01800 20.22100
N  -2.48100 15.06500 26.57200
C  -2.58600 14.03700 25.67000
C  -2.68200 12.81000 26.43300
C  -2.85600 13.18300 27.76500
C  -2.65800 14.58400 27.82900
C  -2.73400 11.38300 25.83500
C  -3.03700 12.74200 29.17700
O  -3.02800 11.62100 29.64000
C  -2.99300 13.99600 30.08400
C  -1.89800 13.75700 31.03600
O  -0.75700 14.12000 30.83100
O  -2.32000 13.16100 32.17300
C  -1.37500 13.01000 33.26000
H  -2.79600 20.75600 28.80200
H  -2.95600 19.72700 22.49400
H  -2.48200 13.37600 23.63500
H  -3.94900 16.99400 31.00700
H  -1.94800 19.17400 30.70600
H  -4.56800 20.18600 30.38300
H  -3.68200 20.04400 31.86700
H  -4.82600 18.84100 31.47400
H  -0.94900 16.49500 31.39800
H  -2.30200 15.92700 32.42900
H  -2.65100 18.45800 33.08900
H  -0.95400 18.46000 32.52700
H  -2.14900 22.58700 27.92100
H  -3.82400 22.85800 27.53900
H  -2.49400 23.63600 26.52100
H  -3.66700 23.98900 24.73400
H  -3.05600 24.42400 23.03300
H  -1.99900 24.33700 24.37700
H  -1.68600 17.46000 21.19300
H  -3.37400 15.09500 21.83800
H  -4.10200 16.61100 20.20500
H  -3.47300 18.24100 19.99200
H  -4.55900 17.90400 21.28600
H  -0.94100 14.15800 22.20700
H  -0.34100 15.66700 21.24400
H  -1.10000 14.64800 19.34600
H  -2.25600 13.57600 20.19800
H  -0.43700 13.30400 20.20900
H  -1.77300 10.91600 26.04900
H  -2.91900 11.36200 24.76100
H  -3.63100 11.01000 26.32900
H  -3.91800 14.13400 30.64400
H  -1.55300 12.00500 33.64400
H  -1.53100 13.71300 34.07900
H  -0.35800 13.01800 32.87000
Mg 8.63700 3.49400 27.78700
C  10.18500 2.06200 30.68800
C  6.83500 5.52000 29.75500
C  6.92200 4.52100 25.02000
C  10.02400 0.92600 25.82300
N  8.53300 3.65700 30.04000
C  9.22100 3.02100 31.00100
C  8.92300 3.64100 32.38700
C  7.84100 4.73600 32.02200
C  7.72700 4.62800 30.51800
C  6.46900 4.67400 32.78300
C  10.21900 4.22900 33.12000
C  9.98000 4.90600 34.51500
H  10.91400 4.48700 35.59800
N  7.14700 4.77500 27.44700
C  6.59400 5.60600 28.41500
C  5.64300 6.53300 27.81600
C  5.75900 6.33300 26.42500
C  6.59300 5.17400 26.19800
C  4.65800 7.38900 28.60500
C  5.02400 7.03700 25.25900
O  5.16000 6.74100 24.10100
C  4.08100 8.25200 25.41700
N  8.54200 2.86600 25.68600
C  7.84400 3.47700 24.73000
C  7.90500 2.68200 23.37100
C  9.11000 1.72100 23.56700
C  9.30600 1.87500 25.05600
C  6.61400 2.10400 22.99700
C  10.38500 2.16700 22.71200
C  11.34300 1.10800 22.17200
N  9.77200 1.76300 28.13000
C  10.27200 0.87900 27.25500
C  11.10800 -0.06700 27.93600
C  11.13800 0.41000 29.26000
C  10.33800 1.51000 29.35500
C  11.78600 -1.29400 27.30900
C  11.68600 0.18500 30.63300
O  12.42600 -0.69000 31.01900
C  11.05500 1.21700 31.57700
C  10.22500 0.41700 32.52600
O  9.38600 -0.47500 32.34300
O  10.63100 0.84000 33.83400
C  10.01000 0.03600 34.86700
H  6.28500 6.27800 30.31700
H  6.42500 4.83000 24.09800
H  10.47000 0.08800 25.28400
H  8.37500 2.85800 32.91200
H  8.12400 5.77700 32.18300
H  6.16800 5.67500 33.09200
H  6.67300 4.05600 33.65800
H  5.68000 4.26300 32.15400
H  10.71900 4.92000 32.44100
H  10.99800 3.46900 33.18700
H  8.93300 4.79600 34.80000
H  10.08900 5.97400 34.32500
H  3.71800 7.39800 28.05400
H  4.95200 8.43600 28.68600
H  4.40600 7.05500 29.61100
H  4.66200 8.99000 25.97000
H  3.24200 7.96400 26.05000
H  3.82500 8.78300 24.49900
H  8.20400 3.40300 22.61000
H  8.76900 0.73400 23.25500
H  5.79600 2.37900 23.66200
H  6.65400 1.01700 23.06800
H  6.28300 2.41900 22.00700
H  10.95200 2.90000 23.28500
H  9.96900 2.63000 21.81700
H  10.92700 0.16400 22.52400
H  12.29700 1.32200 22.65500
H  11.35600 0.99800 21.08800
H  11.00100 -2.00100 27.03900
H  12.56200 -1.78800 27.89300
H  12.14700 -0.88300 26.36700
H  11.84700 1.86500 31.95200
H  9.22400 0.75000 35.11300
H  10.72500 -0.21300 35.65100
H  9.54500 -0.90800 34.58100

