158

Mg -12.46300 38.48800 41.30500
C  -10.35900 35.74600 40.35500
C  -10.17900 40.56600 39.68100
C  -14.69700 40.87800 41.32500
C  -14.81900 36.05600 42.31400
N  -10.42600 38.19700 40.31700
C  -9.73600 36.99700 40.07800
C  -8.47200 37.18700 39.34000
C  -8.31000 38.73000 39.27100
C  -9.73800 39.23600 39.81700
C  -7.15200 39.39600 40.03200
C  -8.42100 36.44400 37.95700
C  -7.22200 35.47900 37.74700
H  -6.29600 35.82800 36.52700
N  -12.47000 40.57200 40.75700
C  -11.42100 41.21100 40.05600
C  -11.75700 42.64900 39.99700
C  -13.07100 42.75300 40.37600
C  -13.49300 41.36600 40.89800
C  -10.86700 43.63500 39.22100
C  -13.93100 43.95200 40.22300
O  -13.36900 45.01800 39.87600
C  -15.34700 43.88200 40.31100
N  -14.37100 38.43500 41.72200
C  -15.15900 39.59600 41.59200
C  -16.64400 39.41100 42.02200
C  -16.69900 37.81400 42.26800
C  -15.23600 37.37700 42.13600
C  -17.15800 40.32800 43.11600
C  -17.68900 37.07500 41.35400
C  -18.84400 36.13400 41.97100
N  -12.66100 36.34700 41.31100
C  -13.55500 35.52500 41.95300
C  -13.08600 34.12600 41.87100
C  -11.88200 34.20000 41.19000
C  -11.59200 35.56000 40.94900
C  -13.71000 32.95600 42.56500
C  -10.78000 33.45100 40.76000
O  -10.71400 32.18800 40.80000
C  -9.73200 34.38400 40.23300
C  -8.50600 34.16600 41.03200
O  -7.62300 33.47900 40.61400
O  -8.43200 34.88600 42.19900
C  -7.13700 34.86600 42.84200
H  -9.54700 41.09200 38.96200
H  -15.41000 41.70200 41.40900
H  -15.44700 35.26400 42.72600
H  -7.65800 36.90400 40.00800
H  -8.29500 39.03000 38.22300
H  -6.49600 38.69600 40.55100
H  -7.63600 40.01700 40.78600
H  -6.60400 39.94500 39.26700
H  -8.43300 37.16500 37.14000
H  -9.30500 35.82900 37.78400
H  -7.49800 34.46600 37.45200
H  -6.56800 35.46800 38.61900
H  -10.61800 44.42300 39.93100
H  -11.35700 44.05600 38.34300
H  -9.89500 43.22400 38.94900
H  -15.48100 44.10400 41.37000
H  -15.84000 43.02000 39.86100
H  -15.76400 44.76600 39.82900
H  -17.11300 39.62100 41.06100
H  -16.87300 37.61100 43.32500
H  -16.51700 41.05900 43.60900
H  -17.51800 39.75100 43.96700
H  -18.12300 40.69900 42.77000
H  -17.02100 36.45400 40.75700
H  -18.14300 37.86800 40.76000
H  -19.80800 36.54100 41.66700
H  -18.75500 36.14800 43.05700
H  -18.64200 35.16100 41.52300
H  -14.61400 32.50300 42.15900
H  -14.00800 33.31500 43.55000
H  -12.96800 32.18300 42.76500
H  -9.63100 34.06800 39.19500
H  -6.40500 35.48600 42.32400
H  -6.83300 33.86300 43.14200
H  -7.35100 35.49400 43.70700
Mg -1.90200 34.96600 26.86800
C  -3.74600 33.10900 29.11700
C  -1.30500 37.19300 29.51100
C  -0.08300 36.86300 24.78100
C  -3.05100 33.03600 24.23500
N  -2.48900 35.14100 29.08600
C  -3.08400 34.12600 29.72100
C  -3.17100 34.44700 31.19800
C  -2.56400 35.90400 31.41100
C  -2.11500 36.13700 29.97600
C  -3.54200 37.05000 31.81300
C  -2.36000 33.32600 31.99600
C  -3.10300 32.75700 33.16800
H  -2.32200 32.62600 34.48500
N  -0.93500 36.86500 27.13000
C  -0.69400 37.53700 28.30200
C  0.31600 38.61400 28.09000
C  0.62400 38.64900 26.67500
C  -0.14900 37.45900 26.14200
C  0.86200 39.62100 29.18700
C  1.59200 39.49200 25.97600
O  1.86100 39.30200 24.82700
C  2.11000 40.71000 26.59500
N  -1.77800 35.08900 24.70900
C  -0.79500 35.85700 24.14300
C  -0.48000 35.53600 22.65100
C  -1.39900 34.23300 22.53700
C  -2.26800 34.16800 23.84700
C  -0.84000 36.73800 21.73200
C  -0.60300 32.96900 22.34500
C  0.16400 32.31300 23.51200
N  -3.19800 33.37400 26.66700
C  -3.54500 32.68900 25.51600
C  -4.51500 31.68800 25.82100
C  -4.61700 31.82900 27.19900
C  -3.70900 32.81500 27.67600
C  -5.26100 30.75500 24.86100
C  -5.28400 31.27800 28.36700
O  -6.20200 30.48300 28.48200
C  -4.64600 31.95600 29.69600
C  -5.79600 32.49600 30.53800
O  -6.71700 33.18800 30.10600
O  -5.64700 32.02100 31.79500
C  -6.75500 32.35500 32.72200
H  -0.88600 37.87500 30.25300
H  0.70600 37.45000 24.30500
H  -3.28700 32.49200 23.31800
H  -4.23900 34.44900 31.41800
H  -1.73000 35.89400 32.11300
H  -4.45000 36.58300 32.19400
H  -3.79000 37.78100 31.04400
H  -2.99300 37.50600 32.63700
H  -1.37300 33.74700 32.18800
H  -2.03300 32.56100 31.29200
H  -3.30300 31.75100 32.79800
H  -3.97100 33.38400 33.37300
H  1.94900 39.55500 29.21800
H  0.54200 39.36400 30.19700
H  0.51000 40.63700 29.01100
H  2.88900 40.47500 27.32000
H  1.28100 41.27500 27.02100
H  2.60300 41.33100 25.84700
H  0.56500 35.25500 22.52300
H  -2.16800 34.24600 21.76500
H  -0.86200 37.64800 22.33300
H  -1.74100 36.57300 21.14000
H  -0.03800 36.92300 21.01800
H  0.14600 33.11200 21.56600
H  -1.14100 32.16800 21.83800
H  -0.27600 32.66100 24.44600
H  1.21000 32.61400 23.45200
H  0.14500 31.22400 23.55900
H  -4.79000 30.66100 23.88300
H  -6.23400 31.22100 24.70600
H  -5.31900 29.79100 25.36600
H  -4.02000 31.25000 30.24200
H  -7.05600 33.39900 32.63200
H  -6.42100 32.30500 33.75800
H  -7.57100 31.65000 32.56000

