158

Mg -1.38000 16.93800 26.45300
C  -1.88100 14.67300 29.19600
C  -2.08500 19.47400 28.70000
C  -1.41000 19.06200 23.90600
C  -1.79800 14.19300 24.28000
N  -1.77600 17.04500 28.66700
C  -1.80100 16.05000 29.59100
C  -2.05800 16.57500 31.09400
C  -2.40000 18.08900 30.84300
C  -2.07400 18.18800 29.34700
C  -3.92300 18.34100 31.11000
C  -0.76800 16.34500 31.95000
C  -0.46200 17.38300 33.04200
H  0.10600 16.73800 34.27400
N  -1.54200 18.96500 26.32500
C  -1.78900 19.87200 27.37200
C  -1.69300 21.22000 26.88700
C  -1.25400 21.09900 25.50300
C  -1.30700 19.65700 25.18800
C  -1.98200 22.44500 27.79100
C  -0.96400 22.16300 24.47800
O  -0.42500 21.88200 23.40000
C  -1.20900 23.59600 24.95500
N  -1.46300 16.62000 24.39200
C  -1.45800 17.74600 23.56900
C  -1.67500 17.24800 22.09500
C  -1.43600 15.71900 22.28800
C  -1.56000 15.47100 23.71400
C  -3.15400 17.55300 21.61600
C  -0.02200 15.32500 21.69100
C  0.05300 13.89000 21.09900
N  -1.75600 14.87100 26.57100
C  -1.90500 13.88800 25.65900
C  -2.25200 12.61500 26.30100
C  -2.17800 12.89500 27.64300
C  -1.87500 14.26400 27.82100
C  -2.49900 11.33100 25.60000
C  -2.47300 12.34400 28.96200
O  -2.76600 11.19200 29.26800
C  -2.29500 13.52600 30.05600
C  -1.31000 13.21200 31.03800
O  -0.11300 13.10500 30.87200
O  -1.88700 12.93600 32.28100
C  -0.95200 12.36000 33.27700
H  -2.14400 20.23800 29.47800
H  -1.47300 19.72400 23.03900
H  -1.95400 13.38300 23.56600
H  -2.87000 16.06600 31.61300
H  -1.67200 18.71200 31.36300
H  -4.58500 18.08500 30.28300
H  -4.03000 19.42300 31.19200
H  -4.30800 17.78700 31.96600
H  0.07300 16.23200 31.26600
H  -1.02600 15.39600 32.42100
H  -1.42000 17.82300 33.31900
H  0.23900 18.14100 32.69400
H  -2.30900 22.12800 28.78100
H  -2.68300 23.13200 27.31800
H  -0.98800 22.87400 27.92300
H  -1.44000 24.22100 24.09300
H  -0.27800 23.92600 25.41700
H  -1.99900 23.80300 25.67700
H  -0.89600 17.71700 21.49300
H  -2.20600 15.20900 21.70900
H  -3.63700 16.75100 21.05900
H  -3.03800 18.46600 21.03200
H  -3.86100 17.74500 22.42300
H  0.69200 15.31400 22.51400
H  0.27600 16.03900 20.92200
H  0.28500 13.96000 20.03700
H  -0.79500 13.23000 21.27900
H  0.88300 13.41700 21.62400
H  -2.67000 11.40300 24.52600
H  -3.35400 10.96900 26.16900
H  -1.69800 10.61000 25.76200
H  -3.23300 13.81300 30.53000
H  -0.77800 13.15100 34.00700
H  0.02500 11.95900 33.00600
H  -1.57800 11.63800 33.80200
Mg 2.34600 -2.34300 45.16700
C  5.65900 -1.62000 44.57900
C  1.43900 -0.21200 42.65300
C  -0.86800 -3.68800 45.37500
C  3.49000 -5.22000 47.04400
N  3.47400 -1.12900 43.71200
C  4.81100 -0.83700 43.77500
C  5.24400 0.19300 42.74800
C  3.84200 0.80400 42.31900
C  2.83600 -0.29700 42.83300
C  3.47400 2.13200 43.08400
C  6.07400 -0.41300 41.59800
C  7.29000 0.39800 41.09200
H  7.48000 0.56500 39.58900
N  0.50500 -1.87700 44.23200
C  0.35400 -1.01400 43.18700
C  -1.11300 -0.85600 42.91700
C  -1.76800 -1.76000 43.83100
C  -0.69700 -2.51600 44.54400
C  -1.59100 0.01700 41.78300
C  -3.21900 -1.87700 43.93000
O  -3.97100 -1.20000 43.26400
C  -3.88100 -2.65700 45.04000
N  1.42800 -4.10700 46.16500
C  0.12900 -4.42200 46.04600
C  -0.19100 -5.77400 46.79200
C  1.15500 -6.19800 47.33600
C  2.08900 -5.10300 46.88900
C  -1.36600 -5.72300 47.87500
C  1.50700 -7.64900 46.90000
C  2.62800 -8.44400 47.66900
N  4.20400 -3.20200 45.83600
C  4.52600 -4.35600 46.61800
C  5.95700 -4.41400 46.75600
C  6.40500 -3.28000 46.08700
C  5.29300 -2.64000 45.45500
C  6.68700 -5.49300 47.61600
C  7.58700 -2.54100 45.71000
O  8.76300 -2.75600 46.03100
C  7.13200 -1.42600 44.73200
C  7.44600 -0.14900 45.41300
O  6.88400 0.32700 46.35700
O  8.45300 0.47800 44.71400
C  8.56600 1.91200 45.21100
H  1.27800 0.47400 41.81900
H  -1.82000 -4.21400 45.28200
H  3.78100 -6.16500 47.50700
H  5.81700 0.96700 43.26000
H  3.70400 0.86000 41.23900
H  2.52100 2.09700 43.61300
H  3.37800 2.86800 42.28500
H  4.19800 2.36000 43.86600
H  5.37700 -0.50900 40.76600
H  6.41400 -1.41600 41.85800
H  8.20800 -0.03500 41.49100
H  7.25300 1.35900 41.60400
H  -1.91800 -0.59700 40.94400
H  -0.75400 0.64800 41.48400
H  -2.41200 0.63200 42.15200
H  -3.82400 -3.69700 44.72100
H  -4.92100 -2.33500 45.10900
H  -3.31700 -2.47200 45.95400
H  -0.50800 -6.53700 46.08200
H  1.01000 -6.23000 48.41500
H  -1.83000 -4.74900 47.71900
H  -0.92000 -5.79000 48.86700
H  -2.13900 -6.46800 47.69100
H  1.82200 -7.65500 45.85700
H  0.66000 -8.33300 46.95900
H  2.93900 -7.85800 48.53300
H  3.50000 -8.61300 47.03800
H  2.17300 -9.40100 47.92800
H  7.74700 -5.47400 47.36000
H  6.22900 -6.43200 47.30400
H  6.50700 -5.14900 48.63400
H  7.62000 -1.48700 43.76000
H  9.20900 2.43100 44.50000
H  9.06300 1.93400 46.18100
H  7.64400 2.49200 45.21900

