158

Mg 0.29200 7.99700 25.46300
C  0.86800 9.76100 28.45000
C  0.13500 5.11800 27.42200
C  -0.12100 6.22500 22.68200
C  0.82800 10.87100 23.60100
N  0.39200 7.51300 27.68000
C  0.48500 8.43700 28.67800
C  0.43900 7.83100 30.03200
C  0.36600 6.26200 29.75200
C  0.27100 6.26500 28.24500
C  1.46900 5.28800 30.37400
C  -0.70300 8.41500 30.86300
C  -0.53500 8.17400 32.40700
H  -0.53400 6.66100 32.80400
N  0.04200 5.97500 25.07600
C  0.07400 4.94800 25.99100
C  0.03600 3.61900 25.25400
C  -0.02800 3.97300 23.84000
C  -0.00600 5.48300 23.84300
C  0.27300 2.24000 25.90100
C  -0.10400 3.03000 22.61600
O  -0.05400 3.45800 21.44900
C  -0.12900 1.55300 22.82900
N  0.34300 8.49700 23.40200
C  0.06600 7.57200 22.45700
C  -0.10200 8.22700 21.06600
C  0.03500 9.79400 21.45700
C  0.46700 9.71600 22.88500
C  0.93300 7.75100 19.95100
C  -1.24100 10.67500 21.23400
C  -2.18500 10.98800 22.41200
N  0.81100 9.86300 25.86600
C  1.00000 10.94800 25.01700
C  1.42800 12.02200 25.75800
C  1.43200 11.66900 27.13900
C  0.99700 10.27000 27.12800
C  1.64300 13.51800 25.23600
C  1.64200 12.14100 28.54000
O  2.14600 13.16500 28.92600
C  1.14100 10.88400 29.42200
C  2.22400 10.46800 30.32400
O  3.24600 9.89600 30.03500
O  1.89200 10.89900 31.59500
C  2.86600 10.49400 32.64500
H  0.25000 4.26300 28.09200
H  -0.19600 5.71000 21.72100
H  0.97600 11.74500 22.96300
H  1.41000 7.98500 30.50200
H  -0.59700 5.82400 30.01300
H  1.01400 4.52900 31.01000
H  2.14100 5.87700 30.99900
H  2.04900 4.87400 29.54900
H  -1.60000 7.84600 30.62100
H  -0.75200 9.50000 30.77100
H  -1.26400 8.73500 32.99200
H  0.32100 8.68200 32.85200
H  -0.69200 1.78900 25.66800
H  0.36700 2.27000 26.98700
H  1.14700 1.70200 25.53300
H  -1.09400 1.43500 23.32200
H  0.74000 1.25800 23.41600
H  -0.04900 1.07800 21.85200
H  -1.09100 7.94600 20.70400
H  0.87600 10.25000 20.93500
H  1.21900 8.57900 19.30200
H  0.56700 6.93600 19.32600
H  1.79100 7.28300 20.43400
H  -1.81800 10.18300 20.45100
H  -0.89200 11.62500 20.83000
H  -1.72600 10.58900 23.31700
H  -3.06200 10.37800 22.19600
H  -2.42700 12.03500 22.59800
H  1.13500 13.64900 24.28100
H  2.68100 13.81400 25.38700
H  1.18900 14.21700 25.93800
H  0.24500 11.17100 29.97300
H  3.50100 11.25500 33.10000
H  3.50700 9.63700 32.43500
H  2.23900 10.23200 33.49700
Mg 47.72200 16.63700 29.31900
C  45.87200 16.36300 32.28200
C  49.96300 18.51900 31.02600
C  49.34000 17.28500 26.43000
C  45.04100 15.32900 27.49400
N  47.81700 17.50000 31.37900
C  47.00300 17.13100 32.38100
C  47.58700 17.66400 33.73700
C  48.77700 18.59300 33.29600
C  48.86100 18.26600 31.81300
C  48.60700 20.09100 33.49300
C  48.05700 16.42100 34.65800
C  47.87800 16.73200 36.14300
H  47.53800 18.17300 36.57300
N  49.49500 17.58700 28.85400
C  50.28600 18.27400 29.70800
C  51.57100 18.64700 29.05900
C  51.44900 18.21300 27.67100
C  50.04500 17.67300 27.56700
C  52.79600 19.26900 29.77500
C  52.42200 18.28200 26.51600
O  52.04100 18.08400 25.36500
C  53.87400 18.59700 26.76600
N  47.23400 16.28000 27.23500
C  48.07900 16.67100 26.19900
C  47.37100 16.51500 24.84800
C  46.05800 15.69700 25.25100
C  46.09000 15.82200 26.73900
C  46.94700 17.84100 24.10000
C  45.98700 14.25600 24.64800
C  45.27400 14.00100 23.29300
N  45.81000 16.02700 29.69000
C  44.81500 15.47800 28.88000
C  43.74500 14.94300 29.67900
C  44.13500 15.21000 31.10500
C  45.39200 15.95300 30.98300
C  42.56800 14.14900 29.14900
C  43.73500 15.12000 32.48200
O  42.73100 14.73000 33.01600
C  44.80300 15.86100 33.30100
C  44.12900 16.91000 34.10000
O  43.72400 18.03300 33.70200
O  44.05900 16.50400 35.39900
C  43.01500 17.27000 36.10800
H  50.74300 19.09500 31.52700
H  49.81500 17.48900 25.46800
H  44.24100 15.05000 26.80500
H  46.69600 18.15700 34.12800
H  49.68200 18.28000 33.81700
H  47.90600 20.14700 34.32600
H  48.18100 20.58600 32.62000
H  49.53500 20.62200 33.70200
H  49.11000 16.23900 34.44300
H  47.43900 15.57200 34.36500
H  48.85600 16.48700 36.55700
H  47.18900 15.96200 36.49300
H  52.51000 19.59700 30.77400
H  53.25200 20.02300 29.13300
H  53.48800 18.44200 29.93300
H  54.09500 18.09400 27.70700
H  54.06400 19.65800 26.92800
H  54.41900 18.20200 25.90800
H  47.98300 16.01400 24.09800
H  45.17900 16.24000 24.90400
H  47.13500 18.66600 24.78700
H  45.94500 17.84100 23.67000
H  47.58700 17.95900 23.22600
H  45.34400 13.76400 25.37900
H  47.01100 13.88700 24.60800
H  45.94800 13.40700 22.67600
H  45.09500 14.93300 22.75600
H  44.25600 13.63600 23.43000
H  42.77100 13.62600 28.21500
H  41.86900 14.97800 29.04200
H  42.14100 13.42500 29.84400
H  45.21400 15.15800 34.02600
H  43.33000 18.23000 36.51500
H  42.80700 16.70900 37.01900
H  42.09600 17.18100 35.52900

