158

Mg 23.74000 -5.80300 45.43100
C  26.09400 -3.58800 43.79500
C  21.43600 -4.57100 43.21600
C  21.91500 -8.49800 46.07900
C  26.45800 -7.24000 47.09100
N  23.80400 -4.23700 43.75700
C  24.86500 -3.50200 43.21200
C  24.39500 -2.64600 41.99300
C  22.82600 -2.62000 42.24800
C  22.64600 -3.94500 43.09300
C  22.30100 -1.34400 42.96500
C  24.88000 -3.18700 40.61100
C  25.53200 -2.30200 39.43800
H  24.94200 -2.37200 38.03800
N  21.87700 -6.43600 44.76500
C  21.00700 -5.75500 43.88100
C  19.70500 -6.42900 43.91500
C  19.83900 -7.64400 44.68400
C  21.26400 -7.57500 45.18200
C  18.57500 -5.82100 43.15900
C  18.80600 -8.74300 44.87500
O  17.64600 -8.47300 44.49400
C  18.94400 -9.98200 45.75300
N  24.11500 -7.71400 46.45500
C  23.19300 -8.59800 46.64500
C  23.67300 -9.82500 47.55100
C  25.12700 -9.26100 47.95400
C  25.28000 -8.00000 47.14500
C  22.67000 -10.15300 48.79600
C  26.26600 -10.30500 47.72300
C  27.16800 -10.61800 48.95200
N  25.80100 -5.42000 45.62800
C  26.72700 -6.09200 46.34300
C  27.99400 -5.42400 46.13300
C  27.85000 -4.49600 45.19500
C  26.48600 -4.52000 44.86300
C  29.32300 -5.86500 46.71000
C  28.51600 -3.49600 44.34900
O  29.77600 -3.35400 44.18200
C  27.36500 -2.80600 43.50000
C  27.33200 -1.39200 43.97500
O  26.54300 -0.90400 44.75300
O  28.19300 -0.58600 43.24800
C  27.70400 0.82600 43.11200
H  20.62100 -4.23300 42.57300
H  21.36300 -9.41100 46.31000
H  27.23800 -7.84100 47.56300
H  24.84300 -1.66200 42.12600
H  22.30300 -2.77200 41.30400
H  21.38000 -0.94100 42.54500
H  23.04700 -0.56900 43.14100
H  22.05700 -1.54600 44.00800
H  23.97200 -3.53800 40.12000
H  25.45600 -4.09100 40.80700
H  26.59100 -2.56100 39.40900
H  25.54000 -1.26200 39.76300
H  18.40600 -6.09600 42.11800
H  18.71000 -4.74600 43.27900
H  17.61900 -6.00700 43.64800
H  18.03200 -10.57000 45.85000
H  19.24300 -9.54500 46.70600
H  19.74400 -10.61600 45.37100
H  23.59800 -10.72000 46.93300
H  25.02400 -8.93800 48.99000
H  22.00500 -9.30200 48.94600
H  23.11700 -10.12500 49.79000
H  22.10300 -11.08000 48.71800
H  26.98400 -9.90400 47.00800
H  25.82200 -11.25300 47.42100
H  28.19800 -10.56900 48.59900
H  26.99800 -11.64000 49.29000
H  26.90700 -9.97200 49.79000
H  29.87300 -6.59800 46.12100
H  29.08600 -6.29700 47.68200
H  29.88900 -4.93400 46.76300
H  27.63400 -2.80300 42.44300
H  26.62400 0.81500 42.96400
H  28.03500 1.21800 42.15000
H  28.01500 1.40600 43.98000
Mg 16.18800 52.20600 26.29800
C  18.19300 51.37800 29.09300
C  13.65600 52.93000 28.57300
C  14.52300 53.28000 23.78900
C  18.79400 51.08800 24.25500
N  16.01800 52.29600 28.63200
C  16.91700 51.79300 29.49900
C  16.32600 51.93100 30.99700
C  14.75200 52.17600 30.73100
C  14.74000 52.46900 29.24300
C  13.88200 50.95800 31.17100
C  16.95200 53.23300 31.62000
C  17.53900 52.99500 33.09600
H  16.60600 52.26200 34.12700
N  14.31300 52.99300 26.13500
C  13.44500 53.23000 27.13900
C  12.28800 53.85400 26.59400
C  12.54500 54.06000 25.24400
C  13.84200 53.47700 24.99400
C  11.13500 54.45800 27.46100
C  11.75700 54.86600 24.16000
O  12.07200 54.93000 22.98300
C  10.45300 55.38600 24.50600
N  16.66200 52.12900 24.30200
C  15.76700 52.70600 23.40500
C  16.29300 52.63200 21.95500
C  17.72300 52.10100 22.20000
C  17.74200 51.74900 23.72100
C  15.33700 51.80300 20.88500
C  18.88100 53.12000 21.83900
C  20.22300 52.50000 21.47300
N  18.05500 51.29900 26.54900
C  18.98100 50.95200 25.61800
C  20.16800 50.47900 26.31200
C  19.87200 50.64500 27.66000
C  18.61300 51.20100 27.76000
C  21.29600 49.87000 25.70800
C  20.41700 50.50500 29.05100
O  21.49500 50.07400 29.48200
C  19.35100 51.01700 29.99800
C  18.98400 49.81300 30.83200
O  18.28000 48.86900 30.45200
O  19.37800 50.07100 32.10500
C  18.67400 49.20100 33.02900
H  12.75400 53.18000 29.13600
H  14.03000 53.66900 22.89500
H  19.55300 50.79300 23.52700
H  16.50100 50.98800 31.51500
H  14.34300 53.09500 31.14900
H  13.08200 50.73100 30.46700
H  13.40100 51.20900 32.11600
H  14.45400 50.03600 31.28000
H  16.21500 54.03200 31.69900
H  17.77800 53.64400 31.03900
H  17.85400 53.94700 33.52300
H  18.44900 52.39800 33.03700
H  11.14100 54.12400 28.49900
H  10.20800 54.11800 26.99900
H  11.18600 55.54400 27.53500
H  9.78400 55.65600 23.68800
H  10.50700 56.23500 25.18800
H  9.97900 54.51000 24.94700
H  16.30200 53.63100 21.51800
H  17.86100 51.21000 21.58800
H  14.64400 51.17200 21.44100
H  15.93000 51.31900 20.10900
H  14.71200 52.58500 20.45300
H  19.15200 53.79400 22.65000
H  18.58900 53.79400 21.03400
H  20.09800 51.56500 20.92600
H  20.77400 52.30900 22.39400
H  20.79900 53.17800 20.84400
H  21.02500 49.07200 25.01600
H  21.92900 49.44600 26.48800
H  21.86200 50.58200 25.10800
H  19.65700 51.80800 30.68300
H  18.89800 49.76100 33.93600
H  19.04300 48.18700 33.18400
H  17.62700 49.15300 32.72700

