158

Mg 9.71100 48.28100 25.80500
C  7.38700 48.54900 28.48000
C  12.23300 49.29000 27.84400
C  11.70800 48.11400 23.16600
C  6.95500 47.54000 23.69400
N  9.76800 48.83400 27.89800
C  8.77200 48.78100 28.85900
C  9.16700 49.16000 30.22100
C  10.64000 49.71200 29.90600
C  10.92600 49.22300 28.45400
C  10.99800 51.17300 30.25300
C  9.15800 47.92700 31.24700
C  8.67600 48.18400 32.68400
H  8.59900 47.04400 33.69100
N  11.68700 48.59400 25.56200
C  12.58100 48.97500 26.52900
C  13.94400 48.89200 26.01800
C  13.79800 48.59600 24.62500
C  12.33600 48.43100 24.37100
C  15.21600 49.16300 26.84100
C  14.94800 48.31900 23.58000
O  14.69200 48.06300 22.44800
C  16.40900 48.17900 24.09000
N  9.35400 48.00600 23.75300
C  10.34900 48.00500 22.88300
C  9.98500 47.48800 21.48500
C  8.44300 47.27800 21.72800
C  8.22900 47.65300 23.14600
C  10.31500 48.45400 20.29100
C  8.01600 45.76100 21.44300
C  8.67100 44.74000 22.40000
N  7.56700 48.05700 25.97200
C  6.58100 47.75600 25.05600
C  5.25000 47.71400 25.65700
C  5.59500 47.96900 27.00500
C  6.95600 48.21300 27.13700
C  3.95800 47.33200 25.09000
C  4.98400 48.00800 28.29300
O  3.81200 47.89700 28.67600
C  6.09900 48.43800 29.31200
C  6.10500 47.37900 30.34500
O  6.51300 46.24400 30.09000
O  5.48000 47.76800 31.50500
C  5.08400 46.65900 32.38700
H  12.93900 49.72300 28.55600
H  12.37600 47.82300 22.35200
H  6.23000 47.07200 23.02500
H  8.66700 49.97500 30.74400
H  11.35900 49.13800 30.49000
H  11.65300 51.25300 31.12100
H  10.07300 51.68200 30.52200
H  11.35500 51.67700 29.35500
H  10.17400 47.72200 31.58600
H  8.68500 46.97900 30.99300
H  7.76300 48.77900 32.65400
H  9.37200 48.91000 33.10300
H  14.92100 49.46500 27.84600
H  15.83000 49.93700 26.38000
H  15.80600 48.24700 26.86700
H  16.46500 47.58500 25.00200
H  16.72900 49.17000 24.41100
H  17.01400 47.81500 23.25900
H  10.56000 46.57700 21.32000
H  7.76400 47.91300 21.15900
H  10.76200 49.37300 20.67200
H  9.45900 48.85700 19.75000
H  11.01300 47.95500 19.61900
H  8.33000 45.52800 20.42500
H  6.93800 45.60500 21.39700
H  8.95700 45.24900 23.32100
H  9.56800 44.35800 21.91400
H  8.04800 43.90800 22.72800
H  3.53400 46.36300 25.35300
H  4.08900 47.28100 24.00900
H  3.09500 47.95700 25.31900
H  5.91800 49.37300 29.84200
H  4.09300 46.81900 32.81200
H  5.76000 46.55200 33.23600
H  5.15300 45.66600 31.94200
Mg -5.24000 24.93000 25.62900
C  -3.99800 26.18600 28.50000
C  -7.13200 22.65900 27.55700
C  -6.42300 23.49100 22.78900
C  -2.96600 26.81100 23.82300
N  -5.47200 24.41700 27.81000
C  -4.84200 25.14300 28.82600
C  -5.31000 24.66900 30.20500
C  -6.11300 23.38000 29.81500
C  -6.22100 23.42200 28.31500
C  -5.38400 21.99000 30.21200
C  -6.17300 25.75600 30.97200
C  -5.96400 25.88100 32.58500
H  -5.21400 24.78700 33.22300
N  -6.50600 23.33600 25.21200
C  -7.27000 22.60700 26.14200
C  -8.30400 21.81500 25.48100
C  -7.93600 21.83500 24.11200
C  -6.87900 22.89200 23.98900
C  -9.43600 21.21700 26.17300
C  -8.48000 21.07600 22.99600
O  -7.89600 21.07800 21.90700
C  -9.59600 19.96100 23.14800
N  -4.61000 24.97100 23.52700
C  -5.42100 24.40200 22.58600
C  -5.00300 24.87600 21.24700
C  -3.97900 26.09000 21.49400
C  -3.76100 25.92300 23.04600
C  -4.31500 23.77700 20.45300
C  -4.67200 27.45300 21.11300
C  -3.86500 28.29400 20.10900
N  -3.72800 26.20600 26.02900
C  -2.97100 27.00000 25.20000
C  -2.11600 27.83100 25.96600
C  -2.52700 27.56700 27.26400
C  -3.56800 26.58900 27.23800
C  -1.01500 28.81200 25.48700
C  -2.29400 27.90200 28.67600
O  -1.53100 28.73200 29.17200
C  -3.21100 27.06600 29.50900
C  -2.32400 26.18200 30.28500
O  -1.69800 25.22600 29.84900
O  -2.25800 26.59900 31.58900
C  -1.28000 25.91900 32.43900
H  -7.86600 22.04800 28.08700
H  -6.78700 23.08100 21.84400
H  -2.39500 27.53600 23.24000
H  -4.39500 24.42800 30.74700
H  -7.04200 23.40600 30.38500
H  -5.48400 21.29300 29.38000
H  -5.71800 21.45500 31.10100
H  -4.30600 22.15000 30.21300
H  -7.19400 25.66500 30.60200
H  -5.90100 26.72100 30.54500
H  -6.91100 25.80000 33.11900
H  -5.57800 26.84900 32.90400
H  -9.32500 20.13300 26.19300
H  -10.33900 21.37500 25.58500
H  -9.65700 21.55400 27.18600
H  -9.78700 19.39800 22.23400
H  -10.45800 20.41600 23.63500
H  -9.14700 19.37300 23.94800
H  -5.93800 24.98500 20.69700
H  -3.06600 25.96400 20.91200
H  -4.39700 24.06300 19.40400
H  -4.84400 22.83000 20.56300
H  -3.28500 23.63600 20.78100
H  -4.94800 28.04800 21.98300
H  -5.59200 27.23300 20.57100
H  -3.58200 29.20800 20.63100
H  -4.42600 28.49400 19.19600
H  -2.86500 27.94900 19.84800
H  -1.43800 29.81300 25.40200
H  -0.65500 28.52500 24.49900
H  -0.15900 28.81200 26.16200
H  -3.87100 27.62400 30.17400
H  -1.75400 25.13400 33.02800
H  -0.93300 26.65100 33.16800
H  -0.37400 25.58200 31.93600

