158

Mg 29.84700 57.67400 40.25400
C  27.11300 55.65300 39.15800
C  32.01600 55.34700 39.48100
C  32.32400 60.04900 40.59300
C  27.49500 60.04800 41.27800
N  29.59900 55.86400 39.28600
C  28.40900 55.13500 39.08800
C  28.70000 53.65700 38.65300
C  30.27000 53.64200 38.72400
C  30.67100 55.06800 39.22500
C  30.81300 52.49500 39.71100
C  28.01100 53.13100 37.42800
C  27.61100 54.07700 36.24100
H  28.38300 54.02100 34.97500
N  31.96400 57.66300 40.00300
C  32.66500 56.55500 39.77700
C  34.09300 56.78300 39.74100
C  34.25200 58.11000 40.18800
C  32.83000 58.72400 40.27400
C  35.08600 55.72100 39.44500
C  35.60400 58.79600 40.46900
O  36.64300 58.09700 40.41400
C  35.66000 60.15000 40.79600
N  29.80900 59.76700 40.80600
C  31.01400 60.50100 40.86200
C  30.69100 61.91600 41.30900
C  29.16100 61.86000 41.54900
C  28.75200 60.41900 41.28700
C  31.43200 62.38200 42.59500
C  28.44000 62.91200 40.71500
C  27.28800 63.73700 41.42500
N  27.66700 57.87700 40.18700
C  26.88700 58.92700 40.64800
C  25.56300 58.66300 40.39100
C  25.55300 57.34400 39.84100
C  26.87400 56.93000 39.74300
C  24.38200 59.51700 40.72700
C  24.71300 56.22600 39.34600
O  23.48900 56.20700 39.28000
C  25.66600 55.10800 38.87700
C  25.25400 53.78600 39.63500
O  25.70800 53.39500 40.70000
O  24.22400 53.18900 38.93500
C  23.82200 51.92500 39.52400
H  32.69500 54.50600 39.32900
H  33.11900 60.76700 40.80400
H  26.79500 60.74000 41.75200
H  28.33600 52.97800 39.42400
H  30.84500 53.34500 37.84700
H  30.94200 52.79400 40.75100
H  31.78100 52.22400 39.29000
H  30.15700 51.63100 39.81600
H  27.15100 52.54900 37.76000
H  28.73100 52.43200 37.00400
H  27.76100 55.09700 36.59300
H  26.54100 54.06500 36.03500
H  36.10400 56.09700 39.33700
H  34.97900 55.12500 38.53900
H  35.02300 54.97200 40.23400
H  36.74000 60.29200 40.76700
H  35.11500 60.30400 41.72800
H  35.21500 60.83400 40.07300
H  30.97600 62.56800 40.48300
H  28.91200 62.06200 42.59100
H  32.25900 61.69700 42.78300
H  30.76300 62.43700 43.45400
H  31.88700 63.36100 42.44300
H  27.85100 62.35700 39.98400
H  29.15900 63.58000 40.24100
H  27.42900 63.55900 42.49100
H  26.24900 63.48500 41.21400
H  27.46800 64.78600 41.19300
H  23.60400 58.80500 40.99900
H  24.04100 60.14000 39.90000
H  24.60000 59.98700 41.68600
H  25.58700 55.00900 37.79400
H  24.70700 51.28900 39.50600
H  23.08600 51.39000 38.92500
H  23.56200 52.09500 40.56900
Mg 27.21400 50.68900 26.02700
C  25.00700 51.62700 28.80800
C  29.22400 49.30200 28.37300
C  29.28100 50.10600 23.52200
C  24.88700 52.17200 23.94800
N  27.09400 50.50100 28.39500
C  26.15500 50.93600 29.27500
C  26.46000 50.58400 30.76400
C  27.94000 49.96300 30.56000
C  28.15000 49.91300 28.99900
C  29.08100 50.67300 31.31200
C  25.33500 49.54100 31.38100
C  24.60700 50.04300 32.57800
H  25.44200 50.43100 33.74100
N  28.98500 49.73200 25.94800
C  29.76200 49.30000 27.06200
C  30.93900 48.77200 26.59000
C  31.02500 49.03000 25.19200
C  29.78200 49.69000 24.79500
C  32.04300 48.19900 27.52400
C  32.23600 48.74100 24.22900
O  32.08600 49.05300 23.07000
C  33.53300 47.95100 24.73900
N  27.00900 50.99400 24.08900
C  28.02000 50.76400 23.23500
C  27.64200 51.00200 21.80000
C  26.07500 51.38600 21.94400
C  25.97100 51.47900 23.40700
C  28.48700 52.15200 21.23100
C  25.12500 50.30500 21.41600
C  24.36100 50.70500 20.14700
N  25.37400 51.75000 26.29900
C  24.54300 52.25300 25.33500
C  23.39400 52.77700 25.87800
C  23.53500 52.55200 27.27500
C  24.78100 51.93300 27.45000
C  22.32400 53.36100 25.08400
C  22.92700 52.75200 28.59700
O  21.94000 53.41800 28.95200
C  23.87100 52.16800 29.62800
C  24.31100 53.24000 30.65300
O  25.35900 53.81300 30.67500
O  23.39500 53.25500 31.68900
C  23.77700 53.97200 32.91200
H  29.91600 48.76000 29.02100
H  29.84000 49.96400 22.59500
H  24.08400 52.54400 23.30800
H  26.52300 51.48800 31.37000
H  27.98500 48.94400 30.94600
H  28.60600 51.56000 31.73000
H  29.79700 50.99000 30.55400
H  29.70600 50.02800 31.93000
H  25.92400 48.68400 31.70800
H  24.64400 49.25900 30.58700
H  24.00000 49.16700 32.80700
H  24.01700 50.91900 32.30700
H  32.28600 47.18200 27.21600
H  31.78300 48.19300 28.58300
H  32.94000 48.76000 27.26100
H  34.21400 48.63300 25.24800
H  33.99900 47.60900 23.81500
H  33.29200 47.02800 25.26700
H  27.77900 50.06100 21.26600
H  25.83800 52.34700 21.48700
H  29.27300 52.24600 21.98000
H  28.06500 53.09200 20.87500
H  28.98700 51.68100 20.38400
H  24.43700 49.93200 22.17400
H  25.60000 49.35100 21.18600
H  24.46400 49.95000 19.36800
H  24.74300 51.67000 19.81300
H  23.32400 50.88700 20.42800
H  22.22600 52.68300 24.23600
H  22.63800 54.31500 24.66000
H  21.46000 53.57800 25.71200
H  23.31100 51.40500 30.16900
H  23.27800 53.35500 33.66000
H  23.34200 54.96300 32.78900
H  24.83200 54.03000 33.18300

