158

Mg 24.29400 -6.11600 46.44600
C  26.26600 -3.57900 44.77800
C  21.61200 -5.21300 44.39100
C  22.96700 -9.19000 46.87800
C  27.32000 -7.15400 47.86100
N  23.99400 -4.53600 44.85000
C  24.94100 -3.65300 44.30200
C  24.36300 -2.61500 43.31000
C  22.84600 -3.04600 43.40600
C  22.70600 -4.35900 44.31200
C  21.91700 -1.86700 43.82900
C  24.85900 -2.66700 41.83100
C  25.40100 -1.34900 41.17500
H  25.25800 -1.28700 39.65800
N  22.45800 -7.06400 45.75500
C  21.53800 -6.48200 44.97700
C  20.35300 -7.47700 44.89600
C  20.72300 -8.67200 45.53600
C  22.12400 -8.38800 46.07500
C  19.13900 -7.09200 44.15700
C  19.86300 -9.89400 45.57800
O  18.72100 -9.94200 45.07200
C  20.45700 -11.05600 46.31700
N  24.95900 -7.82300 47.31600
C  24.14800 -8.93000 47.48800
C  24.89700 -10.04300 48.19200
C  26.26600 -9.44000 48.59300
C  26.19600 -8.04300 47.92300
C  24.07100 -10.77400 49.35600
C  27.54100 -10.21600 48.24100
C  28.45500 -10.60000 49.41800
N  26.30600 -5.29900 46.56100
C  27.37800 -5.88500 47.17600
C  28.57100 -5.09900 46.90300
C  28.20600 -4.17100 45.92400
C  26.82000 -4.33800 45.77400
C  29.94400 -5.39300 47.49000
C  28.66300 -3.22800 45.01100
O  29.76600 -2.73900 44.77600
C  27.42300 -2.70600 44.20600
C  27.17800 -1.26100 44.55900
O  26.64400 -0.80600 45.57400
O  27.78900 -0.38400 43.67200
C  27.71300 1.06700 43.94700
H  20.74200 -4.97100 43.77800
H  22.57700 -10.16100 47.18900
H  28.24500 -7.56900 48.26700
H  24.47000 -1.67300 43.84700
H  22.59200 -3.28200 42.37200
H  22.32400 -0.86200 43.72200
H  21.58800 -2.08100 44.84700
H  21.04500 -1.97700 43.18400
H  24.26200 -3.18000 41.07800
H  25.75100 -3.29300 41.80000
H  26.45000 -1.33100 41.46800
H  25.05400 -0.38600 41.54800
H  18.44600 -7.91200 43.97000
H  19.46800 -6.54900 43.27100
H  18.59700 -6.28400 44.64900
H  20.70100 -10.64400 47.29600
H  21.32600 -11.49600 45.82600
H  19.71000 -11.84900 46.31200
H  25.10000 -10.76100 47.39800
H  26.18100 -9.27700 49.66700
H  24.11100 -11.84900 49.18300
H  23.02400 -10.48700 49.26200
H  24.41800 -10.53400 50.36100
H  28.17400 -9.69700 47.52100
H  27.19800 -11.14400 47.78400
H  28.62800 -11.67500 49.46800
H  27.93800 -10.47600 50.37000
H  29.35900 -10.00100 49.30700
H  30.55400 -4.49100 47.55800
H  30.43500 -5.95000 46.69300
H  29.91800 -5.87500 48.46700
H  27.63700 -2.80200 43.14100
H  27.56100 1.27300 45.00700
H  27.02100 1.64100 43.33000
H  28.69600 1.46800 43.70200
Mg 29.55400 58.81700 39.58100
C  27.06900 56.36300 38.48500
C  31.89300 56.70700 38.14300
C  31.71700 61.27900 39.79700
C  26.84700 61.01000 39.96300
N  29.48000 56.75500 38.37600
C  28.42700 55.91300 38.15600
C  28.85100 54.60200 37.47800
C  30.42500 54.65500 37.52800
C  30.66100 56.11200 38.07300
C  31.09900 53.48200 38.28000
C  28.22000 54.32800 36.04300
C  27.87000 55.62100 35.26000
H  27.90200 55.43400 33.77400
N  31.54400 58.88300 39.25900
C  32.34800 57.99300 38.53400
C  33.69900 58.44400 38.63200
C  33.68400 59.79100 39.29200
C  32.27200 60.04900 39.41600
C  34.84500 57.54600 38.08800
C  34.84600 60.58800 39.69600
O  36.00100 60.15000 39.49100
C  34.65100 61.84700 40.43000
N  29.30900 60.90500 39.66500
C  30.38000 61.62600 40.01900
C  30.00100 63.03900 40.54900
C  28.43300 62.99800 40.37600
C  28.16500 61.57900 39.92400
C  30.33000 63.23200 42.03400
C  27.80200 64.11700 39.58000
C  26.75900 64.92200 40.28500
N  27.37100 58.73300 39.50100
C  26.47100 59.70600 39.67600
C  25.12500 59.16400 39.58000
C  25.30000 57.83400 39.17200
C  26.68600 57.65500 39.02700
C  23.82900 59.89200 39.78100
C  24.58100 56.67300 38.77800
O  23.37600 56.49600 38.81200
C  25.70900 55.63600 38.24500
C  25.69500 54.39800 39.13600
O  26.57400 54.04900 39.89800
O  24.54100 53.72300 38.83500
C  24.57200 52.33100 39.23400
H  32.71500 56.12400 37.72200
H  32.25900 62.20900 39.98100
H  26.05400 61.74100 40.13400
H  28.55900 53.90900 38.26700
H  30.82900 54.51100 36.52600
H  32.13600 53.38900 37.95700
H  30.57100 52.56400 38.02300
H  31.14700 53.60900 39.36100
H  27.24400 53.90200 36.27300
H  28.62600 53.51500 35.44100
H  28.47800 56.50400 35.45600
H  26.81900 55.80700 35.48000
H  34.82400 57.49800 36.99900
H  34.59900 56.51300 38.33400
H  35.87000 57.76000 38.39200
H  35.55200 62.03000 41.01400
H  33.85000 61.78300 41.16700
H  34.54300 62.73200 39.80300
H  30.51500 63.84800 40.02900
H  27.99300 63.06500 41.37100
H  29.67700 64.02800 42.39100
H  31.38900 63.46100 42.15100
H  30.19500 62.40800 42.73500
H  27.38800 63.66800 38.67800
H  28.58600 64.80200 39.25700
H  26.05600 65.27500 39.53100
H  27.28100 65.74000 40.78300
H  26.31200 64.37400 41.11400
H  23.03500 59.29400 39.33300
H  23.76300 60.90200 39.37500
H  23.68700 59.97800 40.85800
H  25.49700 55.29200 37.23300
H  24.93600 51.77000 38.37300
H  23.55600 52.02300 39.48100
H  25.28200 52.00700 39.99500

