158

Mg 25.48300 1.30400 29.78400
C  27.57900 1.05200 32.50700
C  22.76000 1.81500 31.90700
C  23.45100 1.27100 27.10100
C  28.16400 0.36700 27.69100
N  25.22300 1.26900 31.93300
C  26.24000 1.29200 32.85100
C  25.73300 1.46900 34.31900
C  24.23800 1.79700 34.13100
C  24.04100 1.58500 32.63100
C  23.23300 1.06100 34.93400
C  26.50900 2.64800 34.93100
C  26.83200 2.44800 36.41600
H  26.62800 3.45400 37.50500
N  23.40300 1.61800 29.56400
C  22.51400 1.77600 30.51900
C  21.18000 1.89200 29.92200
C  21.34700 1.77700 28.58300
C  22.75700 1.55500 28.35500
C  19.94500 2.13700 30.72100
C  20.26800 1.86700 27.51100
O  20.57200 1.85300 26.32300
C  18.82700 2.01700 27.87400
N  25.72300 0.89400 27.73200
C  24.75900 1.02800 26.75800
C  25.29500 0.88400 25.31700
C  26.79900 0.68800 25.57500
C  26.92400 0.57400 27.13500
C  24.60100 -0.23400 24.57300
C  27.67300 1.82900 24.99100
C  28.60200 1.29900 23.87500
N  27.46600 0.56900 30.02700
C  28.39800 0.34100 29.08600
C  29.62900 0.17000 29.84900
C  29.42100 0.43100 31.17500
C  28.05600 0.73100 31.22300
C  30.95800 -0.17600 29.34700
C  29.98900 0.44700 32.47500
O  31.11200 0.17600 32.89000
C  28.79200 0.78300 33.46400
C  28.61900 -0.31300 34.43100
O  28.12700 -1.41200 34.19400
O  29.12500 0.07800 35.66700
C  29.06500 -0.96100 36.66900
H  21.99000 2.24500 32.55100
H  22.74700 1.37000 26.27200
H  29.06100 0.35500 27.06900
H  25.97100 0.51400 34.78800
H  23.89800 2.82800 34.22400
H  22.98800 1.79000 35.70600
H  23.70700 0.13000 35.24600
H  22.33800 0.78200 34.37700
H  25.83500 3.49700 35.03500
H  27.38400 2.83300 34.30700
H  27.87600 2.14300 36.48800
H  26.36600 1.52200 36.75100
H  20.11000 2.03800 31.79400
H  19.25500 1.33600 30.45500
H  19.38500 3.06800 30.63800
H  18.24300 2.39100 27.03200
H  18.62000 2.79200 28.61300
H  18.38800 1.05300 28.12900
H  25.10900 1.84200 24.83200
H  27.11900 -0.26400 25.15200
H  23.67900 0.10400 24.09900
H  24.32900 -1.02400 25.27400
H  25.34900 -0.77300 23.99100
H  28.25000 2.34900 25.75600
H  27.02500 2.59200 24.56100
H  29.13500 0.38800 24.14800
H  29.28600 2.11400 23.63700
H  28.09900 1.05200 22.94000
H  31.21100 -1.08600 29.89100
H  31.70100 0.58000 29.60100
H  31.02700 -0.42800 28.28900
H  29.07600 1.72200 33.93800
H  28.25100 -1.68400 36.61700
H  28.80700 -0.46500 37.60500
H  30.05600 -1.40500 36.76300
Mg 48.78500 45.22400 43.29100
C  45.30800 45.34900 42.64000
C  48.69700 41.75300 42.54300
C  52.08700 45.23300 43.04900
C  48.67300 48.66700 43.76500
N  47.13900 43.87200 42.60600
C  45.85900 44.04600 42.48600
C  45.09000 42.74600 42.07600
C  46.13900 41.61000 42.34800
C  47.43700 42.44100 42.42600
C  45.85400 40.71000 43.58900
C  44.35900 42.72100 40.65200
C  45.03200 43.26200 39.42500
H  45.05200 42.41700 38.08000
N  50.19600 43.64500 42.88300
C  49.98400 42.33400 42.62300
C  51.22200 41.70400 42.40500
C  52.25400 42.70400 42.53100
C  51.49100 43.92500 42.87600
C  51.44700 40.25300 42.13100
C  53.75400 42.47200 42.15200
O  54.13700 41.35000 41.88200
C  54.71600 43.66100 41.80600
N  50.21700 46.70300 43.32100
C  51.53400 46.50200 43.19300
C  52.30500 47.83700 43.23200
C  51.20500 48.96800 43.44700
C  49.91800 48.04400 43.54100
C  53.43700 47.83800 44.35600
C  50.94100 50.02500 42.24700
C  51.52600 51.38600 42.59500
N  47.32900 46.72700 43.34900
C  47.41600 48.06800 43.59300
C  46.15700 48.63900 43.56200
C  45.28600 47.61400 43.24500
C  46.06600 46.48900 43.05500
C  45.90600 50.04400 43.52600
C  43.87400 47.28800 42.82100
O  42.86600 47.93700 42.69000
C  43.88900 45.77500 42.41400
C  42.81000 44.98100 43.18200
O  41.99400 44.23900 42.62600
O  42.77000 45.35900 44.46800
C  41.68300 44.82700 45.29200
H  48.64300 40.66700 42.44500
H  53.17700 45.17800 43.09500
H  48.54300 49.75200 43.77900
H  44.24600 42.58900 42.74700
H  46.19800 41.00300 41.44500
H  45.50000 39.82000 43.06900
H  45.11100 41.18500 44.23000
H  46.74400 40.54500 44.19700
H  43.38600 43.20300 40.74700
H  44.13900 41.65500 40.59100
H  46.04800 43.57800 39.65700
H  44.42600 44.11000 39.10700
H  51.97800 40.20600 41.18000
H  50.51400 39.69600 42.04800
H  52.03900 39.84800 42.95200
H  55.08900 44.19400 42.68100
H  54.09000 44.31600 41.19900
H  55.50200 43.13400 41.26600
H  52.74800 48.02400 42.25400
H  51.33900 49.39100 44.44200
H  53.20400 48.52500 45.17000
H  54.36700 48.11700 43.86100
H  53.56300 46.83400 44.76000
H  49.90600 50.19900 41.95300
H  51.32300 49.74500 41.26500
H  50.84500 52.20100 42.34900
H  52.34600 51.55900 41.89700
H  51.77400 51.45800 43.65400
H  45.25500 50.35800 44.34100
H  45.44000 50.33500 42.58400
H  46.81800 50.63900 43.57200
H  43.62800 45.78300 41.35600
H  41.58900 43.74900 45.16400
H  40.68600 45.17500 45.02300
H  41.75800 45.03400 46.36000

