158

Mg 47.13200 35.10600 26.46900
C  45.36800 33.44300 28.91400
C  47.65700 37.77800 28.71000
C  48.74500 36.82000 24.02400
C  45.97500 32.83600 24.00000
N  46.67900 35.49700 28.56500
C  46.15900 34.51300 29.40600
C  46.12700 35.02300 30.78300
C  46.34200 36.59600 30.64300
C  46.97600 36.64500 29.24200
C  44.99000 37.36900 30.87300
C  47.19400 34.25900 31.65100
C  46.92000 34.45700 33.19100
H  45.79400 35.35100 33.80700
N  48.13700 36.94700 26.37600
C  48.21500 37.89900 27.43300
C  49.04300 38.98400 26.99200
C  49.35600 38.78500 25.64000
C  48.84700 37.41900 25.30400
C  49.42100 40.18600 27.83000
C  50.11300 39.69500 24.56000
O  50.38200 39.27300 23.49800
C  50.66700 41.07700 24.98800
N  47.18300 34.91100 24.31100
C  48.08100 35.64300 23.56400
C  48.30600 34.99000 22.14300
C  47.36800 33.80700 22.11600
C  46.84000 33.84700 23.52100
C  48.14200 35.97400 20.92900
C  47.90400 32.48200 21.65800
C  46.99800 31.81300 20.63600
N  45.93300 33.49600 26.44500
C  45.54600 32.65400 25.34300
C  44.76500 31.60800 25.88100
C  44.61500 31.90900 27.30400
C  45.32900 33.03800 27.54200
C  44.28100 30.36600 25.17600
C  44.02000 31.43300 28.58700
O  43.37400 30.43700 28.77100
C  44.36900 32.60200 29.63200
C  44.96300 31.84600 30.79600
O  45.92500 31.07600 30.72100
O  44.25400 32.09800 31.93800
C  44.75400 31.29300 33.10900
H  47.81300 38.54800 29.46800
H  49.33400 37.17700 23.17600
H  45.62700 32.02600 23.35500
H  45.11600 34.79800 31.12300
H  47.07400 37.05700 31.30600
H  44.13800 36.71700 31.06300
H  44.79800 37.85800 29.91700
H  45.14400 38.11500 31.65200
H  48.17600 34.69800 31.47400
H  47.23800 33.18500 31.47000
H  47.87700 34.84700 33.53700
H  46.83400 33.44400 33.58300
H  50.49800 40.07700 27.95400
H  48.98200 40.13200 28.82700
H  49.08400 41.09400 27.33000
H  51.12400 40.99700 25.97400
H  50.02300 41.95400 24.92400
H  51.36800 41.35300 24.20100
H  49.32600 34.60500 22.13900
H  46.52000 34.13300 21.51300
H  47.53400 35.45400 20.18800
H  49.09700 36.27600 20.49900
H  47.61200 36.88900 21.19400
H  48.15500 31.79200 22.46400
H  48.82000 32.83000 21.18100
H  47.50800 32.04900 19.70200
H  45.97600 32.18500 20.56500
H  47.03500 30.74400 20.84500
H  43.22400 30.47100 24.93200
H  44.39100 29.63400 25.97700
H  44.91000 30.20500 24.30100
H  43.52900 33.19700 29.99000
H  44.10900 31.45900 33.97200
H  45.75800 31.66700 33.30800
H  44.61600 30.22000 32.97600
Mg 30.28100 58.25700 39.91000
C  27.52800 56.39700 38.93900
C  32.32300 55.60000 39.02400
C  33.02900 60.43000 39.83300
C  28.14400 60.97200 40.32200
N  29.93900 56.15600 39.08000
C  28.74100 55.67300 38.71800
C  28.86700 54.23600 38.28700
C  30.43300 53.90200 38.41000
C  30.95500 55.30700 38.84300
C  30.89100 52.77900 39.40700
C  28.30200 53.96900 36.83600
C  28.85100 54.93900 35.79000
H  27.79800 55.80800 34.98400
N  32.44300 57.99400 39.68700
C  32.98200 56.85400 39.28300
C  34.41100 57.05600 39.22000
C  34.71500 58.49100 39.46800
C  33.34600 59.05300 39.67500
C  35.37500 55.87800 38.88000
C  36.06700 59.06200 39.42000
O  37.01600 58.32500 39.27800
C  36.37900 60.55400 39.50100
N  30.57700 60.35700 40.04600
C  31.79200 61.05800 40.04200
C  31.55200 62.49300 40.27000
C  30.05900 62.56900 40.77800
C  29.53000 61.21600 40.34500
C  32.63600 63.22400 41.06900
C  29.43900 63.92900 40.24100
C  29.03900 65.03900 41.28200
N  28.25700 58.60200 39.78700
C  27.51700 59.74100 39.98800
C  26.15400 59.45200 39.87600
C  26.07900 58.07200 39.51600
C  27.42600 57.61700 39.44700
C  24.98600 60.36200 40.06600
C  25.19200 57.05100 39.15200
O  23.99300 57.02500 39.01600
C  26.09600 55.87100 38.77600
C  25.75600 54.78700 39.72900
O  25.94700 54.77300 40.94800
O  25.36500 53.64800 38.96900
C  24.97500 52.46500 39.74300
H  32.97200 54.77000 38.73800
H  33.89400 61.07300 40.00200
H  27.45400 61.77900 40.57800
H  28.38000 53.69000 39.09600
H  30.94200 53.53700 37.51800
H  31.36400 51.89900 38.97300
H  29.97600 52.41400 39.87400
H  31.45700 53.28400 40.19000
H  27.21800 53.90400 36.93500
H  28.64900 52.96000 36.61600
H  29.39900 54.40700 35.01100
H  29.56700 55.56000 36.32900
H  35.32200 55.64400 37.81700
H  35.07500 54.97900 39.41800
H  36.45000 56.05700 38.89300
H  36.03800 60.93200 40.46400
H  35.81800 60.92800 38.64400
H  37.42100 60.77500 39.27200
H  31.54600 62.94200 39.27700
H  30.04100 62.56500 41.86800
H  32.28000 64.00300 41.74400
H  33.36300 63.68100 40.39700
H  33.08000 62.58800 41.83500
H  28.55400 63.57400 39.71400
H  30.02700 64.19500 39.36300
H  29.31000 64.81900 42.31400
H  27.96200 65.18200 41.20400
H  29.55000 65.96900 41.03200
H  25.02400 61.30100 39.51300
H  24.89600 60.55500 41.13500
H  24.11500 59.75500 39.82300
H  25.93500 55.68500 37.71400
H  25.82600 51.78500 39.74200
H  24.15100 51.88300 39.33000
H  24.71900 52.67500 40.78200

