158

Mg 37.01600 49.96800 25.13100
C  37.42400 47.91700 27.94600
C  35.58100 52.33400 27.32900
C  35.76900 51.56100 22.47600
C  37.81600 47.23000 23.26200
N  36.60100 50.11800 27.44300
C  36.96600 49.19600 28.33000
C  36.83600 49.69300 29.75700
C  35.94900 51.01300 29.65500
C  36.08900 51.19400 28.08000
C  34.57600 50.83900 30.19900
C  38.11800 49.95500 30.60400
C  38.06500 49.88100 32.08800
H  36.63500 49.96600 32.86000
N  35.99500 51.73000 24.84300
C  35.52900 52.55000 25.91700
C  35.05200 53.80900 25.33500
C  35.02600 53.64100 23.90400
C  35.58100 52.27100 23.63000
C  34.48500 55.03000 26.20700
C  34.53300 54.57100 22.81600
O  34.50800 54.23000 21.63300
C  33.97200 55.90500 23.13600
N  36.80500 49.43900 23.18200
C  36.29600 50.31400 22.20400
C  36.43900 49.68100 20.79600
C  37.35900 48.45700 21.08000
C  37.34500 48.36800 22.60000
C  35.21900 49.17400 20.11100
C  38.81400 48.48200 20.49400
C  39.94300 49.04200 21.42700
N  37.62800 47.96300 25.42400
C  37.83700 46.95000 24.61100
C  38.13700 45.70800 25.33000
C  37.93100 46.01400 26.67100
C  37.68600 47.38200 26.64200
C  38.43000 44.34200 24.75900
C  37.99900 45.45500 27.98600
O  38.25500 44.31500 28.39300
C  37.72100 46.67700 28.87400
C  36.50600 46.29600 29.67400
O  35.36600 46.12500 29.22300
O  36.90900 46.03500 30.95100
C  35.84500 45.47400 31.76700
H  34.97400 53.01300 27.93100
H  35.27300 52.04700 21.63300
H  37.95900 46.42500 22.53700
H  36.35300 48.89000 30.31400
H  36.37300 51.87900 30.16400
H  34.44900 51.18200 31.22600
H  34.34000 49.77700 30.27400
H  33.87400 51.22000 29.45800
H  38.54400 50.87500 30.20500
H  38.77600 49.19000 30.19300
H  38.68800 50.69900 32.44900
H  38.56500 48.97600 32.43400
H  34.33400 55.94500 25.63400
H  35.11700 55.30100 27.05200
H  33.46600 54.93600 26.58200
H  34.77200 56.52100 23.54700
H  33.15800 55.91200 23.86100
H  33.57700 56.31100 22.20500
H  37.04900 50.36000 20.20100
H  37.03600 47.54000 20.58700
H  34.39000 49.34500 20.79800
H  35.13300 48.10700 19.90600
H  35.08000 49.74600 19.19300
H  38.71900 49.27100 19.74800
H  38.96600 47.51800 20.00900
H  40.43000 49.89700 20.95800
H  40.65900 48.26200 21.68400
H  39.64200 49.50200 22.36800
H  39.10200 43.92500 25.51000
H  38.82000 44.41500 23.74300
H  37.68000 43.55100 24.75300
H  38.55700 46.96000 29.51400
H  35.20500 46.25500 32.17600
H  36.33700 45.09600 32.66300
H  35.34900 44.64700 31.25700
Mg 7.98900 53.08800 41.81700
C  7.55900 49.63600 41.05600
C  11.06200 52.81600 40.42700
C  8.24600 56.43300 42.23000
C  4.56400 53.17000 42.56800
N  9.09900 51.46500 40.64800
C  8.70600 50.12800 40.45100
C  9.69500 49.48700 39.54200
C  11.04600 50.31700 39.83700
C  10.35100 51.57300 40.28900
C  11.89300 49.74600 40.96000
C  9.25000 49.71500 38.02400
C  9.19500 48.53200 37.08900
H  8.32100 48.56900 35.88700
N  9.43100 54.44300 41.32800
C  10.67800 54.12500 40.84700
C  11.34800 55.36200 40.67600
C  10.61400 56.34900 41.31400
C  9.34800 55.78000 41.66200
C  12.73100 55.39300 39.98300
C  11.18700 57.78200 41.54600
O  12.17100 58.07900 40.97900
C  10.42000 58.87000 42.24300
N  6.68600 54.56000 42.33900
C  6.94800 55.92400 42.40900
C  5.68000 56.80200 42.41800
C  4.55000 55.74400 42.38000
C  5.28500 54.38000 42.51000
C  5.73300 57.67700 43.74400
C  3.55800 55.79900 41.14800
C  2.06900 55.87900 41.41000
N  6.43300 51.76800 41.97800
C  5.08800 51.87700 42.39000
C  4.44700 50.56900 42.57200
C  5.43100 49.70000 42.12800
C  6.58200 50.43800 41.76100
C  3.11800 50.30500 43.19200
C  5.66300 48.29600 41.90500
O  4.98400 47.28600 42.05100
C  7.03900 48.23000 41.16400
C  6.66800 47.59800 39.82500
O  5.76700 47.86800 38.98800
O  7.55400 46.46800 39.75300
C  7.13500 45.57900 38.71200
H  12.10500 52.57900 40.20900
H  8.43900 57.46800 42.52000
H  3.47500 53.19000 42.65400
H  9.88600 48.42700 39.70700
H  11.65100 50.38800 38.93400
H  11.76100 48.66500 41.00100
H  11.66000 50.21700 41.91500
H  12.94700 49.94200 40.76400
H  9.90900 50.48200 37.61500
H  8.25100 50.14200 38.10500
H  9.10000 47.62100 37.68000
H  10.20000 48.49200 36.66900
H  12.51600 55.80000 38.99600
H  13.19200 54.41900 39.81900
H  13.56500 55.89500 40.47300
H  10.02800 58.55200 43.20900
H  9.67600 59.17600 41.50800
H  10.99500 59.79000 42.34800
H  5.62000 57.47900 41.56600
H  4.03200 55.82200 43.33600
H  5.60000 58.71400 43.43700
H  6.68900 57.49800 44.23500
H  4.99100 57.33200 44.46500
H  3.65700 55.00500 40.40800
H  3.74200 56.68000 40.53300
H  1.76500 56.77400 40.86800
H  1.80000 55.89600 42.46700
H  1.49400 55.03200 41.03600
H  2.26500 50.67700 42.62500
H  3.20100 50.82800 44.14500
H  3.06900 49.23500 43.39600
H  7.86400 47.68700 41.62500
H  7.61200 45.74300 37.74600
H  6.06500 45.47800 38.53200
H  7.50100 44.64200 39.13000

