158

Mg 17.74800 -1.36200 27.81400
C  16.20900 0.55600 30.35700
C  19.43200 -3.18900 29.97000
C  18.95700 -2.97000 25.14500
C  15.99800 0.79500 25.52700
N  17.89800 -1.08400 29.89700
C  17.09600 -0.47800 30.77400
C  17.34800 -0.87200 32.18900
C  18.43800 -1.98700 32.00300
C  18.66000 -2.12300 30.47500
C  19.76900 -1.70900 32.82200
C  16.12900 -1.39900 32.97200
C  15.96200 -0.75200 34.37900
H  17.25200 -0.46400 35.17600
N  19.10900 -2.88100 27.60000
C  19.65000 -3.56800 28.67500
C  20.51300 -4.57500 28.11300
C  20.40800 -4.54700 26.71000
C  19.40100 -3.47500 26.43800
C  21.27700 -5.51400 29.00100
C  21.12500 -5.34900 25.56300
O  20.88900 -5.24800 24.34300
C  22.23000 -6.23700 25.99800
N  17.66300 -0.99100 25.62400
C  18.19100 -1.88100 24.79600
C  18.16100 -1.39300 23.36400
C  16.97800 -0.30000 23.43600
C  16.80700 -0.21400 24.93600
C  19.37400 -0.77100 22.74100
C  15.67500 -0.65800 22.67700
C  15.19600 0.31000 21.62800
N  16.38000 0.33900 27.88500
C  15.80400 1.08200 26.86200
C  14.96400 2.14300 27.41900
C  15.09400 2.00900 28.84000
C  15.89200 0.85400 29.01600
C  14.07100 3.10200 26.64100
C  14.69500 2.62700 30.12600
O  14.04200 3.66800 30.37000
C  15.33600 1.60900 31.14200
C  16.19000 2.35400 32.09800
O  17.40100 2.25100 32.14900
O  15.39900 3.07400 32.97500
C  16.16300 3.66500 34.09800
H  19.99800 -3.68500 30.76100
H  19.19500 -3.73700 24.40500
H  15.57000 1.49300 24.80400
H  17.72700 0.01900 32.69000
H  17.98800 -2.91900 32.34700
H  19.50600 -0.97800 33.58700
H  20.57900 -1.43000 32.14900
H  20.13200 -2.61100 33.31400
H  16.19200 -2.45800 33.22200
H  15.22700 -1.30900 32.36600
H  15.39500 -1.47100 34.96900
H  15.28400 0.07700 34.17500
H  20.95900 -6.54600 28.85000
H  21.14300 -5.36700 30.07300
H  22.34800 -5.42900 28.81800
H  21.72400 -6.99300 26.59800
H  23.11100 -5.69600 26.34400
H  22.71600 -6.72200 25.15100
H  17.86500 -2.22800 22.72900
H  17.41600 0.65700 23.15300
H  19.85700 -1.42100 22.01200
H  20.04600 -0.66500 23.59300
H  19.35000 0.19300 22.23300
H  14.88400 -0.78800 23.41500
H  15.84200 -1.59400 22.14500
H  14.15600 0.63600 21.62800
H  15.39600 -0.16200 20.66500
H  15.76100 1.23500 21.74000
H  13.61000 2.56400 25.81300
H  14.77300 3.87100 26.31900
H  13.24700 3.46100 27.25900
H  14.58700 1.03100 31.68300
H  17.01100 3.04100 34.37900
H  15.56200 3.74600 35.00400
H  16.64000 4.59300 33.78300
Mg 47.29800 25.02400 29.01000
C  48.23100 27.49600 31.52400
C  46.30800 23.10600 31.59400
C  46.83900 22.65800 26.82400
C  48.61400 27.14400 26.63800
N  47.23400 25.35000 31.37100
C  47.49100 26.45800 32.15200
C  47.19200 26.17300 33.63500
C  46.87800 24.64600 33.58700
C  46.82600 24.30300 32.12200
C  47.76900 23.59400 34.34800
C  46.08600 27.15500 34.13400
C  46.57900 28.09300 35.23600
H  47.07700 27.43100 36.60600
N  46.50400 23.21100 29.18800
C  46.14700 22.53700 30.34400
C  45.69300 21.23500 29.95400
C  45.65000 21.14900 28.53100
C  46.34400 22.41900 28.09000
C  45.25000 20.29800 30.98500
C  45.17500 20.05700 27.64300
O  45.25600 20.14400 26.41300
C  44.64200 18.73300 28.17300
N  47.99500 24.84100 27.14800
C  47.57100 23.77200 26.38500
C  47.93000 23.96500 24.91300
C  48.40100 25.42300 24.81100
C  48.32100 25.85800 26.29900
C  48.94900 22.96700 24.25500
C  47.58400 26.42000 23.88700
C  48.43800 27.33400 23.03200
N  48.31000 26.87400 29.08300
C  48.73400 27.66900 28.02100
C  49.20300 28.87800 28.44400
C  49.04400 28.85000 29.84100
C  48.54500 27.60100 30.17900
C  49.74600 30.04700 27.55600
C  49.14100 29.68800 31.06600
O  49.67800 30.84700 31.10600
C  48.66500 28.74600 32.21800
C  49.80100 28.50600 33.16400
O  50.65600 27.66000 33.06200
O  49.81000 29.47000 34.14000
C  50.80100 29.15500 35.19600
H  45.85600 22.50000 32.38200
H  46.67500 22.01600 25.95700
H  48.83600 27.79000 25.78600
H  48.13400 26.48500 34.08600
H  45.88200 24.47600 33.99500
H  48.19100 22.93800 33.58700
H  47.15500 23.09700 35.09900
H  48.57000 24.15000 34.83500
H  45.24800 26.55000 34.48000
H  45.74400 27.74800 33.28600
H  45.74300 28.76200 35.43900
H  47.50500 28.60400 34.97100
H  44.23300 20.04600 30.68300
H  45.23000 20.67900 32.00600
H  45.76500 19.33800 31.03200
H  45.19200 18.39000 29.04900
H  44.55900 18.02500 27.34900
H  43.66800 19.01300 28.57400
H  46.96300 23.96600 24.41100
H  49.47200 25.36800 24.61600
H  49.95200 23.39500 24.23500
H  48.76600 22.48800 23.29400
H  48.99700 22.16200 24.98800
H  47.05800 27.13100 24.52300
H  46.91900 25.79400 23.29200
H  48.47800 26.98200 22.00100
H  49.42100 27.50200 23.47200
H  48.00300 28.33200 23.09100
H  49.43500 31.05600 27.82800
H  49.53600 29.92800 26.49300
H  50.82800 30.08000 27.68900
H  47.87800 29.28500 32.74600
H  50.50200 28.24900 35.72300
H  50.90500 29.97300 35.90800
H  51.81400 29.03900 34.81200

