158

Mg 49.66600 47.78900 43.32300
C  46.35200 48.36200 42.27200
C  49.81100 44.80900 41.38400
C  53.09600 47.65300 43.79700
C  49.81900 51.01400 44.44400
N  48.24500 46.79100 41.88100
C  46.96500 47.22300 41.73800
C  46.38900 46.16200 40.78800
C  47.31000 44.83200 40.82400
C  48.55700 45.50600 41.40500
C  46.79600 43.67800 41.72200
C  46.20700 46.64100 39.33800
C  44.78900 46.46700 38.73300
H  44.56000 45.46300 37.60800
N  51.23400 46.46100 42.66100
C  51.06100 45.23200 41.98000
C  52.29600 44.54100 41.93200
C  53.23600 45.27600 42.73800
C  52.55300 46.51800 43.12700
C  52.29300 43.09700 41.34900
C  54.63800 44.80800 43.16800
O  54.99300 43.71900 42.79900
C  55.58200 45.67300 43.95800
N  51.38000 49.17600 43.89200
C  52.54900 48.80000 44.28900
C  53.31100 49.85100 45.07600
C  52.21700 50.91600 45.40600
C  51.03600 50.39200 44.52000
C  54.15100 49.33500 46.29300
C  52.66100 52.39100 45.03000
C  52.26800 53.54600 45.99600
N  48.40300 49.30600 43.54000
C  48.53600 50.58000 44.05500
C  47.29900 51.35300 44.04700
C  46.35200 50.45900 43.38800
C  47.10200 49.28100 43.05000
C  46.89500 52.67200 44.74600
C  44.95600 50.22700 43.04500
O  44.00600 50.97600 43.20500
C  44.99900 48.95500 42.17300
C  43.84700 48.04500 42.70700
O  43.50300 47.94700 43.87300
O  43.31700 47.30500 41.69100
C  42.26800 46.37300 41.99000
H  49.79400 43.79500 40.97800
H  54.16600 47.59800 44.00700
H  49.87600 51.99200 44.92600
H  45.38400 45.98500 41.17100
H  47.42800 44.38600 39.83600
H  47.14800 42.76600 41.24000
H  45.71100 43.59000 41.76700
H  47.24000 43.69700 42.71700
H  46.96000 46.13500 38.73400
H  46.51500 47.68600 39.32300
H  44.51900 47.45100 38.35200
H  44.01300 46.15400 39.43200
H  51.65100 42.53400 42.02600
H  53.31800 42.74500 41.22800
H  51.87700 43.21400 40.34800
H  55.82800 46.55700 43.36900
H  56.41300 45.00400 44.18300
H  55.01800 45.83800 44.87600
H  54.11300 50.19600 44.42200
H  51.98800 50.88700 46.47100
H  53.97000 48.26000 46.26100
H  53.60200 49.74100 47.14200
H  55.20000 49.59000 46.14200
H  52.54500 52.65400 43.97900
H  53.74400 52.29400 45.10400
H  53.13300 53.92700 46.53800
H  51.54400 53.13300 46.69800
H  51.77700 54.38000 45.49400
H  46.16800 52.60300 45.55500
H  46.37400 53.27100 43.99800
H  47.74500 53.23400 45.13200
H  44.75600 49.26300 41.15600
H  41.30400 46.82800 42.21800
H  42.60800 45.65400 42.73400
H  42.18300 45.82600 41.05100
Mg 17.09400 51.95900 26.45000
C  19.10500 50.41000 28.87500
C  14.83300 52.67800 29.07300
C  14.99400 53.40200 24.23900
C  19.06300 50.70800 23.87200
N  16.95200 51.64300 28.63200
C  17.98200 51.01000 29.39000
C  17.60600 51.17800 30.92400
C  16.03400 51.47000 30.88100
C  15.96000 51.96700 29.44300
C  15.16700 50.22500 31.19100
C  18.49200 52.25400 31.60400
C  18.82800 52.03100 33.06800
H  17.82800 51.21900 33.85200
N  15.15300 52.83800 26.62500
C  14.47900 53.17800 27.83700
C  13.16300 53.77400 27.49900
C  13.13500 53.77000 26.06600
C  14.40100 53.32300 25.54300
C  12.02300 53.98100 28.56800
C  12.01500 54.29100 25.15100
O  12.21500 54.38100 23.94100
C  10.68700 54.74300 25.69800
N  17.06900 52.07600 24.44900
C  16.14200 52.79100 23.72400
C  16.48700 52.85700 22.22500
C  17.82800 52.00100 22.14200
C  18.07300 51.60600 23.58600
C  15.34400 52.23300 21.32500
C  19.09200 52.63700 21.50400
C  19.71600 53.83400 22.35200
N  18.77800 50.93300 26.38300
C  19.40600 50.43200 25.21700
C  20.56900 49.61700 25.69200
C  20.53900 49.68200 27.15000
C  19.42900 50.39100 27.46700
C  21.39000 48.81000 24.90200
C  21.09100 49.17800 28.46600
O  22.05200 48.44400 28.66500
C  20.29300 49.77300 29.64400
C  19.82000 48.75800 30.61200
O  19.03900 47.85100 30.53600
O  20.58900 48.97600 31.77500
C  20.59400 47.92700 32.87900
H  14.25500 52.85000 29.98400
H  14.33600 53.78400 23.45600
H  19.80800 50.37300 23.14800
H  17.83100 50.19900 31.34800
H  15.76400 52.22700 31.61700
H  15.78600 49.33500 31.30400
H  14.42400 50.05200 30.41200
H  14.64300 50.42000 32.12700
H  18.10600 53.26300 31.46100
H  19.44700 52.17700 31.08400
H  19.11400 53.01800 33.43100
H  19.66300 51.33400 33.00400
H  12.10400 53.47000 29.52800
H  11.04300 53.59800 28.28300
H  11.98300 55.06300 28.69700
H  10.14600 53.89200 26.11100
H  10.01900 55.07600 24.90300
H  10.99000 55.50100 26.42100
H  16.69800 53.89000 21.94900
H  17.67600 51.07000 21.59600
H  14.45700 52.02400 21.92300
H  15.63000 51.31200 20.81600
H  15.13800 52.95300 20.53300
H  18.85800 53.16400 20.57900
H  19.84200 51.87400 21.29700
H  19.34000 53.97200 23.36600
H  19.58900 54.77000 21.80800
H  20.77900 53.59300 22.37700
H  21.91800 48.15100 25.59100
H  22.15400 49.32200 24.31700
H  20.89200 48.13400 24.20800
H  20.97300 50.46300 30.14400
H  20.45700 46.93600 32.44600
H  19.78100 48.20300 33.55000
H  21.48800 47.91600 33.50400

