158

Mg 16.58700 51.20200 26.21600
C  18.49300 49.83800 29.01400
C  14.21900 52.02400 28.63500
C  14.97800 52.66000 23.81500
C  19.01400 49.83300 24.07800
N  16.39300 50.95300 28.58700
C  17.34400 50.49800 29.42800
C  17.10300 50.93800 30.89300
C  15.54800 51.31800 30.75900
C  15.33400 51.36200 29.22400
C  14.53800 50.37600 31.43000
C  18.04800 52.03700 31.31200
C  18.49200 52.05400 32.78300
H  17.74300 51.15300 33.82400
N  14.81300 52.18200 26.20900
C  13.99100 52.47300 27.27100
C  12.98700 53.39200 26.79300
C  13.26100 53.68200 25.41900
C  14.36200 52.82600 25.06300
C  11.95400 53.88900 27.68000
C  12.48900 54.52700 24.45700
O  12.82300 54.73200 23.29700
C  11.26300 55.23400 24.90000
N  16.91900 51.16300 24.17100
C  16.09400 51.85900 23.39200
C  16.46800 51.55800 21.89900
C  17.82500 50.78000 21.99700
C  17.97500 50.59500 23.49100
C  15.36000 50.72700 21.19200
C  19.12600 51.24700 21.27100
C  19.55900 50.38700 20.05900
N  18.31800 50.00000 26.46500
C  19.25800 49.61600 25.48100
C  20.38400 48.93400 26.12300
C  20.13100 49.04700 27.52100
C  18.88200 49.64300 27.66200
C  21.60300 48.41600 25.49200
C  20.68800 48.68600 28.90500
O  21.78000 48.13200 29.12400
C  19.63300 49.23500 29.90500
C  19.08600 48.00700 30.51200
O  18.10800 47.35300 30.17600
O  19.74300 47.88300 31.72000
C  19.18400 46.91000 32.62800
H  13.52100 52.34900 29.40900
H  14.44500 53.13400 22.98900
H  19.61000 49.21200 23.40500
H  17.03500 50.13500 31.62700
H  15.31500 52.24300 31.28600
H  13.84500 49.99300 30.68200
H  13.88000 50.90400 32.12000
H  14.88400 49.50800 31.99100
H  17.54200 52.98000 31.11100
H  18.97500 51.97100 30.74200
H  18.11600 53.02900 33.09300
H  19.58000 52.09800 32.73300
H  11.72600 53.23700 28.52400
H  11.02200 53.96300 27.11900
H  12.18400 54.90500 28.00000
H  11.45000 55.85300 25.77700
H  10.53600 54.44300 25.08200
H  10.91800 55.75600 24.00700
H  16.51900 52.50700 21.36500
H  17.77200 49.72100 21.74700
H  14.55200 50.48400 21.88200
H  15.63800 49.73200 20.84500
H  14.94000 51.31400 20.37500
H  19.96300 51.21000 21.96800
H  18.97000 52.23500 20.83800
H  20.47600 49.87200 20.34700
H  19.90100 51.01600 19.23700
H  18.88500 49.65200 19.61800
H  22.49500 48.61900 26.08500
H  21.89600 48.77700 24.50600
H  21.66000 47.32800 25.52200
H  19.91400 49.82400 30.77900
H  18.18200 46.50000 32.50500
H  19.10000 47.36700 33.61500
H  19.85300 46.05300 32.55600
Mg -11.40000 37.44200 43.16700
C  -9.01900 34.82400 42.68200
C  -9.05100 39.63100 42.08200
C  -13.80200 39.68700 43.06200
C  -13.75000 34.88400 43.75800
N  -9.22000 37.15600 42.49200
C  -8.44800 36.07100 42.46200
C  -7.01200 36.40700 41.87300
C  -7.07600 37.98500 41.87700
C  -8.51200 38.32500 42.20000
C  -6.20500 38.63600 42.87600
C  -6.74100 35.83500 40.39500
C  -5.28800 35.35700 40.11500
H  -4.59900 36.08600 38.90200
N  -11.42400 39.38400 42.59500
C  -10.33900 40.14300 42.31200
C  -10.77500 41.47000 42.03300
C  -12.18600 41.53200 42.24400
C  -12.54700 40.16900 42.64800
C  -9.85000 42.56500 41.50000
C  -13.05700 42.75700 41.91500
O  -12.70600 43.84800 41.49700
C  -14.57100 42.68400 42.16500
N  -13.58200 37.32400 43.34200
C  -14.27800 38.41500 43.39700
C  -15.72900 38.21000 43.80000
C  -15.68900 36.61300 43.69900
C  -14.24100 36.18700 43.67200
C  -16.25700 38.84600 45.13400
C  -16.48900 36.04800 42.46700
C  -17.68200 35.13200 42.93100
N  -11.40700 35.34400 43.43100
C  -12.47100 34.47700 43.57400
C  -12.05300 33.08800 43.55000
C  -10.65500 33.23000 43.27800
C  -10.33300 34.59100 43.12000
C  -12.77500 31.80900 43.80100
C  -9.39900 32.44900 43.10500
O  -9.16000 31.27600 43.23000
C  -8.36600 33.48700 42.59200
C  -7.20300 33.44200 43.57700
O  -7.27800 33.76200 44.76800
O  -6.10800 32.90000 43.04300
C  -5.01800 32.62700 44.09300
H  -8.29700 40.36000 41.77800
H  -14.58900 40.37800 43.36900
H  -14.46800 34.06200 43.81000
H  -6.32800 36.07800 42.65500
H  -6.94200 38.43800 40.89500
H  -5.45500 37.96200 43.29100
H  -6.74900 39.05500 43.72300
H  -5.61200 39.43700 42.43500
H  -6.87200 36.72900 39.78600
H  -7.38200 34.97600 40.20200
H  -5.25000 34.27500 39.99300
H  -4.65200 35.46200 40.99400
H  -8.85000 42.24500 41.21000
H  -9.77600 43.30600 42.29500
H  -10.38000 43.07400 40.69400
H  -15.02800 43.62600 41.86400
H  -14.85400 42.63300 43.21600
H  -14.84100 41.73800 41.69400
H  -16.45300 38.56000 43.06500
H  -16.10600 36.37000 44.67600
H  -17.34400 38.92300 45.11300
H  -15.82700 39.80900 45.40900
H  -15.84000 38.24300 45.94100
H  -15.82500 35.48200 41.81500
H  -16.81300 36.82700 41.77600
H  -17.77100 34.12000 42.53700
H  -18.66700 35.53300 42.69400
H  -17.69500 34.98400 44.01100
H  -13.85700 31.82900 43.66800
H  -12.50900 31.29300 44.72300
H  -12.63600 31.10300 42.98100
H  -8.01400 33.18800 41.60400
H  -5.17900 31.65700 44.56500
H  -4.97600 33.41900 44.84000
H  -4.02100 32.52100 43.66600

