158

Mg 46.58100 45.10000 44.43600
C  43.17800 44.68300 43.28100
C  47.22600 41.91500 43.09000
C  49.84100 45.81000 44.40200
C  45.75500 48.35900 44.98300
N  45.30000 43.54900 43.36400
C  43.97100 43.56500 43.05800
C  43.59600 42.36500 42.18800
C  44.75700 41.33900 42.49400
C  45.89600 42.33500 43.00500
C  44.44600 40.22700 43.62200
C  43.47100 42.87700 40.73700
C  42.25800 42.27500 39.90000
H  42.56200 41.56900 38.63900
N  48.32100 43.90200 44.11600
C  48.39500 42.60700 43.54200
C  49.75000 42.11800 43.69400
C  50.55900 43.28000 44.05500
C  49.61800 44.39800 44.18300
C  50.16300 40.63400 43.35100
C  52.07800 43.31900 44.22700
O  52.65800 42.27700 43.99000
C  52.82300 44.52100 44.66000
N  47.60200 46.79100 44.64800
C  48.96500 46.89200 44.67300
C  49.51300 48.31200 45.03200
C  48.18200 49.06600 45.25200
C  47.07400 48.02900 44.92700
C  50.50000 48.44700 46.26000
C  47.98300 50.36200 44.38600
C  47.81700 51.68800 45.13300
N  44.79900 46.31600 44.27300
C  44.56900 47.61500 44.67200
C  43.20500 48.00100 44.49100
C  42.60900 46.90800 43.89900
C  43.58700 45.92100 43.83000
C  42.70300 49.45200 44.63300
C  41.37200 46.32600 43.36300
O  40.28600 46.86000 43.20000
C  41.67200 44.82800 43.14500
C  40.99200 43.99800 44.15300
O  40.50500 42.93500 43.93500
O  41.27600 44.52100 45.36000
C  40.94700 43.64500 46.47900
H  47.27500 40.89800 42.69600
H  50.92000 45.96900 44.34200
H  45.39300 49.32700 45.33400
H  42.64500 41.91400 42.47400
H  45.05600 40.91000 41.53700
H  44.22500 39.37200 42.98300
H  43.55800 40.42300 44.22200
H  45.29000 40.09900 44.29900
H  44.35500 42.67100 40.13500
H  43.28400 43.94200 40.59700
H  41.72100 43.18000 39.61400
H  41.65600 41.54500 40.44100
H  50.86900 40.16700 44.03900
H  50.54000 40.59000 42.32900
H  49.34400 39.92500 43.46800
H  52.95600 45.16800 43.79300
H  53.75400 44.09500 45.03500
H  52.31400 44.98300 45.50500
H  50.02000 48.58600 44.10600
H  48.06400 49.37800 46.29000
H  51.02400 47.49300 46.31200
H  49.96700 48.50400 47.20900
H  51.25800 49.22200 46.14200
H  47.13400 50.24700 43.71300
H  48.78400 50.37800 43.64700
H  48.62200 52.37100 44.86500
H  47.86000 51.51200 46.20800
H  46.87100 52.17900 44.90400
H  43.07000 50.06500 45.45600
H  41.61600 49.41200 44.70900
H  42.99900 49.84000 43.65900
H  41.25200 44.57700 42.17100
H  41.48500 43.99200 47.36100
H  41.36600 42.63900 46.44200
H  39.87800 43.55400 46.67400
Mg 41.07200 42.13000 27.64700
C  39.97500 44.55000 30.12000
C  41.61500 39.97300 30.11300
C  42.39700 40.16900 25.26500
C  40.51700 44.64200 25.26200
N  41.01500 42.41000 29.89600
C  40.37500 43.36400 30.63600
C  40.42100 42.97900 32.14100
C  41.00300 41.44000 32.02700
C  41.22200 41.25700 30.56900
C  42.30700 41.25400 32.86900
C  39.10100 43.17400 32.95200
C  38.90600 42.13100 34.17500
H  38.24800 42.57300 35.41700
N  41.93800 40.31100 27.69800
C  42.07100 39.54600 28.81400
C  42.57700 38.23000 28.43900
C  42.89300 38.31000 27.04500
C  42.37400 39.64100 26.56400
C  42.99100 37.19800 29.44400
C  43.54200 37.30400 26.11400
O  43.73000 37.50500 24.91500
C  44.07400 36.02400 26.66500
N  41.40800 42.41000 25.50500
C  41.84700 41.38500 24.77600
C  41.96800 41.85200 23.32300
C  41.10000 43.18800 23.30900
C  40.95600 43.48500 24.75300
C  43.43400 41.96900 22.83900
C  39.76900 43.05900 22.49400
C  38.87200 41.92700 23.03200
N  40.50900 44.11400 27.61400
C  40.26400 44.97800 26.60100
C  39.85700 46.26400 27.14100
C  39.56200 46.04300 28.46800
C  40.07600 44.82300 28.73900
C  39.57200 47.63500 26.43200
C  39.03600 46.68600 29.60500
O  38.57200 47.79200 29.75300
C  39.30800 45.74400 30.75600
C  40.23300 46.46000 31.69800
O  41.38800 46.75200 31.38700
O  39.69600 46.61500 32.93700
C  40.64200 47.11100 33.90200
H  41.71800 39.24800 30.92300
H  42.96400 39.51900 24.59600
H  40.35200 45.35000 24.44700
H  41.08900 43.65600 32.67200
H  40.17500 40.82800 32.38300
H  43.18700 41.37000 32.23700
H  42.41200 40.26100 33.30700
H  42.35900 41.92300 33.72700
H  38.25400 43.21600 32.26800
H  39.04600 44.19800 33.32100
H  39.79600 41.57400 34.46800
H  38.37800 41.33300 33.65300
H  42.86000 37.63100 30.43600
H  44.01300 36.81900 29.46700
H  42.34100 36.32900 29.34300
H  44.96600 36.37700 27.18100
H  44.25200 35.42200 25.77400
H  43.43800 35.34100 27.22800
H  41.50900 41.13800 22.63900
H  41.69000 44.05200 23.00100
H  43.43900 41.49900 21.85500
H  44.13500 41.51100 23.53600
H  43.74200 42.99100 22.61700
H  40.00600 42.76600 21.47100
H  39.18700 43.97800 22.55900
H  38.19900 41.56900 22.25300
H  38.18100 42.30700 23.78400
H  39.43800 41.13800 23.52800
H  39.78300 47.57500 25.36400
H  40.23000 48.39600 26.85100
H  38.56500 48.00300 26.62500
H  38.32500 45.45000 31.12400
H  40.95200 48.14100 33.72000
H  41.54200 46.51100 33.76600
H  40.45900 46.88600 34.95200

