158

Mg 16.72300 -0.68300 27.46500
C  15.81900 1.24900 30.19300
C  18.83200 -2.48900 29.41400
C  18.18600 -1.76300 24.66600
C  14.82300 1.61400 25.36900
N  17.24000 -0.65900 29.61600
C  16.79200 0.23100 30.50900
C  17.20800 -0.18100 31.96000
C  18.25700 -1.28400 31.68600
C  18.10200 -1.55000 30.16500
C  19.69100 -0.97400 32.27700
C  16.02600 -0.69500 32.79700
C  15.95100 -0.48700 34.33000
H  17.08800 0.24600 35.07500
N  18.16500 -2.09900 27.08400
C  18.80400 -2.83000 28.02300
C  19.65000 -3.85200 27.27300
C  19.46300 -3.57700 25.85500
C  18.62100 -2.40700 25.85000
C  20.57800 -4.83000 28.01300
C  19.99300 -4.37600 24.67200
O  19.83200 -4.04800 23.52600
C  20.81700 -5.57400 24.92700
N  16.56300 -0.09000 25.35700
C  17.29900 -0.74500 24.42700
C  17.05500 -0.14700 23.05600
C  15.76600 0.71900 23.22300
C  15.67200 0.70900 24.73100
C  18.22400 0.59700 22.38800
C  14.49000 0.02800 22.64100
C  13.66100 0.93700 21.69600
N  15.47700 1.03800 27.67700
C  14.72400 1.84100 26.78400
C  13.92600 2.80600 27.50200
C  14.36100 2.62100 28.87500
C  15.33800 1.58900 28.92400
C  12.80700 3.67300 27.01200
C  14.20400 3.15200 30.19800
O  13.50000 4.04800 30.70900
C  15.11500 2.25100 31.14000
C  16.03300 3.00400 31.98200
O  17.12700 3.32300 31.62600
O  15.44600 3.41800 33.19100
C  16.28400 4.35600 33.99700
H  19.48600 -3.04200 30.09100
H  18.71200 -2.26100 23.84900
H  14.28900 2.30000 24.70800
H  17.73800 0.59800 32.50800
H  17.97400 -2.24800 32.11000
H  20.45100 -1.21000 31.53100
H  19.79700 -1.69500 33.08800
H  19.84100 0.00400 32.73400
H  15.96700 -1.78200 32.74500
H  15.15300 -0.42000 32.20400
H  15.84100 -1.46500 34.80000
H  15.02900 0.09400 34.34500
H  20.79500 -4.42700 29.00200
H  21.54000 -4.83300 27.50200
H  20.13300 -5.81100 28.18400
H  20.39600 -6.13100 25.76400
H  21.74700 -5.05100 25.15100
H  20.80100 -6.29100 24.10600
H  16.85800 -1.08000 22.52700
H  15.92200 1.72000 22.82100
H  17.95900 1.50500 21.84600
H  18.57900 -0.11500 21.64400
H  18.98400 0.85300 23.12700
H  13.78100 -0.13300 23.45400
H  14.55100 -0.98900 22.25200
H  14.13900 1.90800 21.56300
H  12.59000 1.07600 21.84100
H  13.95500 0.57600 20.71100
H  12.08900 3.78700 27.82400
H  12.30300 3.21500 26.16100
H  13.22100 4.60500 26.62600
H  14.46400 1.75500 31.86000
H  16.75400 3.77400 34.78900
H  15.49600 4.98800 34.40700
H  17.02900 4.92400 33.43900
Mg -6.66000 24.82500 26.40600
C  -5.47400 26.36700 29.33900
C  -8.38800 22.58600 28.26800
C  -7.62700 23.19200 23.63100
C  -4.29000 26.73400 24.61400
N  -6.69100 24.45000 28.58100
C  -6.38700 25.37100 29.59200
C  -7.11500 24.90500 30.86000
C  -7.70000 23.51500 30.53900
C  -7.59400 23.54100 29.01700
C  -6.84300 22.33000 31.02400
C  -8.23800 25.78300 31.49100
C  -8.71400 25.38500 32.96100
H  -7.83700 24.44600 33.81200
N  -7.88000 23.13700 25.99600
C  -8.50500 22.38300 26.89700
C  -9.17600 21.33200 26.28600
C  -9.10300 21.55900 24.86300
C  -8.19300 22.70300 24.77000
C  -9.92400 20.29100 27.04900
C  -9.76300 20.73900 23.69600
O  -9.51700 20.97400 22.54000
C  -10.86500 19.72500 24.01500
N  -6.07300 24.98400 24.46800
C  -6.63000 24.16400 23.47200
C  -5.90900 24.44200 22.14700
C  -4.86900 25.54000 22.41400
C  -5.08500 25.78200 23.90700
C  -5.54500 23.25600 21.19100
C  -4.94200 26.74100 21.49400
C  -5.96200 27.86600 21.85000
N  -5.24600 26.43900 26.84300
C  -4.31000 27.04400 25.98300
C  -3.58800 28.00700 26.76300
C  -4.06800 27.84700 28.14400
C  -4.96100 26.79400 28.10000
C  -2.60200 29.00500 26.19500
C  -3.99600 28.29400 29.52200
O  -3.26900 29.17000 29.98300
C  -4.82600 27.30400 30.34500
C  -3.99500 26.77100 31.44600
O  -3.28600 25.77900 31.40500
O  -3.80800 27.56600 32.59000
C  -2.82600 27.11900 33.57500
H  -8.93100 21.94800 28.96900
H  -7.85500 22.72000 22.67300
H  -3.66300 27.44000 24.06500
H  -6.34400 24.78700 31.62100
H  -8.74600 23.42400 30.83200
H  -6.43300 21.81600 30.15500
H  -7.45700 21.59600 31.54600
H  -6.06000 22.47400 31.76800
H  -9.14600 25.65200 30.90200
H  -7.99400 26.83500 31.34400
H  -9.62600 24.80200 32.83100
H  -8.84000 26.34600 33.46000
H  -10.05600 19.34800 26.51800
H  -10.89000 20.72000 27.31300
H  -9.46900 19.90900 27.96400
H  -11.32700 19.41500 23.07800
H  -11.59300 20.20700 24.66700
H  -10.40100 18.84900 24.46900
H  -6.66200 24.97400 21.56600
H  -3.88400 25.07200 22.39900
H  -4.49300 23.37800 20.93100
H  -6.19400 23.11800 20.32600
H  -5.63700 22.32700 21.75400
H  -5.07000 26.37500 20.47600
H  -3.95300 27.15900 21.68100
H  -6.82500 27.42700 22.35100
H  -6.32000 28.32700 20.92900
H  -5.38000 28.56300 22.45300
H  -1.59100 28.60300 26.25300
H  -2.61600 29.93200 26.76900
H  -2.93400 29.27000 25.19100
H  -5.58300 27.72100 31.01000
H  -1.84600 27.12500 33.09800
H  -3.13300 26.22900 34.12500
H  -2.70500 27.93600 34.28600

