158

Mg 24.13000 -5.88600 45.68100
C  26.40300 -3.58900 44.27500
C  21.70600 -4.57100 43.70300
C  22.37200 -8.82500 45.95700
C  26.95300 -7.57300 47.02800
N  24.07200 -4.32500 44.26200
C  25.08500 -3.55000 43.81500
C  24.65800 -2.59400 42.66800
C  23.08200 -2.63400 42.82200
C  22.85800 -3.89200 43.70500
C  22.31800 -1.35600 43.25300
C  25.22100 -3.11400 41.34100
C  26.10300 -2.14000 40.42900
H  25.85800 -1.99100 38.93700
N  22.22300 -6.56600 45.07800
C  21.39400 -5.85400 44.22900
C  20.17900 -6.61600 43.98000
C  20.27600 -7.79800 44.81200
C  21.67400 -7.77600 45.34100
C  19.15800 -6.11100 42.98800
C  19.19600 -8.83100 45.01200
O  18.12900 -8.73300 44.48900
C  19.31400 -9.81200 46.03400
N  24.65200 -7.93000 46.37000
C  23.72200 -8.91400 46.41200
C  24.34500 -10.24200 47.00000
C  25.82400 -9.88000 47.12500
C  25.82200 -8.34200 46.93800
C  23.69100 -10.83900 48.31300
C  26.69400 -10.57700 45.98400
C  26.83500 -12.14700 46.06400
N  26.26700 -5.47700 45.94300
C  27.19900 -6.29900 46.50900
C  28.48100 -5.54900 46.41000
C  28.25300 -4.58500 45.47800
C  26.88500 -4.55400 45.20100
C  29.76200 -5.85700 47.03800
C  28.81900 -3.52200 44.66900
O  29.99800 -3.13300 44.64400
C  27.64700 -2.77700 43.91100
C  27.54300 -1.29600 44.44300
O  26.56100 -0.74600 44.87100
O  28.79600 -0.63500 44.41300
C  29.02300 0.61000 45.24100
H  20.89100 -4.03500 43.21200
H  21.80600 -9.74600 46.11500
H  27.76100 -8.17200 47.45300
H  25.04400 -1.59800 42.88600
H  22.75700 -2.76700 41.78900
H  22.98400 -0.56200 43.59000
H  21.49600 -1.58800 43.93000
H  21.90900 -0.87200 42.36600
H  24.42400 -3.59600 40.77600
H  25.84700 -3.96300 41.61800
H  27.12900 -2.49700 40.34100
H  26.14400 -1.14500 40.87200
H  18.59600 -6.97700 42.63800
H  19.62400 -5.47600 42.23400
H  18.38400 -5.46500 43.40200
H  18.37200 -10.33700 46.18600
H  19.65200 -9.41600 46.99100
H  19.98200 -10.51600 45.53800
H  24.40500 -10.96100 46.18300
H  26.27600 -10.10500 48.09100
H  23.16700 -11.78300 48.16000
H  22.93900 -10.22000 48.80200
H  24.44500 -11.02900 49.07800
H  27.67800 -10.10900 45.98300
H  26.09600 -10.23600 45.13900
H  26.57500 -12.42100 47.08700
H  27.85200 -12.40800 45.77200
H  26.24200 -12.80000 45.42200
H  30.14400 -6.85300 46.81600
H  29.68800 -5.71400 48.11600
H  30.48200 -5.09200 46.74500
H  27.92600 -2.68400 42.86100
H  29.87500 0.44300 45.90000
H  28.19100 0.88400 45.89000
H  29.37600 1.49500 44.71100
Mg 1.00000 44.02800 25.09400
C  2.89400 43.57600 27.97600
C  -1.70900 43.20900 26.98300
C  -0.74600 43.87600 22.26500
C  3.96700 44.10200 23.16300
N  0.66000 43.66000 27.31000
C  1.59900 43.52300 28.31100
C  0.84600 43.28700 29.64800
C  -0.63300 43.16100 29.26000
C  -0.54500 43.32300 27.76000
C  -1.36200 41.87100 29.73100
C  1.16100 44.50300 30.55800
C  1.54900 44.16700 32.03100
H  0.90100 42.90000 32.72400
N  -1.03700 43.83200 24.68100
C  -1.94900 43.40200 25.55900
C  -3.20700 43.14200 24.84100
C  -3.02200 43.64700 23.53400
C  -1.58400 43.84600 23.42900
C  -4.37600 42.53700 25.48300
C  -3.94900 43.76700 22.28900
O  -3.54500 44.14500 21.19000
C  -5.30600 43.20300 22.43200
N  1.54400 43.95100 23.02100
C  0.63200 43.93800 22.04300
C  1.28200 43.62500 20.63900
C  2.69300 44.19500 20.90000
C  2.77800 44.08500 22.41700
C  1.12600 42.08900 20.22300
C  2.86400 45.63100 20.39200
C  4.24500 46.06700 20.05300
N  2.93800 43.88500 25.44600
C  4.03100 43.92200 24.57400
C  5.20900 43.93600 25.39500
C  4.87600 43.78800 26.72200
C  3.44100 43.78800 26.68200
C  6.53500 44.02000 24.77100
C  5.41300 43.47600 28.05400
O  6.55400 43.26000 28.40900
C  4.08200 43.43200 28.93400
C  4.07300 42.24800 29.87500
O  3.69000 41.13000 29.64000
O  4.75600 42.69800 30.99000
C  5.11000 41.54600 31.89700
H  -2.62000 42.88500 27.49200
H  -1.29400 43.65000 21.34800
H  4.84800 44.09300 22.51800
H  1.28000 42.41700 30.14000
H  -1.14400 44.04500 29.64400
H  -2.06600 42.20800 30.49200
H  -0.79800 41.13400 30.30200
H  -1.82100 41.32600 28.90600
H  0.25200 45.10300 30.60300
H  2.00300 45.11800 30.23900
H  1.28600 45.10100 32.52700
H  2.63000 44.12800 32.16400
H  -5.08300 43.36700 25.51000
H  -4.23400 42.17600 26.50100
H  -4.71900 41.67600 24.90900
H  -5.93400 43.38000 21.55900
H  -5.71600 43.80500 23.24300
H  -5.29900 42.12700 22.60500
H  0.75200 44.23300 19.90600
H  3.45800 43.67100 20.32700
H  0.71200 41.56200 21.08200
H  2.10200 41.61200 20.14000
H  0.62600 42.02300 19.25700
H  2.41300 46.24800 21.16800
H  2.32900 45.81900 19.46100
H  5.02500 45.43600 20.47900
H  4.54400 46.91700 20.66600
H  4.36000 46.53200 19.07400
H  7.20000 43.72300 25.58100
H  6.94500 44.98100 24.46000
H  6.56200 43.16400 24.09700
H  4.15000 44.30500 29.58400
H  6.04600 41.13900 31.51500
H  4.40800 40.71400 31.95100
H  5.28200 41.96800 32.88700

