158

Mg 35.71500 48.97000 25.43000
C  35.90700 46.89200 28.30600
C  34.38000 51.39400 27.30400
C  34.91400 50.55700 22.59200
C  36.91900 46.11000 23.51900
N  35.33200 49.12500 27.58000
C  35.48800 48.22900 28.50400
C  35.15100 48.79000 29.93800
C  34.45900 50.15700 29.57600
C  34.80600 50.27200 28.07600
C  32.98400 50.21900 29.95900
C  36.52600 48.82300 30.62400
C  36.49300 48.33900 32.08300
H  35.14900 48.29000 32.88900
N  34.89100 50.73200 25.04000
C  34.49300 51.66300 25.95200
C  34.14500 52.95300 25.32700
C  34.25300 52.67200 23.96500
C  34.68000 51.24400 23.82600
C  33.98900 54.24400 26.11400
C  34.06400 53.65300 22.74600
O  34.21900 53.34800 21.58400
C  33.75600 55.07700 23.02100
N  35.87200 48.38500 23.35800
C  35.50700 49.25600 22.38400
C  35.84100 48.71300 20.99100
C  36.66600 47.40800 21.26200
C  36.49400 47.33100 22.84300
C  34.52900 48.45700 20.17200
C  38.16400 47.48300 20.76900
C  39.22800 47.87300 21.83100
N  36.26100 46.91800 25.73300
C  36.67600 45.94900 24.90400
C  36.87800 44.70800 25.66700
C  36.65300 45.06400 27.02700
C  36.27300 46.42500 26.98600
C  37.43300 43.41100 25.22200
C  36.63000 44.55600 28.31500
O  36.96400 43.41100 28.75800
C  36.13500 45.69200 29.25900
C  34.84300 45.27600 29.84000
O  33.73400 45.41000 29.32900
O  35.03500 44.67900 31.09300
C  33.82000 44.22900 31.79600
H  33.86200 52.12200 27.93300
H  34.90100 51.08100 21.63400
H  37.18300 45.13600 23.10200
H  34.51200 48.15000 30.54600
H  34.93400 50.96700 30.12900
H  32.41300 50.42300 29.05300
H  32.79600 50.84300 30.83300
H  32.61100 49.23400 30.24000
H  36.71700 49.88100 30.80700
H  37.37500 48.47300 30.03700
H  37.10100 49.04500 32.64800
H  36.87300 47.31800 32.10400
H  33.70600 54.07400 27.15200
H  33.23700 54.89900 25.67400
H  35.01000 54.62100 26.05100
H  32.87200 55.27600 23.62700
H  33.54000 55.55500 22.06500
H  34.59200 55.60100 23.48400
H  36.55800 49.31700 20.43400
H  36.28600 46.48200 20.83100
H  34.28300 49.40900 19.70200
H  33.69200 48.20200 20.82100
H  34.57900 47.64200 19.44900
H  38.32000 48.16400 19.93300
H  38.37400 46.48700 20.37900
H  39.78000 48.61100 21.24900
H  39.81400 46.96200 21.95000
H  39.08100 48.31900 22.81500
H  38.28900 43.57700 24.56800
H  36.55700 43.01400 24.70900
H  37.70600 42.71700 26.01700
H  36.86600 45.85000 30.05200
H  33.47400 43.42000 31.15300
H  33.05200 44.98900 31.93900
H  34.13000 43.80500 32.75100
Mg -6.50800 25.53600 26.22900
C  -5.26900 27.06100 29.01900
C  -7.91900 23.17000 28.18500
C  -7.70800 24.09000 23.43400
C  -4.96400 28.09300 24.16600
N  -6.46600 25.13000 28.29700
C  -6.12600 26.00700 29.27600
C  -6.69600 25.67300 30.59200
C  -7.40400 24.29600 30.31900
C  -7.26100 24.15400 28.81700
C  -7.10000 23.13700 31.26800
C  -7.59100 26.83700 31.11800
C  -7.59800 27.03900 32.67300
H  -7.23200 25.79700 33.67300
N  -7.54100 23.77800 25.86500
C  -8.10800 22.99800 26.81500
C  -9.02800 22.06200 26.16000
C  -8.90300 22.25800 24.78700
C  -8.04000 23.42600 24.65400
C  -10.07000 21.07300 26.80800
C  -9.53900 21.46600 23.60900
O  -9.42300 21.70600 22.40900
C  -10.37100 20.20400 23.90100
N  -6.32000 26.04000 24.16700
C  -6.99300 25.26900 23.20800
C  -6.83500 25.79000 21.78500
C  -6.31200 27.28600 22.18000
C  -5.85200 27.12600 23.63200
C  -5.64800 25.02400 21.01700
C  -7.47300 28.31800 21.98000
C  -7.32900 29.05100 20.64700
N  -5.32500 27.33800 26.50700
C  -4.75200 28.17900 25.61200
C  -3.96800 29.12600 26.35900
C  -4.03500 28.79300 27.77800
C  -4.95600 27.69900 27.76200
C  -3.39800 30.30900 25.70400
C  -3.69500 29.03300 29.17100
O  -2.93700 29.81500 29.69700
C  -4.52300 27.94100 30.02800
C  -3.54100 27.19000 30.91600
O  -2.65600 26.48300 30.49600
O  -3.77300 27.37900 32.26100
C  -2.85900 26.73200 33.24100
H  -8.51900 22.46900 28.76900
H  -8.11900 23.67200 22.51200
H  -4.56800 28.86600 23.50400
H  -5.81300 25.39200 31.16600
H  -8.47400 24.47100 30.42800
H  -6.53500 22.29800 30.86200
H  -7.95300 22.55100 31.61200
H  -6.42500 23.54200 32.02200
H  -8.63400 26.81900 30.80200
H  -7.38500 27.82300 30.70000
H  -8.56600 27.36300 33.05600
H  -6.88600 27.84200 32.86600
H  -11.05300 21.09900 26.33900
H  -10.34400 21.51500 27.76600
H  -9.68000 20.05700 26.86800
H  -11.41200 20.28600 24.21300
H  -9.81900 19.47300 24.49300
H  -10.53700 19.88100 22.87300
H  -7.79200 25.61900 21.29200
H  -5.53400 27.62400 21.49600
H  -5.04600 25.71700 20.42900
H  -6.15700 24.34500 20.33300
H  -4.95300 24.55800 21.71600
H  -7.33200 29.13200 22.69200
H  -8.51300 28.02100 22.11600
H  -8.30500 29.18100 20.18000
H  -6.80300 28.46300 19.89500
H  -6.81700 30.01000 20.72600
H  -2.76900 30.04000 24.85500
H  -2.84700 30.89500 26.43900
H  -4.18000 30.95600 25.30900
H  -5.22000 28.43700 30.70400
H  -3.45600 26.64800 34.14800
H  -2.04700 27.43300 33.44000
H  -2.66100 25.73900 32.83900

