158

Mg 24.15700 -4.53200 45.94200
C  26.63800 -2.46400 44.34600
C  21.94100 -3.41500 43.39600
C  22.23400 -7.25100 46.31600
C  26.80800 -5.96200 47.72100
N  24.28100 -3.16700 44.06000
C  25.34200 -2.33100 43.75100
C  24.96000 -1.38600 42.57900
C  23.42600 -1.62700 42.40500
C  23.19000 -2.78700 43.37100
C  22.58800 -0.32200 42.71000
C  25.81900 -1.70200 41.37700
C  26.51500 -0.45800 40.84300
H  26.42600 -0.24600 39.34100
N  22.24000 -5.14900 45.13300
C  21.47700 -4.46800 44.19000
C  20.16500 -5.12200 44.10000
C  20.27600 -6.30900 44.86900
C  21.65000 -6.33400 45.42500
C  19.08100 -4.80200 43.17300
C  19.18300 -7.34100 44.89000
O  18.09200 -7.07600 44.44200
C  19.52600 -8.75300 45.30600
N  24.50600 -6.28000 46.87500
C  23.48200 -7.21000 47.02000
C  23.90300 -8.38400 47.90600
C  25.31000 -8.01700 48.38400
C  25.62500 -6.68600 47.61100
C  22.81800 -8.70100 49.01400
C  26.45400 -9.15200 48.33100
C  27.09800 -9.55000 49.67900
N  26.27700 -4.25700 46.04900
C  27.12300 -4.88600 46.90200
C  28.50500 -4.39400 46.60200
C  28.35700 -3.41100 45.63700
C  26.97400 -3.40400 45.35200
C  29.82500 -4.97900 47.20400
C  29.00500 -2.47400 44.75400
O  30.23000 -2.33400 44.58800
C  27.95200 -1.76500 43.97100
C  27.95900 -0.29800 44.12900
O  27.06600 0.41700 44.57500
O  29.14900 0.13900 43.58600
C  29.12400 1.59200 43.41700
H  21.25700 -3.12600 42.59500
H  21.74500 -8.19900 46.55100
H  27.55100 -6.42900 48.37100
H  25.23900 -0.40500 42.96100
H  23.18900 -1.79100 41.35400
H  23.07100 0.25700 43.49800
H  21.64400 -0.66900 43.13000
H  22.40300 0.27100 41.81400
H  25.19400 -2.06900 40.56400
H  26.58400 -2.42300 41.66900
H  27.59300 -0.51800 40.99000
H  26.10400 0.46900 41.24200
H  19.16700 -5.65300 42.49800
H  19.37600 -3.87400 42.68500
H  18.12900 -4.69700 43.69400
H  19.45500 -8.82800 46.39100
H  20.47000 -9.13400 44.91600
H  18.68600 -9.32200 44.90500
H  23.94900 -9.32100 47.35300
H  25.04200 -7.85000 49.42800
H  22.04100 -9.37300 48.65100
H  22.31700 -7.73400 49.06000
H  23.18700 -9.09400 49.96100
H  27.17300 -8.75700 47.61200
H  26.22900 -10.06200 47.77600
H  26.43600 -9.22100 50.47900
H  28.09800 -9.17700 49.90000
H  27.11800 -10.64000 49.66600
H  30.56900 -4.21600 47.43200
H  30.29000 -5.69400 46.52400
H  29.66200 -5.54800 48.11900
H  28.29300 -2.02100 42.96800
H  30.14400 1.97200 43.35600
H  28.94100 2.06000 44.38400
H  28.54500 2.03000 42.60400
Mg -11.18800 38.53300 41.45800
C  -9.46400 35.54100 40.76000
C  -8.67400 40.24600 39.71300
C  -13.23200 41.21000 41.15400
C  -13.83500 36.63300 42.66700
N  -9.43300 37.92900 40.21400
C  -8.87300 36.63200 40.14600
C  -7.45000 36.65200 39.62000
C  -7.22500 38.19000 39.29500
C  -8.54100 38.88300 39.80100
C  -5.88300 38.63900 39.87300
C  -7.28300 35.74400 38.39500
C  -6.06500 34.71100 38.56300
H  -4.87700 34.76400 37.51100
N  -10.92900 40.49200 40.74700
C  -9.81200 40.97700 40.03100
C  -10.03100 42.39400 39.69200
C  -11.29600 42.77200 40.18900
C  -11.87500 41.49300 40.73500
C  -9.02400 43.25400 39.00200
C  -11.92200 44.19700 40.06200
O  -11.17900 45.08300 39.64400
C  -13.30200 44.52200 40.51600
N  -13.28800 38.81300 41.56600
C  -13.90700 39.99800 41.49400
C  -15.39400 39.95400 41.77500
C  -15.54300 38.55900 42.39800
C  -14.11200 37.97600 42.29300
C  -16.03300 41.09100 42.63000
C  -16.62600 37.62100 41.67200
C  -17.33700 36.72400 42.68200
N  -11.60300 36.44800 41.75100
C  -12.69900 35.88500 42.32500
C  -12.41700 34.47300 42.46600
C  -11.18700 34.29800 41.82600
C  -10.70300 35.54800 41.40900
C  -13.41000 33.44900 42.98900
C  -10.22500 33.33100 41.43800
O  -10.25400 32.11400 41.50400
C  -9.01000 34.10800 40.88600
C  -7.85500 33.82900 41.80000
O  -7.09000 32.83100 41.70800
O  -7.53000 34.82000 42.77500
C  -6.55900 34.56200 43.85700
H  -7.76100 40.72800 39.35800
H  -13.85300 42.10100 41.04700
H  -14.67800 36.10100 43.11300
H  -6.64000 36.39600 40.30300
H  -7.01400 38.33900 38.23600
H  -5.09700 37.90400 39.69900
H  -6.03400 38.54400 40.94800
H  -5.73300 39.69500 39.64700
H  -7.29500 36.37000 37.50400
H  -8.23200 35.20800 38.36700
H  -6.49700 33.71300 38.63600
H  -5.52600 34.89200 39.49300
H  -8.92100 44.22700 39.48300
H  -8.99500 43.41600 37.92400
H  -8.05900 42.76400 39.13500
H  -13.50900 44.09900 41.49900
H  -14.00100 44.06500 39.81600
H  -13.50200 45.59300 40.47400
H  -15.72800 39.88100 40.74000
H  -15.68500 38.70400 43.46800
H  -16.57100 41.64200 41.85800
H  -15.39000 41.85000 43.07600
H  -16.72500 40.64900 43.34700
H  -16.09500 36.96600 40.98200
H  -17.27200 38.28900 41.10100
H  -18.34000 36.49400 42.32400
H  -17.54100 37.19400 43.64400
H  -16.88000 35.73500 42.69300
H  -13.78800 33.60400 43.99900
H  -13.09100 32.41000 42.90600
H  -14.24800 33.50500 42.29400
H  -8.72000 33.60200 39.96500
H  -6.85800 33.67800 44.42100
H  -6.57700 35.36900 44.58900
H  -5.58300 34.52400 43.37500

