158

Mg 47.98200 15.91700 27.87500
C  45.97600 15.87200 30.71500
C  50.12200 18.13900 29.58500
C  49.76400 16.48600 24.96600
C  45.51300 14.35800 26.12400
N  47.99500 16.90000 29.89400
C  47.19300 16.57500 30.92500
C  47.58300 17.09900 32.27900
C  48.74400 17.99600 31.82500
C  49.00700 17.67800 30.37300
C  48.49500 19.55100 32.10400
C  48.10500 15.92400 33.26400
C  48.20400 16.30500 34.83100
H  47.44500 17.57800 35.27600
N  49.75300 17.02600 27.42300
C  50.48200 17.82500 28.23700
C  51.68800 18.19300 27.57600
C  51.71100 17.57200 26.24200
C  50.38500 16.95200 26.20500
C  52.79800 19.00500 28.24100
C  52.73200 17.54000 25.18500
O  52.59300 16.82700 24.20400
C  54.00400 18.16700 25.43800
N  47.71000 15.38400 25.88500
C  48.51300 15.88000 24.86400
C  47.91600 15.57100 23.50700
C  46.78300 14.55100 23.85000
C  46.63300 14.76000 25.40100
C  47.38400 16.89000 22.87200
C  47.03300 13.08200 23.59300
C  45.94700 12.37400 22.80600
N  46.13600 15.27500 28.26800
C  45.21600 14.64000 27.44800
C  44.04200 14.38000 28.23300
C  44.29900 14.80700 29.53700
C  45.58100 15.39400 29.46400
C  42.85100 13.76000 27.63600
C  43.78100 14.83200 30.79700
O  42.65700 14.42600 31.10400
C  44.86300 15.55600 31.67200
C  44.19200 16.71800 32.31200
O  44.04900 17.81500 31.82600
O  43.74900 16.33300 33.57400
C  42.93000 17.34100 34.24600
H  50.84900 18.71100 30.16500
H  50.28900 16.60100 24.01600
H  44.73000 13.95500 25.47900
H  46.79500 17.69700 32.73600
H  49.65500 17.76800 32.37800
H  47.58400 19.81500 32.64000
H  48.56200 20.07800 31.15200
H  49.23900 20.10600 32.67500
H  49.12400 15.65700 32.98300
H  47.44900 15.05500 33.22100
H  49.28800 16.25900 34.93300
H  47.73900 15.58900 35.50900
H  53.23100 19.68400 27.50600
H  53.63600 18.40700 28.60000
H  52.48000 19.50600 29.15600
H  54.46500 17.62400 26.26300
H  53.80100 19.23500 25.51200
H  54.62400 18.01600 24.55500
H  48.65500 15.14900 22.82500
H  45.89500 15.01000 23.41500
H  47.12600 16.59700 21.85500
H  48.07600 17.72800 22.94600
H  46.48000 17.16700 23.41600
H  47.24100 12.49700 24.48900
H  47.96300 12.97100 23.03400
H  45.97700 12.81800 21.81100
H  44.99700 12.51700 23.32100
H  46.16200 11.30800 22.73700
H  42.66600 13.96400 26.58200
H  41.95400 14.00500 28.20400
H  42.90500 12.68800 27.82600
H  45.21300 14.96600 32.51900
H  41.89900 17.35800 33.89200
H  43.38500 18.32400 34.12400
H  42.87700 17.18900 35.32500
Mg 42.31200 40.93100 27.63000
C  41.09100 43.06600 30.07500
C  42.71400 38.61400 29.96000
C  43.21300 39.06400 25.13300
C  41.70900 43.52100 25.22700
N  42.03300 40.86200 29.77600
C  41.46900 41.83400 30.59900
C  41.53800 41.50300 32.02500
C  42.34800 40.15500 31.98100
C  42.37400 39.83000 30.52700
C  43.65700 40.10200 32.74500
C  40.13300 41.38100 32.67700
C  39.87700 42.38600 33.89800
H  39.24300 41.83300 35.13500
N  42.93600 39.05600 27.62400
C  43.01500 38.17400 28.67300
C  43.44200 36.88500 28.11000
C  43.78000 37.10200 26.74400
C  43.30700 38.44100 26.42500
C  43.60800 35.70400 28.99000
C  44.40900 36.07400 25.70800
O  44.68400 36.47600 24.56600
C  44.77600 34.65100 26.09600
N  42.61300 41.32000 25.50100
C  42.89300 40.30300 24.67900
C  42.88400 40.63800 23.19900
C  42.10200 42.00300 23.26100
C  42.19400 42.32200 24.74900
C  44.29900 40.61700 22.46300
C  40.67300 41.84300 22.67800
C  39.79600 40.65500 23.20700
N  41.65500 42.86200 27.60600
C  41.49300 43.79000 26.52400
C  41.01600 45.05300 27.09200
C  40.78100 44.79200 28.47300
C  41.24200 43.49900 28.74500
C  40.96800 46.31500 26.36100
C  40.30100 45.33600 29.76100
O  39.74000 46.42400 30.02900
C  40.57300 44.31600 30.83700
C  41.61700 44.97100 31.66500
O  42.71400 45.30900 31.37400
O  41.05300 45.13100 32.91200
C  41.83100 45.75000 34.05600
H  42.75700 37.79300 30.67800
H  43.35400 38.39000 24.28500
H  41.33000 44.31900 24.58500
H  42.19700 42.18200 32.56500
H  41.73200 39.38600 32.44700
H  43.99500 39.06600 32.78100
H  43.55000 40.46800 33.76600
H  44.41600 40.69800 32.23700
H  40.08800 40.37700 33.09800
H  39.36800 41.54400 31.91700
H  39.17700 43.21000 33.76500
H  40.85600 42.76100 34.19300
H  43.76300 36.01800 30.02200
H  44.51800 35.15800 28.74300
H  42.76000 35.01800 28.96300
H  45.76300 34.71500 26.55500
H  45.00800 34.11600 25.17500
H  44.11100 34.09800 26.76000
H  42.39000 39.85100 22.62900
H  42.64100 42.77300 22.70800
H  44.23000 40.27900 21.42900
H  44.95100 40.03800 23.11800
H  44.77800 41.59500 22.51100
H  40.77100 41.72300 21.59900
H  40.07900 42.74200 22.84100
H  40.35900 39.89900 23.75500
H  39.34400 40.10800 22.38000
H  39.03700 41.10300 23.84800
H  41.50300 46.33900 25.41100
H  41.13600 47.06300 27.13500
H  39.94500 46.34000 25.98700
H  39.69500 44.25200 31.48000
H  41.90300 45.02700 34.86900
H  41.19400 46.56600 34.39700
H  42.78300 46.18700 33.75300

