158

Mg 47.03600 24.76700 27.99200
C  47.95300 26.96700 30.65700
C  46.27600 22.46400 30.46600
C  46.18200 22.80500 25.58100
C  48.25500 27.24100 25.70700
N  47.00900 24.78900 30.24200
C  47.35600 25.81200 31.13000
C  47.09800 25.44700 32.58800
C  46.80700 23.91300 32.42500
C  46.72500 23.65200 30.97400
C  47.87200 22.97400 33.15300
C  45.94300 26.18600 33.24900
C  46.36200 27.15600 34.38900
H  45.40500 27.15600 35.60000
N  46.33400 22.87500 27.97900
C  46.07500 22.06700 29.13500
C  45.62600 20.74800 28.64200
C  45.63200 20.82700 27.19700
C  46.03400 22.23300 26.86800
C  45.32700 19.57100 29.55500
C  45.35600 19.75300 26.15000
O  45.48100 19.96400 24.96000
C  44.90500 18.49100 26.64300
N  47.46100 24.79400 26.00200
C  46.78500 23.97200 25.21000
C  46.81200 24.29400 23.71200
C  47.18600 25.83000 23.81500
C  47.70200 25.99300 25.29200
C  47.75300 23.40900 22.82100
C  46.07300 26.87600 23.28400
C  46.38600 28.05300 22.37400
N  48.07800 26.60600 28.11800
C  48.51900 27.48200 27.09500
C  49.21300 28.60400 27.70000
C  48.95100 28.51500 29.10800
C  48.28600 27.23900 29.28300
C  50.00500 29.58100 26.89100
C  49.15800 29.18600 30.33100
O  49.75200 30.21200 30.67100
C  48.49700 28.24400 31.39800
C  49.49500 27.90400 32.41200
O  50.23500 26.93600 32.35300
O  49.41700 28.74800 33.46400
C  50.10400 28.39500 34.74300
H  45.93700 21.71500 31.18400
H  45.74100 22.22000 24.77100
H  48.37500 28.00300 24.93400
H  48.06500 25.64600 33.04900
H  45.88800 23.48100 32.82100
H  48.45600 23.56600 33.85700
H  48.58300 22.53500 32.45300
H  47.33700 22.17500 33.66500
H  45.11100 25.51600 33.46400
H  45.53200 26.86000 32.49700
H  46.30300 28.19900 34.07800
H  47.32300 26.85800 34.80900
H  44.29400 19.25300 29.41100
H  45.53500 19.67600 30.62000
H  45.97100 18.73700 29.27600
H  45.71700 17.99700 27.17800
H  44.72500 17.82300 25.80000
H  44.01900 18.61100 27.26600
H  45.80500 24.04700 23.37700
H  48.02500 25.92900 23.12600
H  47.78300 24.08000 21.96200
H  47.25000 22.45900 22.64400
H  48.77100 23.22200 23.16500
H  45.54800 27.24800 24.16300
H  45.35200 26.26700 22.73800
H  45.75600 27.77400 21.52900
H  47.44400 28.20100 22.16000
H  46.09400 29.04100 22.72900
H  50.09800 30.44500 27.54900
H  49.41900 29.93100 26.04200
H  50.99000 29.16500 26.68100
H  47.69300 28.72600 31.95400
H  49.36000 27.85700 35.33100
H  50.37300 29.32800 35.23900
H  51.01700 27.83300 34.54900
Mg 5.23800 54.33400 40.72400
C  4.87800 50.81200 40.41800
C  8.48200 53.97500 39.71100
C  5.41900 57.67400 40.45400
C  1.77700 54.53500 41.15100
N  6.50300 52.62600 39.97000
C  6.18000 51.27900 40.05300
C  7.45000 50.36400 39.80700
C  8.59500 51.38600 39.88200
C  7.77900 52.72300 39.90600
C  9.65900 51.43300 41.04300
C  7.42700 49.56000 38.38900
C  6.46100 50.08800 37.21700
H  7.03800 50.72300 35.95200
N  6.77200 55.62400 40.32900
C  8.03800 55.31400 39.91700
C  8.77000 56.48900 39.62000
C  7.97500 57.56200 40.15200
C  6.63600 56.97800 40.34300
C  10.19200 56.42900 39.15900
C  8.45200 59.02400 40.35100
O  9.55900 59.38800 40.06200
C  7.65700 59.97200 41.18900
N  3.81400 55.86400 40.52300
C  4.08900 57.21400 40.55700
C  2.89600 58.09600 40.76500
C  1.83000 57.03000 41.03500
C  2.49500 55.70200 40.85400
C  3.06200 59.23800 41.80200
C  0.55100 57.10300 40.12500
C  -0.77100 57.36300 40.86200
N  3.56300 52.98400 40.80600
C  2.24100 53.17700 41.11700
C  1.56800 51.93400 41.36200
C  2.56700 50.94500 41.14900
C  3.74400 51.62300 40.73000
C  0.11700 51.89100 41.49700
C  2.80200 49.55500 40.98900
O  2.01600 48.56400 41.05100
C  4.29500 49.43200 40.53000
C  4.17800 48.75800 39.21500
O  3.66400 49.25100 38.21600
O  4.55900 47.44000 39.31900
C  4.24900 46.52100 38.19900
H  9.55800 53.87800 39.54900
H  5.60900 58.74200 40.33600
H  0.73800 54.62000 41.47700
H  7.52300 49.67800 40.65100
H  9.14800 51.45900 38.94500
H  9.55700 52.37200 41.58800
H  10.67300 51.31300 40.66300
H  9.53500 50.61500 41.75300
H  7.10600 48.56700 38.70400
H  8.44100 49.40400 38.02200
H  5.73800 50.78400 37.64300
H  5.96800 49.19100 36.84200
H  10.42300 57.42300 38.77600
H  10.33300 55.69300 38.36800
H  10.78800 56.18700 40.03900
H  7.16000 59.51700 42.04500
H  6.90300 60.43800 40.55500
H  8.25300 60.75300 41.66100
H  2.71400 58.60700 39.82000
H  1.59000 57.05000 42.09800
H  2.19800 59.16700 42.46300
H  3.04300 60.16300 41.22700
H  3.91200 59.16300 42.48100
H  0.43400 56.17700 39.56100
H  0.64800 57.90400 39.39200
H  -1.33800 58.08000 40.26900
H  -0.63700 57.69900 41.89100
H  -1.37800 56.46500 40.97600
H  -0.39800 52.73000 41.02900
H  -0.09400 51.89000 42.56600
H  -0.24600 50.89000 41.26400
H  4.91100 48.94900 41.28900
H  5.17400 45.95300 38.09900
H  4.04300 47.07600 37.28300
H  3.45400 45.81300 38.43300

