158

Mg 0.76100 6.90600 25.88200
C  1.58500 8.82400 28.56900
C  0.49500 4.20100 28.01600
C  0.23800 4.93700 23.25400
C  1.24700 9.54000 23.68700
N  1.00600 6.62600 28.04500
C  1.18900 7.60100 28.97400
C  0.94600 7.04000 30.39200
C  0.97600 5.55200 30.10300
C  0.73500 5.45000 28.61700
C  2.20800 4.67600 30.59500
C  -0.35100 7.53200 31.12700
C  -0.07400 7.83700 32.61000
H  0.84000 6.94300 33.44000
N  0.52700 4.88000 25.67100
C  0.42400 3.89200 26.61800
C  0.28800 2.56500 26.06900
C  0.17600 2.75800 24.60400
C  0.38400 4.22200 24.49300
C  0.11400 1.27600 26.90200
C  -0.20100 1.75900 23.41100
O  -0.19200 2.04200 22.21200
C  -0.60000 0.38100 23.78600
N  0.60000 7.26200 23.70900
C  0.41500 6.27300 22.85000
C  0.23800 6.82000 21.41400
C  0.60700 8.35500 21.58900
C  0.79400 8.41800 23.07200
C  1.05100 6.18400 20.24600
C  -0.27700 9.44600 20.84200
C  -1.86700 9.40400 21.11700
N  1.41700 8.79400 26.09600
C  1.56800 9.78300 25.08000
C  1.86900 11.07700 25.77700
C  1.98000 10.73000 27.16700
C  1.68000 9.33300 27.29400
C  2.10400 12.42200 25.02900
C  2.25700 11.18500 28.48400
O  2.63900 12.28200 28.89500
C  1.88700 10.02800 29.45100
C  2.96800 9.84900 30.47800
O  4.04900 9.36900 30.28700
O  2.57900 10.39000 31.66800
C  3.52500 10.50600 32.84300
H  0.62600 3.39400 28.74100
H  -0.06300 4.39500 22.35400
H  1.42700 10.42600 23.07400
H  1.78400 7.25000 31.05600
H  0.15600 4.95600 30.50400
H  2.85400 5.33300 31.17700
H  2.88000 4.34200 29.80400
H  1.89500 3.77600 31.12500
H  -1.02400 6.67900 31.04800
H  -0.84400 8.36400 30.62300
H  -0.99800 7.78100 33.18400
H  0.30600 8.85300 32.71700
H  0.32300 0.39600 26.29300
H  -0.92400 1.33700 27.22900
H  0.72500 1.29300 27.80400
H  -0.67700 -0.23800 22.89200
H  -1.49200 0.49300 24.40300
H  0.19400 -0.07000 24.38100
H  -0.81800 6.64100 21.21300
H  1.52000 8.62200 21.05700
H  1.33500 5.15400 20.46100
H  1.93600 6.75000 19.95300
H  0.44200 6.10900 19.34500
H  -0.08000 9.21800 19.79400
H  0.19900 10.38100 21.13800
H  -2.32300 8.64100 21.74800
H  -2.32400 9.28600 20.13500
H  -2.12900 10.41700 21.42300
H  2.35400 12.17600 23.99700
H  2.90800 12.91500 25.57600
H  1.19000 13.00600 25.14100
H  1.06300 10.39800 30.06100
H  4.10300 11.41700 32.68800
H  4.26500 9.72000 32.99300
H  2.89400 10.61300 33.72600
Mg 42.40700 42.04200 27.00300
C  41.57600 44.30100 29.64400
C  43.29300 39.71000 29.40600
C  43.88100 40.19900 24.58100
C  41.95200 44.74000 24.69000
N  42.35100 42.03600 29.29400
C  42.06100 43.07000 30.15300
C  42.21100 42.62800 31.65200
C  42.70800 41.21600 31.46700
C  42.84600 40.97300 29.96800
C  43.96200 40.71700 32.31600
C  40.96900 42.88800 32.59800
C  40.92000 42.06900 33.86700
H  40.92400 42.75800 35.24600
N  43.27900 40.18100 26.99600
C  43.48600 39.38800 28.06800
C  44.15000 38.22900 27.60100
C  44.41400 38.30800 26.21200
C  43.89700 39.61400 25.83200
C  44.49500 37.07500 28.42200
C  45.05200 37.38100 25.17800
O  44.97900 37.50800 23.96700
C  45.98200 36.24100 25.70600
N  42.98200 42.43000 24.98400
C  43.47300 41.44100 24.21100
C  43.65200 41.93600 22.78800
C  42.63900 43.18600 22.74900
C  42.53000 43.51900 24.26200
C  45.08800 42.35500 22.39100
C  41.34700 42.96400 21.94900
C  40.28900 42.04800 22.62900
N  41.78700 44.04000 27.08100
C  41.69300 45.02400 26.05500
C  41.30000 46.28000 26.66000
C  41.20300 46.01400 28.09900
C  41.54100 44.66600 28.23900
C  41.00600 47.55900 25.94900
C  40.94600 46.68400 29.39500
O  40.62600 47.83800 29.61900
C  41.17400 45.53800 30.47200
C  42.02900 46.13100 31.42900
O  43.17000 46.44000 31.15900
O  41.37000 46.52700 32.58800
C  41.95200 47.38200 33.62100
H  43.69700 38.94900 30.07700
H  44.20900 39.63800 23.70300
H  41.84100 45.60500 24.03400
H  42.93400 43.29600 32.12000
H  42.01000 40.51800 31.92900
H  44.10200 41.52500 33.03500
H  44.79500 40.58400 31.62600
H  43.79000 39.79300 32.86800
H  40.03300 42.63200 32.10200
H  41.06900 43.90500 32.97600
H  41.79500 41.42700 33.97300
H  40.03100 41.43900 33.90100
H  44.01400 37.01800 29.39900
H  45.55300 36.91100 28.63100
H  44.00700 36.22000 27.95400
H  46.59700 35.96000 24.85100
H  45.45000 35.31700 25.93200
H  46.70900 36.61200 26.42900
H  43.40400 41.26900 21.96200
H  43.16200 44.06600 22.37600
H  45.48700 41.85600 21.50800
H  45.76900 42.26700 23.23700
H  45.10100 43.38100 22.02300
H  41.57900 42.65400 20.93000
H  40.81800 43.91200 21.85000
H  40.89100 41.55000 23.38900
H  39.70800 41.38200 21.99200
H  39.58700 42.73900 23.09600
H  41.76100 47.89100 25.23500
H  40.86200 48.42500 26.59500
H  40.00500 47.47500 25.52600
H  40.20200 45.34400 30.92600
H  42.45800 46.63800 34.23700
H  41.11500 47.72400 34.23000
H  42.60900 48.01700 33.02600

