158

Mg 41.14600 41.35700 27.09400
C  40.88600 43.88600 29.63900
C  41.89100 39.22600 29.63800
C  42.00000 39.24800 24.86000
C  41.33300 44.09800 24.78400
N  41.44100 41.60200 29.43400
C  40.98200 42.57800 30.18500
C  40.90300 42.12500 31.70300
C  41.49000 40.67200 31.64600
C  41.56600 40.45000 30.11500
C  42.89600 40.56200 32.30100
C  39.42600 42.23200 32.34400
C  39.23700 42.25400 33.86300
H  38.34600 43.31400 34.52400
N  41.64000 39.40900 27.19300
C  41.95400 38.63700 28.33400
C  42.30000 37.27100 27.88100
C  42.33300 37.26000 26.47200
C  41.95700 38.67500 26.11500
C  42.49900 36.20000 28.85900
C  42.75800 36.17400 25.45600
O  42.66500 36.28700 24.25100
C  43.18900 34.80500 25.97300
N  41.64100 41.62400 25.13400
C  41.83900 40.49400 24.35600
C  41.98400 40.90300 22.83700
C  41.69100 42.43400 22.82100
C  41.61500 42.80600 24.36000
C  43.39200 40.57900 22.15300
C  40.36300 42.77500 22.03900
C  39.10200 42.05800 22.53800
N  41.05700 43.56000 27.08800
C  41.04000 44.49600 26.06300
C  40.82100 45.79800 26.60400
C  40.73300 45.62500 27.99200
C  40.96000 44.24600 28.24300
C  40.73800 47.00600 25.88900
C  40.71800 46.36300 29.23300
O  40.49800 47.52900 29.53100
C  40.73100 45.19900 30.38900
C  41.84000 45.48100 31.30600
O  43.06200 45.47600 31.04100
O  41.37000 45.80400 32.56100
C  42.32100 45.93000 33.67400
H  42.09800 38.40300 30.32500
H  42.20100 38.54000 24.05400
H  41.23600 44.83200 23.98200
H  41.59600 42.85000 32.13200
H  40.78000 39.95700 32.06100
H  43.21000 41.50200 32.75500
H  43.63100 40.15200 31.60800
H  42.72900 39.83000 33.09200
H  38.82500 41.37300 32.04400
H  38.95300 43.09100 31.86800
H  40.26000 42.29900 34.23900
H  38.94100 41.27600 34.24400
H  41.83500 35.37200 28.61100
H  42.52300 36.52100 29.90100
H  43.55700 35.96600 28.74200
H  44.12800 34.89600 26.51800
H  43.19800 34.06400 25.17300
H  42.34400 34.58700 26.62600
H  41.15200 40.36700 22.38200
H  42.48500 42.98000 22.31100
H  43.26300 40.31000 21.10400
H  44.04900 39.99400 22.79600
H  43.93800 41.49800 21.94300
H  40.46000 42.58800 20.97000
H  40.16500 43.82900 22.23100
H  39.36200 41.56300 23.47400
H  38.93100 41.37600 21.70500
H  38.30200 42.79700 22.50400
H  40.39300 47.82100 26.52400
H  40.00000 46.83600 25.10500
H  41.67100 47.40400 25.49100
H  39.90200 45.20600 31.09600
H  42.27300 46.99600 33.90000
H  43.35000 45.68600 33.41100
H  42.07300 45.31300 34.53700
Mg -10.25500 17.72200 42.94200
C  -6.81000 16.70100 42.63000
C  -9.10400 20.96400 41.99300
C  -13.37000 18.55200 42.13300
C  -11.04200 14.40600 43.34900
N  -8.22900 18.71100 42.25200
C  -6.95500 18.10200 42.39500
C  -5.80100 19.10200 42.15600
C  -6.53600 20.42600 42.18200
C  -8.00500 20.01500 42.20700
C  -6.18300 21.36800 43.36300
C  -5.02400 18.96600 40.81700
C  -5.74700 18.57300 39.52200
H  -4.95800 18.64900 38.20200
N  -11.13300 19.49900 42.22400
C  -10.51200 20.71000 41.95100
C  -11.48500 21.63100 41.56000
C  -12.77500 20.97600 41.55500
C  -12.51200 19.62400 41.94200
C  -11.15300 23.00700 41.01900
C  -14.13700 21.61700 40.99200
O  -14.15100 22.78100 40.61200
C  -15.37700 20.86600 40.85400
N  -11.91500 16.62100 42.70000
C  -13.09900 17.22900 42.50000
C  -14.27900 16.22500 42.68900
C  -13.54400 14.87900 42.95100
C  -12.05500 15.31100 42.97000
C  -15.41400 16.61600 43.73400
C  -13.78200 13.83200 41.81800
C  -13.80000 12.31000 42.19800
N  -9.20000 15.89800 43.08500
C  -9.66100 14.58000 43.15000
C  -8.60800 13.61700 43.14400
C  -7.46000 14.39300 42.97100
C  -7.85500 15.78300 42.87300
C  -8.83000 12.15200 43.42200
C  -5.96300 14.33200 42.89100
O  -5.12300 13.47900 42.89200
C  -5.51800 15.84300 42.50000
C  -4.46000 16.23800 43.48800
O  -3.26200 16.28000 43.35600
O  -5.04900 16.82400 44.59300
C  -4.06000 17.34500 45.62300
H  -8.80600 21.99800 41.80800
H  -14.43300 18.76100 41.99200
H  -11.40500 13.41300 43.62200
H  -5.06600 19.02600 42.95800
H  -6.37700 21.07100 41.31800
H  -5.35300 20.98500 43.95800
H  -7.01600 21.51500 44.05000
H  -5.83100 22.32600 42.97900
H  -4.38400 18.08800 40.91000
H  -4.39600 19.83900 40.64200
H  -6.67100 19.13500 39.38500
H  -6.07300 17.54300 39.66900
H  -11.76000 23.47000 40.24100
H  -10.19000 23.00700 40.50700
H  -10.99900 23.69500 41.85000
H  -15.84700 20.59800 41.80100
H  -15.16200 19.98600 40.24700
H  -16.11200 21.49400 40.35200
H  -14.97800 16.18700 41.85400
H  -13.71500 14.47200 43.94800
H  -16.35400 16.99500 43.33200
H  -14.89200 17.26500 44.43700
H  -15.61600 15.65800 44.21200
H  -12.95100 13.87700 41.11500
H  -14.59400 14.06400 41.12900
H  -14.85600 12.08200 42.04700
H  -13.48700 12.25100 43.24100
H  -13.14200 11.73400 41.54700
H  -8.85200 11.53000 42.52800
H  -9.70500 11.94400 44.03900
H  -7.95300 11.82300 43.97900
H  -5.21300 15.77700 41.45500
H  -3.30600 16.60200 45.88000
H  -4.58000 17.49700 46.56900
H  -3.59400 18.28000 45.31100

