158

Mg 40.83100 9.36800 29.07500
C  42.47300 10.53100 32.00300
C  38.50400 7.75900 31.27900
C  39.45800 8.05000 26.41300
C  43.40900 10.73600 27.17700
N  40.52700 9.15100 31.47800
C  41.26000 9.88200 32.39700
C  40.65700 9.73100 33.76900
C  39.56200 8.63500 33.60000
C  39.50900 8.48600 32.04400
C  39.76200 7.28100 34.42000
C  40.15500 11.01700 34.48000
C  39.68500 11.02600 36.09400
H  40.48100 11.97300 37.02600
N  39.23500 8.08600 28.83900
C  38.40000 7.59500 29.83000
C  37.34600 6.85500 29.21500
C  37.44600 7.04300 27.82900
C  38.76700 7.73400 27.61600
C  36.37000 5.95700 29.92000
C  36.58800 6.59700 26.64000
O  36.85100 6.90900 25.49400
C  35.32400 5.88900 26.93300
N  41.32500 9.41900 27.10100
C  40.53400 8.81800 26.17500
C  41.22000 8.91700 24.81900
C  42.37600 10.04600 24.98900
C  42.38000 10.13700 26.49200
C  41.58600 7.53700 24.08600
C  42.03900 11.41600 24.36500
C  40.86200 12.22600 24.83300
N  42.59000 10.42100 29.49700
C  43.55100 10.86200 28.59000
C  44.63600 11.48700 29.32500
C  44.15700 11.48700 30.64800
C  42.95100 10.72200 30.69500
C  45.89300 12.04800 28.69600
C  44.53300 11.86700 31.99400
O  45.44700 12.60500 32.36300
C  43.33200 11.40600 32.87400
C  43.84600 10.75200 34.11400
O  44.53200 9.73000 34.04200
O  43.34900 11.43600 35.24300
C  43.71300 10.72900 36.48500
H  37.70800 7.40000 31.93500
H  39.09100 7.73000 25.43600
H  44.22300 11.04600 26.51900
H  41.41200 9.24300 34.38600
H  38.56800 8.99300 33.86900
H  38.91600 7.08200 35.07800
H  40.50800 7.39700 35.20600
H  39.96700 6.32100 33.94800
H  39.27200 11.36000 33.94100
H  40.99900 11.69400 34.35200
H  39.72900 10.05800 36.59200
H  38.62000 11.25700 36.11800
H  35.34300 6.32100 29.93500
H  36.55000 5.82700 30.98700
H  36.23200 5.00500 29.40700
H  34.71400 6.43100 27.65500
H  35.59000 4.87500 27.23100
H  34.72300 5.88300 26.02400
H  40.46300 9.40700 24.20700
H  43.25800 9.55400 24.57800
H  41.70500 6.78800 24.86800
H  42.45900 7.48100 23.43600
H  40.72500 7.14700 23.54400
H  41.94800 11.19600 23.30200
H  42.92400 12.02300 24.55500
H  40.11200 12.22300 24.04200
H  41.24300 13.23300 25.00000
H  40.40800 11.87300 25.75900
H  46.25400 11.39000 27.90500
H  46.63400 12.08600 29.49400
H  45.87400 13.07200 28.32300
H  42.80500 12.32100 33.14600
H  43.76700 11.49800 37.25500
H  44.58900 10.09100 36.36400
H  42.88400 10.06200 36.71900
Mg 28.29800 58.69700 42.35200
C  25.80900 56.92100 40.69000
C  30.67600 56.73800 40.86400
C  30.66600 60.77700 43.56300
C  25.75600 60.76300 43.67400
N  28.17900 56.95900 40.93700
C  27.08000 56.38300 40.36400
C  27.47000 55.32900 39.35900
C  28.92700 55.08100 39.81300
C  29.34200 56.31000 40.62500
C  28.99200 53.81700 40.65400
C  27.34700 55.92500 37.93200
C  26.69000 54.90400 36.93000
H  27.39700 54.67800 35.62700
N  30.39300 58.77300 42.20200
C  31.17600 57.88200 41.60000
C  32.52400 58.39600 41.60900
C  32.57000 59.62500 42.37200
C  31.19900 59.73700 42.77500
C  33.60400 57.77500 40.83900
C  33.73500 60.39800 42.65500
O  34.85800 59.95700 42.32800
C  33.70800 61.73300 43.33700
N  28.20400 60.45500 43.58400
C  29.33300 61.05300 43.99300
C  29.01100 62.34000 44.78400
C  27.45500 62.29400 44.86500
C  27.10400 61.10400 43.94700
C  29.76600 62.45900 46.14900
C  26.76200 63.64600 44.47300
C  26.34200 64.62900 45.61500
N  26.14900 58.81200 42.30900
C  25.27700 59.72100 42.84800
C  23.92000 59.35100 42.52000
C  24.07800 58.28400 41.57900
C  25.45800 57.95500 41.53300
C  22.79600 60.15500 42.94600
C  23.37500 57.36900 40.77200
O  22.22700 57.18100 40.54500
C  24.49400 56.50900 40.11300
C  24.03100 55.08600 40.55300
O  23.88500 54.69400 41.68700
O  23.88900 54.33100 39.44200
C  23.62500 52.92700 39.53000
H  31.37800 55.96300 40.54900
H  31.28600 61.60000 43.92600
H  25.08800 61.49100 44.13800
H  26.82700 54.45100 39.41600
H  29.69300 54.82100 39.08300
H  29.66500 53.10200 40.18100
H  28.02200 53.33300 40.76400
H  29.31300 54.01600 41.67700
H  28.36200 56.13600 37.59700
H  26.73400 56.82500 37.88100
H  25.70600 55.30100 36.68200
H  26.61900 53.89400 37.33500
H  34.18100 57.01000 41.36000
H  34.18900 58.59800 40.42800
H  33.21100 57.25500 39.96600
H  32.88100 62.37800 43.04000
H  34.63300 62.23800 43.05800
H  33.72600 61.59000 44.41700
H  29.37800 63.15700 44.16300
H  27.19200 62.20100 45.91900
H  30.54300 61.69500 46.14800
H  29.13200 62.30000 47.02100
H  30.27400 63.41800 46.04500
H  25.82000 63.46000 43.95600
H  27.36900 64.27200 43.81900
H  25.26200 64.76700 45.65700
H  26.94600 65.53200 45.52700
H  26.76800 64.28300 46.55800
H  21.88700 59.65000 42.62000
H  22.79900 61.09300 42.39100
H  22.72600 60.27500 44.02700
H  24.51200 56.61100 39.02800
H  22.71300 52.74200 40.09700
H  24.42300 52.35100 40.00000
H  23.40000 52.51100 38.54900

