158

Mg -2.36700 17.43500 26.54800
C  -3.18300 15.15400 29.17600
C  -2.45500 19.95700 28.79500
C  -2.20200 19.47800 23.92800
C  -2.92900 14.64100 24.22200
N  -2.77500 17.52700 28.76300
C  -3.03000 16.50500 29.62100
C  -3.00000 17.09200 31.03600
C  -2.82200 18.64800 30.83500
C  -2.75100 18.72100 29.40400
C  -3.98900 19.57300 31.40300
C  -1.96300 16.45400 31.99800
C  -1.57700 17.19100 33.23300
H  -1.11200 16.34100 34.43900
N  -2.23700 19.47400 26.38100
C  -2.28000 20.34300 27.42500
C  -2.06700 21.65500 26.85300
C  -1.99100 21.56700 25.39900
C  -2.17300 20.14000 25.20100
C  -1.97100 22.97200 27.75600
C  -1.77500 22.62200 24.42100
O  -1.71000 22.40800 23.22700
C  -1.72700 24.08200 24.79200
N  -2.73200 17.07100 24.36200
C  -2.48000 18.15700 23.55500
C  -2.53600 17.77300 22.05500
C  -2.67200 16.20800 22.13500
C  -2.76800 15.92400 23.69000
C  -3.70800 18.53200 21.32400
C  -1.50000 15.47500 21.54400
C  -0.16000 15.70000 22.30100
N  -2.97000 15.31900 26.61200
C  -3.04400 14.32000 25.59800
C  -3.33800 13.09400 26.25900
C  -3.41500 13.31500 27.66500
C  -3.20900 14.71300 27.82400
C  -3.46300 11.76700 25.55300
C  -3.56200 12.72800 28.97600
O  -3.78300 11.61300 29.36200
C  -3.54000 13.90700 30.01100
C  -2.34200 13.53400 30.85800
O  -1.17200 13.58100 30.50100
O  -2.72400 12.87400 32.01100
C  -1.70900 12.37800 32.90300
H  -2.35200 20.76000 29.52800
H  -2.00200 20.05600 23.02400
H  -2.98800 13.79900 23.53000
H  -4.00600 17.00900 31.44700
H  -1.96400 19.12000 31.31300
H  -4.51000 19.86000 30.48900
H  -3.55500 20.42300 31.92800
H  -4.69600 19.06900 32.06200
H  -1.00200 16.41600 31.48400
H  -2.35800 15.49200 32.32500
H  -2.33300 17.93500 33.48600
H  -0.71900 17.78900 32.92500
H  -1.04000 23.52900 27.64700
H  -1.93600 22.67100 28.80300
H  -2.80200 23.62800 27.49400
H  -2.60500 24.21700 25.42400
H  -1.79600 24.67300 23.87900
H  -0.80000 24.25500 25.33900
H  -1.55500 18.03300 21.65800
H  -3.53300 15.85900 21.56500
H  -4.51200 17.79600 21.32700
H  -3.51600 18.76000 20.27600
H  -4.03400 19.36400 21.94900
H  -1.36800 15.84000 20.52500
H  -1.75000 14.43400 21.34000
H  -0.06300 16.60900 22.89600
H  0.44800 15.93600 21.42800
H  0.26000 14.90200 22.91300
H  -4.12400 11.87300 24.69300
H  -3.79600 10.99200 26.24400
H  -2.62100 11.26700 25.07400
H  -4.44300 13.94200 30.62100
H  -2.11100 11.90000 33.79600
H  -1.20800 13.29900 33.20200
H  -0.97100 11.70600 32.46500
Mg 40.34800 9.42200 30.78500
C  42.20200 10.68500 33.40500
C  38.02800 8.25800 32.89800
C  38.62400 8.11600 28.08300
C  42.99000 10.02600 28.60400
N  40.23500 9.37100 32.92000
C  40.97400 10.15400 33.83500
C  40.29700 10.27300 35.17500
C  39.10200 9.28500 35.06800
C  39.08700 8.89600 33.55900
C  39.28800 8.03500 35.99500
C  39.92200 11.73000 35.62500
C  39.37400 11.98800 36.99700
H  40.17500 12.92500 37.90200
N  38.55100 8.39500 30.48900
C  37.75200 7.91800 31.57600
C  36.71300 7.07600 31.03200
C  36.93000 6.94800 29.66000
C  38.10500 7.83500 29.34400
C  35.63600 6.48700 31.84300
C  36.12400 6.17500 28.65600
O  36.51500 6.05400 27.53400
C  34.94900 5.40500 29.02400
N  40.65600 9.27400 28.59600
C  39.73800 8.84300 27.66900
C  40.26300 8.86000 26.25400
C  41.64000 9.53700 26.40200
C  41.79400 9.56600 27.98900
C  40.19100 7.48900 25.50800
C  41.83400 10.97300 25.85400
C  40.61700 11.89000 26.00900
N  42.19200 10.16700 30.93900
C  43.25100 10.26800 30.00200
C  44.40500 10.72500 30.63300
C  44.03000 11.08900 31.94000
C  42.70800 10.63400 32.08100
C  45.73200 10.96100 29.94100
C  44.42100 11.76600 33.19100
O  45.46000 12.33100 33.55200
C  43.27400 11.51200 34.23500
C  43.77200 10.79100 35.45400
O  43.97200 9.60700 35.60400
O  43.68500 11.58100 36.56500
C  43.76900 10.83800 37.80200
H  37.36200 7.85700 33.66500
H  38.01300 7.73400 27.26300
H  43.88200 10.17200 27.99100
H  41.06300 9.92600 35.86800
H  38.17300 9.71100 35.44500
H  40.12500 7.43100 35.64500
H  38.31000 7.55600 36.01600
H  39.46400 8.52900 36.95000
H  39.25500 12.20800 34.90800
H  40.86100 12.27200 35.51700
H  39.23500 11.03600 37.51000
H  38.39800 12.46000 36.88100
H  34.65400 6.79200 31.48200
H  35.75100 6.58100 32.92300
H  35.59500 5.40900 31.68200
H  34.33100 6.13600 29.54400
H  35.34200 4.62700 29.67900
H  34.43400 4.91600 28.19700
H  39.48800 9.34900 25.66300
H  42.44500 8.96200 25.94400
H  39.54100 7.50700 24.63300
H  39.78800 6.64100 26.06100
H  41.18800 7.21900 25.15900
H  41.95600 10.78700 24.78700
H  42.79600 11.39200 26.15100
H  39.90300 11.59800 26.77900
H  40.08400 11.99500 25.06500
H  40.97100 12.87500 26.31100
H  46.13700 10.03800 29.52500
H  46.44600 11.57400 30.49100
H  45.41900 11.58900 29.10700
H  42.99100 12.53400 34.48800
H  43.82100 11.66100 38.51400
H  44.69800 10.27700 37.89900
H  42.84900 10.26300 37.91500

