158

Mg 41.17000 9.06500 29.66000
C  43.09300 10.24600 32.31700
C  39.02600 7.69000 31.92900
C  39.55200 7.56300 27.15700
C  43.68700 10.02700 27.45800
N  41.10700 8.94200 31.92300
C  41.85600 9.72300 32.75100
C  41.34600 9.73500 34.24800
C  40.13100 8.83200 34.02200
C  40.01800 8.49400 32.57000
C  39.98900 7.68400 34.98800
C  41.20100 11.18100 34.80900
C  42.09200 11.43300 36.10400
H  41.35500 12.01700 37.34400
N  39.56500 7.77600 29.55300
C  38.85500 7.33700 30.60700
C  37.72700 6.54600 30.11900
C  37.77600 6.60600 28.70400
C  39.04500 7.26300 28.40000
C  36.68100 5.85000 31.00700
C  36.78600 6.21900 27.68000
O  36.98600 6.31000 26.49000
C  35.45000 5.66100 28.09400
N  41.60700 8.79000 27.62200
C  40.68700 8.31700 26.77600
C  41.14600 8.46900 25.27600
C  42.35100 9.47300 25.40100
C  42.56200 9.42200 26.92200
C  41.56600 7.07800 24.76600
C  42.20200 10.99200 24.94100
C  40.86500 11.74600 25.07700
N  43.04800 9.85500 29.80800
C  43.97100 10.16800 28.82300
C  45.07900 10.75200 29.44300
C  44.79500 10.92000 30.82400
C  43.51400 10.28700 30.95300
C  46.30900 11.40800 28.81800
C  45.26700 11.44300 32.08600
O  46.28300 12.10900 32.36100
C  44.17800 10.92900 33.10000
C  44.78700 10.00400 34.08700
O  44.98600 8.79900 34.00500
O  45.06000 10.72300 35.26300
C  45.57200 9.93900 36.37000
H  38.23100 7.49800 32.65300
H  39.16700 6.87800 26.39900
H  44.42800 10.43300 26.76700
H  42.07900 9.15000 34.80300
H  39.26900 9.47700 34.19400
H  40.23400 6.76100 34.46300
H  38.96300 7.47600 35.29200
H  40.59600 7.80800 35.88400
H  40.15200 11.23400 35.10000
H  41.39300 11.98900 34.10200
H  42.83400 12.14300 35.73800
H  42.59000 10.50900 36.39800
H  36.86600 4.82200 30.69800
H  35.65500 6.19000 30.86400
H  36.82800 5.99900 32.07700
H  35.71200 4.67500 28.48000
H  34.76800 5.54200 27.25200
H  34.95400 6.35800 28.77000
H  40.28200 8.77500 24.68700
H  43.21300 8.97700 24.95500
H  41.00200 6.82700 23.86800
H  41.27500 6.32400 25.49800
H  42.61500 6.91600 24.51700
H  42.43300 11.12700 23.88400
H  43.02500 11.64700 25.22800
H  40.27600 11.08600 25.71400
H  40.47300 11.84700 24.06500
H  41.08400 12.72500 25.50400
H  46.47100 11.08700 27.79000
H  47.19600 11.18000 29.40900
H  46.19800 12.48900 28.91000
H  43.78500 11.80500 33.61600
H  46.62400 9.77900 36.13400
H  44.98900 9.10300 36.75600
H  45.44100 10.50400 37.29200
Mg 54.65200 23.84000 44.73300
C  52.18200 26.09900 43.51300
C  53.13100 21.31300 43.01400
C  57.58900 21.98400 44.94700
C  56.48500 26.55500 45.92700
N  52.85700 23.78800 43.46600
C  51.95700 24.79500 43.10800
C  50.91900 24.22100 42.18900
C  51.04900 22.64900 42.26700
C  52.37400 22.54100 43.04100
C  49.92200 22.12200 43.13300
C  51.29400 24.74500 40.68800
C  50.12800 25.16200 39.77500
H  50.63200 25.55700 38.34000
N  55.20300 21.86900 44.23500
C  54.44000 20.95500 43.50400
C  55.08700 19.68800 43.57300
C  56.37000 19.91300 44.13100
C  56.38100 21.32400 44.51800
C  54.52000 18.52600 42.88900
C  57.42300 18.87000 44.32200
O  57.27800 17.70800 43.96300
C  58.64200 19.10700 45.18500
N  56.82200 24.27700 45.29800
C  57.78600 23.33900 45.25400
C  59.07800 23.90900 45.81800
C  58.74500 25.38000 45.96200
C  57.25000 25.43400 45.75600
C  59.39100 23.27300 47.17700
C  59.64400 26.31400 44.93200
C  59.94200 27.60400 45.67600
N  54.43900 25.88700 44.79300
C  55.19700 26.85700 45.45600
C  54.36700 28.03700 45.67700
C  53.27800 27.80400 44.79900
C  53.29300 26.49800 44.35000
C  54.61000 29.25900 46.39400
C  52.08600 28.45900 44.25100
O  51.61300 29.57300 44.27800
C  51.35700 27.34200 43.45800
C  51.16700 27.94200 42.06800
O  52.02400 28.47600 41.39900
O  49.87700 27.74500 41.72800
C  49.41300 28.48100 40.58500
H  52.54600 20.55500 42.49000
H  58.52600 21.43300 45.05400
H  56.94200 27.42500 46.40300
H  49.90200 24.51500 42.44600
H  51.16700 22.13700 41.31200
H  48.96100 22.58600 42.91000
H  50.24200 22.38000 44.14300
H  49.80600 21.04700 42.99500
H  51.81400 23.94500 40.16000
H  52.05100 25.52000 40.80200
H  49.61600 26.00500 40.24000
H  49.44600 24.31200 39.74300
H  55.01400 18.41400 41.92400
H  53.45700 18.72400 42.75200
H  54.74300 17.65800 43.51000
H  58.32600 19.65500 46.07300
H  59.43400 19.54900 44.58000
H  59.05000 18.11300 45.36600
H  59.96000 23.87400 45.17800
H  58.86300 25.61800 47.01900
H  60.40500 23.60200 47.40600
H  59.36100 22.18400 47.17600
H  58.70600 23.68300 47.91900
H  59.08000 26.63300 44.05500
H  60.53600 25.83900 44.52300
H  59.26600 28.42600 45.43800
H  60.95200 27.96500 45.47900
H  59.89600 27.50000 46.76000
H  53.86800 29.37600 47.18500
H  54.55800 30.17300 45.80200
H  55.60800 29.14900 46.82000
H  50.35800 27.09100 43.81400
H  49.30700 29.54700 40.78400
H  48.41100 28.11700 40.35700
H  50.01900 28.24900 39.70900

