158

Mg 24.11700 -5.21200 45.22300
C  26.34200 -3.10700 43.53900
C  21.71800 -4.20600 43.01400
C  22.19100 -7.99000 46.01700
C  26.87200 -6.59300 46.88100
N  24.14700 -3.94400 43.41400
C  25.09700 -3.06200 43.04000
C  24.62700 -2.08500 41.90600
C  23.09300 -2.34600 41.97600
C  22.95300 -3.58400 42.82500
C  22.22100 -1.11400 42.45200
C  25.29300 -2.25200 40.49100
C  25.24100 -1.03100 39.61400
H  24.85500 -1.27600 38.09800
N  22.13300 -5.96700 44.64200
C  21.31400 -5.36100 43.74300
C  20.08800 -6.09600 43.70000
C  20.13300 -7.11300 44.69000
C  21.52500 -7.08300 45.17100
C  18.93900 -5.60000 42.78600
C  18.99500 -8.03700 45.11800
O  17.90200 -7.93700 44.52300
C  19.15700 -9.01200 46.27900
N  24.48100 -7.05600 46.13800
C  23.57200 -8.03400 46.45000
C  24.21700 -9.10000 47.28500
C  25.58700 -8.58000 47.74600
C  25.67700 -7.37400 46.78400
C  23.31900 -9.73700 48.44200
C  26.78600 -9.57700 47.61500
C  27.59100 -9.79800 48.90200
N  26.21700 -4.78000 45.39100
C  27.18400 -5.42700 46.13600
C  28.50400 -4.78500 45.96900
C  28.21400 -3.81400 44.92900
C  26.82700 -3.89500 44.62700
C  29.76000 -5.17200 46.60800
C  28.76200 -2.80600 44.04900
O  29.93400 -2.44700 43.93000
C  27.54400 -2.21500 43.21400
C  27.29000 -0.84000 43.69300
O  26.60800 -0.53600 44.65600
O  27.93900 0.13400 42.87500
C  27.87400 1.49600 43.47400
H  20.97500 -3.70400 42.39000
H  21.70700 -8.88300 46.41700
H  27.70200 -7.00300 47.45900
H  24.87100 -1.07000 42.22000
H  22.73600 -2.62900 40.98700
H  22.89100 -0.25600 42.51200
H  21.77600 -1.40300 43.40400
H  21.38200 -0.97500 41.77000
H  24.82600 -3.13000 40.04500
H  26.33400 -2.54700 40.62200
H  26.23100 -0.60600 39.78000
H  24.53300 -0.43300 40.18900
H  18.31300 -4.85000 43.27000
H  18.17900 -6.36600 42.63100
H  19.33000 -5.08300 41.90900
H  18.17000 -9.17900 46.71000
H  19.76400 -8.56800 47.06800
H  19.57400 -9.96000 45.94000
H  24.43400 -9.94700 46.63500
H  25.56800 -8.20400 48.76900
H  24.07400 -10.05200 49.16200
H  22.69100 -10.51800 48.01400
H  22.71900 -8.94200 48.88600
H  27.48000 -9.17700 46.87600
H  26.38700 -10.55200 47.33400
H  28.66800 -9.78900 48.73600
H  27.24100 -10.79100 49.18500
H  27.16400 -9.04500 49.56300
H  30.63000 -4.98400 45.98000
H  29.76000 -6.18000 47.02400
H  29.88900 -4.45500 47.41900
H  27.77500 -2.33200 42.15500
H  27.01600 1.89100 44.01900
H  27.94800 2.22200 42.66400
H  28.68900 1.52600 44.19700
Mg 26.44800 49.75500 27.14500
C  24.28700 51.22600 29.66000
C  28.53200 48.78200 29.72000
C  28.65600 49.17200 24.78500
C  24.43500 51.49000 24.73800
N  26.47600 50.17400 29.46300
C  25.43800 50.67300 30.23800
C  25.64300 50.21400 31.72800
C  27.05600 49.59800 31.73500
C  27.39500 49.45100 30.18700
C  28.10400 50.41600 32.53900
C  24.50300 49.42500 32.37100
C  23.99500 49.98400 33.66500
H  24.97800 50.68700 34.60900
N  28.25800 48.92500 27.22000
C  28.94600 48.53200 28.36700
C  30.29600 47.92400 28.00400
C  30.39300 48.21300 26.56500
C  29.11200 48.85000 26.10800
C  31.35500 47.34900 28.85800
C  31.62100 48.03400 25.58800
O  31.56100 48.35500 24.38600
C  32.86400 47.48100 26.11500
N  26.64300 50.34100 25.13400
C  27.52000 49.76000 24.29200
C  27.09800 49.94900 22.82400
C  25.67200 50.49000 22.87600
C  25.58700 50.83400 24.36300
C  27.97300 50.90800 22.08100
C  24.62300 49.42600 22.35700
C  23.85600 49.82700 21.08100
N  24.62700 50.99800 27.14500
C  23.97400 51.62000 26.08500
C  22.91100 52.42900 26.64100
C  22.96700 52.24900 28.04200
C  24.06800 51.38100 28.31200
C  21.90200 53.24100 25.96600
C  22.38700 52.72900 29.33200
O  21.39100 53.43100 29.61300
C  23.25100 52.00000 30.43400
C  23.72800 53.01300 31.35800
O  24.83600 53.51200 31.21500
O  22.84900 53.19600 32.38100
C  23.10900 54.29800 33.42800
H  29.19500 48.38500 30.49200
H  29.34600 48.81000 24.02000
H  23.71000 51.92200 24.04500
H  25.68500 51.17000 32.25000
H  27.04100 48.60700 32.18800
H  27.69400 50.90100 33.42500
H  28.47600 51.18900 31.86600
H  28.97400 49.79200 32.74400
H  24.91900 48.44800 32.61600
H  23.73200 49.20200 31.63400
H  23.63900 49.06900 34.13700
H  23.16400 50.67300 33.51400
H  31.60200 46.36000 28.47100
H  30.96200 47.29100 29.87300
H  32.22600 48.00200 28.90300
H  33.40200 48.17700 26.75800
H  33.47300 47.18000 25.26300
H  32.57300 46.56700 26.63300
H  27.09100 48.93400 22.42700
H  25.56000 51.40000 22.28700
H  27.53800 51.88100 21.85300
H  28.35400 50.36500 21.21600
H  28.85400 51.23300 22.63400
H  23.94100 49.26000 23.19100
H  25.09800 48.50800 22.00900
H  24.05200 49.13500 20.26200
H  24.10900 50.84700 20.79000
H  22.84600 49.74300 21.48000
H  22.37900 53.84100 25.19100
H  21.35100 53.92600 26.61000
H  21.12600 52.64300 25.48800
H  22.61200 51.36600 31.04900
H  23.25200 55.18300 32.80900
H  24.05400 54.12400 33.94200
H  22.25300 54.36000 34.10100

