158

Mg 24.41000 -4.92500 45.08900
C  26.25200 -2.61800 43.38100
C  21.76800 -4.38900 42.91800
C  22.98900 -7.86000 46.08300
C  27.32600 -5.94000 46.86700
N  24.11400 -3.56900 43.40100
C  24.96100 -2.73300 42.89500
C  24.37200 -1.95400 41.68300
C  22.87800 -2.32200 41.80500
C  22.91800 -3.50100 42.80900
C  21.94800 -1.17600 42.33600
C  25.05200 -2.37500 40.38200
C  25.52300 -1.31900 39.30900
H  25.28300 -1.56900 37.85600
N  22.49500 -5.83700 44.71200
C  21.59000 -5.49800 43.74100
C  20.48400 -6.42900 43.76800
C  20.79000 -7.46000 44.66300
C  22.14800 -7.07200 45.22400
C  19.20500 -6.35900 42.82800
C  19.98400 -8.77700 44.84400
O  18.94800 -8.92000 44.23600
C  20.42100 -9.95900 45.59600
N  25.02200 -6.61900 46.46200
C  24.25600 -7.72000 46.63000
C  24.90000 -8.75800 47.54100
C  26.14600 -7.97500 48.06000
C  26.20100 -6.78200 47.08100
C  23.93100 -9.18100 48.66700
C  27.43600 -8.81700 48.17300
C  28.41100 -8.47900 49.25800
N  26.37600 -4.27900 45.31700
C  27.45000 -4.76100 46.06000
C  28.62300 -3.93100 45.76700
C  28.22300 -3.09400 44.73200
C  26.86200 -3.37800 44.48700
C  30.01400 -4.04500 46.43100
C  28.65400 -2.08000 43.69900
O  29.77000 -1.56700 43.57500
C  27.35700 -1.73900 42.81300
C  27.04600 -0.23900 42.82400
O  26.62300 0.43300 43.74300
O  27.52100 0.27300 41.62300
C  27.23900 1.72700 41.34600
H  20.98500 -4.16300 42.19100
H  22.70900 -8.88400 46.33800
H  28.20600 -6.35900 47.35900
H  24.54900 -0.90700 41.92700
H  22.52600 -2.75800 40.87100
H  22.38100 -0.17800 42.26900
H  21.40900 -1.37800 43.26100
H  21.16700 -0.97800 41.60200
H  24.22700 -2.83900 39.84200
H  25.82800 -3.13500 40.48000
H  26.59000 -1.11600 39.40200
H  25.08900 -0.36000 39.59000
H  19.04000 -5.32600 42.52300
H  18.30000 -6.78600 43.25900
H  19.64400 -6.93900 42.01600
H  21.26400 -10.46100 45.12100
H  19.58800 -10.62000 45.83800
H  20.61500 -9.66600 46.62700
H  25.27700 -9.65100 47.04200
H  25.98300 -7.65600 49.08900
H  23.20900 -8.39100 48.87300
H  24.50500 -9.22300 49.59300
H  23.48700 -10.13800 48.39300
H  27.87500 -8.86200 47.17700
H  27.05400 -9.78600 48.49400
H  28.63000 -9.39700 49.80200
H  28.13000 -7.79500 50.05800
H  29.28500 -8.22100 48.65900
H  30.03400 -3.74300 47.47800
H  30.86900 -3.58300 45.93700
H  30.25700 -5.10600 46.38800
H  27.70200 -2.14100 41.86000
H  28.13000 2.19100 41.76800
H  26.30700 1.99500 41.84400
H  27.11300 1.98600 40.29400
Mg 26.77000 49.47600 25.70300
C  24.80000 50.58700 28.25400
C  29.08900 48.59900 27.99900
C  28.88300 48.80300 23.17300
C  24.46400 50.75500 23.43000
N  26.87700 49.65500 27.88900
C  25.97400 50.09300 28.76200
C  26.33200 49.72000 30.19100
C  27.83600 49.48400 30.03600
C  27.95100 49.16400 28.52400
C  28.79100 50.58600 30.46100
C  25.45400 48.59400 30.92300
C  24.85900 48.84100 32.34700
H  25.76600 49.52700 33.39600
N  28.71500 48.72200 25.62300
C  29.54100 48.38900 26.71900
C  30.79600 47.75600 26.25000
C  30.81700 47.83300 24.80000
C  29.47000 48.42000 24.42800
C  31.95200 47.26200 27.10500
C  31.90900 47.54700 23.76900
O  31.67900 47.79100 22.60200
C  33.21500 46.96900 24.28500
N  26.69700 49.74600 23.59400
C  27.69300 49.43200 22.76500
C  27.30500 49.63400 21.28800
C  25.84700 50.17800 21.37500
C  25.59800 50.18100 22.89700
C  28.29300 50.49200 20.43900
C  24.65800 49.41500 20.62400
C  24.00100 50.01500 19.40400
N  25.03700 50.53500 25.81000
C  24.17700 50.97300 24.76500
C  23.07500 51.70000 25.33300
C  23.27500 51.53400 26.74400
C  24.45700 50.78100 26.92800
C  21.92200 52.23000 24.59500
C  22.61900 51.80300 28.02400
O  21.57800 52.39000 28.33100
C  23.62900 51.15800 29.01800
C  23.97400 52.14400 30.11900
O  24.37300 53.27900 29.81300
O  23.89200 51.54700 31.40000
C  24.27400 52.35400 32.55800
H  29.83000 48.31200 28.74700
H  29.47700 48.64100 22.27100
H  23.78500 51.30600 22.77600
H  26.31000 50.68200 30.70300
H  28.07200 48.58500 30.60700
H  29.31900 51.01200 29.60900
H  29.61600 50.06700 30.95000
H  28.23900 51.37600 30.97100
H  26.01400 47.65900 30.89700
H  24.59300 48.36900 30.29500
H  24.79900 47.78200 32.59900
H  23.88400 49.31900 32.25800
H  31.85100 46.18400 26.97700
H  31.75600 47.62700 28.11200
H  32.95100 47.62000 26.85300
H  33.05300 46.03000 24.81500
H  33.76900 47.70600 24.86700
H  33.95200 46.65400 23.54600
H  27.28900 48.62100 20.88500
H  25.77800 51.20900 21.02700
H  29.17400 50.85700 20.96900
H  27.75100 51.40300 20.18600
H  28.57300 49.92800 19.54900
H  23.89000 49.28100 21.38500
H  25.00800 48.41200 20.38000
H  24.12000 49.25900 18.62700
H  24.50800 50.94100 19.13300
H  22.97000 50.17200 19.72000
H  21.63600 51.69600 23.68900
H  22.15800 53.26300 24.34100
H  21.00700 52.25800 25.18600
H  23.07900 50.36900 29.53100
H  24.16200 51.65400 33.38500
H  23.51500 53.13600 32.52600
H  25.29400 52.73800 32.55400

