158

Mg 46.90500 16.71200 28.50100
C  44.63600 16.42800 31.22000
C  49.14700 18.35100 30.56100
C  48.42300 17.71500 25.81100
C  44.32700 15.20800 26.47700
N  46.82600 17.46000 30.63200
C  45.84600 17.12100 31.53400
C  46.28100 17.55600 32.97200
C  47.61600 18.36700 32.70500
C  47.92900 18.04900 31.24300
C  47.53900 19.83500 32.94800
C  46.47600 16.41600 33.90800
C  45.94800 16.61200 35.35900
H  45.51100 17.97800 35.83200
N  48.65000 17.74000 28.22200
C  49.42300 18.30200 29.15700
C  50.61300 18.82100 28.55400
C  50.36900 18.79800 27.15400
C  49.04700 18.11800 26.98700
C  51.76300 19.31800 29.34000
C  51.19600 19.32000 26.08600
O  50.78200 19.40200 24.94800
C  52.66800 19.63400 26.36200
N  46.45000 16.44500 26.47000
C  47.22800 16.99600 25.49300
C  46.77700 16.69400 24.09300
C  45.74100 15.58500 24.35100
C  45.44400 15.70700 25.83800
C  46.14900 17.96700 23.47500
C  46.29500 14.11700 24.13600
C  45.85500 13.53200 22.81000
N  44.87500 15.95300 28.72300
C  44.00700 15.42600 27.79500
C  42.86200 14.87000 28.50800
C  43.11200 15.21800 29.86400
C  44.28200 15.93600 29.90400
C  41.69800 14.08000 27.97600
C  42.48100 15.09100 31.18000
O  41.50400 14.49900 31.53600
C  43.48000 15.96000 32.19900
C  42.60100 17.02500 32.81300
O  42.25200 18.12600 32.31200
O  42.19400 16.58900 34.05300
C  41.18800 17.37000 34.78500
H  49.84000 18.79000 31.28200
H  48.85500 17.83000 24.81400
H  43.72900 14.66000 25.74500
H  45.46800 18.24100 33.21000
H  48.38200 18.05300 33.41500
H  47.30500 20.32500 32.00200
H  48.55100 20.16300 33.18500
H  46.79400 20.12900 33.68700
H  47.52500 16.12300 33.87000
H  45.86000 15.56500 33.61500
H  46.70500 16.34700 36.09700
H  45.17400 15.84900 35.44700
H  52.64400 18.68100 29.26000
H  51.63400 19.54700 30.39800
H  52.19600 20.27100 29.03800
H  53.19400 18.81200 26.84700
H  52.86200 20.55000 26.92000
H  53.13700 19.62500 25.37800
H  47.49500 16.30300 23.37300
H  44.82500 15.76600 23.78800
H  46.61900 18.18400 22.51600
H  46.41000 18.81800 24.10300
H  45.06700 17.85000 23.41400
H  45.90500 13.47600 24.92600
H  47.37500 14.09900 24.28500
H  45.58000 14.20900 22.00100
H  45.04200 12.87100 23.11000
H  46.58800 12.79600 22.48000
H  41.93900 14.10800 26.91300
H  40.71400 14.48200 28.22000
H  41.81300 13.04600 28.30200
H  43.87700 15.23600 32.91000
H  41.79800 18.09600 35.32300
H  40.73300 16.68600 35.50100
H  40.34700 17.75400 34.20700
Mg 6.90800 52.59100 42.12800
C  6.50100 49.04400 41.74300
C  10.26400 52.18200 41.02800
C  7.08100 55.82300 41.84900
C  3.52700 52.75200 42.75000
N  8.22700 50.81500 41.46800
C  7.80300 49.46500 41.34600
C  9.04000 48.59900 40.93100
C  10.25400 49.64600 41.12700
C  9.55800 50.99000 41.22100
C  11.33600 49.32500 42.22500
C  8.99400 47.86900 39.56700
C  8.82800 48.73400 38.25300
H  7.95100 48.17300 37.12700
N  8.50800 53.85000 41.58300
C  9.78100 53.55000 41.16800
C  10.55100 54.73200 41.02800
C  9.61200 55.84200 41.28400
C  8.31000 55.20500 41.52000
C  12.06600 54.65200 40.74300
C  10.02100 57.28200 41.12900
O  11.22000 57.56200 40.93200
C  9.03800 58.37700 41.42900
N  5.49100 54.06100 42.13700
C  5.83300 55.31900 42.22900
C  4.73200 56.22300 42.62600
C  3.56400 55.32300 43.05600
C  4.17900 53.94100 42.61000
C  5.03600 57.22400 43.79400
C  2.14900 55.60100 42.46600
C  2.01300 55.21000 40.98200
N  5.32900 51.23500 42.17600
C  4.01700 51.48600 42.48000
C  3.39400 50.23300 42.77100
C  4.31700 49.25000 42.37300
C  5.47400 49.89100 42.02600
C  1.94900 50.11800 43.28800
C  4.50200 47.84700 42.18300
O  3.76900 46.86700 42.30100
C  5.92200 47.68900 41.65800
C  5.71300 47.13300 40.29000
O  5.40400 47.72800 39.24300
O  6.09500 45.88700 40.37700
C  5.93900 44.98800 39.34500
H  11.32100 52.00900 40.81400
H  7.02400 56.90100 41.68400
H  2.47800 52.75600 43.05200
H  9.07700 47.84900 41.72200
H  10.86600 49.68800 40.22600
H  11.09600 48.48000 42.87100
H  11.59600 50.15900 42.87700
H  12.30500 49.05500 41.80300
H  8.32100 47.01700 39.46400
H  10.01600 47.49200 39.53100
H  9.85100 48.87100 37.90300
H  8.46700 49.73000 38.50900
H  12.55000 55.61100 40.92600
H  12.22800 54.41200 39.69200
H  12.51300 53.94000 41.43700
H  8.22300 58.28300 40.71100
H  9.61800 59.29300 41.32100
H  8.74800 58.14400 42.45400
H  4.49100 56.86700 41.78000
H  3.47800 55.16000 44.13000
H  4.14300 57.81200 44.00800
H  5.76100 57.91300 43.36100
H  5.37700 56.81900 44.74700
H  1.91700 56.66400 42.53300
H  1.49800 55.10100 43.18400
H  0.97900 55.40900 40.70200
H  2.14900 54.13400 40.87500
H  2.70100 55.75800 40.33800
H  1.77300 49.24000 43.91000
H  1.33800 50.06800 42.38600
H  1.67600 50.92400 43.96900
H  6.30800 46.91700 42.32400
H  6.88500 44.51100 39.08600
H  5.50200 45.42900 38.44900
H  5.34100 44.17700 39.76200

