158

Mg 42.27900 41.43700 26.38500
C  41.16300 43.76800 28.77200
C  42.81900 39.18200 28.90200
C  43.52500 39.34500 24.12600
C  42.01100 43.95800 23.89300
N  42.07500 41.55200 28.54100
C  41.58400 42.59300 29.28100
C  41.62800 42.23500 30.71800
C  42.25200 40.81300 30.81500
C  42.45500 40.49600 29.32600
C  43.52800 40.50600 31.68500
C  40.20000 42.51000 31.44100
C  39.79500 41.56600 32.58700
H  39.35800 42.26800 33.80800
N  43.04600 39.54100 26.47100
C  43.17100 38.75200 27.57400
C  43.53200 37.41900 27.15100
C  43.79400 37.44100 25.77700
C  43.33000 38.79900 25.41600
C  43.82500 36.30200 28.15600
C  44.40600 36.38300 24.95000
O  44.59900 36.50300 23.72900
C  44.77900 34.99600 25.57500
N  42.89700 41.67200 24.33300
C  43.32500 40.54400 23.59600
C  43.23200 40.81000 22.10100
C  42.70800 42.30100 21.99400
C  42.43900 42.66300 23.45300
C  44.52000 40.45600 21.28500
C  41.57000 42.60500 20.97000
C  40.18300 42.41600 21.57700
N  41.72000 43.45700 26.28800
C  41.66400 44.31300 25.21600
C  40.99800 45.49900 25.56600
C  40.77200 45.39200 26.99800
C  41.29400 44.10400 27.36100
C  40.66200 46.75700 24.70500
C  40.37900 46.05800 28.29000
O  39.91400 47.17300 28.43700
C  40.70300 45.05500 29.49200
C  41.84500 45.65300 30.19000
O  42.97200 45.68900 29.68600
O  41.45100 45.88100 31.47500
C  42.58600 46.41900 32.19300
H  42.82100 38.39900 29.66300
H  43.82800 38.57000 23.41900
H  41.85100 44.64600 23.06000
H  42.35900 42.80100 31.29500
H  41.46700 40.09400 31.05200
H  43.67000 41.25800 32.46000
H  44.41500 40.44900 31.05500
H  43.50200 39.55500 32.21700
H  39.34500 42.51100 30.76600
H  40.17000 43.49900 31.89800
H  40.69600 41.01900 32.86600
H  38.98000 40.90600 32.29200
H  43.25400 35.41300 27.88700
H  43.48200 36.37900 29.18800
H  44.86700 35.99600 28.25400
H  45.49200 35.03000 26.39900
H  45.29800 34.32600 24.88900
H  43.93300 34.49400 26.04300
H  42.36300 40.26100 21.73800
H  43.56200 42.93900 21.76500
H  45.34100 40.17000 21.94300
H  44.83300 41.34100 20.73100
H  44.35900 39.69300 20.52300
H  41.54400 41.88300 20.15400
H  41.72800 43.56300 20.47700
H  40.15100 41.92400 22.54900
H  39.57100 41.84100 20.88200
H  39.74900 43.40600 21.71300
H  41.59200 47.31400 24.60100
H  40.01000 47.33900 25.35600
H  40.35100 46.45200 23.70600
H  39.81700 44.82000 30.08100
H  42.67200 47.45900 31.87600
H  43.53900 45.92000 32.02100
H  42.46500 46.24900 33.26300
Mg -10.90600 38.62800 42.30100
C  -9.28800 35.50700 41.72400
C  -8.31500 40.20600 40.45600
C  -12.78700 41.48600 42.19000
C  -13.74700 36.87900 43.19700
N  -8.97400 37.93700 41.22900
C  -8.57100 36.62400 41.13400
C  -7.28300 36.50700 40.25500
C  -6.87000 38.02900 40.00300
C  -8.14500 38.76800 40.58000
C  -5.57900 38.47700 40.68700
C  -7.43900 35.63400 38.94600
C  -6.15100 34.88900 38.56000
H  -5.18800 35.53700 37.51000
N  -10.50400 40.60600 41.54400
C  -9.45000 41.01200 40.81700
C  -9.67400 42.33900 40.41800
C  -10.98900 42.74500 40.86100
C  -11.50000 41.62900 41.62200
C  -8.60900 43.07100 39.60800
C  -11.61100 44.09800 40.60100
O  -11.05200 44.85100 39.85000
C  -12.80700 44.57800 41.20500
N  -12.98900 39.15900 42.68700
C  -13.52900 40.36900 42.59300
C  -14.93000 40.35700 43.19700
C  -15.25700 38.81300 43.35400
C  -13.89800 38.20600 43.07300
C  -15.31700 41.16100 44.46700
C  -16.41600 38.24900 42.49200
C  -17.26800 37.25000 43.21800
N  -11.44200 36.61800 42.55200
C  -12.63300 36.08800 42.97400
C  -12.45600 34.63500 43.03900
C  -11.07200 34.35900 42.64300
C  -10.55900 35.60100 42.30400
C  -13.50800 33.70500 43.50200
C  -10.03400 33.35200 42.47400
O  -10.08600 32.15200 42.76900
C  -8.87300 34.04100 41.74200
C  -7.68800 33.64700 42.59800
O  -7.58300 33.94300 43.78300
O  -6.74800 32.93900 41.85900
C  -5.51200 32.65200 42.63200
H  -7.45900 40.66000 39.95300
H  -13.39500 42.38900 42.28300
H  -14.61800 36.25800 43.41700
H  -6.53400 36.07500 40.91900
H  -6.89100 38.21400 38.92900
H  -5.95300 39.07900 41.51500
H  -5.15400 39.20600 39.99700
H  -4.82400 37.71600 40.88500
H  -7.60900 36.46100 38.25700
H  -8.31800 34.98900 38.95300
H  -6.43600 33.96400 38.05800
H  -5.56900 34.58600 39.43000
H  -9.03400 43.60500 38.75900
H  -7.74300 42.54600 39.20600
H  -8.24800 43.78800 40.34600
H  -12.72800 44.26300 42.24600
H  -13.66500 44.17600 40.66800
H  -12.88400 45.66500 41.18100
H  -15.62600 40.69800 42.43000
H  -15.36800 38.59600 44.41700
H  -16.19400 41.76600 44.23900
H  -14.63100 41.99200 44.62600
H  -15.32000 40.57000 45.38300
H  -15.99800 37.74200 41.62300
H  -17.03400 39.03600 42.05900
H  -18.23900 37.73900 43.29700
H  -16.92500 36.93300 44.20300
H  -17.37700 36.33500 42.63600
H  -13.58200 33.88300 44.57500
H  -13.30100 32.64700 43.34400
H  -14.46900 33.94800 43.04900
H  -8.74800 33.64200 40.73500
H  -5.70000 32.51000 43.69600
H  -4.74500 33.41500 42.50300
H  -5.01900 31.80200 42.15900

