158

Mg 35.58400 48.63900 24.95700
C  35.60900 47.05300 28.03400
C  34.73900 51.53400 26.66900
C  35.08100 50.08900 21.95700
C  36.31800 45.74500 23.35100
N  35.07000 49.16600 27.11400
C  35.22100 48.36700 28.21200
C  34.93800 49.20600 29.48900
C  34.59800 50.64200 29.02400
C  34.72400 50.42600 27.54300
C  33.13000 51.13000 29.33800
C  36.07800 49.12200 30.59500
C  35.65800 48.42400 31.92000
H  34.22000 48.40900 32.34400
N  34.89100 50.58100 24.34600
C  34.69700 51.62000 25.21600
C  34.45600 52.85500 24.36000
C  34.41000 52.42100 23.01300
C  34.79600 50.98900 23.07600
C  34.21800 54.21500 25.00600
C  34.18400 53.24000 21.69300
O  34.09400 52.72400 20.57800
C  33.91000 54.68400 21.79900
N  35.55600 48.04000 22.95200
C  35.42700 48.80400 21.89000
C  35.79300 48.14600 20.55800
C  36.32500 46.77000 21.07900
C  36.03900 46.81800 22.54000
C  34.63200 47.96400 19.53100
C  37.80200 46.45900 20.71200
C  38.96800 47.30300 21.36200
N  35.82300 46.72000 25.52900
C  36.20500 45.60300 24.73800
C  36.61400 44.53800 25.65800
C  36.43200 45.07300 26.92500
C  35.85600 46.37200 26.79500
C  37.08200 43.14700 25.22500
C  36.63100 44.76300 28.33600
O  36.98300 43.69300 28.85100
C  35.99900 45.93100 29.06700
C  34.90000 45.44400 29.82700
O  33.71900 45.73600 29.66800
O  35.26700 44.60000 30.78000
C  34.30300 44.06100 31.68600
H  34.58400 52.49800 27.15800
H  35.12400 50.65400 21.02300
H  36.70200 44.88800 22.79400
H  33.95600 48.83200 29.77700
H  35.25400 51.45500 29.33600
H  32.49500 51.15000 28.45200
H  33.18300 52.15800 29.69600
H  32.62700 50.52200 30.09000
H  36.33100 50.12200 30.94800
H  36.96200 48.61300 30.20900
H  36.26400 48.83500 32.72800
H  35.95500 47.37700 31.87100
H  34.94500 55.00200 24.80500
H  34.29700 54.16500 26.09200
H  33.22400 54.57900 24.74600
H  34.87100 55.15300 22.01000
H  33.10500 54.84100 22.51600
H  33.59400 55.00900 20.80800
H  36.58800 48.68100 20.03800
H  35.96900 45.89800 20.53100
H  33.71800 48.51100 19.76000
H  34.26200 46.94600 19.41700
H  34.92000 48.21800 18.51000
H  38.00600 46.59000 19.64900
H  37.88300 45.38200 20.86400
H  39.67800 47.68400 20.62800
H  39.69600 46.64500 21.83500
H  38.79400 48.20700 21.94500
H  36.42100 42.70900 24.47700
H  36.98200 42.52600 26.11500
H  38.08700 43.22400 24.81100
H  36.83300 46.17800 29.72400
H  33.27400 44.41500 31.63800
H  34.61400 44.14900 32.72700
H  34.24600 42.97500 31.60400
Mg -1.77800 34.75100 27.21300
C  -3.67800 33.01300 29.63200
C  -0.84200 36.83300 29.80100
C  -0.19300 36.62600 24.96600
C  -3.31300 32.86600 24.67500
N  -2.27500 34.92500 29.53100
C  -3.02100 34.07000 30.27700
C  -2.85300 34.27000 31.78100
C  -2.02400 35.61000 31.72100
C  -1.62600 35.81800 30.26100
C  -2.72900 36.85500 32.31400
C  -2.17000 33.05800 32.39300
C  -1.15900 33.12800 33.54700
H  -1.48000 32.63500 34.92200
N  -0.61700 36.50500 27.39400
C  -0.32100 37.17400 28.47800
C  0.64400 38.25200 28.20100
C  0.85400 38.23800 26.77100
C  -0.01600 37.10700 26.34200
C  1.16300 39.22900 29.27300
C  1.61900 39.08000 25.87900
O  1.60900 38.97700 24.62600
C  2.48500 40.17000 26.50200
N  -1.73200 34.76400 25.12800
C  -0.99600 35.60500 24.44100
C  -1.00500 35.33600 22.88300
C  -1.85700 34.02600 22.85800
C  -2.35600 33.83400 24.30400
C  -1.49200 36.55500 21.99500
C  -1.21300 32.79000 22.24400
C  0.08900 32.33500 22.80400
N  -3.13300 33.21400 27.10300
C  -3.68100 32.60100 26.03100
C  -4.38800 31.42100 26.50900
C  -4.44300 31.58800 27.89800
C  -3.71400 32.73800 28.23300
C  -5.06200 30.37400 25.52800
C  -4.99900 31.07300 29.14200
O  -5.75900 30.12700 29.27300
C  -4.52000 31.96200 30.27600
C  -5.76600 32.45400 30.84600
O  -6.56100 33.30200 30.37900
O  -5.99200 31.91600 32.04400
C  -7.05500 32.22600 33.01400
H  -0.41000 37.49800 30.55100
H  0.30100 37.32100 24.28400
H  -3.85500 32.33400 23.89100
H  -3.89200 34.36300 32.09800
H  -1.05000 35.57600 32.21100
H  -2.88200 37.63700 31.57000
H  -2.13500 37.29500 33.11500
H  -3.69500 36.74500 32.80700
H  -1.62600 32.56400 31.58800
H  -2.97600 32.45000 32.80300
H  -1.08300 34.19000 33.78000
H  -0.19300 32.68700 33.30100
H  0.65600 39.05000 30.22100
H  0.98800 40.26300 28.97700
H  2.22900 39.07500 29.44000
H  3.19600 39.55900 27.05900
H  1.90900 40.94300 27.01000
H  3.03500 40.65500 25.69500
H  -0.01600 35.09200 22.49500
H  -2.62400 34.28900 22.12900
H  -1.63300 37.38100 22.69200
H  -2.43100 36.62100 21.44700
H  -0.70700 36.82800 21.28900
H  -1.15100 33.00900 21.17800
H  -1.95000 31.99600 22.36600
H  0.02500 31.37100 23.30900
H  0.55500 32.94600 23.57700
H  0.78100 32.28700 21.96200
H  -5.52200 29.56900 26.10100
H  -4.36200 29.99400 24.78400
H  -5.85000 30.78400 24.89700
H  -4.00300 31.28400 30.95500
H  -7.89100 32.86300 32.72500
H  -6.64100 32.70200 33.90300
H  -7.41100 31.29600 33.45500

