158

Mg 39.67900 8.39500 29.22300
C  41.77000 9.59700 31.82200
C  37.29300 7.76200 31.53600
C  37.99600 6.74100 26.82500
C  42.41600 8.81400 27.05200
N  39.59600 8.59700 31.46900
C  40.48000 9.29000 32.20600
C  39.88900 9.38800 33.63600
C  38.58500 8.57200 33.59600
C  38.42400 8.26500 32.09000
C  38.49400 7.35700 34.58700
C  39.73000 10.82500 34.31200
C  39.13900 10.81300 35.71300
H  40.02600 11.23400 36.90700
N  37.88500 7.44300 29.17900
C  37.00000 7.34600 30.22300
C  35.79200 6.72200 29.70900
C  36.08500 6.27900 28.38400
C  37.38400 6.78900 28.03800
C  34.61600 6.48400 30.65100
C  35.29100 5.47200 27.37500
O  35.57900 5.11400 26.23300
C  33.86800 5.04900 27.80300
N  40.13500 7.87700 27.27600
C  39.29800 7.20300 26.42400
C  39.82300 7.09500 25.01500
C  41.06700 7.94900 25.09100
C  41.27000 8.19400 26.55000
C  40.05300 5.69400 24.38800
C  41.10200 9.29100 24.28200
C  40.32000 10.48200 24.94300
N  41.70700 9.08300 29.30700
C  42.63300 9.22500 28.38600
C  43.84600 9.85800 28.96000
C  43.48000 9.99800 30.28500
C  42.24900 9.41300 30.53200
C  45.01000 10.23800 28.14600
C  43.83700 10.68200 31.52500
O  44.78300 11.46000 31.71700
C  42.87500 10.23000 32.64800
C  43.50300 9.24700 33.56300
O  43.38600 8.02900 33.46400
O  44.26200 9.91400 34.48200
C  44.52800 9.14000 35.72600
H  36.38100 7.69600 32.13200
H  37.45300 6.35300 25.96100
H  43.15600 8.93000 26.25700
H  40.62900 8.84400 34.22300
H  37.69800 9.15600 33.84300
H  37.83300 7.63200 35.40900
H  39.42300 7.09400 35.09400
H  38.02600 6.52700 34.05800
H  39.00400 11.24800 33.61800
H  40.63200 11.43600 34.29100
H  38.80100 9.80300 35.94100
H  38.33600 11.54900 35.66500
H  33.72400 7.00600 30.30500
H  34.82900 6.60000 31.71400
H  34.34100 5.43400 30.54700
H  34.03300 4.26700 28.54300
H  33.36200 4.78600 26.87400
H  33.31600 5.87100 28.26000
H  39.11300 7.58800 24.35100
H  41.90700 7.33800 24.76100
H  41.04400 5.63700 23.93800
H  39.34800 5.48300 23.58400
H  39.95300 4.89000 25.11600
H  40.64900 9.15000 23.30100
H  42.13500 9.61500 24.15300
H  39.62600 10.24500 25.75000
H  39.63700 10.94200 24.22900
H  41.05500 11.25300 25.17500
H  44.74500 10.18000 27.09000
H  45.83900 9.57500 28.39700
H  45.37600 11.24200 28.35800
H  42.70500 11.16500 33.18200
H  43.57600 8.89600 36.19600
H  45.07600 9.85800 36.33600
H  45.17700 8.27200 35.60700
Mg 42.27900 41.43700 26.38500
C  41.16300 43.76800 28.77200
C  42.81900 39.18200 28.90200
C  43.52500 39.34500 24.12600
C  42.01100 43.95800 23.89300
N  42.07500 41.55200 28.54100
C  41.58400 42.59300 29.28100
C  41.62800 42.23500 30.71800
C  42.25200 40.81300 30.81500
C  42.45500 40.49600 29.32600
C  43.52800 40.50600 31.68500
C  40.20000 42.51000 31.44100
C  39.79500 41.56600 32.58700
H  39.35800 42.26800 33.80800
N  43.04600 39.54100 26.47100
C  43.17100 38.75200 27.57400
C  43.53200 37.41900 27.15100
C  43.79400 37.44100 25.77700
C  43.33000 38.79900 25.41600
C  43.82500 36.30200 28.15600
C  44.40600 36.38300 24.95000
O  44.59900 36.50300 23.72900
C  44.77900 34.99600 25.57500
N  42.89700 41.67200 24.33300
C  43.32500 40.54400 23.59600
C  43.23200 40.81000 22.10100
C  42.70800 42.30100 21.99400
C  42.43900 42.66300 23.45300
C  44.52000 40.45600 21.28500
C  41.57000 42.60500 20.97000
C  40.18300 42.41600 21.57700
N  41.72000 43.45700 26.28800
C  41.66400 44.31300 25.21600
C  40.99800 45.49900 25.56600
C  40.77200 45.39200 26.99800
C  41.29400 44.10400 27.36100
C  40.66200 46.75700 24.70500
C  40.37900 46.05800 28.29000
O  39.91400 47.17300 28.43700
C  40.70300 45.05500 29.49200
C  41.84500 45.65300 30.19000
O  42.97200 45.68900 29.68600
O  41.45100 45.88100 31.47500
C  42.58600 46.41900 32.19300
H  42.82100 38.39900 29.66300
H  43.82800 38.57000 23.41900
H  41.85100 44.64600 23.06000
H  42.35900 42.80100 31.29500
H  41.46700 40.09400 31.05200
H  43.67000 41.25800 32.46000
H  44.41500 40.44900 31.05500
H  43.50200 39.55500 32.21700
H  39.34500 42.51100 30.76600
H  40.17000 43.49900 31.89800
H  40.69600 41.01900 32.86600
H  38.98000 40.90600 32.29200
H  43.25400 35.41300 27.88700
H  43.48200 36.37900 29.18800
H  44.86700 35.99600 28.25400
H  45.49200 35.03000 26.39900
H  45.29800 34.32600 24.88900
H  43.93300 34.49400 26.04300
H  42.36300 40.26100 21.73800
H  43.56200 42.93900 21.76500
H  45.34100 40.17000 21.94300
H  44.83300 41.34100 20.73100
H  44.35900 39.69300 20.52300
H  41.54400 41.88300 20.15400
H  41.72800 43.56300 20.47700
H  40.15100 41.92400 22.54900
H  39.57100 41.84100 20.88200
H  39.74900 43.40600 21.71300
H  41.59200 47.31400 24.60100
H  40.01000 47.33900 25.35600
H  40.35100 46.45200 23.70600
H  39.81700 44.82000 30.08100
H  42.67200 47.45900 31.87600
H  43.53900 45.92000 32.02100
H  42.46500 46.24900 33.26300

