158

Mg 42.69000 41.60400 27.05100
C  41.48000 43.81400 29.44000
C  43.63300 39.41700 29.51600
C  44.44500 39.80900 24.83600
C  42.20700 44.09100 24.57600
N  42.71000 41.78100 29.21800
C  42.04100 42.62800 29.98300
C  41.95400 42.14500 31.47400
C  42.71200 40.71700 31.46900
C  43.06200 40.59300 29.93900
C  44.05300 40.64900 32.25600
C  40.45500 42.01200 31.92400
C  39.97100 42.81800 33.14000
H  39.24200 41.90200 34.18600
N  43.74400 39.78500 27.15800
C  43.96900 38.98800 28.24900
C  44.67800 37.84500 27.86900
C  44.90200 37.90900 26.45600
C  44.37200 39.20600 26.12400
C  45.23300 36.81700 28.89200
C  45.57000 36.91400 25.50100
O  45.84800 37.14500 24.34600
C  45.84500 35.46800 25.94600
N  43.29800 42.01800 25.02700
C  43.89000 41.03900 24.37500
C  44.07300 41.29200 22.86800
C  43.07200 42.53700 22.71100
C  42.84700 42.94400 24.17300
C  45.53600 41.49800 22.38400
C  41.80800 42.21200 21.91800
C  41.19400 43.40800 21.07500
N  41.97900 43.56500 26.94500
C  41.88700 44.49300 25.88000
C  41.18600 45.61700 26.33600
C  40.98600 45.39900 27.76700
C  41.51800 44.18900 28.03500
C  40.80100 46.68200 25.47300
C  40.46400 45.96500 28.99400
O  39.83900 46.95600 29.18700
C  40.76000 45.00700 30.19600
C  41.69700 45.68700 31.14200
O  42.79100 46.08700 30.85700
O  41.14000 45.77400 32.39100
C  41.93200 46.19200 33.56700
H  43.78900 38.61400 30.24100
H  44.83900 39.16300 24.04900
H  41.78500 44.80700 23.86700
H  42.50700 42.78200 32.16400
H  42.09100 39.86900 31.75600
H  44.95900 40.64500 31.65000
H  44.10900 39.68900 32.76900
H  44.04700 41.42500 33.02200
H  40.18000 40.96800 32.07000
H  39.78500 42.23100 31.09200
H  39.32100 43.65000 32.86800
H  40.79600 43.26400 33.69600
H  45.51600 37.20000 29.87200
H  46.10300 36.24600 28.56600
H  44.51100 36.01800 29.06200
H  45.78200 34.74200 25.13500
H  45.01400 35.31000 26.63400
H  46.78100 35.39500 26.49900
H  43.69400 40.35300 22.46400
H  43.60800 43.44000 22.41800
H  45.62700 42.37700 21.74500
H  45.78400 40.66500 21.72600
H  46.17800 41.39800 23.25800
H  41.00300 41.92300 22.59400
H  41.91800 41.38800 21.21300
H  40.86700 43.00500 20.11700
H  41.94400 44.17300 20.87300
H  40.26400 43.77700 21.50600
H  40.29500 46.29000 24.59100
H  41.76300 47.09900 25.17200
H  40.17800 47.33000 26.09000
H  39.84000 44.72100 30.70400
H  41.52900 45.47200 34.27800
H  41.73400 47.18300 33.97600
H  43.00900 46.07900 33.44000
Mg 17.09600 52.03000 26.26700
C  19.09700 50.40600 28.63400
C  14.65000 52.40300 28.69700
C  15.06700 53.52900 24.03900
C  19.25400 51.05500 23.85100
N  17.03900 51.57600 28.48500
C  17.90600 50.92900 29.25600
C  17.35100 50.76000 30.69400
C  15.84800 51.07500 30.47400
C  15.83900 51.77300 29.13700
C  14.90200 49.79900 30.52500
C  18.04500 51.72200 31.69900
C  18.26800 50.98000 32.99900
H  17.25100 51.32300 34.10400
N  15.13900 52.96200 26.36600
C  14.35300 53.04000 27.45100
C  13.09000 53.70400 27.09600
C  13.30700 54.16400 25.78500
C  14.51700 53.50300 25.28900
C  11.95500 53.96700 28.16900
C  12.42000 54.92700 24.93100
O  12.61000 54.93500 23.69800
C  11.23400 55.60500 25.52100
N  16.98600 52.11200 24.24900
C  16.17100 52.87700 23.54500
C  16.50300 52.87600 22.05200
C  17.79700 52.08200 21.99400
C  18.07700 51.73000 23.47000
C  15.33600 52.36400 21.11100
C  18.95900 52.70000 21.11000
C  19.89100 53.78900 21.75500
N  18.86300 50.88000 26.20700
C  19.66800 50.60200 25.13300
C  20.78200 49.75200 25.58400
C  20.66700 49.71700 26.97200
C  19.46000 50.42000 27.28400
C  21.81000 49.13300 24.68200
C  21.29000 49.32400 28.21600
O  22.34500 48.78100 28.47600
C  20.33000 49.76700 29.27300
C  19.95600 48.75400 30.23900
O  19.03100 47.96400 30.20700
O  20.89300 48.81300 31.23500
C  20.67100 47.93800 32.39200
H  13.91500 52.41000 29.50400
H  14.65400 54.18000 23.26600
H  20.03700 50.73500 23.16000
H  17.36900 49.69300 30.91800
H  15.45300 51.80400 31.18100
H  13.88300 50.17800 30.61300
H  15.10900 49.23900 31.43600
H  15.09200 49.13100 29.68500
H  17.34800 52.51700 31.96200
H  18.99100 52.13200 31.34600
H  19.27600 51.20700 33.34500
H  18.25500 49.91100 32.78600
H  11.98200 55.02500 28.42700
H  12.05300 53.28200 29.01100
H  11.05100 53.66000 27.64300
H  10.84900 56.32900 24.80300
H  11.49400 56.20900 26.39000
H  10.45000 54.90800 25.81900
H  16.73900 53.92500 21.87300
H  17.68200 51.08200 21.57500
H  15.71300 51.70900 20.32600
H  14.80900 53.22600 20.70300
H  14.68600 51.74000 21.72500
H  18.49900 53.19000 20.25200
H  19.67600 51.95500 20.76400
H  20.92100 53.48200 21.93600
H  19.62000 54.23400 22.71300
H  19.98100 54.54100 20.97100
H  21.28700 48.88100 23.75900
H  22.24700 48.24700 25.14100
H  22.65300 49.80600 24.52400
H  20.72600 50.52600 29.94800
H  19.78900 48.14200 33.00000
H  21.58800 48.00800 32.97600
H  20.63700 46.94100 31.95300

