158

Mg 40.25600 9.36200 29.59500
C  42.35300 10.47900 32.27500
C  38.31900 7.94200 32.00000
C  38.56400 8.06200 27.13200
C  42.88800 10.14800 27.41600
N  40.39300 9.16200 32.00800
C  41.21400 9.82000 32.79400
C  40.67100 9.69900 34.28000
C  39.46700 8.68000 34.13400
C  39.32700 8.62600 32.67300
C  39.71000 7.31300 34.74500
C  40.29700 11.04600 34.99100
C  39.71000 10.96300 36.35800
H  40.36100 11.79300 37.53500
N  38.53900 8.25600 29.53700
C  37.87300 7.76700 30.63600
C  36.72000 7.06700 30.17100
C  36.75700 7.05500 28.71600
C  37.96300 7.77600 28.40900
C  35.77200 6.45900 31.13400
C  35.83500 6.34000 27.74000
O  36.16700 6.21600 26.55200
C  34.70700 5.65300 28.23000
N  40.63200 9.23500 27.54200
C  39.79300 8.52600 26.71500
C  40.07700 8.74500 25.24000
C  41.35100 9.62200 25.38600
C  41.73200 9.59600 26.82900
C  40.20600 7.56300 24.30000
C  41.04900 11.09300 25.06000
C  42.31200 11.93200 24.62300
N  42.25600 10.27900 29.70400
C  43.15700 10.53500 28.71200
C  44.26000 11.25400 29.24700
C  43.97600 11.28000 30.63100
C  42.76900 10.60000 30.88500
C  45.42300 11.76600 28.55800
C  44.36200 11.79000 31.96200
O  45.21700 12.53700 32.39500
C  43.34300 11.31100 33.02700
C  43.97200 10.54900 34.08200
O  44.37900 9.35700 33.96600
O  44.00000 11.28700 35.25600
C  44.53900 10.67200 36.49500
H  37.59500 7.57900 32.73300
H  37.92200 7.72200 26.31700
H  43.70200 10.50900 26.78400
H  41.54700 9.28000 34.77600
H  38.54900 9.06600 34.57700
H  39.76800 6.49200 34.03000
H  38.96000 7.01100 35.47600
H  40.70800 7.35500 35.18300
H  39.77400 11.67200 34.26700
H  41.19500 11.63900 35.16200
H  39.55400 9.89200 36.48600
H  38.67700 11.28000 36.22000
H  35.86900 6.99800 32.07600
H  35.95700 5.40900 31.36400
H  34.74000 6.64600 30.83700
H  34.13700 5.20900 27.41500
H  33.98300 6.33200 28.68000
H  35.04000 4.83500 28.87000
H  39.28800 9.35600 24.80100
H  42.23900 9.25200 24.87400
H  39.77900 6.70000 24.81100
H  41.23400 7.36000 23.99900
H  39.59500 7.72600 23.41200
H  40.51600 11.60800 25.85900
H  40.34500 11.13100 24.22800
H  42.05300 12.33800 23.64600
H  43.17200 11.26500 24.67500
H  42.48200 12.77900 25.28900
H  45.30800 12.31000 27.62100
H  46.07300 10.90500 28.40400
H  45.87100 12.45800 29.27000
H  42.89000 12.18700 33.49000
H  43.79500 10.29100 37.19500
H  45.15500 11.34600 37.09100
H  45.13200 9.81400 36.18100
Mg 50.55200 45.13700 42.99000
C  47.54500 46.36800 41.69700
C  49.99800 42.18500 41.29300
C  53.74100 44.41000 43.27900
C  51.31000 48.48700 43.85100
N  48.86500 44.40700 41.59300
C  47.74600 45.04500 41.25000
C  46.83300 44.08900 40.42900
C  47.59700 42.71900 40.41100
C  48.91100 43.12900 41.08800
C  46.93600 41.61700 41.33200
C  46.51500 44.69700 39.07300
C  44.97300 44.62400 38.71100
H  44.49100 43.42000 37.77600
N  51.63700 43.35900 42.67000
C  51.24900 42.26200 41.98800
C  52.31500 41.30400 41.97700
C  53.40900 41.92100 42.62100
C  52.95900 43.28900 42.92000
C  52.18100 39.84700 41.48000
C  54.80700 41.26000 42.91500
O  55.12300 40.23800 42.34800
C  55.89000 41.97400 43.79800
N  52.24900 46.27300 43.38400
C  53.46400 45.73100 43.52300
C  54.55400 46.70700 43.84300
C  53.75500 48.01300 44.01800
C  52.33700 47.60000 43.72800
C  55.47100 46.56400 45.07600
C  54.33300 49.17400 43.19600
C  54.80900 50.37600 43.97500
N  49.58100 47.03400 42.98300
C  50.02200 48.24300 43.41000
C  48.88200 49.21100 43.37900
C  47.81300 48.50000 42.66700
C  48.40100 47.20700 42.42400
C  48.82600 50.48800 44.14500
C  46.41100 48.47300 42.27600
O  45.54600 49.36100 42.35800
C  46.25200 47.14300 41.49900
C  44.93700 46.59900 41.98900
O  44.86600 45.82800 42.97800
O  43.88800 46.92700 41.24400
C  42.50300 46.44000 41.65200
H  49.70200 41.20600 40.91200
H  54.78200 44.09400 43.18400
H  51.55000 49.51500 44.13100
H  45.94800 43.94600 41.04900
H  47.69800 42.28600 39.41600
H  45.85600 41.72100 41.44200
H  47.36400 41.60400 42.33400
H  47.28700 40.73600 40.79500
H  46.95000 44.10400 38.26800
H  46.98800 45.67100 38.95300
H  44.66500 45.48000 38.11000
H  44.40200 44.61700 39.64000
H  52.81000 39.55300 40.63900
H  51.16400 39.77500 41.09500
H  52.29200 39.04900 42.21400
H  55.45900 42.43000 44.68900
H  56.42100 42.64700 43.12500
H  56.59000 41.22500 44.16800
H  55.24700 46.61100 43.00700
H  53.83700 48.24900 45.07900
H  55.97900 47.49100 45.34000
H  56.07700 45.66600 44.95600
H  54.87400 46.29400 45.94700
H  53.51300 49.55000 42.58400
H  55.09000 48.71300 42.56100
H  54.21300 51.26700 43.77700
H  55.86200 50.57300 43.77500
H  54.68500 50.26800 45.05300
H  48.00800 50.42700 44.86300
H  48.67200 51.33900 43.48200
H  49.77300 50.70400 44.63900
H  46.08400 47.59500 40.52100
H  41.87500 47.24200 41.26300
H  42.40300 46.29300 42.72700
H  42.12800 45.58000 41.09800

