158

Mg 46.87700 15.05600 27.74900
C  44.90000 15.08500 30.72000
C  48.91800 17.41800 29.24300
C  48.47200 15.18300 25.01200
C  44.24700 13.16700 26.25600
N  46.82000 16.07600 29.74700
C  45.98100 15.94300 30.78300
C  46.52300 16.62900 32.00300
C  47.55200 17.69200 31.37400
C  47.79700 16.99700 30.01200
C  47.20200 19.16400 31.22300
C  47.28000 15.56400 32.93200
C  46.96900 15.63600 34.40000
H  48.17700 15.47800 35.40300
N  48.57900 16.04800 27.22400
C  49.28900 16.94100 27.95600
C  50.42200 17.42200 27.19500
C  50.37000 16.75500 25.92100
C  49.12800 15.97100 26.01200
C  51.41400 18.43500 27.72500
C  51.30600 16.80600 24.69700
O  51.11600 16.19200 23.62900
C  52.56900 17.68200 24.83400
N  46.26700 14.37700 25.78800
C  47.25500 14.50800 24.84600
C  46.93800 13.61100 23.62400
C  45.53800 12.96000 24.02900
C  45.31000 13.51500 25.41600
C  46.83100 14.48800 22.35800
C  45.45500 11.32700 23.96600
C  46.68400 10.57500 24.62500
N  45.02600 14.22100 28.26300
C  44.05800 13.57900 27.52400
C  42.93400 13.26800 28.38100
C  43.23700 13.85200 29.61600
C  44.49800 14.43600 29.52900
C  41.63600 12.76000 27.95200
C  42.61300 14.10100 30.96500
O  41.50300 13.89500 31.46600
C  43.82300 14.84000 31.71500
C  43.27400 16.16700 32.19600
O  43.02200 17.10300 31.50100
O  43.12500 16.13000 33.58500
C  42.67600 17.30200 34.36200
H  49.59600 18.14100 29.70300
H  49.14900 15.18900 24.15600
H  43.41500 12.64200 25.78400
H  45.70900 17.03500 32.60300
H  48.44500 17.74000 31.99700
H  46.99100 19.39700 30.17900
H  48.04400 19.76100 31.57200
H  46.27200 19.30400 31.77300
H  48.35000 15.63500 32.73400
H  46.95500 14.57000 32.62400
H  46.26000 14.86800 34.70900
H  46.48500 16.59500 34.58500
H  51.70500 19.12600 26.93400
H  52.28500 17.90100 28.10600
H  51.03000 19.01800 28.56300
H  53.12600 17.62700 23.89900
H  53.18200 17.29800 25.64900
H  52.26800 18.72900 24.85900
H  47.67500 12.80800 23.63400
H  44.79000 13.26800 23.29700
H  46.50900 15.51400 22.53600
H  46.04700 14.10400 21.70500
H  47.84100 14.55500 21.95300
H  45.49500 11.02700 22.91900
H  44.59200 10.89500 24.47200
H  47.27300 10.15200 23.81200
H  46.24700 9.77700 25.22600
H  47.23900 11.22400 25.30300
H  41.22300 13.19600 27.04300
H  40.98600 13.04300 28.78000
H  41.80600 11.69100 27.82500
H  44.16600 14.35700 32.63000
H  42.30700 18.17100 33.81800
H  43.47600 17.69100 34.99200
H  41.85900 17.01300 35.02300
Mg 25.82000 52.05200 26.06600
C  23.91600 52.60000 28.94200
C  28.62000 51.84600 28.25700
C  27.86300 52.01800 23.41700
C  23.16400 52.83700 24.13900
N  26.17400 52.24200 28.37200
C  25.25900 52.38600 29.31500
C  25.80500 52.20500 30.68200
C  27.28900 51.88300 30.46500
C  27.37900 52.00500 28.95900
C  28.17100 52.84000 31.28300
C  25.13300 50.98600 31.48900
C  25.58100 50.85700 32.97300
H  24.81200 51.74400 33.95500
N  27.90900 51.97400 25.84000
C  28.83700 51.81000 26.82800
C  30.14100 51.73900 26.21000
C  29.98300 51.67800 24.83400
C  28.52900 51.88200 24.62400
C  31.36700 51.76700 27.10500
C  30.94900 51.54400 23.67500
O  30.64600 51.65600 22.47100
C  32.39000 51.26700 23.92600
N  25.58700 52.54000 24.14300
C  26.52500 52.37200 23.15900
C  25.99200 52.69400 21.78800
C  24.45800 52.62000 22.06400
C  24.41100 52.68500 23.55100
C  26.59000 53.93100 21.01100
C  23.65300 51.44600 21.36900
C  23.65400 51.34400 19.80600
N  23.87900 52.48400 26.34900
C  22.87700 52.78700 25.49000
C  21.66900 53.10400 26.13900
C  22.05000 53.05500 27.55400
C  23.42800 52.73200 27.61100
C  20.32800 53.52600 25.49300
C  21.59300 53.23300 28.90700
O  20.46000 53.62000 29.19300
C  22.73400 52.88500 29.87800
C  23.04200 54.07200 30.65500
O  23.69100 55.04500 30.26600
O  22.44700 54.08200 31.85200
C  22.58200 55.39300 32.61200
H  29.47200 51.69700 28.92400
H  28.45800 52.01600 22.50200
H  22.31600 52.92200 23.45700
H  25.72200 53.17000 31.18000
H  27.64700 50.88000 30.69900
H  27.76800 53.15600 32.24400
H  28.38100 53.78700 30.78500
H  29.11100 52.29200 31.35400
H  25.20100 50.04000 30.95200
H  24.04600 51.05600 31.49400
H  26.62100 51.18400 32.94200
H  25.55200 49.80100 33.24200
H  32.23800 52.30000 26.72300
H  31.63500 50.72600 27.28400
H  31.16700 52.32500 28.02000
H  32.66200 52.32100 23.98900
H  32.86200 50.78500 23.07000
H  32.61200 50.79900 24.88500
H  26.22600 51.82700 21.17000
H  24.16400 53.58100 21.64200
H  27.34600 54.29200 21.70900
H  25.90800 54.75500 20.80200
H  27.10200 53.83600 20.05400
H  22.65100 51.38600 21.79500
H  24.07500 50.53200 21.78800
H  24.24400 50.47600 19.51100
H  23.96000 52.31900 19.42700
H  22.66600 51.18700 19.37500
H  19.65900 53.34900 26.33500
H  20.29000 52.81800 24.66500
H  20.31600 54.53600 25.08300
H  22.55700 52.07300 30.58400
H  22.36400 56.27400 32.00900
H  23.36800 55.55200 33.35000
H  21.68900 55.37800 33.23700

