158

Mg -2.83900 17.17100 27.33200
C  -2.94900 15.17100 30.32000
C  -3.20700 19.97200 29.27100
C  -2.83600 18.86900 24.45800
C  -3.19600 14.11900 25.56400
N  -3.10500 17.49600 29.46800
C  -3.08000 16.54000 30.51700
C  -3.03500 17.27500 31.82900
C  -3.36200 18.78200 31.49900
C  -3.21500 18.76100 29.95700
C  -4.72700 19.25400 31.90600
C  -1.78100 17.06000 32.67000
C  -1.37100 18.07800 33.75100
H  -0.77600 17.41600 35.01700
N  -3.02800 19.11900 26.91900
C  -3.14400 20.15400 27.81400
C  -3.23500 21.40500 27.13200
C  -3.03400 21.11100 25.74300
C  -2.94400 19.64800 25.66200
C  -3.58200 22.64600 27.85200
C  -2.87400 22.06400 24.53100
O  -2.75200 21.68000 23.39900
C  -2.86000 23.57500 24.77200
N  -3.15900 16.59600 25.40700
C  -2.87700 17.47800 24.35600
C  -2.91600 16.83100 22.98700
C  -2.78300 15.34400 23.38200
C  -3.12500 15.32900 24.86100
C  -4.21000 17.21500 22.18800
C  -1.36000 14.78100 23.09600
C  -1.14900 14.45200 21.60600
N  -2.85200 15.11900 27.77700
C  -2.98200 14.03300 26.94700
C  -2.87100 12.79400 27.64800
C  -2.93500 13.20100 28.98100
C  -2.93500 14.64400 29.01400
C  -2.89300 11.45000 27.11500
C  -3.07000 12.69200 30.34200
O  -3.18400 11.60200 30.84500
C  -2.86100 13.97600 31.29600
C  -1.44500 13.88600 31.79300
O  -0.42100 14.35000 31.28600
O  -1.43100 13.11100 32.93300
C  -0.23500 12.97300 33.63800
H  -3.18600 20.86800 29.89400
H  -2.61500 19.39900 23.52900
H  -3.17700 13.19000 24.99100
H  -3.91500 16.89500 32.34900
H  -2.66200 19.44000 32.01400
H  -4.63400 20.32100 32.10900
H  -5.00100 18.73600 32.82500
H  -5.45600 18.91100 31.17300
H  -0.96700 16.88000 31.96800
H  -1.69200 16.11700 33.20900
H  -2.18400 18.68000 34.15800
H  -0.55200 18.62500 33.28400
H  -3.78200 23.48500 27.18500
H  -2.64200 22.91800 28.33300
H  -4.35400 22.52500 28.61100
H  -3.93400 23.76300 24.77900
H  -2.36400 24.27300 24.09700
H  -2.38400 23.73000 25.74000
H  -2.03900 17.21300 22.46600
H  -3.44800 14.72900 22.77500
H  -4.78400 17.70500 22.97500
H  -4.66300 16.30700 21.79100
H  -3.90700 17.94100 21.43300
H  -1.16100 13.91400 23.72600
H  -0.61500 15.55000 23.30100
H  -0.44000 15.12500 21.12500
H  -2.05800 14.40300 21.00600
H  -0.68000 13.46800 21.58500
H  -3.96700 11.30100 26.99600
H  -2.41800 10.74100 27.79200
H  -2.52100 11.49300 26.09100
H  -3.55200 14.08600 32.13200
H  -0.32900 13.39200 34.64000
H  0.61100 13.38100 33.08600
H  -0.00400 11.91300 33.74300
Mg 54.36000 25.52500 45.85900
C  51.87700 27.72100 44.45500
C  52.81800 22.91400 44.16200
C  57.20300 23.66900 46.25400
C  55.91400 28.19300 47.25300
N  52.68300 25.34800 44.31700
C  51.84400 26.34100 44.00500
C  50.75800 25.77400 42.95500
C  50.84800 24.21000 43.10100
C  52.11300 24.10200 43.90800
C  49.63700 23.62300 43.90400
C  50.96900 26.25200 41.41100
C  52.30700 26.59600 40.93500
H  52.82200 25.69600 39.75500
N  54.92100 23.51000 45.36800
C  54.11700 22.62600 44.69200
C  54.75400 21.30200 44.66900
C  55.95000 21.46000 45.39700
C  56.05900 22.94200 45.76300
C  54.07400 20.04800 44.18000
C  56.95300 20.33300 45.70300
O  56.80700 19.23300 45.22900
C  58.09800 20.45900 46.62300
N  56.39000 25.90800 46.41100
C  57.36300 24.95600 46.64400
C  58.67700 25.66400 47.05800
C  58.13900 27.07400 47.52800
C  56.66600 27.01400 47.16700
C  59.62600 24.93800 48.08000
C  58.89700 28.34500 46.96000
C  59.03800 28.69300 45.52100
N  53.94200 27.58800 45.96400
C  54.66700 28.53200 46.63200
C  53.95100 29.84100 46.57900
C  52.79700 29.54200 45.73600
C  52.92600 28.20400 45.32700
C  54.38600 31.10500 47.22400
C  51.61600 30.10200 45.06600
O  51.08200 31.20600 45.07800
C  50.92000 28.92400 44.30400
C  50.77200 29.24000 42.89200
O  51.71100 29.64400 42.23000
O  49.45500 29.06300 42.49100
C  49.12700 29.65100 41.17600
H  52.31100 21.99400 43.86200
H  58.12900 23.09200 46.21400
H  56.27700 29.13000 47.68000
H  49.83000 26.25000 43.27100
H  50.96200 23.71200 42.13800
H  49.97600 23.19700 44.84900
H  49.14400 22.83400 43.33600
H  48.94000 24.41600 44.17700
H  50.35200 27.13800 41.26500
H  50.51000 25.55300 40.71300
H  53.02600 26.52300 41.75200
H  52.20000 27.60500 40.53800
H  54.78500 19.30300 43.82300
H  53.41800 20.26100 43.33600
H  53.57600 19.48700 44.97000
H  58.52000 19.45900 46.72300
H  57.67100 20.86900 47.53800
H  58.88000 21.09800 46.21400
H  59.27200 25.87000 46.16800
H  58.06500 27.17100 48.61100
H  59.89700 25.46900 48.99300
H  60.57800 24.68400 47.61500
H  59.23800 23.98900 48.44900
H  59.91100 28.05500 47.23700
H  58.61000 29.28000 47.44100
H  58.47600 27.93800 44.97000
H  60.09700 28.57800 45.29000
H  58.71100 29.71600 45.34000
H  53.62000 31.87800 47.15700
H  55.31400 31.43100 46.75500
H  54.53400 30.86700 48.27800
H  49.98500 28.72500 44.82800
H  49.05800 30.73700 41.24000
H  48.14000 29.33200 40.84100
H  49.90600 29.47800 40.43400

