158

Mg 9.30000 2.63600 28.45700
C  10.43000 1.24500 31.28400
C  7.66700 5.15700 30.39000
C  8.15300 4.19600 25.68400
C  10.74200 0.18400 26.48000
N  8.99400 3.08200 30.58800
C  9.59500 2.33300 31.57700
C  9.40700 2.98400 32.94100
C  8.36400 4.16300 32.71100
C  8.28600 4.14100 31.15500
C  6.97800 3.94600 33.52200
C  10.84700 3.54300 33.48700
C  11.28900 3.11700 34.92900
H  10.19400 3.02600 36.09100
N  8.00900 4.30100 28.10900
C  7.48700 5.25300 29.00800
C  6.71400 6.27700 28.30800
C  6.88200 6.02100 26.89800
C  7.71700 4.74700 26.85900
C  5.91100 7.35000 29.10800
C  6.30800 6.91700 25.75500
O  6.45300 6.65300 24.52900
C  5.68500 8.21000 26.08900
N  9.16900 2.02800 26.37000
C  8.77000 2.95300 25.43400
C  8.94000 2.47300 24.00300
C  9.96000 1.32500 24.21700
C  9.94100 1.13400 25.76800
C  7.46600 2.10900 23.58200
C  11.38900 1.56600 23.81000
C  12.13800 0.57800 22.91000
N  10.29100 1.05800 28.80000
C  10.90000 0.14900 27.87000
C  11.60500 -0.85000 28.67700
C  11.48300 -0.46300 30.05800
C  10.68800 0.68700 29.95600
C  12.27800 -2.01200 28.07500
C  11.80200 -0.74200 31.45300
O  12.45700 -1.63900 31.99100
C  11.06000 0.31700 32.29800
C  10.09100 -0.34500 33.16500
O  9.07300 -0.92700 32.84800
O  10.61300 -0.36400 34.51700
C  9.68400 -0.96800 35.50500
H  7.05300 5.88400 30.92500
H  7.99000 4.73400 24.74700
H  11.29600 -0.55900 25.90100
H  9.04100 2.23300 33.64100
H  8.77100 5.13900 32.97500
H  6.89800 4.65300 34.34800
H  6.95900 2.94100 33.94300
H  6.15400 4.19300 32.85400
H  10.96200 4.62000 33.36100
H  11.61200 3.17700 32.80200
H  11.94100 3.89500 35.32500
H  11.92300 2.23100 34.95600
H  6.39300 8.31400 29.27500
H  5.64700 6.96700 30.09400
H  4.94700 7.48600 28.61800
H  6.34400 8.90800 26.60500
H  4.81600 8.04500 26.72500
H  5.42600 8.78700 25.20100
H  9.31100 3.21200 23.29400
H  9.53600 0.43500 23.75300
H  7.49300 1.06000 23.28700
H  7.21900 2.65400 22.67100
H  6.71900 2.26100 24.36200
H  12.14600 1.61900 24.59200
H  11.31800 2.46100 23.19200
H  13.06300 0.23800 23.37500
H  12.42200 1.09200 21.99200
H  11.55700 -0.33400 22.77300
H  13.24700 -1.71400 27.67500
H  11.65800 -2.59500 27.39400
H  12.44000 -2.68800 28.91400
H  11.88300 0.77500 32.84700
H  9.38500 -1.96800 35.18900
H  8.88000 -0.25400 35.68100
H  10.21900 -1.11100 36.44400
Mg 25.63400 51.14500 26.52900
C  23.31100 52.16900 28.92000
C  27.79100 50.30000 29.16300
C  27.90400 50.28100 24.24300
C  23.69300 52.67700 24.05100
N  25.65100 51.35600 28.77100
C  24.50800 51.68100 29.53200
C  24.77400 51.51900 31.06000
C  26.33500 51.11100 31.11700
C  26.66300 50.88100 29.60700
C  27.18900 52.29300 31.84300
C  23.89700 50.29900 31.66300
C  23.33000 50.49000 32.99800
H  24.18200 51.44400 33.88100
N  27.45800 50.24700 26.64900
C  28.17300 49.92200 27.78000
C  29.30600 49.16500 27.38700
C  29.31100 49.13100 25.94900
C  28.21500 49.91400 25.55000
C  30.29900 48.54400 28.39800
C  30.39200 48.46700 25.07800
O  30.36100 48.59600 23.83600
C  31.44400 47.65100 25.73700
N  25.81800 51.55400 24.50500
C  26.81300 51.02800 23.74900
C  26.67400 51.26900 22.23400
C  25.26700 52.00400 22.20800
C  24.90600 52.14200 23.70100
C  27.72200 52.16400 21.52900
C  24.20600 51.08900 21.49500
C  23.90500 49.67100 22.12300
N  23.79400 52.23000 26.42300
C  23.11700 52.78900 25.35800
C  21.91800 53.36200 25.79900
C  21.94000 53.13200 27.18300
C  23.10100 52.47700 27.55300
C  20.88300 54.12600 24.96600
C  21.24600 53.43400 28.35800
O  20.17700 53.99200 28.50600
C  22.05300 52.79100 29.58800
C  22.40100 53.85400 30.61100
O  23.39700 54.63400 30.47100
O  21.55900 53.72700 31.67900
C  21.71600 54.68400 32.75000
H  28.38100 49.83800 29.95700
H  28.56200 50.17000 23.37900
H  22.89900 53.07800 23.41700
H  24.61000 52.49100 31.52600
H  26.45800 50.20400 31.70900
H  26.66700 52.67900 32.71900
H  27.47100 52.98800 31.05200
H  28.10300 51.78400 32.14800
H  24.41100 49.34400 31.55700
H  23.05700 50.22200 30.97300
H  23.40200 49.59500 33.61600
H  22.35500 50.97800 32.99000
H  30.57200 47.49500 28.27800
H  29.87500 48.65600 29.39600
H  31.24500 49.08400 28.44400
H  32.19700 48.15800 26.34100
H  31.90400 47.00200 24.99200
H  30.92600 46.82400 26.22100
H  26.55500 50.25800 21.84300
H  25.36200 53.00000 21.77500
H  27.35300 52.70500 20.65800
H  28.27900 51.31700 21.12700
H  28.37200 52.79700 22.13200
H  24.63300 50.77400 20.54300
H  23.19900 51.47300 21.33200
H  24.43200 49.53300 23.06700
H  24.29500 48.79100 21.61100
H  22.84500 49.60300 22.36800
H  19.87200 53.97000 25.34300
H  20.90500 53.78100 23.93300
H  21.28300 55.14000 24.99000
H  21.41600 52.07300 30.10500
H  22.12800 54.30800 33.68700
H  20.72400 55.03100 33.03800
H  22.31300 55.57100 32.53900

