158

Mg 53.71700 23.94700 44.36600
C  50.76200 25.96700 44.11900
C  51.73000 21.27200 43.60700
C  56.44600 22.19100 44.07100
C  55.55700 26.91100 45.29900
N  51.39200 23.71700 43.77900
C  50.43000 24.63200 43.82100
C  49.10000 23.94900 43.43400
C  49.46900 22.43800 43.72700
C  51.02000 22.45200 43.72100
C  48.81200 21.93600 45.01700
C  48.54900 24.26400 41.96200
C  49.58000 24.49000 40.87200
H  49.55500 23.50700 39.72700
N  54.03800 22.05200 43.66700
C  53.13100 21.04800 43.54100
C  53.79100 19.77100 43.25700
C  55.20100 20.09100 43.39600
C  55.28700 21.49400 43.70500
C  53.06100 18.47900 43.00300
C  56.24200 19.02100 43.14700
O  55.96200 17.83100 43.04900
C  57.64100 19.45200 42.91700
N  55.67200 24.52900 44.42600
C  56.62100 23.54900 44.39800
C  57.93700 24.05400 44.96000
C  57.67900 25.61400 45.15400
C  56.19600 25.69000 44.94700
C  58.54700 23.30500 46.14900
C  58.54600 26.50400 44.16500
C  57.85700 27.37100 43.05800
N  53.29300 25.97900 44.83100
C  54.15100 27.00800 45.20000
C  53.35600 28.17400 45.34200
C  52.05300 27.79900 44.87400
C  52.06300 26.49100 44.49500
C  53.72700 29.56200 45.89800
C  50.66500 28.33300 44.71300
O  50.17900 29.43300 44.88100
C  49.83000 27.13200 44.22700
C  49.23900 27.47500 42.90900
O  49.84500 27.44300 41.81900
O  47.96600 27.86300 42.98600
C  47.41300 28.36800 41.67400
H  51.17800 20.33000 43.62500
H  57.29800 21.52000 44.19900
H  56.19100 27.77000 45.52800
H  48.39100 24.42900 44.10800
H  48.98100 21.84000 42.95800
H  48.19300 21.07200 44.77500
H  48.17500 22.66800 45.51400
H  49.61300 21.57300 45.66100
H  47.91700 25.13000 42.15800
H  47.90700 23.40100 41.78400
H  50.60300 24.39100 41.23600
H  49.32300 25.46800 40.46700
H  53.66300 17.71900 43.50200
H  52.90900 18.18400 41.96500
H  52.04700 18.44000 43.40000
H  57.70600 20.36300 42.32300
H  58.22000 18.65700 42.44800
H  58.15800 19.56400 43.87000
H  58.64500 23.87100 44.15200
H  57.76900 25.82900 46.21900
H  57.73200 22.86300 46.72200
H  59.28300 23.92800 46.65900
H  58.98600 22.38400 45.76500
H  59.18400 25.85600 43.56400
H  59.27100 27.04600 44.77200
H  57.46200 28.31400 43.43500
H  56.96600 26.85400 42.70300
H  58.52000 27.40100 42.19300
H  54.55100 29.45800 46.60400
H  52.80400 29.85500 46.39900
H  53.92900 30.35500 45.17700
H  48.97300 26.89100 44.85600
H  46.44900 28.87400 41.73300
H  47.13500 27.54400 41.01800
H  48.15900 28.92800 41.11000
Mg -4.71200 24.96800 25.85000
C  -3.22100 26.51700 28.64100
C  -5.92300 22.58600 27.94100
C  -5.71600 23.24400 23.14000
C  -2.81400 27.18000 23.88900
N  -4.68800 24.71000 27.98900
C  -4.15600 25.49400 28.91900
C  -4.64100 25.18400 30.43100
C  -5.52600 23.86600 30.13100
C  -5.37100 23.67800 28.59000
C  -5.28100 22.61600 31.08300
C  -5.40800 26.38500 30.96300
C  -4.85900 27.16500 32.25800
H  -4.45500 26.20200 33.42600
N  -5.73100 23.14900 25.54600
C  -6.03700 22.28500 26.55300
C  -6.60800 21.03600 25.90600
C  -6.71300 21.28300 24.48400
C  -6.08100 22.62100 24.31400
C  -7.18200 19.88300 26.73100
C  -7.23200 20.32700 23.44600
O  -7.00800 20.49800 22.29900
C  -7.97100 19.10800 23.77800
N  -4.45600 25.32100 23.79000
C  -5.03600 24.43900 22.90900
C  -4.67100 24.95600 21.51200
C  -3.84400 26.28300 21.71500
C  -3.74900 26.38900 23.24500
C  -4.00600 23.88500 20.61000
C  -4.55700 27.55700 21.19700
C  -3.91600 28.15000 19.92000
N  -3.37800 26.67500 26.09200
C  -2.63200 27.36300 25.21900
C  -1.79100 28.32700 25.99500
C  -2.01700 28.02900 27.36500
C  -2.88500 26.95600 27.33700
C  -0.91300 29.44600 25.46100
C  -1.56600 28.31100 28.69500
O  -0.80800 29.08900 29.20900
C  -2.34800 27.29900 29.59500
C  -1.43900 26.37800 30.34400
O  -0.95700 25.31200 29.91800
O  -1.25000 26.91500 31.56900
C  -0.27100 26.24800 32.48900
H  -6.31800 21.80100 28.58900
H  -6.09200 22.84900 22.19500
H  -2.09300 27.72900 23.27900
H  -3.81000 24.82300 31.03700
H  -6.61200 23.94000 30.19400
H  -6.19800 22.21500 31.51400
H  -4.51000 22.76600 31.83900
H  -4.89600 21.82300 30.44200
H  -6.41000 26.07200 31.25800
H  -5.35800 27.14300 30.18100
H  -5.68200 27.76400 32.64700
H  -4.08800 27.90100 32.02600
H  -8.26000 19.95300 26.87200
H  -6.74700 19.88200 27.73100
H  -6.79500 19.01000 26.20500
H  -8.33300 18.75100 22.81400
H  -8.79500 19.37600 24.43900
H  -7.29200 18.31100 24.08000
H  -5.63600 25.20900 21.07400
H  -2.84600 26.27300 21.27600
H  -3.81200 23.00900 21.23000
H  -3.04100 24.25400 20.26400
H  -4.66400 23.63200 19.77900
H  -4.64400 28.35400 21.93500
H  -5.55900 27.33900 20.82800
H  -3.44600 29.12200 20.07400
H  -4.70400 28.18200 19.16800
H  -3.14900 27.44500 19.59800
H  -1.03700 29.57500 24.38600
H  0.11300 29.17100 25.70800
H  -1.10800 30.43500 25.87600
H  -3.02700 27.92100 30.17700
H  0.73000 26.67200 32.40600
H  -0.22100 25.17800 32.28500
H  -0.69400 26.38100 33.48400

