158

Mg 55.33800 24.24500 44.98700
C  52.62100 26.11000 44.05100
C  53.84900 21.44500 43.59800
C  58.19100 22.56300 45.55000
C  56.81400 27.23900 46.27300
N  53.51500 23.83300 43.95700
C  52.58900 24.79100 43.60600
C  51.50900 24.11300 42.73000
C  51.57300 22.62800 43.28300
C  53.07300 22.62000 43.58100
C  50.66800 22.38200 44.48800
C  51.83300 24.18600 41.26300
C  50.68200 24.45000 40.21400
H  50.54600 23.46700 39.05000
N  55.87200 22.26700 44.63700
C  55.15400 21.26200 44.13000
C  55.85700 19.99400 44.20900
C  57.12400 20.30100 44.71300
C  57.10500 21.76000 45.03500
C  55.23800 18.65800 43.80400
C  58.20200 19.18300 44.94800
O  57.87500 17.99300 44.87900
C  59.71000 19.46900 45.38400
N  57.26800 24.87400 45.71100
C  58.29400 23.98900 45.77500
C  59.51100 24.73800 46.23500
C  59.15800 26.25900 46.49300
C  57.69500 26.19600 46.03200
C  60.31500 24.06700 47.37100
C  59.99500 27.33200 45.68400
C  60.40500 28.63000 46.49500
N  54.78400 26.23300 45.35200
C  55.48800 27.32500 45.88800
C  54.57500 28.45000 46.00100
C  53.43400 28.09100 45.24300
C  53.59300 26.71300 44.87600
C  54.87000 29.68300 46.74700
C  52.16400 28.49100 44.65500
O  51.64300 29.59100 44.71600
C  51.59300 27.22600 43.86800
C  51.48900 27.69500 42.45200
O  52.26200 28.44600 41.87900
O  50.25600 27.31900 41.96700
C  49.65200 27.92800 40.80100
H  53.30600 20.53700 43.33000
H  59.08900 21.95600 45.68200
H  57.11300 28.13700 46.81600
H  50.57500 24.57700 43.04600
H  51.26100 21.97700 42.46700
H  50.00100 23.19500 44.77300
H  51.24200 22.14100 45.38300
H  50.10000 21.47400 44.28700
H  52.36400 23.26400 41.02700
H  52.57000 24.98900 41.23000
H  51.06300 25.40200 39.84400
H  49.75500 24.62200 40.76000
H  55.76300 18.20300 42.96400
H  54.16900 18.56200 43.61300
H  55.43200 17.96700 44.62400
H  60.27800 20.18500 44.78900
H  60.22000 18.50900 45.46800
H  59.71700 19.85900 46.40100
H  60.14600 24.75400 45.35000
H  59.26700 26.36700 47.57300
H  59.70900 23.20800 47.66000
H  60.37700 24.77000 48.20100
H  61.27500 23.81800 46.91900
H  59.28400 27.62500 44.91200
H  60.82200 26.81800 45.19500
H  61.30700 29.13700 46.15500
H  60.42100 28.40700 47.56200
H  59.66900 29.43300 46.47200
H  54.11000 30.42100 46.49100
H  55.88400 29.94700 46.44800
H  54.94900 29.38100 47.79100
H  50.66100 26.91600 44.34000
H  50.43000 28.12200 40.06200
H  49.17900 28.87100 41.07600
H  48.89100 27.24400 40.42600
Mg 29.79300 57.87800 40.99400
C  27.20200 56.03000 39.44600
C  32.04300 55.78900 39.78800
C  32.34900 60.23100 41.69500
C  27.52000 60.33000 41.63200
N  29.59700 56.09900 39.88000
C  28.52000 55.40700 39.42100
C  28.89900 54.18600 38.59800
C  30.41000 53.95400 38.98700
C  30.74100 55.39500 39.56800
C  30.70300 52.76100 39.91300
C  28.78800 54.43200 37.08100
C  27.84700 53.55900 36.27300
H  26.78200 54.25600 35.33400
N  31.82700 57.99300 40.87900
C  32.58500 56.93300 40.38600
C  34.03200 57.19500 40.45100
C  34.17000 58.47900 41.13300
C  32.76200 58.95200 41.31900
C  35.14400 56.21400 39.97200
C  35.47700 59.11000 41.56600
O  36.53700 58.66100 41.12100
C  35.48700 60.37100 42.38800
N  29.95700 60.08900 41.61500
C  31.07100 60.81000 41.79300
C  30.78100 62.25900 42.02000
C  29.22500 62.18100 42.33400
C  28.87600 60.77400 41.81000
C  31.62500 62.99400 43.09700
C  28.48600 63.34300 41.75900
C  27.57000 64.12800 42.70200
N  27.72700 58.10100 40.78100
C  26.92700 59.17300 41.05700
C  25.55600 58.94900 40.70100
C  25.62200 57.69100 40.07500
C  26.95600 57.27000 40.04600
C  24.46800 59.85500 40.89100
C  24.79300 56.69800 39.46300
O  23.62300 56.70900 39.25900
C  25.75200 55.53200 39.12300
C  25.29800 54.37300 39.92300
O  25.60600 54.08300 41.03900
O  24.41500 53.66000 39.12000
C  23.94500 52.44100 39.70200
H  32.71000 54.98100 39.48200
H  33.16900 60.87600 42.01900
H  26.71300 61.05700 41.74300
H  28.38600 53.24400 38.79100
H  31.09600 53.71500 38.17400
H  31.08100 53.20800 40.83200
H  31.44500 52.11500 39.44200
H  29.81200 52.15100 40.06500
H  29.71400 54.55800 36.52000
H  28.45400 55.46400 36.97200
H  27.38100 52.80900 36.91200
H  28.54000 53.06900 35.58900
H  35.03000 56.16500 38.88900
H  34.87000 55.24000 40.37700
H  36.16700 56.34700 40.32300
H  35.10500 61.29400 41.95300
H  36.53600 60.42300 42.68200
H  34.94900 60.38700 43.33600
H  31.02000 62.56800 41.00200
H  29.22200 62.11700 43.42200
H  31.96600 63.98400 42.79500
H  32.48600 62.38100 43.36200
H  31.06400 63.06500 44.02900
H  27.87300 62.98300 40.93300
H  29.21300 64.06500 41.38800
H  26.59000 63.85500 42.30900
H  27.88000 65.16700 42.59900
H  27.60400 63.93300 43.77400
H  24.84300 60.86100 40.70500
H  24.19700 59.62100 41.92000
H  23.67000 59.73400 40.15900
H  25.64300 55.33900 38.05600
H  23.44500 52.65200 40.64800
H  24.72900 51.71300 39.91400
H  23.25300 51.99400 38.98900

