158

Mg 0.62600 7.21300 25.66800
C  1.64000 9.13800 28.51300
C  0.65600 4.51600 27.65500
C  0.30300 5.45600 22.85100
C  1.27700 10.21300 23.71500
N  1.19000 6.92000 27.80900
C  1.40400 7.80700 28.82100
C  1.41300 7.16200 30.19000
C  1.15500 5.63000 29.91400
C  1.03600 5.71200 28.34600
C  2.10100 4.61500 30.50700
C  0.35200 7.71000 31.23600
C  0.87600 7.91600 32.70200
H  2.03700 7.16500 33.13500
N  0.41800 5.32000 25.28400
C  0.32100 4.32300 26.30100
C  0.01700 3.08200 25.62600
C  0.03800 3.34200 24.21800
C  0.24500 4.75100 24.07400
C  -0.11800 1.78900 26.34000
C  0.04000 2.41100 23.05200
O  0.00300 2.72300 21.88400
C  0.02500 0.94500 23.30300
N  0.77500 7.75800 23.56400
C  0.53700 6.80800 22.59800
C  0.58300 7.45900 21.25500
C  0.74000 8.98800 21.53500
C  0.99200 9.00000 23.01400
C  1.71100 6.84100 20.40200
C  -0.46600 9.88400 21.18300
C  -0.13200 11.00000 20.23000
N  1.23200 9.28300 26.00200
C  1.39000 10.32200 25.17000
C  1.73800 11.51600 25.90900
C  1.96600 11.13400 27.19400
C  1.53600 9.80600 27.22300
C  2.00900 12.90300 25.29100
C  2.29200 11.54400 28.51400
O  2.71200 12.58000 28.92900
C  2.02300 10.34600 29.45100
C  3.18400 10.18000 30.48200
O  4.23000 9.55000 30.32300
O  2.75300 10.83800 31.63900
C  3.81600 11.17400 32.59500
H  0.63300 3.64500 28.31300
H  0.12900 5.01000 21.86900
H  1.49600 11.14800 23.19600
H  2.42600 7.35500 30.54300
H  0.14100 5.36500 30.21300
H  2.83600 5.13900 31.11700
H  2.52900 3.96300 29.74600
H  1.56800 3.95800 31.19500
H  -0.47300 7.01300 31.38300
H  0.00500 8.66900 30.85200
H  0.03700 7.60600 33.32600
H  1.03100 8.98500 32.84900
H  -0.86600 1.27300 25.73900
H  -0.45800 1.86700 27.37200
H  0.82000 1.23500 26.33800
H  -0.87100 0.65700 23.85200
H  0.84200 0.72300 23.99000
H  0.23900 0.32700 22.43000
H  -0.39300 7.10300 20.92600
H  1.70700 9.27600 21.12300
H  2.20500 7.64200 19.85200
H  1.24900 6.27000 19.59600
H  2.36900 6.21300 21.00200
H  -0.90500 10.41700 22.02600
H  -1.35500 9.35700 20.83800
H  -1.11700 11.37700 19.95200
H  0.50900 10.90000 19.35400
H  0.27300 11.77900 20.87600
H  2.81800 13.40700 25.81900
H  1.15300 13.57100 25.38400
H  2.16100 12.81100 24.21600
H  1.11500 10.57800 30.00700
H  3.24400 11.58900 33.42400
H  4.57000 11.88900 32.26500
H  4.43200 10.39100 33.03700
Mg -8.56500 40.38400 43.43300
C  -7.39700 37.26300 42.26000
C  -5.96400 41.91300 41.85300
C  -10.05600 43.36100 43.92300
C  -11.38600 38.64600 44.69400
N  -6.86200 39.61400 42.26600
C  -6.48400 38.33800 41.93600
C  -5.22700 38.31800 41.05100
C  -4.79400 39.75800 41.16000
C  -5.93300 40.49000 41.86000
C  -3.45500 39.89300 41.86900
C  -5.43400 37.64600 39.62800
C  -4.63800 36.47300 39.23900
H  -3.69000 36.59400 38.03300
N  -8.03900 42.40100 43.01600
C  -6.94800 42.81700 42.33000
C  -6.99700 44.29700 42.19600
C  -8.20700 44.70700 42.83700
C  -8.79500 43.46100 43.29500
C  -5.95300 45.06100 41.41200
C  -8.71800 46.20900 42.88700
O  -8.26200 47.11800 42.18900
C  -9.79300 46.55800 43.86100
N  -10.55100 40.95600 43.99900
C  -10.84200 42.27200 44.25500
C  -12.25800 42.36500 44.85400
C  -12.62300 40.84000 45.25500
C  -11.55000 40.04200 44.44300
C  -12.40600 43.28100 46.09600
C  -14.08500 40.43800 44.88200
C  -14.72200 39.48500 45.98800
N  -9.25100 38.36900 43.59700
C  -10.39400 37.81900 44.15400
C  -10.31900 36.40200 44.21300
C  -9.19300 36.11100 43.42900
C  -8.54800 37.37600 43.07900
C  -11.36900 35.46100 44.79100
C  -8.51800 35.07500 42.76800
O  -8.67400 33.83800 42.72800
C  -7.28800 35.73600 41.93900
C  -6.08000 35.06000 42.33000
O  -5.45100 35.28700 43.33900
O  -5.68100 34.15200 41.36900
C  -4.46500 33.40500 41.60400
H  -5.11600 42.43200 41.39900
H  -10.64800 44.25600 44.12900
H  -12.24300 38.28500 45.26600
H  -4.50400 37.74600 41.63100
H  -4.77900 40.17600 40.15400
H  -2.66900 39.46200 41.24800
H  -3.50500 39.29700 42.78000
H  -3.02300 40.87100 42.08300
H  -5.14300 38.32600 38.82700
H  -6.48800 37.43200 39.45200
H  -5.29500 35.63200 39.01300
H  -4.04100 36.11000 40.07500
H  -6.40300 45.89100 40.86700
H  -5.43600 44.40300 40.71300
H  -5.18600 45.49800 42.05100
H  -9.82400 47.63100 44.04600
H  -9.69000 46.06400 44.82700
H  -10.75500 46.28400 43.42800
H  -12.91400 42.78900 44.09400
H  -12.39000 40.59200 46.29100
H  -13.10300 44.11400 46.00400
H  -11.43900 43.75300 46.27000
H  -12.82800 42.75500 46.95200
H  -13.99500 39.84400 43.97300
H  -14.78700 41.24200 44.66000
H  -14.21300 39.58400 46.94700
H  -14.55500 38.45000 45.68800
H  -15.81000 39.55200 45.96900
H  -11.94300 35.10300 43.93700
H  -11.96700 35.79800 45.63800
H  -10.67600 34.72900 45.20600
H  -7.51900 35.62000 40.88000
H  -4.78200 32.42900 41.97200
H  -3.89600 33.73600 42.47300
H  -3.90400 33.05800 40.73600

