158

Mg 46.77800 23.79800 29.11800
C  47.40400 26.22900 31.72400
C  46.05100 21.50000 31.58200
C  46.44200 21.60000 26.66200
C  48.30100 26.02400 26.81500
N  46.73600 23.91300 31.42400
C  46.90100 25.02500 32.22000
C  46.36800 24.71200 33.64400
C  46.05200 23.08700 33.61100
C  46.38300 22.75500 32.10000
C  46.87900 22.28000 34.60200
C  45.06800 25.50500 33.96800
C  45.29100 26.50400 35.15100
H  45.88800 26.04200 36.56500
N  46.37600 21.83000 29.15300
C  46.05400 21.05600 30.24500
C  45.73400 19.71600 29.79100
C  45.88600 19.70100 28.35800
C  46.23100 21.08400 27.98900
C  45.17800 18.62200 30.79900
C  45.74100 18.58300 27.42300
O  45.94900 18.69100 26.19100
C  45.37300 17.19700 27.93700
N  47.37500 23.79300 27.12100
C  46.94700 22.82100 26.27600
C  47.26600 23.09200 24.82400
C  47.65900 24.65500 24.83600
C  47.73300 24.85900 26.33200
C  48.21700 22.05100 24.13100
C  46.75000 25.69800 24.08200
C  45.27500 25.86600 24.58000
N  47.68600 25.69600 29.21900
C  48.24500 26.45700 28.19900
C  48.60400 27.77200 28.70800
C  48.26000 27.74500 30.06500
C  47.71000 26.46300 30.32300
C  49.26900 28.89000 27.95200
C  48.24300 28.55200 31.29100
O  48.61900 29.70400 31.54700
C  47.65500 27.53400 32.39400
C  48.68500 27.43000 33.59900
O  49.74800 26.80900 33.61400
O  48.33800 28.29000 34.58000
C  49.32800 28.55700 35.63600
H  45.81500 20.74100 32.33100
H  46.18500 20.95300 25.82100
H  48.62300 26.73900 26.05600
H  47.17100 24.88100 34.36200
H  44.99600 22.94200 33.83800
H  47.43700 22.98100 35.22300
H  47.43600 21.52400 34.04800
H  46.16300 21.87700 35.31700
H  44.25900 24.84900 34.28800
H  44.78500 26.01500 33.04700
H  44.37200 27.06900 35.30900
H  46.09100 27.19300 34.87900
H  44.93500 19.00300 31.79100
H  45.91100 17.81600 30.79200
H  44.24200 18.24300 30.39000
H  45.31700 16.60100 27.02600
H  44.37600 17.28100 28.37000
H  45.99300 16.71600 28.69400
H  46.32900 22.95600 24.28400
H  48.68500 24.70300 24.47200
H  47.67900 21.57900 23.30800
H  48.44900 21.20100 24.77200
H  49.09600 22.57100 23.75100
H  46.64200 25.36400 23.05000
H  47.17000 26.70200 24.03300
H  45.03500 26.91400 24.76200
H  45.17100 25.22500 25.45400
H  44.53100 25.49300 23.87600
H  48.72300 29.82400 28.08400
H  49.33100 28.60100 26.90300
H  50.28300 29.06100 28.31300
H  46.68800 27.79000 32.82600
H  50.35200 28.21800 35.47700
H  48.93400 28.16300 36.57300
H  49.40500 29.64000 35.72800
Mg 7.47500 54.46100 40.20200
C  6.87700 51.03900 40.31800
C  10.85400 53.84600 39.46100
C  7.96900 57.72600 39.46600
C  4.17500 55.13300 40.68500
N  8.65000 52.67100 39.73000
C  8.15100 51.35800 39.89000
C  9.33000 50.40000 39.66100
C  10.60700 51.31900 39.82000
C  10.08000 52.70500 39.67400
C  11.48100 51.09200 41.06800
C  9.30500 49.56000 38.29000
C  9.28400 50.55900 37.01100
H  7.82700 50.71100 36.39400
N  9.20600 55.56500 39.40900
C  10.50900 55.17400 39.37800
C  11.34600 56.29500 39.09600
C  10.54400 57.47900 39.09300
C  9.14900 56.93500 39.28100
C  12.88100 56.27200 38.87000
C  11.04200 58.97700 38.89200
O  12.21900 59.19400 38.66600
C  10.15500 60.15700 39.11400
N  6.22600 56.15700 39.99300
C  6.64200 57.42800 39.82600
C  5.53400 58.48900 39.90500
C  4.36300 57.63300 40.40300
C  4.97300 56.24100 40.43000
C  5.81000 59.79800 40.71800
C  3.15500 57.63600 39.41000
C  1.75100 57.46500 40.09600
N  5.76700 53.34400 40.40800
C  4.49200 53.70900 40.65100
C  3.73300 52.55800 41.06700
C  4.65000 51.51700 40.93300
C  5.84900 52.02500 40.46700
C  2.25100 52.52200 41.42500
C  4.82600 50.02700 41.13000
O  4.07900 49.18800 41.66000
C  6.27300 49.70200 40.67500
C  6.03100 48.71000 39.50500
O  5.55400 48.98000 38.40700
O  6.12300 47.42000 39.99500
C  6.04300 46.32700 39.02800
H  11.93600 53.69500 39.44700
H  8.10600 58.80000 39.32000
H  3.18100 55.25200 41.12000
H  9.27400 49.69200 40.48800
H  11.21800 51.14200 38.93500
H  11.08700 50.52400 41.91100
H  11.57900 52.11900 41.41900
H  12.49600 50.71600 40.94100
H  8.61300 48.72100 38.37200
H  10.29000 49.10800 38.17100
H  10.05600 50.21300 36.32300
H  9.56200 51.57700 37.28300
H  13.05400 56.80500 37.93500
H  13.20000 55.24900 38.67300
H  13.50000 56.69700 39.66000
H  9.33800 60.31100 38.40800
H  10.75000 61.05900 38.96700
H  9.78500 60.23900 40.13600
H  5.32200 58.78600 38.87800
H  4.05700 57.88000 41.41900
H  5.53500 60.56000 39.98900
H  6.81600 59.90900 41.12300
H  5.12500 59.80700 41.56600
H  3.28400 56.92600 38.59400
H  3.10700 58.60000 38.90300
H  1.89800 57.23400 41.15100
H  1.18100 56.78600 39.46100
H  1.13800 58.36500 40.09400
H  2.00800 51.69900 42.09700
H  1.70500 52.43700 40.48600
H  1.96800 53.40700 41.99400
H  6.87300 49.23400 41.45600
H  6.44200 45.38100 39.39500
H  6.69800 46.53700 38.18300
H  5.00600 46.14400 38.74600

