158

Mg 35.68500 0.98500 29.75800
C  33.31300 2.17800 32.11100
C  37.93800 1.14000 32.30400
C  38.04600 0.04800 27.51700
C  33.40500 1.35800 27.17700
N  35.68200 1.76000 31.91900
C  34.51800 1.94800 32.67600
C  34.74100 2.04600 34.18000
C  36.30500 1.64800 34.22900
C  36.66600 1.57100 32.72300
C  37.22600 2.65100 35.09200
C  33.93400 1.04000 35.02200
C  33.35900 1.46400 36.39700
H  34.00800 2.62900 37.14700
N  37.67900 0.62900 29.89600
C  38.47500 0.75800 31.03300
C  39.80600 0.16600 30.79000
C  39.86700 -0.09300 29.35500
C  38.47500 0.19500 28.89500
C  40.85200 -0.15300 31.84200
C  41.10500 -0.54200 28.51500
O  40.98400 -0.83900 27.36700
C  42.48300 -0.45700 29.16500
N  35.71400 0.69300 27.64500
C  36.77600 0.32100 27.00800
C  36.54400 0.22100 25.42400
C  34.97500 0.43900 25.34800
C  34.65900 0.83900 26.80600
C  37.29000 1.37900 24.63500
C  34.19300 -0.74100 24.80700
C  33.56200 -0.54800 23.44500
N  33.78600 1.75800 29.60900
C  32.98400 1.75700 28.50300
C  31.70400 2.24900 28.86800
C  31.71000 2.41000 30.28700
C  33.05900 2.12500 30.71000
C  30.62700 2.46600 27.89300
C  30.98200 2.67400 31.45300
O  29.82500 2.92800 31.56400
C  31.96800 2.55900 32.72700
C  32.03900 4.01500 33.27600
O  32.94900 4.85000 33.09500
O  31.11900 4.10200 34.26500
C  31.24700 5.12500 35.29600
H  38.53600 0.97800 33.20300
H  38.85500 -0.34300 26.89800
H  32.57100 1.28700 26.47500
H  34.53100 3.04900 34.55100
H  36.54300 0.62800 34.53000
H  37.95000 2.06400 35.65800
H  36.67200 3.23000 35.83000
H  37.84400 3.33500 34.51200
H  34.57100 0.18700 35.25500
H  33.13400 0.50500 34.51100
H  33.50500 0.61400 37.06400
H  32.27500 1.56900 36.37200
H  41.21900 -1.17800 31.89500
H  40.29500 -0.01200 32.76700
H  41.63400 0.60600 31.83900
H  42.59900 0.53700 29.59800
H  43.19000 -0.54600 28.34100
H  42.73600 -1.15200 29.96500
H  36.93500 -0.75500 25.13800
H  34.69900 1.38300 24.87800
H  38.12600 1.69600 25.25900
H  36.61100 2.17600 24.33300
H  37.68500 0.95100 23.71300
H  33.37500 -1.00900 25.47600
H  34.82900 -1.60800 24.62600
H  33.74800 -1.35900 22.74000
H  33.88300 0.38800 22.98800
H  32.47800 -0.50400 23.54700
H  31.11300 2.88200 27.01000
H  29.96500 3.24700 28.26800
H  30.04900 1.57300 27.65500
H  31.57200 1.94100 33.53300
H  31.08000 4.69700 36.28400
H  30.60000 5.96000 35.02700
H  32.27400 5.49100 35.31000
Mg 8.51100 47.81200 29.20100
C  6.68900 47.12800 32.15000
C  11.36100 47.63000 31.09600
C  10.34000 48.65400 26.54800
C  5.55100 48.45000 27.49600
N  8.95300 47.50700 31.39900
C  8.09200 47.19000 32.42300
C  8.78900 47.16000 33.82400
C  10.23400 47.44900 33.42700
C  10.22500 47.41700 31.86100
C  10.84800 48.73600 34.12100
C  8.53400 45.82200 34.47600
C  9.55200 45.42500 35.64200
H  8.95400 44.77900 36.88500
N  10.57600 47.83000 28.79700
C  11.55500 47.73400 29.72500
C  12.88000 47.76900 29.08400
C  12.56200 47.92600 27.65100
C  11.11800 48.13200 27.58500
C  14.17900 47.52800 29.79400
C  13.53400 48.03100 26.46900
O  13.13000 48.21300 25.34900
C  15.12500 47.88900 26.69400
N  7.96700 48.63200 27.33600
C  8.93100 48.92100 26.42800
C  8.31600 49.54700 25.17900
C  6.77100 49.32900 25.33600
C  6.70400 48.76000 26.78400
C  8.86000 51.00100 24.93300
C  6.13500 48.35200 24.26300
C  5.71500 48.99700 22.90400
N  6.46800 47.76400 29.60700
C  5.37700 47.98200 28.83800
C  4.18900 47.76400 29.61700
C  4.63300 47.42200 30.91300
C  6.04900 47.47000 30.87800
C  2.79700 47.80400 29.02300
C  4.21800 47.12300 32.26900
O  3.09900 47.06900 32.82300
C  5.51400 46.84400 33.05600
C  5.46700 45.38500 33.44400
O  5.84600 44.40400 32.77600
O  5.01700 45.29600 34.76700
C  5.14600 43.96500 35.36400
H  12.27200 47.67100 31.69700
H  10.88600 48.81100 25.61600
H  4.65400 48.60200 26.89200
H  8.46900 47.94600 34.50900
H  10.79200 46.55400 33.70200
H  11.93300 48.63000 34.09500
H  10.53400 48.65000 35.16100
H  10.44100 49.66600 33.72500
H  8.66100 45.05600 33.71100
H  7.53600 45.63600 34.87100
H  10.18000 46.20900 36.06700
H  10.20400 44.62100 35.30000
H  14.81000 46.70600 29.45800
H  14.05400 47.30000 30.85200
H  14.68100 48.48500 29.93900
H  15.38500 48.38500 27.62900
H  15.74600 48.14600 25.83500
H  15.36500 46.84300 26.88300
H  8.55800 49.07000 24.23000
H  6.30000 50.29900 25.17800
H  8.17300 51.70000 24.45500
H  9.67100 51.04100 24.20600
H  9.40900 51.31500 25.82100
H  5.20700 47.97000 24.68900
H  6.83000 47.61200 23.86800
H  6.34200 48.67800 22.07100
H  5.76500 50.08000 23.01000
H  4.72300 48.63100 22.64100
H  2.84600 47.55100 27.96400
H  2.29500 48.74500 29.25100
H  2.26700 47.01700 29.55900
H  5.67000 47.45000 33.94900
H  6.15700 43.55700 35.35100
H  4.59000 43.36000 34.64800
H  4.68000 43.93800 36.34900

