158

Mg 7.33500 3.21300 28.27100
C  8.81100 1.46400 30.80400
C  5.39700 4.87800 30.51300
C  5.86600 4.78200 25.70000
C  9.23200 1.28100 25.98100
N  6.99100 3.01400 30.38600
C  7.87000 2.37300 31.25600
C  7.59900 2.79600 32.74500
C  6.43100 3.82800 32.55500
C  6.23800 3.89600 31.07800
C  5.19800 3.48200 33.47300
C  8.89000 3.32900 33.49600
C  8.61600 4.31700 34.73100
H  9.48500 4.03800 35.89900
N  5.84000 4.59700 28.10000
C  5.16600 5.16100 29.14400
C  4.26500 6.22100 28.66200
C  4.34800 6.18400 27.23400
C  5.36100 5.14000 26.91200
C  3.24500 6.92500 29.54800
C  3.51500 6.93400 26.23700
O  3.65500 6.88600 24.96900
C  2.39800 7.87800 26.73400
N  7.38800 2.98200 26.07600
C  6.80600 3.81200 25.29500
C  7.25800 3.52300 23.86000
C  8.45800 2.62100 23.96200
C  8.30900 2.18400 25.45900
C  6.09800 3.08100 22.94500
C  9.87300 3.32000 23.63500
C  10.54800 4.13900 24.72700
N  8.62100 1.56400 28.29200
C  9.35600 0.93500 27.33500
C  10.35000 0.07500 27.95000
C  10.21400 0.30600 29.31200
C  9.10400 1.10900 29.46000
C  11.15000 -0.91600 27.13000
C  10.62100 -0.14600 30.60400
O  11.49800 -0.93800 30.94100
C  9.85100 0.78300 31.60500
C  9.25300 -0.03600 32.65000
O  8.34700 -0.82500 32.52000
O  9.88400 0.19200 33.86100
C  9.35000 -0.46700 35.11600
H  5.02600 5.59500 31.24800
H  5.51400 5.32500 24.82000
H  9.89300 0.74200 25.29900
H  7.36600 1.89300 33.30900
H  6.83900 4.79400 32.85400
H  5.48300 2.81000 34.28300
H  4.40900 2.92400 32.97000
H  4.74900 4.35600 33.94500
H  9.37000 3.99000 32.77400
H  9.66300 2.60000 33.73800
H  7.57100 4.30100 35.03900
H  8.69300 5.32700 34.32900
H  2.23000 6.74200 29.19700
H  3.36400 8.00100 29.42400
H  3.21400 6.52900 30.56300
H  1.62700 7.44000 27.36800
H  1.78200 8.08400 25.85800
H  2.75900 8.86300 27.03000
H  7.68100 4.43800 23.44700
H  8.24900 1.68100 23.45100
H  5.33400 2.60600 23.56100
H  6.49400 2.28400 22.31500
H  5.73100 3.83400 22.24800
H  9.75700 3.84400 22.68600
H  10.57200 2.52400 23.37900
H  10.65500 5.14300 24.31700
H  11.54500 3.69700 24.73600
H  10.05000 4.05800 25.69300
H  10.52500 -1.31100 26.32900
H  11.36700 -1.69600 27.86000
H  11.95800 -0.24300 26.84100
H  10.54900 1.48800 32.05700
H  9.23300 -1.53900 34.95200
H  8.53400 0.04300 35.62800
H  10.16700 -0.34900 35.82700
Mg 49.43400 35.72400 27.49400
C  47.40200 34.05000 29.70800
C  50.01100 38.15300 29.84500
C  50.75100 37.64200 25.16300
C  48.68900 33.30900 25.03900
N  48.88600 35.89800 29.57600
C  48.07900 35.05800 30.28500
C  47.99000 35.47900 31.73100
C  48.58400 36.92300 31.64100
C  49.27800 36.99500 30.26600
C  47.52300 38.05200 31.90100
C  48.79200 34.49300 32.62300
C  48.38700 34.17400 34.10300
H  47.35200 35.11700 34.77600
N  50.31100 37.60000 27.47600
C  50.46800 38.39000 28.54900
C  50.99300 39.69500 28.10600
C  51.24000 39.60900 26.70200
C  50.67000 38.26300 26.34900
C  51.16600 40.85600 29.07600
C  51.95500 40.57900 25.87100
O  52.25300 40.34100 24.71500
C  52.49500 41.84700 26.39700
N  49.83100 35.41200 25.31500
C  50.42000 36.40600 24.66100
C  50.47300 35.99200 23.18000
C  49.92500 34.54100 23.15500
C  49.39500 34.39800 24.55000
C  49.68500 36.92400 22.22200
C  50.90000 33.43100 22.79000
C  51.71300 33.51000 21.47500
N  48.36300 33.98600 27.35500
C  48.18600 33.12300 26.32100
C  47.34200 32.01500 26.78700
C  46.96500 32.37400 28.09800
C  47.57300 33.56700 28.36800
C  46.99400 30.70900 26.09200
C  46.15900 31.95800 29.24500
O  45.42300 30.98900 29.45400
C  46.27700 33.09800 30.31900
C  46.64000 32.42500 31.65900
O  47.61500 31.72200 31.93900
O  45.53300 32.60900 32.48700
C  45.54900 31.70700 33.66300
H  49.98100 38.92900 30.61300
H  51.07000 38.36100 24.40500
H  48.52200 32.43900 24.40000
H  46.91500 35.45400 31.90500
H  49.27100 37.12900 32.46200
H  46.52200 37.68300 32.12600
H  47.42200 38.54600 30.93400
H  47.95300 38.69100 32.67200
H  49.78000 34.93500 32.75800
H  49.06100 33.62900 32.01500
H  49.32000 34.20000 34.66600
H  48.18300 33.12300 34.30700
H  50.57800 41.67300 28.65800
H  52.18900 41.16900 29.28500
H  50.74800 40.56700 30.04100
H  51.73900 42.51600 26.80800
H  53.08800 42.40800 25.67400
H  53.28800 41.60800 27.10600
H  51.49300 35.95800 22.79800
H  49.06200 34.38400 22.50800
H  49.08000 36.41400 21.47300
H  50.47100 37.50200 21.73600
H  49.04500 37.63000 22.75200
H  50.34100 32.50100 22.69200
H  51.47600 33.49600 23.71300
H  52.75000 33.72600 21.73100
H  51.15600 34.20800 20.85000
H  51.74400 32.54100 20.97700
H  46.68700 31.02100 25.09300
H  46.23000 30.12500 26.60600
H  47.94600 30.17900 26.07400
H  45.40200 33.74400 30.38800
H  44.54900 31.31000 33.84300
H  45.81900 32.33000 34.51600
H  46.21300 30.84500 33.60100

