158

Mg 49.65400 45.95200 42.73200
C  46.20500 46.68400 41.99100
C  49.24200 42.94700 41.31400
C  52.98900 45.56700 43.10300
C  49.77000 49.24000 44.04700
N  47.86400 44.99500 41.81400
C  46.65200 45.38200 41.54700
C  45.77600 44.34000 40.90200
C  46.70300 43.17200 40.61800
C  48.03800 43.75600 41.28200
C  46.37800 41.79900 41.20800
C  44.94100 44.77200 39.66100
C  43.81900 43.81100 39.10900
H  43.98000 43.03500 37.81000
N  50.94000 44.49500 42.18700
C  50.59500 43.22600 41.74000
C  51.76600 42.45100 41.78300
C  52.83700 43.16300 42.40000
C  52.28800 44.48900 42.54500
C  51.71600 40.93400 41.38200
C  54.23000 42.64800 42.73900
O  54.39400 41.47500 42.56600
C  55.42100 43.53800 43.08600
N  51.25600 47.25600 43.31200
C  52.56600 46.88900 43.39500
C  53.46900 48.10800 43.85400
C  52.39700 49.15300 44.33900
C  50.99900 48.52300 43.91000
C  54.61500 47.75500 44.86400
C  52.67900 50.65300 43.85700
C  52.72500 51.87000 44.85500
N  48.36400 47.63100 42.97800
C  48.55000 48.78700 43.64300
C  47.33700 49.51900 43.77000
C  46.35600 48.66300 43.16900
C  47.05800 47.54600 42.66900
C  47.01600 50.96700 44.25000
C  44.95900 48.59400 42.82400
O  44.03800 49.33800 42.92100
C  44.85700 47.27600 41.97900
C  43.76000 46.50400 42.64900
O  43.85300 45.87000 43.66600
O  42.63500 46.57900 41.81200
C  41.33600 46.21000 42.40600
H  49.10600 41.90700 41.00800
H  54.06000 45.54000 43.31400
H  49.71100 50.20700 44.55000
H  45.09800 43.99500 41.68300
H  47.01800 43.16000 39.57400
H  46.76700 41.67500 42.21800
H  46.97300 41.06400 40.66600
H  45.36500 41.40500 41.11700
H  45.61600 44.77500 38.80400
H  44.52000 45.76600 39.81400
H  42.96700 44.45100 38.87800
H  43.45000 43.13400 39.87900
H  52.60800 40.64800 40.82300
H  50.84600 40.97900 40.72700
H  51.51900 40.33000 42.26700
H  55.36700 43.91600 44.10700
H  55.60000 44.22100 42.25500
H  56.36300 42.99100 43.08600
H  53.84400 48.51100 42.91400
H  52.20900 49.15200 45.41300
H  55.48400 47.95900 44.23700
H  54.66400 46.73100 45.23300
H  54.70300 48.42400 45.72000
H  51.95600 50.86600 43.06900
H  53.67900 50.69500 43.42700
H  52.27100 52.75600 44.41000
H  53.75400 52.13100 45.10400
H  52.10500 51.57800 45.70200
H  47.68100 51.07400 45.10600
H  45.99600 51.26800 44.49000
H  47.41600 51.58500 43.44600
H  44.51100 47.67700 41.02600
H  41.25200 46.75100 43.34900
H  41.23900 45.14300 42.60600
H  40.53800 46.47700 41.71300
Mg -11.34400 36.93100 41.73200
C  -9.05200 34.67300 40.47400
C  -9.54100 39.49700 40.32700
C  -14.11000 38.98600 41.88300
C  -13.25700 34.27100 42.80800
N  -9.63700 37.04300 40.42200
C  -8.80100 36.00500 40.13800
C  -7.53700 36.46400 39.36500
C  -7.54800 38.00900 39.54200
C  -8.98100 38.20500 40.13100
C  -6.38900 38.76100 40.28000
C  -7.41100 35.92600 37.92800
C  -6.12500 35.18500 37.49800
H  -5.32800 35.70200 36.31200
N  -11.73500 39.00300 41.29300
C  -10.78400 39.91200 40.87000
C  -11.27900 41.22800 40.92800
C  -12.65000 41.11000 41.36800
C  -12.88000 39.63500 41.57000
C  -10.64700 42.44600 40.24800
C  -13.67000 42.23900 41.44000
O  -13.23600 43.39300 41.33600
C  -15.12000 42.07600 41.63000
N  -13.37600 36.56600 42.14100
C  -14.37100 37.63100 42.11900
C  -15.69600 37.19600 42.73800
C  -15.45100 35.68100 43.10700
C  -13.96600 35.49600 42.71700
C  -16.18600 38.12800 43.94000
C  -16.46400 34.69300 42.44000
C  -17.45200 33.92300 43.38700
N  -11.26800 34.88600 41.58200
C  -12.05500 33.97000 42.21100
C  -11.40000 32.65200 42.15800
C  -10.22400 32.90300 41.44700
C  -10.16400 34.28300 41.16400
C  -11.89700 31.35300 42.80200
C  -9.05600 32.30100 40.89800
O  -8.75800 31.11000 40.77600
C  -8.24300 33.41700 40.26200
C  -6.95000 33.32800 41.01200
O  -5.86500 33.10600 40.48300
O  -7.06000 33.76300 42.28900
C  -5.77300 33.63300 43.00100
H  -8.97700 40.37500 40.00500
H  -15.03500 39.56700 41.89600
H  -13.74400 33.41400 43.28000
H  -6.70000 36.08700 39.95300
H  -7.42800 38.40800 38.53500
H  -5.99200 39.44400 39.52900
H  -5.69700 37.99400 40.62700
H  -6.79700 39.37900 41.08000
H  -7.43500 36.74300 37.20700
H  -8.29100 35.28700 37.85200
H  -6.32600 34.12800 37.32600
H  -5.41900 35.23500 38.32800
H  -11.02500 42.51700 39.22800
H  -9.55900 42.39800 40.29000
H  -10.89900 43.41000 40.69200
H  -15.12200 41.59300 42.60700
H  -15.55400 41.35700 40.93500
H  -15.66100 43.02300 41.65200
H  -16.40700 37.37300 41.93100
H  -15.50200 35.61700 44.19300
H  -16.50500 37.43500 44.71900
H  -17.08100 38.64200 43.58800
H  -15.40400 38.81200 44.27000
H  -15.93200 33.93300 41.86800
H  -17.14600 35.25100 41.79900
H  -18.43700 34.31500 43.13200
H  -17.30400 34.16000 44.44000
H  -17.32000 32.85000 43.25300
H  -11.23800 30.52700 42.53100
H  -12.88700 31.12900 42.40400
H  -11.96600 31.29800 43.88900
H  -8.02500 33.19900 39.21700
H  -6.07000 33.80800 44.03500
H  -5.02300 34.28700 42.55700
H  -5.38800 32.61400 42.96900

