158

Mg 16.79300 52.56000 25.40200
C  18.21400 51.43500 28.32400
C  14.34800 53.94000 27.31400
C  15.09400 53.06900 22.56000
C  19.15500 50.66400 23.54300
N  16.36100 52.54300 27.63600
C  17.23000 52.29900 28.61300
C  16.60100 52.57900 30.01600
C  15.30600 53.44200 29.60100
C  15.33500 53.39700 28.09400
C  13.94500 52.88600 30.19700
C  17.58100 53.32700 31.02500
C  17.37800 53.40900 32.55300
H  16.27000 52.41400 33.07600
N  15.05200 53.45400 24.97600
C  14.14300 53.91700 25.91500
C  12.98300 54.46600 25.22000
C  13.17500 54.25300 23.81900
C  14.45300 53.53300 23.73900
C  11.83400 55.27400 25.97600
C  12.30400 54.71500 22.66600
O  12.50000 54.43200 21.47500
C  11.08200 55.59000 22.97000
N  17.18800 52.11600 23.33700
C  16.29100 52.37800 22.37800
C  16.68400 51.72400 21.08100
C  18.11000 51.14900 21.30700
C  18.15000 51.31300 22.84400
C  15.69700 50.58000 20.61900
C  19.39500 51.83800 20.68500
C  19.83000 51.20700 19.40900
N  18.33800 51.30900 25.81700
C  19.30100 50.68600 24.97700
C  20.32400 50.06500 25.77900
C  19.85600 50.25100 27.09000
C  18.71600 51.07900 27.04700
C  21.56400 49.30700 25.38800
C  20.17200 50.06400 28.53200
O  21.10700 49.44400 29.02000
C  19.12300 50.77700 29.35700
C  18.58500 49.72900 30.37100
O  17.90700 48.68500 30.12400
O  19.03900 50.03100 31.60500
C  18.94600 49.03300 32.60700
H  13.54400 54.30900 27.95300
H  14.67800 53.25800 21.56800
H  19.85400 50.01500 23.01000
H  16.31300 51.60200 30.40400
H  15.24200 54.49000 29.89400
H  13.19000 52.55600 29.48400
H  13.45500 53.62000 30.83600
H  14.16800 52.02100 30.82200
H  17.43900 54.33800 30.64400
H  18.63200 53.10100 30.84500
H  17.25300 54.44900 32.85400
H  18.28100 53.02200 33.02500
H  11.45100 56.15400 25.45800
H  12.15000 55.49600 26.99600
H  11.01600 54.56800 26.11900
H  10.55400 55.80800 22.04200
H  11.41800 56.56300 23.32800
H  10.45200 55.09300 23.70800
H  16.68900 52.52400 20.34100
H  18.01400 50.08600 21.08800
H  14.64200 50.75200 20.83400
H  15.99800 49.61000 21.01500
H  15.77200 50.46600 19.53800
H  20.14500 51.92300 21.47100
H  19.03500 52.85200 20.51100
H  20.78500 50.71400 19.58800
H  20.16700 51.98300 18.72000
H  19.07800 50.52300 19.01500
H  21.58800 49.18100 24.30600
H  21.49900 48.28700 25.76800
H  22.45600 49.86000 25.68100
H  19.49100 51.52600 30.05800
H  19.53200 49.44200 33.42900
H  19.36700 48.08200 32.27700
H  17.92700 48.84300 32.94300
Mg -11.31200 38.89500 42.04700
C  -9.78500 36.04600 40.56800
C  -8.92200 40.75700 40.42200
C  -13.18700 41.68100 42.62200
C  -13.94300 36.88200 42.91600
N  -9.69300 38.42900 40.40400
C  -9.12100 37.20400 40.16800
C  -7.80500 37.36300 39.44200
C  -7.50700 38.86900 39.46200
C  -8.79000 39.42000 40.06700
C  -6.21800 39.19800 40.29500
C  -7.91700 36.85000 37.95500
C  -6.73600 36.05800 37.35600
H  -6.07900 36.70500 36.17300
N  -11.10500 40.89700 41.56600
C  -10.01900 41.48500 40.95500
C  -10.28100 42.91400 40.80100
C  -11.42600 43.22300 41.53000
C  -12.02400 41.93600 41.83800
C  -9.27000 43.78700 40.09900
C  -11.90000 44.62400 41.74800
O  -11.18900 45.58100 41.44200
C  -13.17200 44.96300 42.53300
N  -13.24800 39.22400 42.62100
C  -13.71800 40.42100 42.97700
C  -15.11200 40.39200 43.68300
C  -15.38400 38.80600 43.69000
C  -14.11200 38.24800 43.09600
C  -15.22200 41.06700 45.08100
C  -16.57900 38.34000 42.74900
C  -17.83800 38.02300 43.55200
N  -11.73600 36.87100 42.03800
C  -12.90400 36.15200 42.33700
C  -12.76300 34.77100 42.10600
C  -11.55200 34.69000 41.42000
C  -10.96100 35.94500 41.36300
C  -13.79900 33.74500 42.35700
C  -10.67400 33.78500 40.70900
O  -10.78400 32.57100 40.55900
C  -9.41000 34.59100 40.25600
C  -8.27400 34.15700 41.09700
O  -8.17300 34.02500 42.29300
O  -7.15100 33.98800 40.33000
C  -5.81800 33.93500 40.88700
H  -8.12600 41.46700 40.18700
H  -13.76100 42.52800 43.00300
H  -14.64500 36.15800 43.33500
H  -7.06500 36.78200 39.99100
H  -7.53300 39.33200 38.47600
H  -5.65500 39.87500 39.65200
H  -5.68900 38.27400 40.53100
H  -6.44400 39.75300 41.20500
H  -8.04600 37.74600 37.34900
H  -8.83600 36.29800 37.76100
H  -7.11300 35.07900 37.05900
H  -6.03600 35.96700 38.18700
H  -8.56000 44.21200 40.80900
H  -9.78400 44.63200 39.64100
H  -8.73200 43.26400 39.30800
H  -12.98200 44.55200 43.52500
H  -13.99600 44.52400 41.97200
H  -13.33100 46.03900 42.60300
H  -15.77800 40.95600 43.03100
H  -15.33200 38.42800 44.71100
H  -16.12300 41.68000 45.10900
H  -14.32800 41.68700 45.15500
H  -15.34300 40.29100 45.83700
H  -16.30400 37.45500 42.17500
H  -16.75900 39.19400 42.09700
H  -18.64400 38.42300 42.93800
H  -17.77700 38.54300 44.50800
H  -18.04200 36.96900 43.74600
H  -14.79800 34.17200 42.27300
H  -13.64200 33.37800 43.37100
H  -13.65100 32.88300 41.70700
H  -9.17500 34.30600 39.23000
H  -5.22000 34.65300 40.32700
H  -5.38400 32.95100 40.70900
H  -5.67200 34.17600 41.94000

