158

Mg 35.83600 1.46200 30.32700
C  33.43100 2.53000 32.76900
C  38.07500 1.24100 32.80400
C  37.88800 0.61100 27.94900
C  33.28700 2.02800 27.89600
N  35.71800 1.65200 32.58600
C  34.68100 2.16300 33.29100
C  35.03400 2.24500 34.78500
C  36.62400 2.16800 34.74300
C  36.85200 1.66800 33.30700
C  37.41000 3.47600 35.01200
C  34.35500 1.16000 35.63600
C  34.84000 1.00900 37.11900
H  35.47800 2.19100 37.96800
N  37.69500 0.98500 30.37400
C  38.46900 0.88000 31.49800
C  39.80000 0.36600 31.21600
C  39.82500 0.31500 29.77900
C  38.42200 0.69800 29.26500
C  40.89400 -0.09600 32.20700
C  40.97800 -0.00600 28.81900
O  40.82100 -0.01800 27.61200
C  42.31100 -0.44500 29.43600
N  35.56400 1.20000 28.23800
C  36.60500 0.80000 27.42300
C  36.18300 0.70200 25.93600
C  34.68500 1.23800 25.91200
C  34.44900 1.47900 27.44100
C  37.20100 1.55300 25.00000
C  33.62300 0.39100 25.21700
C  32.61400 1.10600 24.27000
N  33.77600 2.16400 30.27900
C  32.93200 2.31700 29.25200
C  31.67900 2.71600 29.77900
C  31.80900 2.82000 31.15700
C  33.12700 2.46500 31.42900
C  30.43800 3.05600 28.97200
C  31.04300 3.04600 32.32500
O  29.85100 3.32300 32.46000
C  32.13300 2.96400 33.49700
C  32.25600 4.32800 34.28000
O  32.40300 5.39600 33.71900
O  31.89400 4.14100 35.61500
C  31.90400 5.40200 36.45300
H  38.86600 1.15500 33.55200
H  38.59200 0.37700 27.14800
H  32.49300 2.32500 27.20800
H  34.78300 3.22300 35.19500
H  36.94700 1.43600 35.48300
H  38.39600 3.18300 35.37200
H  36.89500 4.19300 35.65200
H  37.60100 3.94800 34.04900
H  34.75300 0.30000 35.09800
H  33.26900 1.07300 35.61100
H  35.55100 0.18400 37.10100
H  34.05900 0.66500 37.79800
H  41.82700 0.39500 31.93100
H  41.11800 -1.15600 32.08600
H  40.61400 0.12800 33.23600
H  42.91700 -1.05300 28.76400
H  42.22000 -1.30100 30.10500
H  42.81700 0.38700 29.92600
H  36.18200 -0.33000 25.58500
H  34.73900 2.24500 25.49800
H  37.53300 0.87000 24.21800
H  38.08600 1.95100 25.49700
H  36.65900 2.39400 24.57000
H  33.06300 -0.03600 26.04800
H  34.09700 -0.41900 24.66200
H  32.84700 2.16300 24.15000
H  31.66800 1.08600 24.81100
H  32.55100 0.58800 23.31300
H  29.99100 2.10300 28.69100
H  30.61900 3.54900 28.01700
H  29.78800 3.68900 29.57700
H  31.83800 2.17300 34.18700
H  32.13000 5.18200 37.49600
H  30.93900 5.89200 36.32400
H  32.73100 6.06500 36.19600
Mg 47.54400 34.65100 27.94200
C  45.96000 32.76500 30.41700
C  48.18600 37.12000 30.13200
C  48.66400 36.51100 25.32500
C  46.72200 32.09900 25.62000
N  47.09700 34.90400 30.07400
C  46.34300 34.05100 30.85100
C  46.72800 34.42000 32.27300
C  47.20500 35.95900 32.18100
C  47.51400 35.99500 30.68900
C  46.10200 36.99600 32.63600
C  47.87400 33.50500 32.78100
C  47.93500 33.42000 34.35800
H  46.98800 34.35400 35.14900
N  48.36300 36.57100 27.76400
C  48.64700 37.44500 28.80700
C  49.28000 38.63700 28.31000
C  49.49600 38.45100 26.88400
C  48.84100 37.11200 26.58200
C  49.71300 39.73700 29.24600
C  50.08400 39.42600 25.84300
O  50.45100 39.02600 24.73400
C  50.46500 40.86500 26.30000
N  47.62100 34.34600 25.79000
C  48.27700 35.22800 24.99000
C  48.41900 34.71700 23.51700
C  47.76800 33.22700 23.68600
C  47.42500 33.22700 25.12300
C  47.83400 35.63900 22.41000
C  48.75800 32.13500 23.22600
C  48.23500 31.13100 22.22000
N  46.54800 32.85800 27.96900
C  46.31400 31.89100 26.94900
C  45.69500 30.73000 27.47800
C  45.46500 30.99200 28.84800
C  46.11900 32.27700 29.06000
C  45.32900 29.55100 26.60500
C  44.86700 30.52200 30.07100
O  44.16000 29.50900 30.30900
C  45.03400 31.74600 31.00100
C  45.01900 31.31400 32.39700
O  45.86000 30.68900 33.02500
O  43.82300 31.62600 33.01600
C  43.63600 31.36500 34.43200
H  48.44000 37.84900 30.90500
H  49.14400 37.07700 24.52300
H  46.42700 31.29800 24.93800
H  45.83400 34.34500 32.89300
H  47.98000 36.14800 32.92400
H  45.14400 36.51100 32.82300
H  46.13700 37.79900 31.90000
H  46.46300 37.49100 33.53800
H  48.82100 33.91500 32.43100
H  47.65400 32.48300 32.47300
H  48.97700 33.67400 34.55700
H  47.75000 32.37300 34.59600
H  50.72400 39.65000 29.64500
H  49.04200 39.70200 30.10400
H  49.54000 40.74600 28.87100
H  51.38600 40.79100 26.87800
H  49.62200 41.36800 26.77400
H  50.55200 41.42500 25.36900
H  49.50800 34.70900 23.46100
H  46.89500 33.14300 23.03800
H  48.63200 35.89400 21.71300
H  47.41900 36.53200 22.87600
H  46.99000 35.24600 21.84300
H  49.09200 31.51400 24.05700
H  49.62500 32.54700 22.71000
H  48.93200 30.72700 21.48500
H  47.46000 31.70100 21.70800
H  47.85600 30.36100 22.89200
H  46.21300 29.13700 26.12000
H  44.67400 29.86900 25.79300
H  44.88900 28.81000 27.27300
H  44.14300 32.37300 30.95400
H  42.61200 31.04300 34.62500
H  43.89200 32.22900 35.04500
H  44.34200 30.65200 34.85900

