158

Mg 25.86700 0.98500 29.15900
C  27.88700 0.84800 32.11700
C  23.11200 1.41400 31.23900
C  24.07400 1.39900 26.40100
C  28.70500 0.17800 27.22200
N  25.54100 0.98100 31.38900
C  26.50000 1.05900 32.41400
C  25.91200 1.34500 33.84300
C  24.38800 1.37200 33.56500
C  24.32900 1.25200 31.94900
C  23.58100 0.25700 34.30900
C  26.42900 2.61400 34.58600
C  27.02000 2.41700 35.95900
H  26.78100 3.50500 37.07700
N  23.86500 1.35700 28.87300
C  22.85400 1.43600 29.80800
C  21.60000 1.65400 29.16500
C  21.82500 1.59300 27.72100
C  23.30300 1.46700 27.63800
C  20.27500 1.83200 29.89300
C  20.89900 1.65800 26.54500
O  21.25400 1.61900 25.39200
C  19.54200 2.08400 26.86900
N  26.31400 0.73900 27.12900
C  25.46800 1.03200 26.15700
C  26.04000 0.85800 24.74100
C  27.54700 0.51300 25.06500
C  27.54500 0.51100 26.53800
C  25.30100 -0.01000 23.84800
C  28.65500 1.41400 24.48300
C  29.76100 0.64400 23.79300
N  27.86900 0.55500 29.53600
C  28.87800 0.36700 28.64500
C  30.08100 0.10000 29.35400
C  29.73800 0.35200 30.71900
C  28.38600 0.66500 30.79400
C  31.38600 -0.24500 28.75900
C  30.28400 0.48100 32.09400
O  31.44700 0.30900 32.45300
C  29.05900 0.63500 33.08900
C  28.88800 -0.57300 33.94800
O  28.89400 -1.73000 33.53800
O  28.80000 -0.23400 35.28700
C  28.79100 -1.43100 36.21700
H  22.25700 1.57400 31.90000
H  23.59700 1.72600 25.47500
H  29.47200 -0.30300 26.61100
H  26.19000 0.46100 34.41800
H  23.87900 2.29600 33.84000
H  22.69800 0.82800 34.59600
H  24.14700 -0.12900 35.15700
H  23.27700 -0.59300 33.69800
H  25.73000 3.45100 34.61700
H  27.21400 3.02300 33.94900
H  28.10100 2.52700 35.87800
H  26.80500 1.40800 36.31200
H  20.44900 1.93700 30.96300
H  19.66700 0.94800 29.69900
H  19.58900 2.59600 29.52700
H  18.92300 1.71600 26.05100
H  19.68000 3.16500 26.91000
H  19.16300 1.72900 27.82800
H  26.13200 1.87100 24.34900
H  27.74700 -0.54500 24.89500
H  24.28300 -0.13200 24.21800
H  25.87700 -0.93400 23.80100
H  25.31600 0.49400 22.88200
H  29.01700 2.04600 25.29300
H  28.31900 2.09900 23.70500
H  30.49000 0.27800 24.51600
H  30.22300 1.27400 23.03300
H  29.40100 -0.23700 23.26100
H  32.18500 -0.30500 29.49800
H  31.59600 0.49500 27.98600
H  31.45100 -1.19000 28.21900
H  29.35800 1.54800 33.60500
H  28.68300 -2.40200 35.73400
H  28.03800 -1.17300 36.96200
H  29.66800 -1.34000 36.85800
Mg 41.79000 8.26500 29.48300
C  43.54900 9.29200 32.21800
C  39.59100 6.56000 31.65400
C  39.85000 7.23900 26.88500
C  44.03500 9.52800 27.38400
N  41.73700 7.82800 31.67400
C  42.48300 8.49400 32.59400
C  41.91300 8.28200 34.03600
C  40.76300 7.17900 33.76900
C  40.68800 7.18500 32.25200
C  40.90700 5.78400 34.40700
C  41.47500 9.62500 34.72800
C  40.70000 9.67400 36.10300
H  41.27500 10.47900 37.27200
N  39.83700 7.11400 29.27200
C  39.09600 6.50000 30.28700
C  37.83200 6.11300 29.77100
C  37.90300 6.30800 28.32900
C  39.24600 6.86100 28.13800
C  36.76100 5.56500 30.74400
C  36.80200 6.12800 27.24300
O  36.92600 6.34000 26.08300
C  35.34500 5.71200 27.71600
N  42.09900 8.10300 27.51000
C  41.14800 7.67100 26.57000
C  41.60100 7.72300 25.17500
C  42.68800 8.78400 25.25300
C  42.99700 8.80600 26.80800
C  42.22400 6.35600 24.88200
C  42.18000 10.14700 24.70900
C  43.14300 10.87200 23.75500
N  43.59500 9.10000 29.69800
C  44.42000 9.63400 28.76600
C  45.57600 10.22500 29.37200
C  45.23500 10.15700 30.76900
C  44.03100 9.45400 30.87400
C  46.85900 10.85100 28.74300
C  45.62200 10.58300 32.13100
O  46.56600 11.24300 32.49600
C  44.47300 10.06400 33.13100
C  45.07200 9.29900 34.24500
O  45.70200 8.28200 34.14700
O  44.75600 9.80600 35.44000
C  45.19000 9.11600 36.60700
H  38.90700 6.18000 32.41600
H  39.25100 6.97900 26.01000
H  44.67000 10.00000 26.63100
H  42.80600 7.86600 34.50300
H  39.80200 7.58900 34.07900
H  41.73400 5.76200 35.11800
H  41.13200 5.01300 33.67100
H  39.98400 5.56800 34.94400
H  41.01700 10.28600 33.99300
H  42.41900 10.14500 34.89300
H  40.42800 8.68600 36.47300
H  39.76900 10.15600 35.80500
H  37.00800 5.50700 31.80400
H  36.36600 4.57600 30.51100
H  35.91500 6.22500 30.55200
H  34.91800 6.65000 28.07100
H  35.44800 4.93900 28.47800
H  34.80500 5.35400 26.83900
H  40.82800 7.82400 24.41200
H  43.58000 8.64200 24.64300
H  43.29500 6.46300 24.71200
H  41.96600 6.03600 23.87300
H  41.98200 5.56600 25.59300
H  41.98000 10.82700 25.53700
H  41.25500 10.09200 24.13500
H  44.05000 10.28700 23.59800
H  43.42900 11.83600 24.17500
H  42.70300 11.08000 22.78000
H  47.14200 11.75900 29.27500
H  46.77900 10.99300 27.66500
H  47.63500 10.13800 29.02000
H  43.95200 10.95000 33.49400
H  46.21800 9.46800 36.68400
H  45.11500 8.02800 36.57900
H  44.58700 9.47000 37.44300

