158

Mg 9.58600 48.11200 26.38500
C  7.68600 47.86800 29.24700
C  12.33800 49.08200 28.22100
C  11.25200 48.54500 23.45900
C  6.73400 47.28800 24.50100
N  9.89000 48.47900 28.52600
C  9.04300 48.24700 29.52900
C  9.67600 48.51400 30.86800
C  11.12200 49.10400 30.51900
C  11.13600 48.89600 28.98300
C  11.44000 50.60200 30.98800
C  9.77300 47.40400 32.02000
C  10.56400 47.70800 33.24000
H  9.95300 47.45000 34.61400
N  11.53300 48.63400 25.86500
C  12.51600 48.96700 26.80700
C  13.72500 49.08400 26.11500
C  13.45800 48.99200 24.69400
C  12.00600 48.69100 24.60500
C  15.07300 49.39500 26.82300
C  14.44400 49.11500 23.50600
O  14.07700 49.26100 22.34100
C  15.92400 49.06100 23.72900
N  9.02100 48.18100 24.23000
C  9.93700 48.40100 23.25400
C  9.33100 48.22500 21.89300
C  7.95900 47.59700 22.22000
C  7.89500 47.58800 23.75500
C  9.30600 49.57400 21.16500
C  7.70200 46.18200 21.53700
C  7.84500 44.88600 22.39300
N  7.52200 47.88000 26.71400
C  6.54000 47.48100 25.85400
C  5.27600 47.21000 26.56900
C  5.69200 47.31200 27.94600
C  7.09600 47.66600 27.97000
C  3.91300 46.76600 26.10700
C  5.18800 47.26300 29.30400
O  4.05500 47.14100 29.80900
C  6.54600 47.52300 30.19900
C  6.74500 46.25600 30.97200
O  7.49400 45.35600 30.55100
O  6.09700 46.38500 32.18600
C  6.24000 45.07400 32.99800
H  13.11200 49.43500 28.90600
H  11.77600 48.58300 22.50200
H  5.81200 47.06400 23.96100
H  8.96200 49.29100 31.14200
H  11.98400 48.49700 30.79500
H  12.26500 50.65400 31.69900
H  10.61100 51.18000 31.39500
H  11.80000 51.26800 30.20400
H  9.97700 46.39200 31.67100
H  8.76900 47.27200 32.42500
H  10.90000 48.74500 33.21400
H  11.37500 46.98600 33.14400
H  15.57700 48.43000 26.76700
H  15.00300 49.61100 27.88900
H  15.62300 50.19100 26.32200
H  16.29700 49.77400 24.46500
H  16.37500 49.12300 22.73900
H  16.20500 48.04900 24.02100
H  9.94200 47.52700 21.32200
H  7.08100 48.16800 21.91900
H  8.27700 49.77600 20.86700
H  9.97800 49.58500 20.30700
H  9.53700 50.47800 21.72900
H  8.31200 46.12700 20.63500
H  6.66300 46.12600 21.21000
H  8.63600 44.30600 21.91800
H  6.89300 44.35800 22.34000
H  8.08300 45.10700 23.43300
H  3.89600 46.79900 25.01800
H  3.27100 47.53100 26.54400
H  3.71400 45.79000 26.55000
H  6.35700 48.30000 30.94100
H  5.29100 44.54200 32.94900
H  6.35500 45.23000 34.07100
H  6.89800 44.29700 32.60800
Mg -12.58200 37.30800 42.29900
C  -10.11400 34.86000 41.49700
C  -10.66500 39.58700 40.60000
C  -15.26100 39.29000 42.24500
C  -14.55800 34.65200 43.55500
N  -10.60900 37.21400 41.17100
C  -9.84700 36.09700 40.92300
C  -8.48500 36.53200 40.35100
C  -8.52800 38.11400 40.29200
C  -10.04100 38.28100 40.64000
C  -7.57200 38.92200 41.25200
C  -8.28600 35.81600 39.03900
C  -6.96000 35.01500 38.84400
H  -6.04700 35.57100 37.79400
N  -12.96500 39.22900 41.62400
C  -12.00400 40.00100 40.89700
C  -12.59700 41.26800 40.61100
C  -13.93800 41.10100 40.97500
C  -14.13600 39.84600 41.68400
C  -11.87700 42.34200 39.88900
C  -14.91100 42.08900 40.60800
O  -14.62700 43.08600 39.95100
C  -16.36600 41.97100 40.85300
N  -14.63200 37.00600 42.76300
C  -15.50700 37.99900 42.79700
C  -16.92700 37.47800 43.25800
C  -16.59200 36.05600 43.83100
C  -15.15400 35.85800 43.36200
C  -17.68000 38.35700 44.26700
C  -17.53300 34.84500 43.46100
C  -17.79900 33.85400 44.60700
N  -12.38200 35.22100 42.56300
C  -13.22900 34.29900 43.19500
C  -12.62700 32.99400 43.30700
C  -11.38000 33.18800 42.62200
C  -11.30900 34.51200 42.18400
C  -13.22900 31.71200 43.87000
C  -10.26300 32.49000 42.16900
O  -10.00100 31.26000 42.32000
C  -9.32400 33.54600 41.46600
C  -7.98200 33.51800 42.12300
O  -7.08900 32.83900 41.73100
O  -8.03200 34.33300 43.29500
C  -6.75700 34.66100 43.86200
H  -10.02300 40.28500 40.05700
H  -16.12400 39.95900 42.27700
H  -15.07200 33.85900 44.10100
H  -7.80500 36.19500 41.13400
H  -8.46300 38.50200 39.27600
H  -8.17500 39.39100 42.03000
H  -7.07800 39.63100 40.58900
H  -6.86100 38.26900 41.75700
H  -8.29800 36.55300 38.23600
H  -9.04300 35.07700 38.77800
H  -7.09200 33.95100 38.64700
H  -6.43400 34.98900 39.79800
H  -12.03700 43.35600 40.25500
H  -12.12600 42.29400 38.82800
H  -10.79000 42.26400 39.89500
H  -16.71600 40.98100 40.56000
H  -16.95000 42.77200 40.39800
H  -16.53200 41.93700 41.92900
H  -17.57200 37.34200 42.38900
H  -16.33100 36.07000 44.88900
H  -18.59900 38.78400 43.86500
H  -16.92200 39.13000 44.39300
H  -18.01400 37.75400 45.11100
H  -17.08400 34.31500 42.62100
H  -18.44500 35.31800 43.09800
H  -17.16900 34.04200 45.47700
H  -17.63600 32.86600 44.17800
H  -18.85200 33.93500 44.87900
H  -12.72700 30.92100 43.31300
H  -14.28100 31.84200 43.61800
H  -13.03200 31.55700 44.93100
H  -9.05300 33.25100 40.45200
H  -6.53300 35.72600 43.80600
H  -5.90400 34.23900 43.33000
H  -6.77500 34.22900 44.86300

