158

Mg 17.21500 -2.56300 28.41400
C  16.57200 -0.53200 31.32400
C  19.12700 -4.57300 30.46400
C  18.09100 -4.34100 25.72200
C  15.76400 -0.11400 26.46900
N  17.67000 -2.58500 30.61200
C  17.22700 -1.69500 31.65100
C  17.73300 -2.09100 33.04300
C  18.80400 -3.21200 32.67300
C  18.51300 -3.50000 31.20800
C  20.31600 -2.87500 32.88300
C  16.52400 -2.53300 33.98200
C  16.25800 -1.61400 35.22800
H  17.35000 -0.83300 35.83600
N  18.37600 -4.32900 28.15000
C  19.04700 -4.92400 29.11000
C  19.71100 -6.05200 28.54400
C  19.64500 -5.95600 27.13900
C  18.67800 -4.86600 26.89100
C  20.35300 -7.05900 29.43700
C  20.36600 -6.75100 26.09400
O  20.19900 -6.58700 24.89000
C  21.31100 -7.86100 26.45500
N  16.87900 -2.36600 26.45100
C  17.30400 -3.21900 25.47900
C  16.90700 -2.71000 24.09600
C  16.11900 -1.40800 24.40000
C  16.22100 -1.26600 25.88500
C  18.10400 -2.54000 23.15400
C  14.69200 -1.39700 23.86400
C  13.75100 -2.41600 24.52600
N  16.32400 -0.68200 28.82300
C  15.78900 0.15500 27.89800
C  15.18100 1.32000 28.49000
C  15.48300 1.12500 29.87100
C  16.16600 -0.12200 30.01100
C  14.48200 2.44200 27.76500
C  15.27400 1.65600 31.23600
O  14.72600 2.65500 31.70900
C  16.10700 0.65000 32.19900
C  17.31500 1.53000 32.56700
O  18.40500 1.60300 32.03400
O  16.93900 2.27100 33.68300
C  17.96200 3.27300 34.15800
H  19.83800 -5.12500 31.08200
H  18.38000 -4.81800 24.78300
H  15.09700 0.51300 25.87300
H  18.31100 -1.28100 33.48900
H  18.62600 -4.14200 33.21400
H  20.69400 -3.63800 33.56400
H  20.43300 -1.87400 33.30000
H  20.84100 -2.89000 31.92800
H  16.70400 -3.57100 34.26300
H  15.66800 -2.52800 33.30600
H  15.88300 -2.31300 35.97600
H  15.54000 -0.81100 35.06100
H  20.11300 -7.14300 30.49700
H  21.41600 -6.82000 29.44400
H  20.18600 -8.10700 29.18800
H  21.98300 -7.48900 27.22800
H  21.87100 -8.04800 25.53900
H  20.65900 -8.69200 26.72600
H  16.22400 -3.43700 23.65500
H  16.55000 -0.44200 24.13800
H  18.13200 -1.46300 22.98900
H  18.03400 -3.04100 22.18900
H  19.02700 -2.85500 23.64100
H  14.75100 -1.66200 22.80800
H  14.06400 -0.50600 23.88100
H  12.97500 -1.91200 25.10200
H  14.35200 -3.04500 25.18400
H  13.27600 -3.02100 23.75400
H  13.66800 2.06000 27.14900
H  15.20900 2.96600 27.14500
H  14.02600 3.12900 28.47800
H  15.43900 0.37600 33.01500
H  17.95200 4.25100 33.67600
H  18.96700 2.90500 33.95200
H  17.99400 3.26700 35.24800
Mg 9.07400 47.61100 27.79800
C  7.03400 47.36900 30.56000
C  11.80400 48.28400 29.71100
C  10.76600 48.39400 24.96200
C  6.09500 47.55600 25.83200
N  9.40300 47.85700 29.89000
C  8.43200 47.49100 30.83800
C  9.03600 47.55800 32.31500
C  10.51200 48.09900 32.00700
C  10.57400 48.01300 30.42600
C  10.72300 49.55400 32.58900
C  9.18000 46.21800 33.06500
C  8.81500 46.31900 34.55400
H  9.54100 45.27600 35.44500
N  11.08600 48.18000 27.38500
C  12.08200 48.29000 28.29700
C  13.35800 48.51600 27.65700
C  13.11500 48.57200 26.17400
C  11.60400 48.43500 26.11900
C  14.65800 48.44900 28.48100
C  13.99800 48.63200 24.97000
O  13.61900 48.71900 23.80600
C  15.46200 48.59100 25.16500
N  8.53700 47.91700 25.73400
C  9.43300 48.19900 24.77100
C  8.82700 48.13000 23.31600
C  7.28900 47.91500 23.64100
C  7.29000 47.74400 25.12200
C  9.17800 49.31700 22.36500
C  6.56600 46.80900 22.82200
C  6.26700 47.18400 21.29200
N  7.02200 47.45100 28.09600
C  5.97600 47.43600 27.18600
C  4.63700 47.37700 27.89000
C  5.04500 47.26000 29.25200
C  6.44400 47.35400 29.25200
C  3.27900 47.24600 27.38800
C  4.58600 47.14600 30.60200
O  3.42000 46.95900 30.98500
C  5.88000 47.10000 31.52100
C  5.85100 45.74000 32.13300
O  6.45500 44.77500 31.73400
O  5.14600 45.83000 33.35600
C  5.43100 44.72800 34.31800
H  12.67200 48.48500 30.34200
H  11.36200 48.65600 24.08500
H  5.27500 47.49400 25.11300
H  8.38800 48.19200 32.92100
H  11.29400 47.50600 32.48200
H  9.96300 49.95500 33.25900
H  10.92400 50.20300 31.73600
H  11.69200 49.54700 33.08800
H  10.18800 45.86000 32.85400
H  8.44100 45.54400 32.63400
H  7.73900 46.22300 34.70400
H  9.12700 47.31500 34.86700
H  15.38000 47.75300 28.05400
H  14.49200 48.30600 29.54800
H  15.16500 49.41400 28.46600
H  15.75700 47.56600 25.38900
H  15.69400 49.05800 26.12200
H  16.11500 49.04900 24.42100
H  9.04600 47.18500 22.81800
H  6.88600 48.91900 23.51400
H  9.54700 50.15500 22.95700
H  8.22000 49.49700 21.87600
H  9.89300 48.94100 21.63300
H  5.60300 46.50600 23.23300
H  7.15700 45.90700 22.98300
H  6.41300 48.26400 21.30500
H  5.24900 46.86400 21.07000
H  6.97900 46.75200 20.58900
H  2.52700 47.05200 28.15300
H  3.23200 46.51000 26.58500
H  3.12800 48.23300 26.95100
H  5.76200 47.89800 32.25400
H  6.45400 44.35000 34.31900
H  4.70700 43.91400 34.29600
H  5.26200 45.20100 35.28600

