158

Mg -2.73500 34.50800 26.79500
C  -3.45700 32.63900 29.64700
C  -1.03000 36.77600 28.77500
C  -2.31000 36.52700 24.03400
C  -4.41000 32.27000 24.85100
N  -2.43700 34.70800 28.95900
C  -2.75700 33.82700 29.96800
C  -2.24100 34.29300 31.36400
C  -1.60400 35.69000 31.05500
C  -1.69500 35.76200 29.52800
C  -2.15200 36.88800 31.80100
C  -1.25700 33.20500 32.00000
C  -1.73600 32.59500 33.34500
H  -0.85100 32.67300 34.59200
N  -1.75400 36.38800 26.52600
C  -1.03800 37.11700 27.41300
C  -0.35900 38.19600 26.75100
C  -0.74800 38.17800 25.41300
C  -1.63300 36.99400 25.25700
C  0.65900 39.04200 27.47200
C  -0.43900 39.18500 24.29900
O  -0.82000 38.99200 23.16200
C  0.22700 40.49700 24.57700
N  -3.34200 34.47100 24.75200
C  -3.04000 35.37100 23.89800
C  -3.47600 34.87900 22.47600
C  -3.83700 33.39500 22.63900
C  -3.79300 33.29300 24.14000
C  -4.62600 35.79700 21.95900
C  -2.98500 32.35700 21.91100
C  -3.36500 30.87100 21.82300
N  -3.81000 32.83800 27.15100
C  -4.44100 31.97200 26.24600
C  -5.04200 30.86200 26.99200
C  -4.64000 31.01800 28.31100
C  -3.88600 32.24800 28.37300
C  -5.86700 29.83200 26.41500
C  -4.70900 30.45700 29.60400
O  -5.27700 29.47000 30.01500
C  -4.04300 31.53400 30.54800
C  -5.10500 32.10800 31.47000
O  -5.95000 32.93600 31.13200
O  -4.98900 31.53100 32.69600
C  -5.91600 32.02000 33.75300
H  -0.52700 37.46000 29.46300
H  -2.13400 37.12000 23.13400
H  -4.89100 31.54700 24.18800
H  -3.06900 34.49500 32.04400
H  -0.54900 35.50600 31.26100
H  -2.80900 36.53800 32.59800
H  -2.52900 37.68400 31.15900
H  -1.30800 37.39500 32.26800
H  -0.27400 33.64500 32.16700
H  -1.09900 32.41700 31.26300
H  -1.89200 31.52700 33.19200
H  -2.68300 33.09200 33.55300
H  0.71000 38.67400 28.49700
H  0.47500 40.11500 27.42600
H  1.54500 38.84700 26.86800
H  1.31200 40.46800 24.67200
H  -0.27000 40.79300 25.50100
H  -0.07900 41.24500 23.84600
H  -2.70100 35.12300 21.74900
H  -4.88100 33.21600 22.38300
H  -5.31100 36.21400 22.69700
H  -5.31200 35.08100 21.50600
H  -4.34400 36.48500 21.16200
H  -1.98300 32.34900 22.34100
H  -2.80400 32.53700 20.85200
H  -4.33700 30.73900 22.29800
H  -2.57800 30.32900 22.34700
H  -3.36500 30.50800 20.79600
H  -6.02800 30.16800 25.39100
H  -6.77900 29.82900 27.01200
H  -5.42900 28.83700 26.49200
H  -3.22800 31.06400 31.09800
H  -6.66700 32.75100 33.45400
H  -5.39500 32.65400 34.47100
H  -6.46900 31.16800 34.14900
Mg -9.44100 18.39600 43.04500
C  -5.93000 18.10600 43.10200
C  -8.99000 21.73300 42.11500
C  -12.75000 18.56100 42.30700
C  -9.75300 14.89600 43.22900
N  -7.68000 19.75000 42.66000
C  -6.29400 19.43500 42.84700
C  -5.40500 20.56900 42.54300
C  -6.40600 21.81100 42.45100
C  -7.73700 21.07100 42.36100
C  -6.39500 22.93500 43.51800
C  -4.57700 20.39000 41.14300
C  -5.33200 19.88800 39.84700
H  -4.74100 20.07400 38.47100
N  -10.68200 19.98600 42.32800
C  -10.33000 21.21800 41.97200
C  -11.48200 21.96400 41.70700
C  -12.57200 21.11300 41.57400
C  -12.03000 19.80200 42.03200
C  -11.47600 23.38900 41.45400
C  -13.98600 21.41300 41.16900
O  -14.25900 22.59400 40.87000
C  -15.07300 20.39000 40.86300
N  -10.99900 16.82800 42.73800
C  -12.26900 17.24300 42.67200
C  -13.22600 16.10000 42.79700
C  -12.32100 14.91900 43.23200
C  -10.91200 15.56800 43.12100
C  -14.46700 16.33900 43.59700
C  -12.51200 13.60100 42.45800
C  -12.91000 12.39000 43.19800
N  -8.23000 16.87100 43.20900
C  -8.43600 15.49900 43.29500
C  -7.10700 14.88100 43.51200
C  -6.18300 15.89900 43.47900
C  -6.86100 17.08300 43.21700
C  -6.88000 13.44000 43.55400
C  -4.75100 16.11700 43.55000
O  -3.81400 15.27900 43.60700
C  -4.56000 17.58200 43.24800
C  -3.83200 18.12700 44.41200
O  -2.66200 18.44900 44.47500
O  -4.70300 18.36600 45.49400
C  -4.14100 19.16200 46.59700
H  -8.94100 22.81200 41.94900
H  -13.80300 18.76400 42.10000
H  -9.79500 13.82500 43.44100
H  -4.74400 20.67100 43.40400
H  -6.24600 22.32200 41.50200
H  -6.38600 23.92200 43.05600
H  -5.68100 22.69000 44.30500
H  -7.27300 22.93500 44.16300
H  -3.85800 19.59000 41.32200
H  -3.82200 21.14700 40.93500
H  -6.34100 20.29200 39.92700
H  -5.46500 18.80600 39.85100
H  -11.81300 23.47100 40.42100
H  -10.63100 24.03100 41.70500
H  -12.16500 23.87900 42.14100
H  -15.43000 19.92200 41.78000
H  -14.70900 19.65600 40.14500
H  -15.85600 20.95300 40.35500
H  -13.55500 15.92500 41.77200
H  -12.46900 14.70500 44.29000
H  -15.40100 16.23700 43.04400
H  -14.41800 17.36800 43.95500
H  -14.50400 15.78600 44.53500
H  -11.50000 13.30400 42.18200
H  -13.24000 13.59500 41.64700
H  -13.70700 11.86700 42.67000
H  -13.25200 12.70500 44.18400
H  -12.16000 11.62800 43.41000
H  -6.37200 13.33600 42.59500
H  -7.77700 12.83300 43.67500
H  -6.27400 13.34300 44.45500
H  -3.91800 17.70500 42.37600
H  -3.40700 18.53900 47.10800
H  -4.95700 19.28800 47.30800
H  -3.70300 20.10000 46.25700

