158

Mg -1.24300 17.94700 27.35300
C  -2.21800 15.80400 30.08100
C  -1.53800 20.63200 29.31900
C  -0.95500 19.70500 24.56300
C  -1.46400 14.85000 25.34200
N  -1.85400 18.15300 29.41400
C  -2.05800 17.21200 30.40300
C  -2.37800 17.80600 31.76900
C  -2.31800 19.32900 31.39800
C  -1.82500 19.39700 29.99200
C  -3.68300 20.16100 31.74700
C  -1.27600 17.53700 32.87300
C  -1.71800 17.10000 34.20400
H  -0.61400 16.48100 35.14300
N  -1.16200 19.85800 27.01800
C  -1.27100 20.88000 27.96700
C  -1.04000 22.19600 27.31300
C  -0.91600 21.94300 25.93100
C  -0.97500 20.47600 25.76800
C  -1.20500 23.57700 27.98500
C  -0.82200 22.90000 24.68700
O  -0.87900 22.44500 23.52000
C  -0.67900 24.37800 24.89300
N  -1.53700 17.35100 25.23300
C  -1.17500 18.29500 24.33200
C  -0.90300 17.62300 22.91500
C  -0.88400 16.11600 23.27500
C  -1.33200 16.06500 24.74300
C  -1.80500 18.05700 21.75600
C  0.41800 15.34600 23.01100
C  1.68600 15.82900 23.77500
N  -1.79100 15.78200 27.59200
C  -1.68500 14.69800 26.73500
C  -2.00100 13.46000 27.40600
C  -2.26200 13.89100 28.73800
C  -2.15500 15.25300 28.80700
C  -2.07400 11.96800 26.81800
C  -2.70500 13.31600 30.03300
O  -3.00700 12.14900 30.34900
C  -2.67000 14.61600 30.91700
C  -1.66300 14.32700 32.01700
O  -0.46000 14.43700 31.82800
O  -2.22200 13.72000 33.10800
C  -1.27100 13.06000 34.08000
H  -1.71300 21.45100 30.02000
H  -0.82000 20.20700 23.60200
H  -1.63300 13.97400 24.71300
H  -3.33800 17.39100 32.07600
H  -1.64700 19.86400 32.07000
H  -3.90800 20.82000 30.90900
H  -3.44000 20.80500 32.59200
H  -4.48500 19.45100 31.95000
H  -0.78600 18.46200 33.17600
H  -0.42900 16.90900 32.59600
H  -2.40700 16.26800 34.05900
H  -2.29400 17.86100 34.73100
H  -1.86600 23.52400 28.85000
H  -1.72100 24.28200 27.33400
H  -0.25600 24.03100 28.27200
H  0.11800 24.38700 25.63600
H  -1.62200 24.77800 25.26500
H  -0.44300 24.84400 23.93600
H  0.07300 18.01000 22.62200
H  -1.64200 15.52400 22.76100
H  -2.86900 17.86400 21.88900
H  -1.61900 17.39100 20.91300
H  -1.57300 19.07900 21.45700
H  0.59600 15.43100 21.93900
H  0.22900 14.27900 23.12000
H  2.12300 14.84700 23.95800
H  1.44700 16.38900 24.67900
H  2.29800 16.35000 23.03800
H  -1.31200 11.35000 27.29300
H  -1.87500 11.99900 25.74700
H  -3.02600 11.53900 27.13000
H  -3.58300 14.77900 31.48900
H  -1.91300 13.07800 34.96100
H  -0.29200 13.49800 34.27600
H  -1.15100 12.02100 33.77500
Mg 46.94900 25.24200 28.19500
C  48.25500 27.40300 30.73300
C  46.13600 23.13100 30.72500
C  45.89500 23.17800 25.89700
C  48.32200 27.41800 25.84600
N  47.05400 25.32200 30.43600
C  47.48800 26.35900 31.22300
C  47.29700 26.04900 32.71100
C  46.73100 24.62500 32.69000
C  46.58000 24.33100 31.20900
C  47.57900 23.58000 33.47000
C  46.50000 27.12300 33.54900
C  47.15900 27.87600 34.70400
H  46.32200 28.42400 35.95800
N  46.04800 23.36300 28.32000
C  45.88400 22.58200 29.41500
C  45.22600 21.28000 29.05300
C  44.97400 21.42400 27.64000
C  45.66400 22.67900 27.21600
C  45.05900 20.19600 30.02900
C  44.21300 20.51500 26.61600
O  44.06500 20.70000 25.42900
C  43.71200 19.24100 27.20500
N  47.18400 25.25800 26.13900
C  46.52400 24.27700 25.41500
C  46.69200 24.58900 23.93400
C  47.20000 26.02100 23.90300
C  47.60000 26.25200 25.34700
C  47.51500 23.59300 23.16300
C  46.16500 27.21700 23.46000
C  46.72100 28.21900 22.47500
N  48.05500 27.07500 28.19300
C  48.44500 27.87700 27.17500
C  49.07200 29.05200 27.73200
C  49.06700 28.87200 29.12900
C  48.40800 27.69000 29.35200
C  49.62600 30.14600 26.93600
C  49.51200 29.44200 30.38400
O  50.09300 30.45700 30.60500
C  49.09000 28.47500 31.50100
C  50.32700 27.96000 32.17300
O  51.02900 27.10400 31.72100
O  50.63600 28.68700 33.35900
C  51.89200 28.46600 33.95300
H  45.76500 22.45200 31.49500
H  45.51300 22.50000 25.13000
H  48.66800 28.09800 25.06400
H  48.28700 25.98000 33.16100
H  45.79000 24.52100 33.22900
H  46.98500 22.85700 34.03000
H  48.25200 24.10400 34.14800
H  48.10500 22.96800 32.73700
H  45.59200 26.66100 33.93800
H  46.20300 27.96100 32.91900
H  47.66800 28.75000 34.29800
H  47.84900 27.12700 35.09200
H  45.67600 20.34400 30.91600
H  45.50700 19.30800 29.58400
H  44.02600 19.98700 30.30700
H  43.25700 19.43800 28.17500
H  44.57700 18.58500 27.30100
H  42.78200 18.87700 26.76700
H  45.64200 24.64200 23.64700
H  48.15700 26.18200 23.40500
H  47.04300 23.18700 22.26800
H  47.79600 22.71900 23.75000
H  48.43800 24.02800 22.78100
H  45.84100 27.77700 24.33700
H  45.28600 26.77100 22.99600
H  46.91100 29.17800 22.95700
H  46.27700 28.33300 21.48600
H  47.73500 28.06200 22.10700
H  50.57800 29.88100 26.47700
H  49.80000 31.03700 27.54000
H  48.87400 30.31600 26.16500
H  48.44100 29.03100 32.17800
H  52.75600 28.68400 33.32500
H  51.87100 27.41500 34.24100
H  51.92700 29.07600 34.85600

