158

Mg -2.12000 16.92700 26.33800
C  -2.64200 15.01700 29.07900
C  -2.66900 19.74600 28.38500
C  -2.20000 18.94700 23.54600
C  -2.34800 14.19400 24.25900
N  -2.67700 17.39200 28.45500
C  -2.60200 16.38700 29.41000
C  -2.82600 16.96000 30.75200
C  -3.12000 18.45700 30.58200
C  -2.78000 18.61000 29.08000
C  -4.51500 19.05400 30.92800
C  -1.61500 16.81300 31.71600
C  -2.07800 16.47000 33.23900
H  -0.98800 16.41900 34.30600
N  -2.33500 19.02400 26.02800
C  -2.51600 19.99000 26.98900
C  -2.37700 21.30000 26.45500
C  -2.20800 21.08600 25.04200
C  -2.27300 19.61600 24.80700
C  -2.54600 22.62100 27.10700
C  -1.99500 22.09300 23.90600
O  -1.85100 21.80500 22.72400
C  -1.77000 23.51700 24.21500
N  -2.26500 16.61200 24.26400
C  -2.23100 17.53400 23.33900
C  -2.32100 17.02000 21.88300
C  -2.11600 15.49900 22.16800
C  -2.29200 15.39100 23.65100
C  -3.69700 17.37900 21.14600
C  -0.75600 14.91500 21.58700
C  -0.76800 14.14200 20.24900
N  -2.36100 14.97300 26.59900
C  -2.40200 13.96800 25.67700
C  -2.70800 12.66300 26.29700
C  -2.71400 12.99600 27.68600
C  -2.55800 14.41200 27.77600
C  -2.93600 11.29000 25.77500
C  -2.83900 12.54100 29.03400
O  -2.97500 11.38000 29.40100
C  -2.86500 13.85000 29.99300
C  -1.73800 13.58800 30.90500
O  -0.59000 13.63000 30.61800
O  -2.18100 13.05200 32.06600
C  -1.12800 12.33600 32.85500
H  -2.67400 20.68400 28.94300
H  -2.17200 19.50700 22.60800
H  -2.36300 13.30600 23.62400
H  -3.65900 16.45000 31.23500
H  -2.37900 19.06300 31.10300
H  -5.21600 18.27200 31.22000
H  -4.91000 19.66900 30.12000
H  -4.41700 19.68800 31.81000
H  -1.13200 17.77000 31.91200
H  -0.89900 16.20200 31.16500
H  -2.64400 15.53900 33.26100
H  -2.81800 17.22900 33.49400
H  -1.67600 23.27400 27.04800
H  -2.85200 22.52500 28.14900
H  -3.32400 23.17100 26.57700
H  -2.73200 24.02600 24.27200
H  -1.23000 23.81000 23.31500
H  -1.10400 23.73600 25.05000
H  -1.45400 17.40600 21.34600
H  -2.93700 14.87200 21.82100
H  -3.56500 16.92900 20.16300
H  -3.84800 18.45800 21.17700
H  -4.48400 16.90400 21.73200
H  -0.39300 14.21700 22.34200
H  -0.03700 15.71400 21.40900
H  0.07100 14.52700 19.66800
H  -1.71100 14.28300 19.72100
H  -0.78600 13.05300 20.30000
H  -3.53900 11.27400 24.86700
H  -3.61800 10.78200 26.45700
H  -2.01100 10.72000 25.68400
H  -3.78000 13.89100 30.58300
H  -1.25800 12.66900 33.88500
H  -0.08300 12.49400 32.58700
H  -1.36800 11.27400 32.90500
Mg 48.65000 44.55900 43.06800
C  45.28300 43.90000 43.11100
C  49.13100 41.30600 42.30800
C  51.94900 45.16600 42.57300
C  48.00200 47.94500 42.89000
N  47.31100 42.78800 42.83700
C  45.98400 42.70900 42.90000
C  45.51400 41.29100 42.70500
C  46.77000 40.39400 42.68400
C  47.81200 41.54200 42.53000
C  46.91500 39.57200 44.01900
C  44.69300 41.13800 41.41000
C  45.04100 42.03900 40.16000
H  45.88200 41.36000 39.07200
N  50.31900 43.39200 42.51700
C  50.31800 42.03700 42.28900
C  51.67400 41.54600 42.24500
C  52.54600 42.61300 42.28300
C  51.61900 43.79500 42.40100
C  51.98700 40.00000 42.18900
C  54.04500 42.62400 42.30300
O  54.68800 41.58100 42.19700
C  54.91000 43.73600 42.54500
N  49.82500 46.24700 42.71500
C  51.15200 46.28000 42.66000
C  51.72400 47.72400 42.68600
C  50.46900 48.58900 42.92500
C  49.32800 47.57900 42.82200
C  52.91500 47.86100 43.71600
C  50.28800 49.79300 41.90000
C  49.84700 51.13300 42.52200
N  47.01100 45.73200 43.00400
C  46.85500 47.09700 43.00600
C  45.52000 47.45900 43.33500
C  44.89800 46.26900 43.41300
C  45.82900 45.21400 43.15500
C  44.93100 48.82500 43.34700
C  43.53700 45.67700 43.53100
O  42.42400 46.22400 43.63200
C  43.78600 44.06900 43.40200
C  43.19500 43.31200 44.59000
O  41.97300 42.97500 44.56400
O  44.18200 42.96500 45.47400
C  43.72400 42.16300 46.57200
H  49.33300 40.25500 42.08900
H  53.00900 45.39200 42.43600
H  47.78700 49.01500 42.92300
H  44.90700 41.15500 43.59900
H  46.90200 39.65600 41.89300
H  47.83200 39.78200 44.56900
H  46.87000 38.50700 43.79300
H  46.10400 39.85200 44.69100
H  43.62400 41.17500 41.62000
H  44.78600 40.09600 41.10500
H  45.52100 42.97500 40.44500
H  44.09300 42.33200 39.70900
H  52.08000 39.56200 41.19500
H  51.22100 39.40900 42.69200
H  52.89500 39.76500 42.74400
H  54.96100 44.30400 41.61600
H  55.93600 43.43800 42.75800
H  54.53700 44.36700 43.35200
H  52.05600 48.04900 41.70000
H  50.46600 49.04400 43.91500
H  52.88000 48.84300 44.18800
H  53.85600 47.68800 43.19400
H  52.84500 47.07900 44.47300
H  49.63000 49.47200 41.09200
H  51.30900 50.05200 41.62100
H  49.13200 51.51500 41.79300
H  50.67400 51.83900 42.60500
H  49.44500 51.03000 43.53000
H  45.49100 49.32100 44.13900
H  43.89800 48.88200 43.69100
H  45.21200 49.38400 42.45400
H  43.23200 43.63500 42.56900
H  43.00400 42.72700 47.16500
H  44.65700 41.87100 47.05500
H  43.29900 41.24900 46.15700

