158

Mg 25.78600 0.86900 29.07600
C  27.60300 0.30500 32.06900
C  22.86200 1.12100 31.09000
C  24.09100 0.70100 26.37600
C  28.75600 0.02100 27.28000
N  25.29100 0.61600 31.37700
C  26.22900 0.48900 32.35900
C  25.55000 0.63400 33.74300
C  24.02600 0.73900 33.40900
C  24.02700 0.87100 31.90100
C  23.04700 -0.27500 34.03100
C  26.24600 1.69900 34.63300
C  25.39200 2.31800 35.77700
H  26.20600 2.73000 36.99000
N  23.78400 1.00600 28.71100
C  22.76400 1.09400 29.65500
C  21.52800 1.16200 28.88600
C  21.85200 0.99900 27.44500
C  23.30900 0.89000 27.46000
C  20.24200 1.09000 29.65400
C  20.95200 0.99300 26.19700
O  21.30500 0.93800 24.99900
C  19.45100 1.00700 26.39100
N  26.43100 0.53800 27.11500
C  25.44600 0.64800 26.18700
C  25.95600 0.50800 24.77600
C  27.50600 0.38800 25.02000
C  27.57800 0.28200 26.51600
C  25.32000 -0.63200 23.88400
C  28.37600 1.62500 24.54900
C  29.80200 1.27700 24.10900
N  27.82700 0.37600 29.52600
C  28.89400 0.06100 28.69100
C  30.12100 -0.18600 29.47700
C  29.59800 -0.14300 30.81900
C  28.21800 0.16000 30.77100
C  31.49200 -0.36800 28.95800
C  29.98800 -0.23900 32.22100
O  31.09100 -0.55100 32.68200
C  28.73000 0.07200 33.08000
C  28.40800 -0.96500 34.08300
O  27.86100 -2.05900 33.93800
O  28.98900 -0.65000 35.32100
C  28.86800 -1.63200 36.40600
H  21.99800 1.48600 31.64900
H  23.58000 0.63400 25.41300
H  29.62800 -0.06300 26.62900
H  25.75700 -0.29300 34.27700
H  23.75000 1.73300 33.76000
H  22.27100 -0.53900 33.31300
H  22.58000 0.19200 34.89800
H  23.53900 -1.18600 34.37300
H  26.55100 2.49700 33.95500
H  27.12300 1.31500 35.15400
H  24.68200 1.57600 36.14400
H  24.86700 3.16100 35.32700
H  19.62700 1.94300 29.36700
H  20.45100 0.91300 30.70900
H  19.85200 0.15300 29.25600
H  19.27400 0.75500 27.43700
H  19.07100 0.16800 25.80800
H  19.01300 1.98100 26.17500
H  25.75100 1.48500 24.33800
H  27.77200 -0.59600 24.63500
H  24.65100 -1.31700 24.40500
H  25.99600 -1.28200 23.32900
H  24.75600 -0.08400 23.12900
H  28.49600 2.34500 25.35900
H  27.78400 2.23400 23.86700
H  30.60700 1.66300 24.73500
H  29.93300 1.79000 23.15600
H  29.81900 0.19700 23.95900
H  31.61800 0.01000 27.94300
H  31.77800 -1.41800 29.02500
H  32.11500 0.14900 29.68800
H  28.81100 1.09900 33.43600
H  29.43700 -2.55500 36.29600
H  27.85100 -2.01600 36.48000
H  29.14300 -1.20800 37.37200
Mg 15.89000 51.08800 25.43900
C  17.62200 49.96300 28.33000
C  13.24300 52.05600 27.57000
C  14.30400 52.12700 22.79100
C  18.65500 50.18400 23.63500
N  15.57500 50.99400 27.74900
C  16.48400 50.61300 28.70700
C  15.95000 50.94700 30.05400
C  14.38400 51.23500 29.76400
C  14.42900 51.49100 28.26600
C  13.47900 49.99300 30.10200
C  16.67300 52.32700 30.54100
C  16.93400 52.49700 32.07000
H  16.14300 51.49800 32.91000
N  14.03600 52.04000 25.23300
C  13.07300 52.28400 26.23700
C  11.86400 52.85600 25.49600
C  12.14400 52.84800 24.10100
C  13.57400 52.32800 24.02400
C  10.59000 53.10500 26.30600
C  11.29000 53.34000 22.94700
O  11.78800 53.44400 21.84300
C  9.91500 53.71600 23.23200
N  16.33200 50.94600 23.54500
C  15.51700 51.47900 22.60800
C  16.21800 51.57100 21.17600
C  17.65800 51.07400 21.57700
C  17.58100 50.80300 22.99300
C  15.49400 50.68600 20.15900
C  18.77600 52.05900 21.13300
C  19.07000 52.12600 19.55000
N  17.70300 50.14300 25.81500
C  18.72100 49.82900 24.94500
C  19.81900 49.22300 25.66500
C  19.47600 49.26700 27.05500
C  18.10200 49.70700 27.05000
C  21.10100 48.54800 25.08000
C  19.82200 48.80300 28.41200
O  20.79600 48.27100 28.82800
C  18.65200 49.35500 29.26800
C  18.07300 48.36300 30.28400
O  17.02800 47.73300 30.13000
O  18.86600 48.37800 31.35100
C  18.46700 47.49700 32.49000
H  12.50600 52.31900 28.33100
H  13.68700 52.28800 21.90400
H  19.58200 50.09500 23.06600
H  15.93700 50.17900 30.82800
H  13.92000 52.04000 30.33500
H  13.07900 50.12700 31.10700
H  14.02400 49.05000 30.15600
H  12.67400 49.83000 29.38500
H  15.98900 53.12200 30.24400
H  17.58300 52.41700 29.94700
H  16.51500 53.47100 32.32300
H  17.98900 52.29500 32.25500
H  9.74900 52.61700 25.81300
H  10.36900 54.16600 26.42300
H  10.68300 52.72900 27.32500
H  9.28800 52.83800 23.38300
H  9.43900 53.98100 22.28800
H  9.75000 54.51800 23.95200
H  16.24600 52.62900 20.91400
H  17.98200 50.15200 21.09500
H  16.17600 49.89500 19.84700
H  15.30200 51.34900 19.31600
H  14.53000 50.24000 20.40600
H  19.75300 51.87200 21.57900
H  18.45400 53.08000 21.33800
H  20.15600 52.18500 19.47500
H  18.56000 53.01400 19.17500
H  18.76400 51.22000 19.02600
H  21.73500 49.32200 24.64600
H  20.71700 47.91900 24.27700
H  21.55700 47.91600 25.84200
H  19.05100 50.24400 29.75700
H  19.19400 46.75100 32.81000
H  17.70100 46.75100 32.27700
H  18.14800 48.11800 33.32700

