158

Mg 34.71400 3.46100 29.13200
C  32.54100 4.13700 31.72400
C  37.27700 3.02500 31.48100
C  36.76200 2.62000 26.71000
C  32.14200 3.82300 26.92500
N  34.84400 3.56000 31.41000
C  33.80400 3.87800 32.22200
C  34.15400 3.75800 33.74100
C  35.80800 3.57800 33.61200
C  36.04300 3.37500 32.09100
C  36.73700 4.78000 34.11300
C  33.42200 2.56200 34.35000
C  32.97200 2.81300 35.78100
H  34.01400 3.47300 36.73300
N  36.75200 2.88800 29.07200
C  37.63700 2.73600 30.12100
C  38.96100 2.42500 29.62700
C  38.79000 2.29500 28.19300
C  37.38800 2.56300 27.89000
C  40.15600 2.21100 30.46500
C  39.86200 1.84800 27.18400
O  39.65000 1.85100 25.96900
C  41.27900 1.43800 27.64700
N  34.47800 3.10500 27.12200
C  35.52300 2.90900 26.32600
C  35.12000 2.96200 24.86000
C  33.55700 3.21000 24.86300
C  33.34600 3.34200 26.41600
C  35.91500 4.00000 23.93300
C  32.83600 2.00300 24.35300
C  32.84300 1.64800 22.82800
N  32.79500 4.00600 29.24700
C  31.86300 4.12700 28.25800
C  30.63400 4.69300 28.77700
C  30.86500 4.73700 30.11800
C  32.19200 4.23500 30.39000
C  29.44800 5.05100 28.00500
C  30.31800 5.10400 31.38900
O  29.25900 5.70200 31.67200
C  31.32000 4.57300 32.48500
C  31.65800 5.72800 33.31300
O  32.36900 6.68600 33.04800
O  31.06100 5.56200 34.54000
C  31.59800 6.48200 35.52900
H  38.03400 2.89200 32.25700
H  37.45100 2.60100 25.86300
H  31.32300 3.92800 26.21000
H  33.90100 4.67000 34.28200
H  36.20100 2.69500 34.11600
H  36.01500 5.59600 34.14800
H  37.55100 5.03700 33.43600
H  37.10400 4.48600 35.09600
H  34.09300 1.70600 34.27500
H  32.50400 2.31800 33.81400
H  32.60800 1.82900 36.07600
H  32.06000 3.40000 35.89100
H  40.59700 1.25300 30.19000
H  39.87600 2.11700 31.51400
H  40.81600 3.07900 30.48700
H  41.89100 2.09500 28.26600
H  41.87200 1.39500 26.73300
H  41.25500 0.48400 28.17300
H  35.39000 2.03000 24.36500
H  33.30100 4.14300 24.36100
H  36.43600 4.61700 24.66400
H  35.21400 4.46000 23.23700
H  36.67200 3.50100 23.32900
H  31.77700 2.12200 24.58400
H  33.16800 1.11000 24.88300
H  33.49800 2.15200 22.11700
H  31.79000 1.67400 22.55000
H  33.28300 0.65000 22.84000
H  29.19900 4.25800 27.30000
H  29.58100 6.05000 27.58900
H  28.61400 5.14100 28.70100
H  31.01400 3.74600 33.12500
H  30.88600 7.30500 35.58200
H  32.66400 6.69900 35.45900
H  31.44500 5.86300 36.41200
Mg 26.52200 49.59600 27.30900
C  24.47500 50.82100 29.97000
C  28.83400 48.64000 29.77300
C  28.67400 48.69100 24.86600
C  24.42000 51.02200 25.02800
N  26.55700 49.68500 29.65100
C  25.58600 50.15900 30.44400
C  25.98800 49.93700 31.93300
C  27.44500 49.35200 31.87700
C  27.64400 49.20400 30.32000
C  28.57200 50.26600 32.53600
C  24.93200 49.10500 32.77100
C  24.27100 49.77800 33.99400
H  24.26100 48.97000 35.32900
N  28.46300 48.88000 27.27700
C  29.20200 48.48200 28.42500
C  30.54000 48.06400 27.96400
C  30.51500 48.07900 26.57100
C  29.18800 48.51400 26.19600
C  31.53100 47.62400 29.02600
C  31.60900 47.69100 25.56000
O  31.54000 47.89000 24.35800
C  33.02000 47.23500 26.03800
N  26.57000 49.89800 25.26100
C  27.52300 49.36900 24.44000
C  27.09200 49.34900 22.96500
C  25.73400 50.03800 22.99200
C  25.57500 50.36000 24.51100
C  27.99700 49.94300 21.89100
C  24.52400 49.12700 22.50900
C  23.79500 49.72700 21.30000
N  24.72800 50.57700 27.46700
C  24.02200 51.22400 26.44200
C  22.82200 51.73700 26.89200
C  22.89700 51.57400 28.30400
C  24.13100 50.97400 28.57700
C  21.76800 52.39600 26.05000
C  22.28700 51.93400 29.52300
O  21.28000 52.48200 29.74300
C  23.21600 51.32800 30.63100
C  23.45900 52.35400 31.62200
O  24.31700 53.19300 31.60000
O  22.43700 52.34000 32.53400
C  22.48200 53.29800 33.59100
H  29.39800 48.41000 30.68000
H  29.25900 48.22200 24.07200
H  23.69200 51.37400 24.29400
H  26.02600 50.93700 32.36400
H  27.61400 48.34900 32.26700
H  28.17300 50.93000 33.30300
H  28.91100 50.84300 31.67500
H  29.47600 49.74500 32.85100
H  25.35800 48.20400 33.21300
H  24.24500 48.85000 31.96400
H  23.24500 50.00500 33.70500
H  24.69800 50.78100 34.02200
H  32.52400 48.01200 28.80000
H  31.59000 46.55300 28.83600
H  31.23800 47.84200 30.05300
H  33.70500 47.91400 26.54600
H  33.51200 46.65200 25.26000
H  32.87100 46.41100 26.73600
H  27.05700 48.28000 22.75500
H  25.78200 51.01800 22.51700
H  28.53500 49.12200 21.41600
H  28.82800 50.58600 22.17700
H  27.44500 50.43200 21.08800
H  23.80600 48.90900 23.30000
H  24.85600 48.11000 22.30300
H  22.81700 50.10800 21.59500
H  23.51400 48.92500 20.61700
H  24.39900 50.51400 20.84900
H  21.53400 51.91300 25.10100
H  22.13000 53.40500 25.85000
H  20.86900 52.62900 26.61900
H  22.72200 50.51700 31.16600
H  22.32700 54.34000 33.31000
H  23.36400 53.14900 34.21500
H  21.57300 53.06100 34.14300

