158

Mg 54.51500 23.55900 45.15800
C  52.01500 25.94200 44.53400
C  52.41100 21.14200 43.87000
C  57.20500 21.63100 44.62300
C  56.67200 26.14800 46.21800
N  52.51700 23.61300 44.38600
C  51.66400 24.65100 44.14300
C  50.40900 24.16400 43.45000
C  50.39200 22.60700 43.91600
C  51.87500 22.40000 44.11300
C  49.45200 22.21800 45.15800
C  50.49000 24.45100 41.81900
C  49.41000 23.69900 40.94600
H  48.85700 24.41100 39.73600
N  54.72600 21.67800 44.39000
C  53.79400 20.81600 43.91400
C  54.36300 19.49900 43.60200
C  55.75500 19.62000 43.80600
C  55.96000 21.06000 44.19600
C  53.58200 18.19500 43.25300
C  56.80100 18.47800 43.75800
O  56.46500 17.33900 43.43900
C  58.25800 18.65200 44.14000
N  56.58500 23.83000 45.39200
C  57.41800 22.79100 45.29600
C  58.82300 23.21000 45.81900
C  58.62000 24.54400 46.44000
C  57.15800 24.90400 46.02500
C  59.41900 22.04800 46.84700
C  59.63500 25.61000 46.15400
C  59.82800 26.54300 47.37800
N  54.35500 25.65200 45.45900
C  55.34800 26.60600 45.87700
C  54.77300 27.88500 45.78600
C  53.48500 27.67300 45.22600
C  53.25700 26.33000 45.13500
C  55.44400 29.20700 46.11800
C  52.22000 28.36600 44.86800
O  51.87100 29.51700 44.94700
C  51.25900 27.28200 44.40400
C  50.77900 27.61000 43.03500
O  51.51000 27.93700 42.09600
O  49.40300 27.50400 42.98500
C  48.68800 27.88100 41.75900
H  51.68500 20.36800 43.61200
H  58.12700 21.06800 44.46100
H  57.33500 26.92900 46.59700
H  49.58400 24.70600 43.91300
H  50.03000 22.02500 43.06800
H  48.80800 21.36100 44.96100
H  48.93800 23.05600 45.62800
H  50.07100 22.03200 46.03600
H  51.48000 24.06800 41.56800
H  50.34200 25.51800 41.65200
H  48.53600 23.35000 41.49600
H  49.89200 22.77000 40.64400
H  53.78900 17.94300 42.21300
H  52.53800 18.48400 43.13700
H  53.57200 17.47100 44.06900
H  58.71600 19.33800 43.42800
H  58.68400 17.64900 44.13300
H  58.26200 19.08400 45.14100
H  59.47000 23.35500 44.95300
H  58.39700 24.33700 47.48700
H  59.77300 22.39500 47.81700
H  60.24800 21.53400 46.36200
H  58.62400 21.30900 46.95100
H  59.27500 26.14800 45.27800
H  60.63400 25.21800 45.96400
H  60.88900 26.73500 47.53500
H  59.17400 26.34300 48.22700
H  59.35600 27.47800 47.07300
H  56.03200 29.05900 47.02400
H  54.81200 30.06500 46.34300
H  56.01300 29.37200 45.20400
H  50.43300 27.28600 45.11600
H  47.80500 28.33300 42.21300
H  48.40100 26.96600 41.24100
H  49.24000 28.64800 41.21600
Mg 10.14600 47.73500 24.53400
C  7.62800 48.40500 26.77900
C  12.42900 48.90400 26.86900
C  12.43900 47.06000 22.27000
C  7.57000 46.97300 22.06500
N  9.99500 48.45600 26.61400
C  8.87600 48.59900 27.35100
C  9.23700 48.84300 28.82400
C  10.68500 49.43400 28.70300
C  11.08800 48.83200 27.31400
C  10.67200 50.92300 28.66600
C  9.26400 47.54700 29.70200
C  8.95200 47.81200 31.18300
H  8.45800 46.67100 32.01400
N  12.13500 47.87200 24.58000
C  12.88800 48.43700 25.56400
C  14.30600 48.33900 25.18100
C  14.37400 47.70600 23.88600
C  12.94800 47.55000 23.51800
C  15.47200 48.78400 26.14000
C  15.58600 47.28900 23.06400
O  15.49500 46.98000 21.93500
C  16.93200 47.36600 23.71200
N  9.98300 47.01800 22.52400
C  11.17100 46.70800 21.79900
C  10.87500 46.05000 20.39300
C  9.33200 46.03200 20.44300
C  8.91100 46.76400 21.72500
C  11.36600 46.92000 19.20100
C  8.70100 44.57300 20.32000
C  8.64000 43.75300 21.67100
N  8.03000 47.60400 24.40500
C  7.09000 47.37800 23.34700
C  5.75700 47.62900 23.83000
C  5.92100 48.06500 25.16800
C  7.29100 48.06700 25.48300
C  4.49700 47.48800 23.03400
C  5.27200 48.56800 26.36000
O  4.07000 48.83800 26.55100
C  6.34600 48.79100 27.42300
C  5.90500 47.95700 28.53400
O  5.96200 46.71600 28.60400
O  5.32000 48.75700 29.54400
C  4.74900 47.95100 30.64300
H  13.07100 49.32000 27.64700
H  13.20200 46.82900 21.52400
H  6.89300 46.80800 21.22400
H  8.45100 49.51200 29.17400
H  11.42200 49.02700 29.39600
H  11.67400 51.22700 28.96800
H  9.90500 51.34000 29.31900
H  10.50100 51.31300 27.66300
H  10.26100 47.11100 29.76800
H  8.63200 46.73200 29.35100
H  8.28300 48.64400 31.40500
H  9.95600 47.91200 31.59300
H  16.15900 47.94800 26.27000
H  15.12900 48.94000 27.16300
H  16.08300 49.59400 25.74200
H  17.32900 48.28000 24.15400
H  17.66000 47.03300 22.97300
H  17.02800 46.52600 24.40100
H  11.20000 45.01900 20.25500
H  8.93600 46.47100 19.52700
H  11.59900 47.93900 19.51000
H  10.63900 47.02900 18.39700
H  12.31500 46.51800 18.84600
H  9.27400 44.07200 19.54000
H  7.72200 44.84900 19.92700
H  9.22700 44.17500 22.48600
H  9.09900 42.80200 21.40200
H  7.62400 43.52800 21.99700
H  4.09000 46.48000 23.12100
H  4.67100 47.65100 21.97000
H  3.71500 48.13800 23.42600
H  6.27900 49.86800 27.57800
H  5.48800 47.46700 31.28200
H  4.05800 47.17000 30.32700
H  4.25000 48.59600 31.36700

