158

Mg 46.61100 25.30600 28.59500
C  47.53000 27.22500 31.37500
C  45.83700 22.77100 30.80700
C  45.80200 23.37700 26.06900
C  48.08700 27.53600 26.55300
N  46.65400 25.09100 30.88500
C  46.91100 26.02600 31.79000
C  46.57400 25.60100 33.26300
C  46.03000 24.15700 32.98500
C  46.16400 23.93900 31.44300
C  46.68500 23.04000 33.87100
C  45.58900 26.56600 34.13100
C  45.97100 26.96700 35.58600
H  44.97000 27.53200 36.61400
N  45.90000 23.40600 28.44200
C  45.75300 22.46500 29.39600
C  45.32900 21.20000 28.87000
C  45.17500 21.32100 27.48200
C  45.65700 22.74200 27.26500
C  45.13900 19.94000 29.79300
C  44.70100 20.35100 26.44200
O  44.60700 20.62200 25.27000
C  44.17900 18.93000 26.88900
N  46.95500 25.44500 26.61600
C  46.49800 24.52500 25.72000
C  46.93100 24.82300 24.27600
C  47.45000 26.31400 24.46300
C  47.42900 26.52700 25.95800
C  47.95100 23.81500 23.68200
C  46.60100 27.36900 23.62700
C  47.42100 27.80400 22.39100
N  47.64800 26.99100 28.82500
C  48.10500 27.84600 27.88000
C  48.74400 29.02100 28.50500
C  48.55400 28.75500 29.88400
C  47.88900 27.51100 30.03500
C  49.34800 30.20800 27.87000
C  48.88200 29.22300 31.21900
O  49.50900 30.16300 31.63700
C  48.18000 28.25500 32.20700
C  49.20000 27.74400 33.07200
O  50.00000 26.84600 32.83800
O  49.10100 28.42500 34.26200
C  49.99900 27.78900 35.30700
H  45.56800 21.94800 31.47300
H  45.59000 22.76000 25.19300
H  48.59400 28.34700 26.02600
H  47.54300 25.53700 33.75800
H  44.95400 24.12600 33.15800
H  46.12500 22.10500 33.88300
H  46.72500 23.49900 34.85900
H  47.66700 22.75000 33.49500
H  44.54000 26.27500 34.07800
H  45.57400 27.46500 33.51400
H  46.78200 27.69600 35.57000
H  46.41100 26.08400 36.04900
H  45.62200 20.01900 30.76700
H  45.65100 19.21300 29.16200
H  44.09000 19.64700 29.80500
H  43.32800 18.97900 27.56900
H  44.95900 18.32800 27.35300
H  43.94800 18.39100 25.97000
H  46.07500 24.82400 23.60000
H  48.47800 26.40000 24.11400
H  48.96100 24.20800 23.56300
H  47.61400 23.43400 22.71800
H  47.82800 22.97400 24.36500
H  46.24900 28.19600 24.24400
H  45.66700 26.85300 23.40100
H  47.93100 26.95500 21.93700
H  48.16200 28.54700 22.68600
H  46.88100 28.41200 21.66600
H  50.42800 30.06200 27.86300
H  48.91200 31.04900 28.40900
H  49.02800 30.28600 26.83100
H  47.54300 28.93200 32.77600
H  51.00100 28.00100 34.93400
H  49.80000 26.79500 35.70900
H  50.04200 28.35200 36.24000
Mg -12.02400 16.16200 42.52600
C  -8.86000 14.69700 41.86900
C  -10.63100 19.11300 41.50300
C  -15.14800 17.42600 42.42200
C  -13.22800 12.98700 43.37800
N  -9.94200 16.78100 41.57700
C  -8.83000 16.04300 41.53200
C  -7.61100 16.85100 41.24700
C  -8.20200 18.25100 41.54500
C  -9.66400 18.07900 41.51900
C  -7.63000 18.73600 42.97300
C  -7.08500 16.76300 39.79600
C  -5.60700 16.32100 39.60900
H  -5.31700 15.16700 38.60300
N  -12.76700 17.99100 41.98300
C  -12.00900 19.10500 41.58300
C  -12.86700 20.14600 41.27700
C  -14.22400 19.82400 41.66300
C  -14.09800 18.38300 42.05100
C  -12.42100 21.39000 40.54900
C  -15.47600 20.74800 41.62800
O  -15.40800 21.92700 41.26600
C  -16.76200 20.25300 42.11000
N  -13.98700 15.32500 42.93800
C  -15.11400 16.06100 42.76500
C  -16.29700 15.20700 42.94700
C  -15.75700 13.72100 43.24100
C  -14.21200 14.00400 43.20400
C  -17.26800 15.65300 44.11800
C  -16.27900 12.70900 42.18000
C  -17.59400 12.12900 42.54800
N  -11.23900 14.20000 42.66100
C  -11.81100 13.03000 43.07600
C  -10.79400 11.96300 43.18000
C  -9.64200 12.57100 42.64300
C  -9.91600 13.92000 42.40900
C  -10.96100 10.53700 43.66300
C  -8.25500 12.31500 42.26200
O  -7.62900 11.29400 42.34500
C  -7.72600 13.66800 41.78700
C  -6.69500 14.03100 42.83400
O  -6.99100 14.11700 44.06200
O  -5.47600 14.25200 42.26400
C  -4.38000 14.78800 43.14000
H  -10.20600 20.11500 41.41500
H  -16.20200 17.71300 42.43500
H  -13.68900 12.04100 43.67100
H  -6.82700 16.61300 41.96600
H  -7.96100 18.99700 40.78800
H  -8.44600 18.47700 43.64800
H  -7.48600 19.81600 42.95300
H  -6.73600 18.24000 43.35100
H  -7.12200 17.69100 39.22500
H  -7.71400 16.06200 39.24900
H  -5.09200 16.12200 40.54900
H  -5.00900 17.19600 39.35400
H  -12.93000 21.47700 39.58900
H  -11.34400 21.55400 40.50500
H  -12.62800 22.25300 41.18200
H  -17.23600 19.53300 41.44300
H  -17.47100 21.08000 42.11300
H  -16.46300 19.87800 43.08900
H  -16.87900 15.36000 42.03800
H  -15.99200 13.35100 44.24000
H  -18.03600 16.33100 43.74400
H  -16.72000 16.17800 44.90000
H  -17.72800 14.78400 44.58800
H  -15.48700 11.98200 42.00300
H  -16.43900 13.28700 41.26900
H  -17.52200 11.44600 43.39400
H  -18.01800 11.55900 41.72200
H  -18.31300 12.93000 42.72100
H  -11.26700 10.47600 44.70700
H  -10.01800 10.06200 43.39300
H  -11.68800 9.91400 43.14100
H  -7.23500 13.74000 40.81600
H  -3.55900 14.07100 43.15200
H  -4.73300 14.96200 44.15700
H  -3.93700 15.74500 42.86600

