158

Mg 16.39600 -2.84200 27.29400
C  15.75900 -0.92900 30.17000
C  18.13600 -5.16300 29.20900
C  17.71100 -4.10900 24.46200
C  14.79800 -0.29900 25.36000
N  16.91700 -2.97800 29.37100
C  16.44600 -2.14200 30.35700
C  17.01700 -2.61000 31.73500
C  17.71800 -4.00700 31.41300
C  17.58900 -4.09500 29.89100
C  19.22400 -4.06300 31.94900
C  15.87500 -2.56400 32.87700
C  16.20100 -1.82300 34.18400
H  17.60000 -1.49600 34.63700
N  17.72600 -4.44900 26.92000
C  18.18800 -5.39700 27.77500
C  18.80200 -6.50100 27.03400
C  18.66100 -6.18400 25.62000
C  17.99900 -4.80500 25.61700
C  19.44300 -7.71900 27.62400
C  19.03700 -7.04300 24.38800
O  18.73800 -6.78800 23.23000
C  19.77100 -8.36200 24.43300
N  16.35900 -2.22500 25.17800
C  17.01300 -2.91800 24.26100
C  16.76900 -2.32300 22.81600
C  15.66300 -1.20300 23.14300
C  15.53500 -1.21800 24.62400
C  18.11100 -1.60500 22.30900
C  14.20600 -1.38800 22.49100
C  12.99600 -1.69800 23.31500
N  15.38600 -0.93600 27.66200
C  14.74600 -0.08300 26.75000
C  14.14100 1.01200 27.53100
C  14.58600 0.81000 28.83400
C  15.29300 -0.45100 28.89300
C  13.32500 2.12500 26.93400
C  14.37300 1.18900 30.26700
O  13.76300 2.15100 30.74600
C  15.25800 0.16500 31.09600
C  16.39100 1.07400 31.49100
O  17.24300 1.49600 30.70700
O  16.31900 1.41800 32.79500
C  17.19700 2.43500 33.28000
H  18.50500 -6.03700 29.75100
H  18.00900 -4.45300 23.46900
H  14.35600 0.48500 24.74200
H  17.79400 -1.93400 32.09100
H  17.10600 -4.81900 31.80600
H  19.26700 -4.73200 32.80900
H  19.64100 -3.09100 32.21100
H  19.84600 -4.37200 31.10900
H  15.48900 -3.52800 33.20900
H  14.94900 -2.14600 32.48100
H  15.80700 -2.48100 34.95800
H  15.55900 -0.94400 34.24200
H  19.68700 -7.62600 28.68200
H  20.39600 -7.74100 27.09600
H  18.80500 -8.58700 27.45900
H  20.75600 -8.24800 24.88700
H  19.90700 -8.67800 23.39900
H  19.10200 -9.02000 24.98700
H  16.40800 -3.09400 22.13500
H  16.03000 -0.23000 22.81700
H  18.14400 -0.57600 22.66600
H  18.11800 -1.40900 21.23700
H  19.02800 -2.15100 22.53000
H  14.33300 -2.18500 21.75800
H  14.02500 -0.44100 21.98300
H  12.52300 -0.72200 23.42700
H  13.08500 -2.29200 24.22500
H  12.32100 -2.23500 22.64900
H  13.94100 2.80600 26.34700
H  12.87100 2.68600 27.75100
H  12.49200 1.67100 26.39700
H  14.73800 -0.17300 31.99300
H  16.97600 3.36000 32.74800
H  18.26300 2.23200 33.17500
H  16.85200 2.58500 34.30300
Mg 25.23400 -0.42000 29.15700
C  27.30400 -0.40700 32.17100
C  22.53700 -0.33700 31.05800
C  23.70100 -0.72800 26.28400
C  28.48900 -1.10200 27.53200
N  25.00100 -0.36100 31.34700
C  25.90100 -0.26200 32.36800
C  25.19000 -0.05300 33.74600
C  23.69200 -0.39300 33.36500
C  23.73100 -0.41700 31.82800
C  22.88300 -1.54200 34.16500
C  25.49400 1.29200 34.47100
C  26.22300 1.24000 35.84300
H  25.86000 2.22100 36.95800
N  23.37800 -0.31700 28.67700
C  22.35000 -0.38900 29.62500
C  21.09100 -0.37500 28.84100
C  21.38800 -0.34300 27.40900
C  22.86700 -0.42100 27.39100
C  19.73900 -0.28100 29.58100
C  20.37100 -0.20800 26.17500
O  20.78200 -0.20900 25.05800
C  18.87700 -0.25700 26.47700
N  26.03500 -0.87800 27.20200
C  25.10200 -0.87400 26.14400
C  25.76300 -0.84100 24.78400
C  27.27900 -0.94600 25.21200
C  27.31500 -0.94100 26.73600
C  25.29500 -1.92500 23.77900
C  27.97200 0.36300 24.70700
C  27.73700 1.74400 25.47000
N  27.43300 -0.68000 29.72400
C  28.56300 -0.89500 28.92900
C  29.77500 -0.90800 29.76900
C  29.27400 -0.74400 31.01500
C  27.95100 -0.55300 30.94300
C  31.16800 -1.03400 29.26200
C  29.70800 -0.66100 32.44800
O  30.80200 -0.95000 32.95200
C  28.35200 -0.44000 33.26500
C  28.15600 -1.66100 34.16900
O  27.89300 -2.79100 33.80200
O  28.35800 -1.22200 35.47100
C  28.40500 -2.18400 36.57400
H  21.63100 -0.36300 31.66700
H  23.03400 -0.85700 25.42900
H  29.36800 -1.36000 26.93800
H  25.55100 -0.86000 34.38400
H  23.19100 0.56100 33.52900
H  22.27300 -2.19500 33.54000
H  22.11700 -1.08400 34.79000
H  23.61700 -2.05100 34.79000
H  24.50100 1.73100 34.56700
H  26.13500 1.90000 33.83300
H  27.20700 1.57700 35.51700
H  26.26800 0.24600 36.28700
H  19.36100 0.73300 29.45300
H  19.88300 -0.48800 30.64200
H  19.10700 -1.08100 29.19600
H  18.65400 -1.24500 26.88100
H  18.46200 -0.07200 25.48600
H  18.56300 0.57000 27.11400
H  25.48600 0.13100 24.37600
H  27.78400 -1.81800 24.79800
H  25.94000 -2.74500 23.46400
H  24.98400 -1.49000 22.82900
H  24.41500 -2.45500 24.14400
H  27.62900 0.55900 23.69100
H  29.05300 0.22900 24.66800
H  27.56400 1.53900 26.52600
H  26.93900 2.31000 24.98800
H  28.68100 2.27400 25.59700
H  31.19100 -2.02900 28.81700
H  31.83700 -0.82800 30.09700
H  31.44700 -0.29500 28.51100
H  28.41200 0.52700 33.76500
H  29.27800 -1.89400 37.15900
H  28.47000 -3.18500 36.14700
H  27.51800 -2.09700 37.20100

