158

Mg 54.33000 23.29000 45.12400
C  51.97800 25.33400 43.72800
C  52.49200 20.54800 44.27100
C  57.21200 21.25300 45.18300
C  56.39000 26.07300 45.45700
N  52.41600 23.01900 44.11600
C  51.56300 23.96400 43.70200
C  50.28600 23.30900 43.10700
C  50.34300 21.90400 43.79800
C  51.83700 21.75800 44.02800
C  49.54100 21.87500 45.19600
C  50.28100 23.32500 41.54600
C  49.03100 23.76900 40.87900
H  48.82700 23.60600 39.41700
N  54.77400 21.13400 44.83900
C  53.82000 20.21300 44.48200
C  54.44900 18.92000 44.57400
C  55.82100 19.11300 44.78300
C  55.97900 20.54300 44.96000
C  53.64200 17.56300 44.39500
C  56.83200 17.93900 44.77400
O  56.39400 16.76700 44.56600
C  58.29400 18.10900 44.86800
N  56.41700 23.61300 45.29500
C  57.39400 22.65500 45.39300
C  58.77200 23.28100 45.83600
C  58.50500 24.79700 45.76500
C  57.00800 24.83000 45.52100
C  59.23200 22.66800 47.23900
C  59.26200 25.57400 44.66200
C  60.05500 26.83500 45.01800
N  54.07800 25.36000 45.01700
C  55.02800 26.31000 45.17600
C  54.42600 27.58900 45.02900
C  53.26100 27.32900 44.34700
C  53.15300 25.88100 44.33600
C  54.93800 28.81300 45.56900
C  52.08100 27.81200 43.69900
O  51.71200 29.00200 43.59100
C  51.16700 26.57000 43.23100
C  51.01800 26.68300 41.82600
O  51.84200 26.43500 40.97100
O  49.71900 27.12700 41.57700
C  49.42600 27.29000 40.13200
H  51.77800 19.72200 44.25500
H  58.10500 20.63500 45.29400
H  57.01200 26.96900 45.50000
H  49.48100 23.87700 43.57300
H  49.91800 21.18400 43.09900
H  50.05800 21.35100 46.00000
H  48.58600 21.37100 45.05200
H  49.29300 22.86800 45.57100
H  50.36900 22.28300 41.23700
H  51.14200 23.83200 41.11200
H  48.89300 24.81300 41.15800
H  48.18600 23.22500 41.30300
H  52.57700 17.77000 44.49100
H  53.87600 16.80600 45.14500
H  53.85300 17.13800 43.41400
H  58.63600 18.53800 45.81000
H  58.62000 18.65400 43.98300
H  58.80800 17.15300 44.76300
H  59.48400 23.00600 45.05800
H  58.77600 25.23400 46.72600
H  58.61700 21.80900 47.50700
H  59.21700 23.38600 48.05900
H  60.25500 22.30900 47.12500
H  58.57900 25.87000 43.86500
H  59.95000 24.86100 44.20700
H  61.12100 26.61300 44.98300
H  59.94400 27.21900 46.03200
H  59.73400 27.64700 44.36500
H  54.83100 28.80800 46.65400
H  54.36200 29.67800 45.24100
H  55.99000 28.95900 45.32500
H  50.24300 26.74200 43.78400
H  48.48000 27.82200 40.03100
H  49.45000 26.36800 39.55200
H  50.15400 27.91500 39.61600
Mg 9.05100 47.72300 27.43000
C  6.85800 47.57100 30.10900
C  11.66200 48.44300 29.65800
C  11.02800 48.12400 24.79400
C  6.27600 47.86100 25.23800
N  9.21200 47.95800 29.67700
C  8.19200 47.77900 30.58900
C  8.77300 47.74800 32.02200
C  10.27500 48.11400 31.85600
C  10.41400 48.20100 30.32400
C  10.65800 49.53900 32.49700
C  8.47900 46.34700 32.63900
C  9.34800 45.85300 33.79100
H  8.66700 45.40200 35.07700
N  11.07500 48.13900 27.24300
C  11.99400 48.34200 28.24500
C  13.30300 48.48500 27.62800
C  13.14900 48.25500 26.21900
C  11.68600 48.04800 26.05800
C  14.52800 48.84900 28.42600
C  14.15400 48.14900 25.16700
O  13.83000 48.07900 23.96500
C  15.56900 48.20700 25.47900
N  8.68800 48.17300 25.25800
C  9.64800 48.18500 24.43500
C  9.13100 48.31600 22.95400
C  7.59400 48.27600 23.12200
C  7.49600 48.00100 24.58900
C  9.60100 49.55100 22.19800
C  6.79900 47.29100 22.19700
C  7.42500 46.55300 21.00200
N  7.01300 47.60300 27.58900
C  6.01300 47.64500 26.61800
C  4.71000 47.50900 27.21300
C  4.95200 47.48300 28.60400
C  6.35600 47.57300 28.75200
C  3.31800 47.56200 26.45600
C  4.40200 47.43500 29.97900
O  3.23900 47.31900 30.34400
C  5.59800 47.45600 31.01200
C  5.46900 46.18800 31.67900
O  5.95900 45.11700 31.26100
O  4.71700 46.25200 32.84600
C  4.69000 45.07000 33.68000
H  12.54000 48.64300 30.27600
H  11.60400 48.13300 23.86600
H  5.31500 47.71600 24.74000
H  8.17500 48.33200 32.72200
H  10.80500 47.22700 32.20200
H  11.69700 49.48300 32.82100
H  9.98000 49.78100 33.31500
H  10.60900 50.31800 31.73700
H  8.39900 45.57800 31.87100
H  7.50300 46.56900 33.07100
H  10.06900 46.63300 34.03200
H  9.86600 44.96500 33.42800
H  15.25400 48.06400 28.63500
H  14.30100 49.32000 29.38300
H  15.09200 49.56300 27.82600
H  16.09400 48.05800 24.53500
H  15.79000 47.55800 26.32600
H  15.73700 49.24500 25.76700
H  9.49700 47.46500 22.37900
H  7.16900 49.26800 22.96900
H  10.03500 50.23300 22.93000
H  8.73000 49.98400 21.70700
H  10.37200 49.20900 21.50700
H  6.01100 47.95400 21.84200
H  6.40400 46.47300 22.79900
H  6.78500 46.53100 20.11900
H  7.59200 45.51600 21.29200
H  8.39300 46.94500 20.69100
H  2.94200 46.56600 26.22400
H  3.35300 48.08500 25.50000
H  2.54800 48.07500 27.03200
H  5.46900 48.29200 31.69900
H  4.81900 45.44100 34.69600
H  5.48800 44.34500 33.51900
H  3.68400 44.68800 33.50100

