158

Mg 36.43200 49.03900 24.91200
C  36.72400 47.52900 28.01200
C  34.54900 51.62000 26.52600
C  35.64400 50.34000 21.97500
C  37.94200 46.42100 23.38700
N  35.59800 49.47300 26.99300
C  36.04000 48.74200 28.12000
C  35.74200 49.53200 29.38100
C  34.91700 50.80100 28.86600
C  35.01700 50.61600 27.39400
C  33.52200 50.97300 29.49000
C  36.95500 50.02300 30.25400
C  36.89500 49.82500 31.73900
H  35.51400 49.58800 32.39400
N  35.23100 50.72100 24.32500
C  34.65000 51.71900 25.10300
C  34.04100 52.68900 24.26300
C  34.54100 52.35400 22.95700
C  35.16000 51.12400 23.02300
C  33.33300 53.97100 24.78700
C  34.44800 53.14700 21.69600
O  34.85800 52.76200 20.55500
C  33.86700 54.56200 21.68300
N  36.45000 48.27100 22.93900
C  36.18500 49.04900 21.89200
C  36.55200 48.39800 20.58100
C  37.47000 47.23800 21.06200
C  37.31200 47.32900 22.57200
C  35.34700 47.84400 19.74200
C  38.98700 47.46800 20.61300
C  39.33400 46.52900 19.46200
N  37.36600 47.36400 25.54700
C  37.93200 46.34800 24.81500
C  38.58100 45.34900 25.69200
C  38.06800 45.76200 26.99300
C  37.36500 46.97200 26.84800
C  39.32600 44.06700 25.38000
C  37.97800 45.42200 28.38300
O  38.50200 44.46700 29.05500
C  37.09600 46.58200 29.06100
C  35.95600 46.07700 29.84200
O  34.89700 45.79000 29.44500
O  36.44000 45.70800 31.06500
C  35.59500 44.94700 32.01900
H  33.96600 52.42000 26.98700
H  35.60900 50.75400 20.96500
H  38.54600 45.63200 22.93500
H  35.16800 48.78700 29.93400
H  35.49100 51.70900 29.04900
H  33.22300 50.11900 30.09700
H  32.71400 50.99700 28.75900
H  33.35200 51.86000 30.10100
H  37.18100 51.08900 30.22600
H  37.82900 49.45300 29.94100
H  37.35000 50.69400 32.21500
H  37.47500 48.93400 31.97800
H  34.03800 54.80200 24.79200
H  32.89000 53.69600 25.74500
H  32.56100 54.15700 24.04100
H  33.88900 54.91600 20.65200
H  34.25300 55.36200 22.31400
H  32.78500 54.48700 21.79100
H  36.99600 49.17700 19.96100
H  37.03700 46.27200 20.80200
H  34.43800 47.99200 20.32500
H  35.47300 46.79400 19.47600
H  35.31500 48.43100 18.82500
H  39.75200 47.20300 21.34300
H  39.08500 48.53300 20.40500
H  40.20100 45.96700 19.81100
H  39.54100 46.97700 18.49000
H  38.49500 45.84700 19.32600
H  38.78600 43.39700 24.71100
H  39.52900 43.65400 26.36800
H  40.20700 44.37800 24.81900
H  37.80700 47.09500 29.70800
H  36.15800 44.08400 32.37200
H  34.59100 44.65500 31.71000
H  35.52900 45.65200 32.84800
Mg 5.49900 53.65200 41.95500
C  4.79100 50.24900 41.07900
C  8.55100 53.28600 40.62800
C  5.77800 56.92600 42.10700
C  2.12100 53.93100 42.82600
N  6.53100 51.94900 40.87800
C  6.11400 50.65700 40.69800
C  7.23700 49.84700 40.08100
C  8.49100 50.84600 40.15000
C  7.80200 52.14900 40.49700
C  9.53900 50.38800 41.26700
C  6.91300 49.36400 38.69500
C  6.40400 50.45400 37.74300
H  7.35700 50.75200 36.57100
N  6.96300 54.91900 41.51200
C  8.22800 54.58200 41.05900
C  9.11600 55.75300 41.14700
C  8.30600 56.78800 41.68900
C  6.94300 56.20900 41.80300
C  10.59900 55.70300 40.90300
C  8.82200 58.20100 42.10900
O  10.01700 58.53700 42.00900
C  7.87000 59.19300 42.76200
N  4.03700 55.22200 42.39700
C  4.45600 56.51100 42.36300
C  3.27900 57.46100 42.38000
C  2.02300 56.55200 42.61400
C  2.75700 55.14100 42.65800
C  3.33000 58.80000 43.26500
C  1.03600 56.68700 41.54000
C  -0.43100 56.82000 42.06100
N  3.84000 52.32000 42.24100
C  2.55500 52.61400 42.63100
C  1.79600 51.38800 42.59000
C  2.65100 50.43600 42.10200
C  3.87400 51.05200 41.76200
C  0.39700 51.06500 43.07200
C  2.74700 49.02000 41.72300
O  1.95500 48.16600 41.74100
C  4.20900 48.84500 41.19100
C  4.04300 48.05500 39.94100
O  3.48800 48.54000 38.96000
O  4.78500 46.92900 39.96100
C  4.84100 46.17400 38.69900
H  9.60400 53.03900 40.47900
H  5.89500 58.01200 42.09200
H  1.08200 54.07100 43.13100
H  7.35300 49.00300 40.76000
H  8.90500 51.12000 39.18000
H  9.82700 51.19300 41.94300
H  10.42000 49.95600 40.79400
H  9.29100 49.56900 41.94300
H  6.36500 48.42200 38.72000
H  7.84700 49.07100 38.21500
H  6.23200 51.40400 38.24800
H  5.45900 50.14300 37.29800
H  10.76200 56.09700 39.90000
H  11.00800 54.69500 40.97400
H  11.20300 56.22000 41.65000
H  8.36500 60.03200 43.25100
H  7.44400 58.56500 43.54400
H  7.16700 59.57900 42.02300
H  3.31200 57.81100 41.34800
H  1.80300 56.65100 43.67800
H  4.14000 58.55500 43.95200
H  2.37700 59.03700 43.73800
H  3.60700 59.70200 42.71900
H  1.12800 55.81100 40.89900
H  1.18200 57.55000 40.89100
H  -0.95700 57.75600 41.87300
H  -0.41400 56.58900 43.12600
H  -1.14300 56.12100 41.62300
H  -0.12100 50.61800 42.22400
H  -0.07400 52.02700 43.27700
H  0.38300 50.34700 43.89200
H  4.65900 48.11500 41.86400
H  4.81000 46.77000 37.78700
H  4.04800 45.42900 38.76900
H  5.73600 45.55400 38.65100

