158

Mg 47.46300 15.84800 27.78100
C  45.41800 16.13800 30.67500
C  49.78800 17.74300 29.45200
C  49.04500 16.03300 24.94200
C  44.63500 14.55400 26.13100
N  47.55400 16.87400 29.77900
C  46.73100 16.68200 30.82300
C  47.33700 17.26600 32.14200
C  48.54400 18.02800 31.60900
C  48.66500 17.56900 30.20900
C  48.57900 19.55300 31.89500
C  47.64100 16.24500 33.18100
C  47.34800 16.58100 34.61700
H  46.90400 18.02500 34.87100
N  49.28200 16.51800 27.34600
C  50.14900 17.27000 28.15100
C  51.37800 17.40100 27.45100
C  51.22300 16.90600 26.07900
C  49.82500 16.42400 26.06300
C  52.65400 17.96100 27.96200
C  52.20300 16.73100 24.89200
O  51.83100 16.20700 23.81900
C  53.52600 17.40600 24.85900
N  47.01300 15.11200 25.77200
C  47.82800 15.42700 24.79200
C  47.08900 15.27600 23.43200
C  45.84000 14.39600 23.80400
C  45.74800 14.69900 25.34600
C  46.52000 16.71800 22.89600
C  46.10100 12.89100 23.61600
C  45.17600 12.18200 22.56900
N  45.42300 15.35900 28.23800
C  44.44500 14.85600 27.45400
C  43.24200 14.62800 28.24300
C  43.62000 15.01600 29.53600
C  44.89900 15.56300 29.44900
C  41.97400 14.08200 27.70900
C  43.18100 15.10700 30.86900
O  42.23100 14.60600 31.47200
C  44.25700 15.91600 31.68700
C  43.67400 17.14600 32.19700
O  43.67300 18.27600 31.63000
O  43.19900 16.91700 33.44400
C  42.60900 18.06600 34.03600
H  50.57000 18.31600 29.95500
H  49.56900 16.09400 23.98600
H  43.93900 14.02400 25.47600
H  46.59900 17.96000 32.54600
H  49.46500 17.73000 32.11000
H  49.27100 19.68200 32.72700
H  47.60600 19.83700 32.29700
H  48.88700 20.10100 31.00600
H  48.67100 15.92500 33.02500
H  47.00100 15.40300 32.92100
H  48.11900 16.32400 35.34300
H  46.42100 16.05400 34.84300
H  53.47400 17.26600 27.77900
H  52.50200 18.00000 29.04100
H  52.79800 18.98600 27.62200
H  54.25500 16.91600 25.50500
H  53.39200 18.48500 24.92800
H  53.95500 17.30300 23.86300
H  47.77400 14.83100 22.71000
H  44.95900 14.70500 23.24000
H  46.87400 17.51700 23.54700
H  45.43600 16.79100 22.98500
H  46.85500 16.98400 21.89400
H  45.94000 12.36400 24.55700
H  47.11500 12.80700 23.22500
H  44.46300 12.88900 22.14500
H  44.71900 11.36500 23.12700
H  45.60800 11.75500 21.66400
H  41.83700 13.04600 28.01800
H  41.95800 14.05800 26.61900
H  41.21200 14.70200 28.18100
H  44.65700 15.34200 32.52300
H  41.57100 18.09700 33.70800
H  43.07700 19.01200 33.76400
H  42.59100 18.02700 35.12500
Mg 49.56400 46.52200 42.55500
C  46.19600 47.02800 41.63000
C  49.29200 43.37400 41.36800
C  52.91000 46.14000 42.98200
C  49.75300 49.82400 43.60900
N  47.89100 45.38300 41.50300
C  46.61600 45.73400 41.29600
C  45.78600 44.62000 40.69000
C  46.70700 43.40500 40.97500
C  48.06900 44.05600 41.31000
C  46.07900 42.38600 41.96300
C  45.51300 44.99100 39.21700
C  44.31000 44.29700 38.59600
H  44.47200 43.68300 37.22100
N  50.94300 44.93800 42.15100
C  50.64800 43.72800 41.63900
C  51.83900 42.89400 41.58000
C  52.89700 43.69000 42.08500
C  52.28000 45.00400 42.44100
C  51.93600 41.53100 40.96300
C  54.28000 43.17200 42.25000
O  54.55900 41.99300 42.09500
C  55.38500 44.07100 42.81900
N  51.12700 47.80300 43.28900
C  52.43200 47.43900 43.36100
C  53.33700 48.55900 43.81300
C  52.30800 49.71300 44.04100
C  50.97000 49.06300 43.65700
C  54.16800 48.26400 45.14600
C  52.70900 51.05600 43.43000
C  52.85200 52.10100 44.50100
N  48.28000 48.05900 42.70500
C  48.50200 49.32400 43.19600
C  47.28800 50.14200 43.09800
C  46.34600 49.18700 42.53700
C  46.98400 48.00500 42.21500
C  47.17400 51.56500 43.43400
C  44.97100 49.03800 42.18000
O  44.04900 49.86700 42.39400
C  44.82800 47.66200 41.49800
C  43.72100 46.93000 42.17800
O  43.64700 46.65200 43.37200
O  42.82700 46.62100 41.21200
C  41.57100 45.95200 41.69400
H  49.24800 42.32700 41.05800
H  53.99600 46.17300 43.09200
H  49.76400 50.89000 43.84600
H  44.84500 44.44700 41.21200
H  46.78900 42.82400 40.05600
H  44.99700 42.28700 41.87900
H  46.28900 42.77500 42.96000
H  46.53000 41.42500 41.71400
H  46.28100 44.84000 38.45800
H  45.36100 46.06900 39.15200
H  43.40300 44.89300 38.70100
H  44.12300 43.41600 39.21100
H  52.78700 41.41700 40.29100
H  51.02200 41.22700 40.45300
H  52.05600 40.73000 41.69200
H  56.21200 43.40700 43.07000
H  54.87200 44.34000 43.74200
H  55.44300 44.80600 42.01600
H  54.03800 48.65800 42.98400
H  52.22700 49.78700 45.12500
H  55.11600 48.78700 45.02300
H  54.45300 47.22400 45.31000
H  53.77300 48.64800 46.08700
H  52.11500 51.46300 42.61200
H  53.72600 50.97900 43.04800
H  53.89800 52.40600 44.53700
H  52.69100 51.82600 45.54300
H  52.19300 52.91300 44.19100
H  47.59100 52.08800 42.57300
H  47.73500 51.72700 44.35400
H  46.16200 51.84600 43.72600
H  44.58300 47.91700 40.46700
H  41.76100 44.98700 42.16600
H  40.96200 45.73400 40.81700
H  40.86300 46.58300 42.23000

