158

Mg 48.71800 35.15700 27.18700
C  46.99200 33.66900 29.93100
C  48.99900 37.92200 29.01000
C  50.29100 36.56900 24.55800
C  47.98600 32.35100 25.15300
N  48.23200 35.57800 29.41500
C  47.62900 34.84300 30.35500
C  47.66500 35.62400 31.66500
C  47.84800 37.10500 31.15600
C  48.31300 36.87400 29.73700
C  46.47000 37.86700 31.03000
C  48.71300 35.10800 32.64500
C  48.49500 35.30700 34.17300
H  47.52500 36.45700 34.47800
N  49.61700 37.02600 26.87000
C  49.62600 38.04900 27.76400
C  50.37700 39.12700 27.20400
C  50.82900 38.73500 25.86000
C  50.23000 37.36700 25.68500
C  50.65800 40.37100 27.95800
C  51.67100 39.50800 24.83200
O  52.08900 38.92400 23.83100
C  51.98800 41.00300 25.22100
N  49.01400 34.59900 25.04500
C  49.81600 35.27700 24.24300
C  49.81300 34.67600 22.86100
C  49.22800 33.23500 23.05600
C  48.67200 33.37800 24.49900
C  49.11100 35.61700 21.81900
C  50.23900 32.11300 22.89400
C  50.39300 31.49400 21.53800
N  47.73200 33.38900 27.40900
C  47.48900 32.32600 26.53600
C  46.68600 31.37500 27.25400
C  46.45000 31.86600 28.54700
C  47.09100 33.09900 28.61200
C  46.15200 30.13800 26.63600
C  45.72600 31.53300 29.78100
O  44.89700 30.67000 30.02900
C  45.97700 32.84100 30.68000
C  46.36900 32.36800 32.08700
O  47.42100 31.82900 32.43500
O  45.30800 32.62700 32.95200
C  45.68600 32.16400 34.35200
H  48.98500 38.86800 29.55500
H  50.74500 36.91900 23.62900
H  47.89800 31.44200 24.55500
H  46.66700 35.49100 32.08400
H  48.48900 37.68500 31.82100
H  45.60400 37.28300 31.34400
H  46.18300 38.10500 30.00600
H  46.62300 38.81300 31.54900
H  49.64100 35.56600 32.30200
H  48.99200 34.08000 32.41300
H  49.49500 35.50100 34.56200
H  48.09300 34.34500 34.48900
H  49.90900 40.48800 28.74200
H  50.55400 41.18500 27.24100
H  51.66800 40.37400 28.36800
H  52.61000 41.12100 26.10900
H  51.06700 41.58300 25.25100
H  52.60500 41.47200 24.45500
H  50.85500 34.66100 22.54100
H  48.44300 32.87400 22.39000
H  48.28400 35.04800 21.39500
H  49.82900 35.83300 21.02800
H  48.76500 36.53800 22.28800
H  50.07400 31.25800 23.54900
H  51.24000 32.51200 23.06100
H  49.55100 31.80300 20.91900
H  50.30400 30.40900 21.47300
H  51.35700 31.72600 21.08500
H  46.99900 29.49800 26.38700
H  45.58000 30.46800 25.76900
H  45.51000 29.70700 27.40400
H  45.04500 33.39800 30.77500
H  44.75000 31.87700 34.83200
H  46.16800 32.96400 34.91300
H  46.24500 31.23400 34.45600
Mg 1.38600 43.12700 25.87400
C  2.92300 43.32900 29.06600
C  -1.41800 41.83400 27.59600
C  0.21100 42.48300 22.90800
C  4.54300 43.95500 24.52100
N  0.79100 42.84300 28.06200
C  1.54600 43.08300 29.18200
C  0.75800 42.78300 30.50700
C  -0.65600 42.28500 29.92900
C  -0.43200 42.35600 28.43200
C  -1.09900 40.88800 30.55100
C  0.71800 43.97600 31.45000
C  0.91300 43.72900 32.94100
H  0.69800 42.34400 33.53300
N  -0.41600 42.42200 25.33900
C  -1.45200 41.86800 26.16800
C  -2.46900 41.41800 25.25600
C  -2.05500 41.61300 23.87500
C  -0.67800 42.14100 24.00300
C  -3.79800 40.71600 25.67700
C  -2.70500 41.42200 22.55500
O  -2.28900 41.74100 21.46300
C  -4.01600 40.73600 22.61000
N  2.26300 43.23600 23.89600
C  1.49900 43.01100 22.84200
C  2.29500 43.35600 21.54800
C  3.47000 44.18900 22.11500
C  3.48800 43.77000 23.57500
C  2.75800 42.07900 20.67100
C  3.36400 45.70900 21.87300
C  4.17500 46.19200 20.64500
N  3.28200 43.49900 26.56400
C  4.48800 43.75000 25.86000
C  5.59200 43.89700 26.76800
C  5.07100 43.71600 28.02800
C  3.65200 43.54200 27.86100
C  6.94600 44.31000 26.43700
C  5.26700 43.60800 29.42600
O  6.32200 43.59700 30.11900
C  3.93400 43.50100 30.13900
C  4.04700 42.25100 31.04400
O  3.78400 41.02400 30.75000
O  4.38600 42.62400 32.36200
C  4.54400 41.58200 33.39100
H  -2.27400 41.46400 28.16400
H  -0.17500 42.26600 21.91000
H  5.53500 44.29400 24.21600
H  1.28300 41.93900 30.95400
H  -1.57100 42.86000 30.07200
H  -0.45500 40.46700 31.32400
H  -0.98800 40.28300 29.65200
H  -2.14800 40.88300 30.84800
H  -0.24400 44.44000 31.23600
H  1.44000 44.78600 31.34100
H  0.24900 44.42500 33.45500
H  1.88700 44.10200 33.25600
H  -3.74300 40.53800 26.75000
H  -3.93200 39.74700 25.19700
H  -4.64800 41.34100 25.40400
H  -4.84800 41.28400 23.05100
H  -3.95100 39.70700 22.96500
H  -4.33400 40.60900 21.57600
H  1.59700 43.91500 20.92500
H  4.39600 43.84000 21.65800
H  2.30100 41.20400 21.13500
H  3.82300 41.84500 20.68000
H  2.47300 42.19100 19.62600
H  3.57900 46.27000 22.78300
H  2.32700 45.93200 21.62200
H  4.84400 46.95900 21.03500
H  3.51600 46.63800 19.90000
H  4.70000 45.34200 20.20900
H  6.97800 45.32700 26.04600
H  7.49900 43.71800 25.70700
H  7.38800 44.51200 27.41200
H  3.79500 44.37600 30.77400
H  5.62900 41.58200 33.49700
H  4.10300 40.58600 33.34800
H  4.07400 41.94500 34.30500

