158

Mg 16.27100 -2.59900 28.44200
C  15.36500 -0.15800 30.88400
C  17.99500 -4.16200 31.07500
C  17.69100 -4.66700 26.23800
C  15.27400 -0.37700 25.96100
N  16.72800 -2.05700 30.65800
C  16.06700 -1.16800 31.47900
C  16.39300 -1.41900 32.99700
C  17.46500 -2.57300 32.86200
C  17.40600 -2.97300 31.44000
C  18.83800 -2.11600 33.43200
C  15.11300 -1.88800 33.73700
C  14.94500 -1.22800 35.06200
H  16.17200 -0.69300 35.86200
N  17.48800 -4.27600 28.65600
C  18.01100 -4.78700 29.81500
C  18.72700 -6.00000 29.49800
C  18.67100 -6.22200 28.08800
C  17.92600 -5.03400 27.57000
C  19.27300 -6.90200 30.64400
C  19.16700 -7.43900 27.31500
O  18.85100 -7.61600 26.15800
C  20.07500 -8.43900 27.94400
N  16.24200 -2.62400 26.35400
C  17.02900 -3.54000 25.62900
C  16.91500 -3.18000 24.15100
C  16.03800 -1.89300 24.06600
C  15.81200 -1.61200 25.57200
C  18.21500 -3.22000 23.28800
C  14.73200 -2.00600 23.32500
C  14.33800 -0.84000 22.40100
N  15.34300 -0.78200 28.35300
C  15.02600 0.01500 27.34000
C  14.31700 1.19700 27.76700
C  14.44100 1.17800 29.17000
C  15.09500 -0.03200 29.47800
C  13.67000 2.28800 26.98600
C  14.09000 1.89000 30.36200
O  13.42900 2.88100 30.54600
C  14.62700 1.04900 31.60200
C  15.60300 1.85300 32.32100
O  16.58300 2.32700 31.83300
O  15.10300 2.28900 33.56800
C  15.88700 3.32000 34.26400
H  18.45000 -4.74000 31.88200
H  18.18700 -5.34600 25.54100
H  14.79400 0.21000 25.17500
H  16.77000 -0.49700 33.44000
H  17.17800 -3.46900 33.41200
H  18.79000 -2.47800 34.45900
H  18.86800 -1.02700 33.46800
H  19.67900 -2.49600 32.85200
H  15.04300 -2.96000 33.92300
H  14.28300 -1.54700 33.11800
H  14.36000 -1.88400 35.70700
H  14.25800 -0.38600 34.97600
H  19.16600 -7.96900 30.44400
H  18.81600 -6.72400 31.61800
H  20.30800 -6.57300 30.73200
H  19.59800 -9.17600 28.59000
H  20.73300 -7.95200 28.66400
H  20.77100 -8.78400 27.17900
H  16.24700 -3.93100 23.72900
H  16.66700 -1.04200 23.80500
H  18.94500 -3.58200 24.01200
H  18.56700 -2.27000 22.88700
H  18.06100 -3.80400 22.38000
H  13.90300 -2.15700 24.01600
H  14.66500 -2.92200 22.73700
H  13.72600 -1.07400 21.53100
H  15.18000 -0.34800 21.91400
H  13.82600 -0.05700 22.96100
H  13.39100 1.89600 26.00800
H  14.33200 3.14000 26.83100
H  12.74800 2.60900 27.47000
H  13.76300 0.79900 32.21700
H  16.71600 2.73600 34.66400
H  15.29800 3.81300 35.03700
H  16.17200 4.05400 33.51100
Mg -0.17900 43.89700 26.47900
C  2.31700 43.42700 28.84200
C  -2.33700 42.72800 28.80700
C  -2.58800 43.85500 24.08800
C  2.25500 44.20200 24.07300
N  0.02900 42.97900 28.54300
C  1.01700 43.27100 29.36600
C  0.67100 43.03800 30.84800
C  -0.70900 42.42000 30.72400
C  -1.07100 42.73100 29.25600
C  -0.80700 40.85500 31.00700
C  0.69400 44.34900 31.60000
C  1.09300 44.19200 33.13700
H  0.72200 42.91600 33.75300
N  -2.12400 43.42700 26.49800
C  -2.86100 43.07200 27.56400
C  -4.28900 42.99800 27.15400
C  -4.45200 43.24800 25.78600
C  -3.01400 43.47200 25.39700
C  -5.33200 42.83200 28.25500
C  -5.70100 43.31100 24.92600
O  -5.62800 43.45000 23.70800
C  -7.15800 43.14800 25.52800
N  -0.11700 43.73600 24.29400
C  -1.27600 44.04000 23.63100
C  -0.93000 44.58400 22.24700
C  0.61700 44.83500 22.35300
C  0.93700 44.16700 23.66100
C  -1.29500 43.80400 21.00600
C  1.18400 46.29500 22.39300
C  0.47000 47.39700 21.56100
N  1.86200 44.00200 26.41700
C  2.70100 44.12300 25.35500
C  4.09900 44.08900 25.83200
C  3.96300 43.90900 27.22800
C  2.64600 43.74300 27.49000
C  5.34400 44.17900 24.94800
C  4.64700 43.75500 28.44300
O  5.83900 43.81500 28.71500
C  3.58900 43.61100 29.56400
C  3.97000 42.36600 30.34600
O  3.81500 41.21100 29.90200
O  4.38800 42.54000 31.61500
C  4.57500 41.37900 32.49100
H  -3.05900 42.50000 29.59400
H  -3.35700 43.95600 23.31900
H  3.03000 44.32300 23.31400
H  1.46100 42.39000 31.22800
H  -1.43100 42.86300 31.41000
H  -1.66700 40.72300 31.66400
H  0.13300 40.52500 31.44900
H  -1.01300 40.29800 30.09400
H  -0.25900 44.87800 31.59800
H  1.54600 44.96200 31.30400
H  0.61100 45.03100 33.63800
H  2.17400 44.28400 33.23800
H  -6.18600 43.47500 28.04200
H  -5.02200 43.19000 29.23700
H  -5.64300 41.79100 28.34600
H  -7.50900 44.15500 25.75500
H  -7.20800 42.44700 26.36100
H  -7.73100 42.76200 24.68500
H  -1.51300 45.50200 22.17800
H  1.25600 44.34800 21.61600
H  -1.99700 43.00900 21.26000
H  -0.37900 43.45900 20.52700
H  -1.67500 44.48200 20.24200
H  2.20800 46.45200 22.05600
H  1.12000 46.64100 23.42500
H  1.24000 47.86800 20.95000
H  0.24500 48.17200 22.29300
H  -0.35000 47.07800 20.91700
H  5.79500 43.18800 24.99500
H  6.12900 44.74600 25.45000
H  5.06500 44.49700 23.94300
H  3.54500 44.44700 30.26100
H  4.17200 41.47300 33.50000
H  5.63100 41.12900 32.58500
H  4.13300 40.43300 32.17700

