158

Mg 41.21800 8.46500 30.04700
C  43.07300 9.86700 32.68900
C  38.89500 7.44900 32.23500
C  39.48200 7.54700 27.49400
C  44.02700 9.26200 27.88500
N  41.05700 8.62900 32.27200
C  41.85400 9.24700 33.13500
C  41.27900 9.24200 34.60000
C  40.03600 8.32800 34.40700
C  39.93900 8.16900 32.85600
C  40.09100 7.04400 35.29000
C  41.02300 10.72000 35.06700
C  40.29500 10.67400 36.44300
H  40.86600 11.60100 37.58200
N  39.46100 7.48500 29.90500
C  38.64100 7.12900 30.94100
C  37.51600 6.37300 30.36100
C  37.53200 6.66000 28.97000
C  38.85200 7.22800 28.71400
C  36.56300 5.76100 31.23500
C  36.37400 6.57700 27.93000
O  36.46000 7.09400 26.82700
C  35.13500 5.88700 28.34400
N  41.79700 8.24500 27.99300
C  40.80400 7.92800 27.13700
C  41.33600 7.93000 25.70300
C  42.81600 8.33500 25.89500
C  42.91800 8.59200 27.35200
C  41.04800 6.62000 24.93500
C  43.12100 9.62700 25.01800
C  42.53500 10.95000 25.41700
N  43.19200 9.39200 30.12700
C  44.19800 9.63700 29.23800
C  45.16200 10.45500 29.84600
C  44.77200 10.55000 31.16300
C  43.57500 9.89200 31.31100
C  46.35400 11.08200 29.19300
C  45.12900 11.19000 32.37300
O  46.04800 11.97600 32.59300
C  44.18300 10.65300 33.43500
C  44.91300 9.89600 34.55000
O  45.67600 8.98100 34.31700
O  44.34500 10.24600 35.78300
C  44.82800 9.51300 36.90900
H  38.14800 7.12800 32.96300
H  38.91800 7.16200 26.64200
H  44.81900 9.60500 27.21600
H  41.98300 8.81000 35.31000
H  39.21300 8.89200 34.84400
H  40.70100 7.22100 36.17600
H  40.48900 6.09700 34.92700
H  39.02900 6.90100 35.49200
H  40.40400 11.29400 34.37700
H  41.98000 11.23200 35.16100
H  40.42100 9.68700 36.88800
H  39.23200 10.87000 36.30000
H  36.99600 5.69600 32.23300
H  36.27600 4.75900 30.91300
H  35.66700 6.36300 31.38500
H  35.35300 4.87500 28.68600
H  34.44700 5.79100 27.50400
H  34.69200 6.36700 29.21700
H  40.74900 8.71400 25.22400
H  43.54700 7.53200 25.80500
H  40.61700 5.86600 25.59400
H  41.88700 6.15100 24.42100
H  40.26200 6.82100 24.20600
H  42.76600 9.48800 23.99700
H  44.19500 9.81000 24.98600
H  42.09500 11.02600 26.41100
H  41.89700 11.39600 24.65500
H  43.39200 11.62400 25.40300
H  45.96200 11.65500 28.35200
H  46.94600 10.29300 28.72900
H  46.91300 11.76300 29.83500
H  43.63900 11.46500 33.91700
H  44.63900 10.27200 37.66700
H  45.91500 9.43500 36.93200
H  44.33600 8.55800 37.09200
Mg 16.55500 51.21500 25.16700
C  18.45200 50.17300 27.87300
C  14.26100 52.37200 27.39200
C  15.09400 52.71700 22.61700
C  19.07900 49.96800 23.01400
N  16.30000 51.13600 27.35600
C  17.23200 50.74500 28.28800
C  16.85300 51.16800 29.68200
C  15.37400 51.50200 29.54900
C  15.21100 51.60100 28.03000
C  14.36800 50.54600 30.25100
C  17.76000 52.14900 30.41800
C  17.90800 51.88400 31.86400
H  17.01500 52.64300 32.83500
N  14.86300 52.29400 25.02000
C  14.11600 52.73600 26.03700
C  13.23000 53.77900 25.54800
C  13.33700 53.81600 24.12400
C  14.50800 52.97500 23.84300
C  12.17100 54.42900 26.41100
C  12.51600 54.55300 23.16000
O  12.71700 54.40500 21.96700
C  11.26500 55.36800 23.50600
N  16.94600 51.24600 23.09800
C  16.19500 51.98800 22.24400
C  16.80000 51.97400 20.76100
C  18.17800 51.19400 21.02000
C  18.04800 50.73500 22.48200
C  15.92000 51.06700 19.77600
C  19.31800 52.15600 20.62700
C  20.49800 51.52000 19.82400
N  18.36100 50.10200 25.31000
C  19.23800 49.68100 24.35900
C  20.45600 49.10900 25.05400
C  20.16700 49.32700 26.41800
C  18.88200 49.93200 26.54000
C  21.50300 48.52300 24.35000
C  20.65500 49.02300 27.77500
O  21.65900 48.47400 28.21600
C  19.63400 49.70500 28.70400
C  19.23900 48.78200 29.89000
O  18.84700 47.63000 29.81300
O  19.52600 49.37100 31.03600
C  19.58400 48.49000 32.19700
H  13.53600 52.71100 28.13600
H  14.66200 53.20700 21.74200
H  19.95000 49.71600 22.40600
H  16.99200 50.16900 30.09500
H  15.18500 52.51400 29.90700
H  14.77300 50.11500 31.16600
H  14.05900 49.78400 29.53600
H  13.47800 51.14000 30.45900
H  17.26200 53.11200 30.29900
H  18.75500 52.16200 29.97400
H  18.95600 51.83800 32.16300
H  17.60800 50.84200 31.97700
H  12.05600 55.49500 26.20900
H  12.36200 54.29600 27.47500
H  11.22300 53.94600 26.17300
H  10.54500 54.75000 24.04200
H  11.09200 55.72000 22.48900
H  11.39900 56.21800 24.17400
H  16.81700 53.01200 20.43100
H  18.21800 50.21600 20.54000
H  16.52400 50.76700 18.92000
H  15.11500 51.73700 19.47500
H  15.48100 50.15100 20.17100
H  19.75300 52.51800 21.55900
H  19.02300 53.08400 20.13800
H  21.42100 51.79500 20.33400
H  20.45100 52.02400 18.85900
H  20.49100 50.46100 19.56600
H  22.28300 49.28300 24.31700
H  21.11700 48.22900 23.37500
H  21.84400 47.59800 24.81500
H  20.06500 50.58900 29.17400
H  19.97500 48.89200 33.13200
H  20.23200 47.62800 32.04100
H  18.56800 48.13400 32.37000

