158

Mg 8.96500 3.07100 27.86000
C  10.28600 1.51200 30.74900
C  7.00800 4.96500 29.91200
C  7.27200 4.05500 25.10900
C  10.77500 0.70500 25.97900
N  8.81300 3.24900 30.07400
C  9.50700 2.60600 31.04300
C  9.33000 3.23000 32.41500
C  8.02100 4.20100 32.11000
C  7.92100 4.13500 30.58900
C  6.70800 3.75500 32.88800
C  10.63500 3.98900 32.88100
C  10.36300 4.77400 34.23100
H  10.75000 4.20600 35.56200
N  7.49100 4.44200 27.51500
C  6.76200 5.12500 28.54500
C  5.88000 6.03000 27.91500
C  5.88000 5.75000 26.51700
C  6.87700 4.72400 26.31800
C  5.13900 7.11000 28.70900
C  5.15300 6.49700 25.36200
O  5.27500 6.17100 24.17300
C  4.47200 7.77000 25.68700
N  9.02000 2.42200 25.89800
C  8.24800 3.11000 24.93700
C  8.61200 2.57700 23.51100
C  9.80800 1.57000 23.79900
C  9.86400 1.52700 25.32400
C  7.48100 2.03300 22.59800
C  11.23300 1.94800 23.24000
C  11.80600 1.09800 22.08400
N  10.25200 1.35400 28.26300
C  10.91800 0.54300 27.37300
C  11.64700 -0.43400 28.10900
C  11.51400 -0.08000 29.46900
C  10.60100 0.92500 29.48700
C  12.49700 -1.52800 27.60800
C  11.89300 -0.37400 30.77200
O  12.67800 -1.25200 31.15500
C  11.22500 0.73900 31.74000
C  10.44200 0.11400 32.84700
O  9.51100 -0.65100 32.77100
O  11.00000 0.43400 34.02000
C  10.49100 -0.27900 35.18800
H  6.47000 5.65800 30.56300
H  6.77100 4.33600 24.18000
H  11.43100 0.03900 25.41500
H  8.91700 2.41500 33.00900
H  8.16800 5.24400 32.38900
H  6.68600 2.69300 33.13200
H  5.90100 3.78900 32.15700
H  6.44500 4.41600 33.71300
H  11.05100 4.59400 32.07600
H  11.35700 3.26200 33.25400
H  9.28900 4.82900 34.40700
H  10.66800 5.82000 34.26600
H  5.88100 7.90200 28.81300
H  4.71300 6.74500 29.64400
H  4.26500 7.60300 28.28500
H  5.24300 8.47800 25.99200
H  3.71600 7.64600 26.46300
H  4.02100 8.21600 24.80100
H  9.08800 3.44800 23.06100
H  9.54100 0.56100 23.48600
H  6.51900 2.48300 22.84500
H  7.43400 0.96300 22.80200
H  7.80300 2.25800 21.58100
H  11.94100 1.88100 24.06600
H  11.12900 2.97400 22.88800
H  12.88300 1.04500 22.24500
H  11.64800 1.64400 21.15400
H  11.32500 0.12000 22.05000
H  13.24100 -1.17500 26.89400
H  11.83300 -2.16700 27.02600
H  12.94000 -2.19400 28.34900
H  12.03200 1.39300 32.07000
H  10.22200 0.48200 35.92100
H  11.23800 -0.91400 35.66300
H  9.60700 -0.89900 35.04000
Mg 17.15200 -2.22600 28.43500
C  16.19600 -0.01700 30.94200
C  18.91900 -3.96300 30.80400
C  18.42100 -3.86400 25.83000
C  15.74300 0.04700 26.02000
N  17.44500 -2.03200 30.64700
C  16.91000 -1.07200 31.41700
C  17.37100 -1.23600 32.91200
C  18.39500 -2.36600 32.86300
C  18.18700 -2.87100 31.40900
C  19.89800 -2.02000 33.11700
C  16.17600 -1.52100 33.90700
C  16.68100 -1.80800 35.37500
H  17.82400 -1.07700 35.94300
N  18.49300 -3.69900 28.35400
C  19.05000 -4.33900 29.45800
C  19.80700 -5.47700 28.96600
C  19.70400 -5.43600 27.53500
C  18.78900 -4.30400 27.17300
C  20.58500 -6.43500 29.93900
C  20.30600 -6.40400 26.60900
O  19.91800 -6.61500 25.43700
C  21.10700 -7.41900 27.08200
N  16.91500 -2.01200 26.20800
C  17.58900 -2.90700 25.35900
C  17.62500 -2.38700 23.96500
C  16.59100 -1.16600 24.07500
C  16.35800 -1.03100 25.53900
C  19.03700 -1.96700 23.53300
C  15.35100 -1.12900 23.14100
C  13.95800 -1.22300 23.86300
N  16.15100 -0.38900 28.43400
C  15.67300 0.42300 27.39800
C  14.86700 1.46200 27.97500
C  15.02300 1.31400 29.39600
C  15.95100 0.24600 29.58000
C  13.87200 2.37000 27.27200
C  14.65300 1.88900 30.68700
O  13.93600 2.87200 30.89100
C  15.50800 1.01400 31.73600
C  16.28500 1.88100 32.61600
O  17.40200 2.18400 32.33900
O  15.54300 2.35900 33.67300
C  16.28900 3.19100 34.66200
H  19.39000 -4.42600 31.67300
H  18.93700 -4.48400 25.09400
H  15.29300 0.76800 25.33500
H  17.70500 -0.30600 33.37200
H  18.04200 -3.13300 33.55300
H  20.37600 -2.95800 33.39900
H  20.01200 -1.09900 33.68700
H  20.23500 -1.51400 32.21200
H  15.57100 -2.35900 33.56000
H  15.48900 -0.69200 34.07900
H  16.98400 -2.85200 35.46100
H  15.88400 -1.63200 36.09700
H  21.65800 -6.24500 29.91500
H  20.45700 -7.47600 29.63900
H  20.19100 -6.37700 30.95400
H  21.97100 -6.90100 27.49900
H  21.35900 -8.10200 26.27100
H  20.55300 -8.04700 27.78000
H  17.19200 -3.10600 23.27000
H  17.10400 -0.23200 23.84700
H  19.45400 -2.77400 22.93100
H  19.61600 -1.71400 24.42100
H  18.91900 -1.06600 22.93100
H  15.43100 -1.87300 22.34800
H  15.58200 -0.12200 22.79200
H  13.26800 -1.63200 23.12500
H  13.57700 -0.26200 24.21100
H  13.88500 -1.85700 24.74600
H  13.57000 3.20900 27.89900
H  12.99300 1.81000 26.95100
H  14.31600 2.85600 26.40400
H  14.85000 0.51800 32.44900
H  17.08100 3.72900 34.14200
H  16.60800 2.52300 35.46200
H  15.63500 3.92300 35.13600

