158

Mg 49.15100 45.37200 42.68000
C  45.79500 46.07500 41.61400
C  48.71100 42.28600 41.23500
C  52.39700 45.25700 42.77000
C  49.39400 48.99300 43.29500
N  47.41500 44.36100 41.49600
C  46.14300 44.79400 41.27800
C  45.31500 43.71700 40.57900
C  46.16700 42.46000 40.71100
C  47.51700 43.04700 41.03200
C  45.69900 41.50300 41.82700
C  44.88500 44.10000 39.08400
C  45.86200 44.93900 38.24800
H  45.73800 44.88500 36.78000
N  50.34500 43.89000 42.31300
C  50.03000 42.66100 41.74500
C  51.26900 41.88900 41.80400
C  52.29900 42.69300 42.30400
C  51.74000 44.00300 42.55700
C  51.30300 40.40700 41.40800
C  53.69000 42.14800 42.51500
O  54.04400 41.04900 42.01700
C  54.77500 42.80300 43.35900
N  50.57700 46.93400 43.03900
C  51.88700 46.56000 43.00100
C  52.84700 47.71000 43.19200
C  51.87600 48.94900 43.49800
C  50.53300 48.30900 43.23200
C  54.11800 47.41900 44.05700
C  52.06700 50.21600 42.61800
C  51.93300 51.61900 43.23600
N  47.84300 47.11800 42.69000
C  48.10300 48.45300 43.01600
C  46.86300 49.22700 43.01700
C  45.88000 48.30300 42.52300
C  46.57700 47.05500 42.22500
C  46.75100 50.58500 43.50000
C  44.53800 48.25600 42.11500
O  43.66900 49.14300 42.10400
C  44.41400 46.83600 41.47400
C  43.29700 46.02000 41.94900
O  42.36300 45.61800 41.27200
O  43.22000 46.06000 43.29500
C  42.06400 45.40000 43.88000
H  48.65200 41.26400 40.85500
H  53.47700 45.26000 42.92600
H  49.41300 50.08500 43.28300
H  44.39900 43.57200 41.15200
H  46.28000 41.91100 39.77500
H  46.55300 41.13500 42.39500
H  45.08300 40.73200 41.36300
H  45.10400 41.99400 42.59700
H  43.90300 44.57200 39.07100
H  44.62700 43.17900 38.56100
H  46.86600 44.66100 38.57000
H  45.65300 45.96500 38.54900
H  51.26300 39.82500 42.32900
H  52.22600 39.99500 41.00100
H  50.52100 40.15200 40.69300
H  55.57500 42.07800 43.51200
H  54.36300 43.15200 44.30600
H  55.12400 43.59600 42.69800
H  53.10500 47.85600 42.14300
H  52.05300 49.15600 44.55300
H  54.91200 47.23900 43.33200
H  54.02200 46.54600 44.70200
H  54.28100 48.28200 44.70200
H  51.21500 50.20900 41.93900
H  52.90500 50.18600 41.92200
H  52.94700 52.01800 43.26200
H  51.62600 51.65600 44.28100
H  51.28100 52.22400 42.60500
H  45.87400 50.66500 44.14300
H  46.54600 51.26500 42.67300
H  47.63600 50.80800 44.09500
H  44.17200 46.99800 40.42300
H  41.66700 44.57600 43.28700
H  41.33000 46.19800 43.99500
H  42.42200 45.02600 44.83900
Mg 48.52700 34.39000 27.12800
C  46.67700 33.23400 29.95700
C  48.98500 37.30000 29.06200
C  49.96400 35.81700 24.46300
C  47.53600 31.71300 25.38700
N  47.92000 35.13000 29.34800
C  47.35900 34.43000 30.33000
C  47.56500 35.10400 31.73100
C  47.70900 36.58800 31.30300
C  48.24000 36.36700 29.82800
C  46.34600 37.36000 31.43400
C  48.77600 34.47000 32.44300
C  48.65700 34.16900 33.96000
H  47.69500 35.06900 34.75700
N  49.33000 36.29700 26.79900
C  49.45700 37.35000 27.73400
C  50.24500 38.44800 27.18400
C  50.54100 38.00800 25.76800
C  49.96000 36.65600 25.60400
C  50.78900 39.56900 27.92900
C  51.35100 38.75800 24.72200
O  51.50600 38.27100 23.62900
C  52.03000 40.02300 25.00000
N  48.63100 33.88300 25.13400
C  49.40800 34.51800 24.28900
C  49.50500 33.73000 22.98000
C  48.73100 32.41200 23.29700
C  48.27100 32.68700 24.73300
C  48.92900 34.39100 21.76900
C  49.63500 31.15200 23.22100
C  50.72500 31.06200 24.38300
N  47.25600 32.88900 27.49900
C  47.06300 31.79300 26.72100
C  46.29600 30.79300 27.49500
C  46.07500 31.38300 28.71700
C  46.69200 32.65300 28.70400
C  45.88600 29.45300 26.99000
C  45.47600 31.16100 30.01200
O  44.87700 30.22400 30.44600
C  45.65400 32.43600 30.79400
C  46.01500 32.02500 32.19000
O  47.12200 31.59300 32.50500
O  44.98900 32.28500 33.08100
C  45.06400 32.00900 34.49000
H  49.29200 38.21600 29.57100
H  50.36000 36.25900 23.54700
H  47.44400 30.82700 24.75600
H  46.60100 34.88100 32.18800
H  48.56600 37.02400 31.81600
H  45.64400 36.89000 32.12300
H  45.94400 37.55800 30.44100
H  46.51300 38.35400 31.84900
H  49.65800 35.07400 32.23100
H  48.96800 33.52900 31.92800
H  49.69700 34.18800 34.28800
H  48.29200 33.17000 34.19900
H  50.47900 39.74300 28.96000
H  50.68800 40.45900 27.30800
H  51.86700 39.41000 27.95800
H  52.56000 40.34600 24.10400
H  52.74600 39.95500 25.81900
H  51.19200 40.66900 25.26500
H  50.48700 33.28300 22.82400
H  47.78200 32.28200 22.77600
H  48.91100 35.46400 21.96400
H  48.01300 33.97700 21.34600
H  49.66700 34.16100 21.00100
H  50.11800 31.23700 22.24800
H  48.98800 30.27800 23.29700
H  50.38400 30.29400 25.07800
H  50.90700 31.91700 25.03500
H  51.62500 30.70800 23.88100
H  46.32200 29.22600 26.01700
H  44.82000 29.56000 26.79400
H  46.19300 28.67900 27.69300
H  44.62600 32.79300 30.85400
H  44.16500 31.53300 34.88300
H  45.27200 32.95600 34.99000
H  45.91200 31.35500 34.69400

