158

Mg 1.86600 -1.42200 42.16900
C  5.38100 -0.83300 41.78800
C  1.24800 1.47200 40.58000
C  -1.30300 -2.37900 41.82100
C  2.71300 -4.57000 43.37300
N  3.20400 0.10000 41.35100
C  4.53400 0.22000 41.42900
C  4.97500 1.57300 40.78500
C  3.63700 2.32800 40.69000
C  2.57200 1.27300 40.91000
C  3.48500 3.65100 41.58000
C  5.81400 1.53500 39.42900
C  5.74000 0.22100 38.57900
H  5.36500 0.27200 37.12600
N  0.19200 -0.56200 41.30100
C  0.13300 0.61200 40.71700
C  -1.22400 0.93400 40.34600
C  -2.01100 -0.13600 40.73200
C  -1.07500 -1.09000 41.34700
C  -1.56800 2.13200 39.54000
C  -3.50800 -0.28400 40.63400
O  -4.18000 0.54700 40.04200
C  -4.34100 -1.43500 41.18300
N  0.86800 -3.32500 42.55000
C  -0.50500 -3.37400 42.43100
C  -1.00600 -4.86900 42.64400
C  0.35100 -5.52800 43.30000
C  1.41300 -4.39500 43.17500
C  -2.39200 -5.08500 43.34800
C  0.70400 -6.83600 42.58400
C  0.93900 -7.98200 43.58500
N  3.67100 -2.48200 42.71500
C  3.84600 -3.75700 43.14300
C  5.23000 -4.08600 43.23300
C  5.87300 -2.95400 42.70000
C  4.87700 -1.99900 42.38100
C  5.78300 -5.38600 43.64200
C  7.15500 -2.38200 42.44900
O  8.34200 -2.76600 42.66500
C  6.90800 -0.99600 41.76000
C  7.58400 0.00900 42.52200
O  8.48700 0.70900 42.07900
O  7.17000 0.04700 43.81600
C  7.69900 1.20400 44.55600
H  0.93200 2.46100 40.24000
H  -2.30800 -2.75800 41.62300
H  3.07200 -5.54500 43.71100
H  5.66100 1.98000 41.52700
H  3.56600 2.64100 39.64800
H  4.21000 4.38300 41.22500
H  3.53000 3.37700 42.63400
H  2.48100 4.05100 41.43500
H  6.84300 1.58700 39.78500
H  5.61400 2.39200 38.78500
H  5.03800 -0.35600 39.18000
H  6.71700 -0.26200 38.57100
H  -0.76200 2.82600 39.29900
H  -2.31000 2.68700 40.11500
H  -2.06000 1.72700 38.65600
H  -5.39400 -1.23500 40.98900
H  -4.11000 -1.42500 42.24900
H  -4.07200 -2.40200 40.76000
H  -1.07500 -5.13500 41.58900
H  0.15200 -5.74900 44.34800
H  -2.13200 -5.74500 44.17500
H  -3.22200 -5.55800 42.82300
H  -2.69600 -4.07900 43.63800
H  1.60900 -6.67000 41.99900
H  -0.08900 -7.25400 41.96500
H  1.99800 -8.23100 43.51200
H  0.29100 -8.78900 43.24600
H  0.75300 -7.63400 44.60200
H  6.84100 -5.26200 43.87300
H  5.58000 -6.11700 42.85900
H  5.24700 -5.80200 44.49500
H  7.32500 -0.99600 40.75200
H  7.34100 1.15700 45.58400
H  7.38700 2.16400 44.14200
H  8.77800 1.29700 44.67900
Mg 6.11400 53.67200 41.72600
C  5.67400 50.31500 40.87400
C  9.25100 53.56000 40.51000
C  6.10100 57.05300 41.58800
C  2.57100 53.83100 42.57800
N  7.17200 52.09900 40.58300
C  6.90900 50.78100 40.43700
C  8.02400 50.05000 39.91200
C  9.25500 51.00000 40.16700
C  8.54700 52.33000 40.46900
C  10.26000 50.45400 41.32600
C  7.93200 49.58300 38.43500
C  7.14700 50.45800 37.41200
H  7.18700 49.95600 35.95200
N  7.53600 55.13200 41.16900
C  8.80100 54.86900 40.78100
C  9.55300 56.08500 40.64700
C  8.73700 57.14100 41.12100
C  7.39300 56.46500 41.35700
C  10.92500 56.09600 40.01900
C  9.10100 58.62100 41.23600
O  10.25700 58.95100 41.17400
C  8.07400 59.60000 41.56500
N  4.52200 55.24200 42.02100
C  4.87200 56.50600 41.87900
C  3.61200 57.39100 42.13600
C  2.51100 56.38700 42.63000
C  3.18100 55.04900 42.30500
C  3.80400 58.73300 42.90400
C  1.05000 56.64800 42.20900
C  0.00800 56.29000 43.27400
N  4.49600 52.36800 41.90900
C  3.17900 52.58200 42.30500
C  2.61300 51.22500 42.47200
C  3.48700 50.33800 41.87900
C  4.64400 51.10000 41.50700
C  1.38200 50.87000 43.36500
C  3.76000 48.92800 41.57500
O  3.05300 47.99100 41.89300
C  5.14300 48.86600 40.88700
C  5.02800 48.09100 39.59600
O  4.44800 48.46100 38.60600
O  5.60700 46.81200 39.72400
C  5.45900 45.95600 38.59900
H  10.29500 53.47800 40.19900
H  6.08600 58.13400 41.43300
H  1.52300 53.92700 42.86900
H  8.11900 49.13300 40.49400
H  9.95600 51.09000 39.33700
H  10.42600 51.25700 42.04400
H  11.23900 50.23700 40.89800
H  9.99000 49.56000 41.88800
H  7.37100 48.66000 38.28900
H  8.95800 49.36600 38.13900
H  7.67600 51.41000 37.45900
H  6.14800 50.78600 37.69800
H  10.94500 56.11900 38.92900
H  11.40400 55.18400 40.37600
H  11.47300 56.95300 40.41200
H  8.60800 60.53000 41.76000
H  7.70800 59.27100 42.53800
H  7.34000 59.70900 40.76700
H  3.41400 57.79700 41.14400
H  2.67900 56.59400 43.68700
H  3.38600 59.58100 42.36100
H  4.86500 58.97800 42.94200
H  3.49000 58.69500 43.94700
H  0.80000 56.00500 41.36600
H  1.14300 57.67500 41.85400
H  -0.56200 57.20900 43.40400
H  0.55800 56.05500 44.18500
H  -0.70700 55.53700 42.94100
H  0.94000 49.98300 42.91200
H  0.64900 51.67000 43.46900
H  1.76200 50.63200 44.35800
H  5.79700 48.24400 41.49800
H  4.95100 45.04600 38.91800
H  6.44300 45.61900 38.27100
H  4.94200 46.36300 37.73000

