158

Mg 15.45600 52.21700 26.25400
C  17.67300 51.46500 28.77200
C  12.94100 52.62400 28.53700
C  13.23900 52.38000 23.70600
C  18.05300 51.28600 23.89900
N  15.34600 51.91200 28.36700
C  16.36000 51.68800 29.25100
C  15.94900 52.01700 30.65400
C  14.40500 51.83900 30.53300
C  14.19700 52.19500 29.05100
C  13.88300 50.45200 30.99300
C  16.54100 53.40100 31.11900
C  16.56500 53.78900 32.57500
H  15.72900 52.90500 33.49900
N  13.37000 52.47400 26.09900
C  12.56600 52.74300 27.13200
C  11.21800 53.12600 26.69700
C  11.27900 52.99700 25.26700
C  12.64300 52.47200 24.96900
C  10.14400 53.66100 27.62100
C  10.15000 53.22000 24.27900
O  10.33900 52.94700 23.12100
C  8.87900 53.72800 24.70900
N  15.58600 51.98100 24.14200
C  14.54500 52.18900 23.31500
C  14.95800 52.12900 21.90300
C  16.48200 51.78200 21.90900
C  16.72400 51.65600 23.38500
C  14.01700 51.15000 21.06700
C  17.34600 52.88700 21.22400
C  18.18200 52.52100 20.01700
N  17.54300 51.57600 26.29500
C  18.48100 51.26600 25.25600
C  19.68000 50.78300 25.89100
C  19.39800 50.89400 27.25800
C  18.10900 51.44400 27.47100
C  20.97000 50.37200 25.28700
C  19.96100 50.71900 28.59500
O  21.06000 50.25600 28.92000
C  18.93900 51.12900 29.62600
C  18.76400 50.02300 30.62600
O  18.48900 48.84800 30.41600
O  18.93400 50.54300 31.91600
C  18.81600 49.61300 32.99700
H  12.17300 52.80700 29.29100
H  12.72600 52.68200 22.79100
H  18.83100 50.95400 23.20900
H  16.42800 51.27300 31.29100
H  13.81300 52.58400 31.06500
H  14.65200 49.69000 30.86500
H  12.97600 50.20300 30.44200
H  13.67000 50.64000 32.04500
H  15.97800 54.15700 30.57100
H  17.54100 53.34400 30.69000
H  16.26600 54.83500 32.65500
H  17.62000 53.75400 32.84800
H  10.23300 53.20100 28.60600
H  9.18300 53.19600 27.40000
H  10.12500 54.75100 27.63300
H  8.54900 52.98600 25.43700
H  8.17500 53.78700 23.87900
H  9.01300 54.69900 25.18400
H  14.55400 53.08000 21.55800
H  16.52100 50.75300 21.55000
H  14.57300 50.58000 20.32200
H  13.21300 51.74500 20.63300
H  13.67600 50.41800 21.79900
H  18.09100 53.36700 21.85900
H  16.67800 53.73900 21.10400
H  18.00000 51.48200 19.74000
H  19.23300 52.56600 20.30400
H  17.93900 53.28800 19.28100
H  20.92500 50.75500 24.26800
H  20.90800 49.28400 25.33300
H  21.78500 50.79900 25.87100
H  19.20400 51.96200 30.27700
H  17.87000 49.07400 32.94600
H  18.83900 50.16500 33.93600
H  19.65200 48.91500 33.03400
Mg 9.05000 47.57900 25.64200
C  6.77900 47.75300 28.32600
C  11.45300 48.84200 27.79700
C  11.02700 47.46300 23.03200
C  6.31100 47.09700 23.49500
N  9.03000 48.21800 27.80700
C  8.05600 48.10800 28.75000
C  8.61000 48.47200 30.11900
C  9.91900 49.28000 29.74700
C  10.20300 48.72900 28.35700
C  9.81000 50.86500 29.87600
C  8.65000 47.39000 31.20100
C  7.88200 47.49500 32.50800
H  8.17200 46.34100 33.49100
N  11.01900 48.11200 25.46000
C  11.87100 48.54000 26.43200
C  13.16100 48.86300 25.87700
C  13.13000 48.27900 24.56600
C  11.66100 47.90800 24.27500
C  14.34600 49.40500 26.76600
C  14.24200 48.10100 23.58700
O  14.05000 47.50700 22.55000
C  15.52500 48.22800 24.14400
N  8.74400 47.03400 23.54200
C  9.74300 47.06100 22.71700
C  9.29000 46.92300 21.25900
C  7.79700 47.15000 21.34200
C  7.58600 47.00400 22.84700
C  9.97800 47.73200 20.17800
C  6.96300 46.12600 20.54900
C  6.57500 46.58000 19.15300
N  6.96200 47.42300 25.78100
C  5.96600 47.16400 24.85500
C  4.65900 47.24700 25.45200
C  4.98300 47.34400 26.81700
C  6.40800 47.48600 26.95200
C  3.38200 47.06800 24.79700
C  4.36300 47.33400 28.16800
O  3.20500 47.12300 28.44400
C  5.55400 47.52600 29.23100
C  5.62000 46.26400 30.03400
O  6.30600 45.29800 29.70800
O  4.85300 46.39000 31.09700
C  4.79000 45.24100 32.04800
H  12.15900 49.21400 28.54200
H  11.76200 47.33100 22.23600
H  5.37900 47.06700 22.92500
H  7.88200 49.21600 30.44200
H  10.79000 48.98100 30.33200
H  8.87000 51.11400 30.36800
H  9.69000 51.23000 28.85600
H  10.58800 51.41600 30.40300
H  9.70400 47.31900 31.47000
H  8.36700 46.40700 30.82600
H  6.83700 47.50900 32.20000
H  7.98900 48.50900 32.89300
H  13.97500 49.57900 27.77600
H  14.91500 50.22400 26.32600
H  14.94500 48.51900 26.97300
H  15.72100 49.12000 24.73900
H  16.11000 48.32400 23.22900
H  15.74600 47.30600 24.68300
H  9.38500 45.85900 21.03900
H  7.59300 48.18600 21.07100
H  9.38100 48.31500 19.47700
H  10.60300 46.99800 19.66900
H  10.65300 48.41900 20.69000
H  6.10500 45.81100 21.14200
H  7.51400 45.18600 20.51500
H  5.56700 46.21900 18.94900
H  7.24100 46.12000 18.42300
H  6.59800 47.65900 19.00000
H  2.97500 48.07200 24.91700
H  2.88900 46.24900 25.32000
H  3.47700 46.80800 23.74300
H  5.31900 48.32500 29.93400
H  3.94600 44.57600 31.86700
H  4.49600 45.61500 33.02900
H  5.78800 44.84400 32.23500

