158

Mg 35.40000 49.85300 25.43500
C  35.05100 48.14200 28.46900
C  34.30300 52.70400 27.23500
C  35.22500 51.40300 22.49500
C  36.07700 46.78200 23.81500
N  34.84500 50.40200 27.68400
C  34.84700 49.49700 28.71000
C  34.62000 50.18100 30.06300
C  34.33200 51.66800 29.64400
C  34.48700 51.67200 28.12100
C  32.90000 52.21900 30.06000
C  35.80300 50.01200 31.10400
C  35.36700 49.73700 32.54100
H  33.88100 49.88800 33.00000
N  34.89400 51.75000 24.94400
C  34.45800 52.73800 25.81100
C  34.02800 53.87600 24.96700
C  34.40900 53.62600 23.63100
C  34.90900 52.18800 23.63800
C  33.35100 55.13100 25.46600
C  34.37400 54.49100 22.46200
O  34.82700 54.17100 21.36300
C  33.74600 55.80800 22.46500
N  35.76400 49.23500 23.43600
C  35.64600 50.02600 22.35100
C  35.79600 49.28300 21.03000
C  36.24100 47.82500 21.51100
C  36.05500 47.97400 23.02500
C  34.52200 49.23000 20.11400
C  37.68000 47.57300 21.01300
C  38.86200 48.37800 21.61800
N  35.54100 47.90600 25.93400
C  35.83700 46.73200 25.27400
C  35.79000 45.50600 26.09600
C  35.54000 46.00500 27.36000
C  35.38400 47.48100 27.21300
C  36.13300 44.14800 25.68500
C  35.43400 45.61100 28.77500
O  35.57000 44.52800 29.34700
C  35.08400 46.95800 29.53500
C  33.79900 46.72600 30.23900
O  32.67500 46.89900 29.81300
O  34.02500 46.07000 31.47700
C  32.79400 45.56300 32.17000
H  34.17400 53.68000 27.70600
H  35.29300 51.96300 21.56000
H  36.25000 45.78800 23.39700
H  33.64100 49.86800 30.42500
H  35.13800 52.17700 30.17200
H  32.23000 52.44400 29.23100
H  33.04200 53.10600 30.67900
H  32.26000 51.46700 30.52100
H  36.32200 50.96900 31.15800
H  36.50200 49.24000 30.78000
H  36.10200 50.26600 33.14700
H  35.50600 48.68700 32.79700
H  34.00300 55.97000 25.22500
H  33.05600 55.18100 26.51400
H  32.40200 55.27500 24.94900
H  34.26300 56.46900 23.16000
H  32.72500 55.66200 22.81800
H  33.88500 56.23600 21.47300
H  36.56400 49.67000 20.36200
H  35.53400 47.11900 21.07700
H  34.16500 48.20500 20.01700
H  34.63900 49.77900 19.17900
H  33.67100 49.69500 20.61100
H  37.56000 47.55500 19.93000
H  37.79400 46.55100 21.37400
H  39.43400 48.87800 20.83700
H  39.63200 47.72500 22.03000
H  38.64400 49.17000 22.33500
H  36.95500 44.26100 24.97800
H  35.25300 43.62700 25.31000
H  36.49900 43.60500 26.55700
H  35.90000 46.95800 30.25700
H  32.14600 44.98600 31.51100
H  32.26700 46.44100 32.54300
H  33.12700 45.06800 33.08300
Mg -8.92700 18.46300 43.18600
C  -5.39900 18.24800 43.29900
C  -8.48900 21.95100 42.65900
C  -12.01500 18.71600 42.62900
C  -9.04400 14.92200 43.31100
N  -7.09100 19.92400 42.90800
C  -5.80900 19.51800 42.98700
C  -4.85100 20.74800 42.78900
C  -5.87200 21.98100 42.91300
C  -7.27100 21.27600 42.80900
C  -5.63200 22.93400 44.15600
C  -4.00900 20.66600 41.52600
C  -4.46500 19.69600 40.41900
H  -4.93700 20.45900 39.15000
N  -10.10900 20.12300 42.70900
C  -9.80400 21.46500 42.59700
C  -10.99500 22.18200 42.21600
C  -12.05200 21.22100 42.13600
C  -11.38900 19.97100 42.43600
C  -10.93900 23.55400 41.81900
C  -13.38100 21.47300 41.68900
O  -13.87900 22.59300 41.65300
C  -14.14700 20.35100 41.00200
N  -10.32100 16.99000 42.61100
C  -11.57900 17.34800 42.84300
C  -12.53100 16.09200 43.01500
C  -11.55800 14.92200 43.21700
C  -10.22700 15.65800 42.99000
C  -13.76900 16.17900 43.95000
C  -11.84000 13.68000 42.31700
C  -12.76900 12.72200 43.02200
N  -7.50600 16.85800 43.27900
C  -7.75300 15.49700 43.35100
C  -6.47300 14.81200 43.40300
C  -5.56400 15.85500 43.42800
C  -6.26000 17.09700 43.34600
C  -6.32700 13.36300 43.41200
C  -4.14600 16.14700 43.52000
O  -3.16200 15.45600 43.64100
C  -4.00200 17.70200 43.31400
C  -3.28300 18.20500 44.52700
O  -2.10800 18.58300 44.52600
O  -4.01600 18.13700 45.71400
C  -3.39000 18.70800 46.96400
H  -8.31900 23.02500 42.56500
H  -13.10700 18.71400 42.64400
H  -9.17400 13.94200 43.77600
H  -4.26500 20.71900 43.70800
H  -5.79200 22.48800 41.95100
H  -5.44000 23.95800 43.83700
H  -4.78600 22.67100 44.79200
H  -6.50200 22.97200 44.81200
H  -3.00400 20.42600 41.87200
H  -3.97200 21.63100 41.02200
H  -5.25100 19.02800 40.77100
H  -3.73300 18.95300 40.10300
H  -11.38000 24.22500 42.55700
H  -11.57700 23.59600 40.93600
H  -9.90800 23.86900 41.65900
H  -14.96600 19.85400 41.52200
H  -13.50900 19.63700 40.48100
H  -14.79700 20.85000 40.28200
H  -13.10200 15.86800 42.11400
H  -11.44300 14.63100 44.26100
H  -13.58900 15.56700 44.83400
H  -14.67600 15.81900 43.46600
H  -13.99800 17.20800 44.22600
H  -10.99900 13.06800 41.99300
H  -12.33600 14.07100 41.42800
H  -12.52400 11.66000 42.98900
H  -13.69000 12.75200 42.44000
H  -12.84100 13.03200 44.06400
H  -6.39000 12.90500 44.39900
H  -5.36700 12.95700 43.09300
H  -7.03900 12.89000 42.73600
H  -3.44000 17.94400 42.41200
H  -4.21100 18.74900 47.68000
H  -2.93000 19.69300 46.87600
H  -2.72000 17.97700 47.41700

