158

Mg 46.91700 14.79600 28.73100
C  45.14400 14.65400 31.69400
C  49.11900 16.97300 30.14300
C  48.66600 14.70500 25.81000
C  44.35600 12.86400 27.20000
N  46.96400 15.91800 30.67800
C  46.26800 15.56800 31.80100
C  46.91300 16.11900 33.12700
C  47.98400 17.04400 32.52500
C  48.06500 16.63300 30.99000
C  47.74600 18.51800 32.68200
C  47.43800 14.98300 34.11300
C  47.11500 15.23300 35.61400
H  48.26100 15.08100 36.55600
N  48.61400 15.78000 28.08900
C  49.41400 16.59600 28.84500
C  50.66400 16.89300 28.15900
C  50.54200 16.25700 26.86100
C  49.25900 15.51700 26.85400
C  51.82800 17.61200 28.80600
C  51.52300 16.24300 25.69000
O  51.31600 15.59000 24.73100
C  52.74100 17.04400 25.78600
N  46.48500 14.08300 26.64500
C  47.44700 13.89300 25.74300
C  46.88400 13.20200 24.49200
C  45.61800 12.52300 25.01300
C  45.43800 13.22300 26.36000
C  46.78300 14.25400 23.28200
C  45.67900 10.93600 25.01900
C  47.02400 10.29800 25.52200
N  45.03200 14.07700 29.24700
C  44.10500 13.26000 28.57800
C  43.06700 12.80900 29.50300
C  43.42400 13.34900 30.74100
C  44.62900 14.05800 30.55600
C  41.80300 12.13900 28.99000
C  42.98600 13.39000 32.06500
O  41.99200 12.95200 32.62300
C  44.06300 14.30100 32.76800
C  43.44200 15.59400 33.24900
O  43.14800 16.63900 32.63300
O  43.27700 15.48500 34.64300
C  42.77000 16.65200 35.34600
H  49.88000 17.58700 30.62900
H  49.23700 14.63900 24.88100
H  43.71900 12.09100 26.76400
H  46.10700 16.71300 33.56000
H  48.94100 16.90400 33.02800
H  46.97600 18.67200 33.43800
H  47.44200 19.12500 31.83000
H  48.63500 19.07500 32.97600
H  48.52400 14.92000 34.04000
H  47.07600 13.99700 33.82400
H  46.32100 14.51400 35.81200
H  46.73000 16.23100 35.82400
H  52.76900 17.20900 28.43000
H  51.81500 17.50100 29.89100
H  51.74800 18.66500 28.54000
H  52.55300 18.09200 26.01900
H  53.17500 17.00400 24.78700
H  53.47500 16.69000 26.51000
H  47.61400 12.47300 24.13900
H  44.76700 12.80500 24.39300
H  46.78600 15.25100 23.72100
H  46.10800 13.92500 22.49200
H  47.80300 14.25800 22.89600
H  45.46900 10.51800 24.03500
H  44.84300 10.48700 25.55500
H  47.48400 11.06800 26.14200
H  47.63700 9.97100 24.68200
H  46.77600 9.35700 26.01200
H  41.72500 12.01100 27.91000
H  40.95200 12.71500 29.35300
H  41.70500 11.16800 29.47600
H  44.43200 13.70800 33.60500
H  41.68400 16.55800 35.36500
H  43.07500 17.63300 34.98200
H  43.06200 16.51700 36.38800
Mg -10.37500 17.95900 43.35600
C  -7.15200 16.61700 42.67200
C  -9.00700 21.05300 42.35700
C  -13.52700 19.05700 42.99200
C  -11.57100 14.68500 43.55000
N  -8.27700 18.73100 42.63700
C  -7.15300 18.00800 42.50100
C  -6.00400 18.94300 42.12500
C  -6.61300 20.34300 42.24200
C  -8.03300 20.02900 42.52500
C  -5.91600 21.29600 43.19500
C  -5.20600 18.69400 40.78900
C  -5.92200 17.96500 39.52100
H  -5.45200 18.38100 38.12100
N  -11.15500 19.78000 42.80900
C  -10.43800 20.94100 42.48200
C  -11.39300 21.96900 42.25100
C  -12.68900 21.40600 42.38600
C  -12.52800 20.00100 42.79100
C  -11.00100 23.41300 41.98300
C  -14.12700 22.15900 42.26300
O  -14.15400 23.34700 41.90300
C  -15.47500 21.50300 42.67200
N  -12.35400 16.97400 43.21200
C  -13.48900 17.63900 43.24100
C  -14.69200 16.68700 43.49100
C  -14.04500 15.31600 43.70500
C  -12.61100 15.64600 43.54100
C  -15.57500 17.10200 44.69200
C  -14.61000 14.30500 42.56300
C  -15.07000 12.94500 43.04100
N  -9.54000 16.11300 43.32200
C  -10.18700 14.84300 43.36300
C  -9.15800 13.84000 43.34800
C  -7.94400 14.45400 43.12500
C  -8.27300 15.84300 43.02800
C  -9.44800 12.36000 43.54900
C  -6.42500 14.25500 42.91400
O  -5.86100 13.19000 42.95900
C  -5.96900 15.64700 42.58200
C  -4.91700 16.03800 43.52400
O  -3.76100 15.92900 43.27600
O  -5.36400 16.60000 44.71900
C  -4.36400 17.00800 45.75500
H  -8.58600 22.00800 42.03800
H  -14.58000 19.33900 42.93100
H  -11.83800 13.63600 43.68800
H  -5.33900 18.76600 42.97100
H  -6.65800 20.87600 41.29200
H  -5.18300 20.64300 43.67000
H  -6.73700 21.75200 43.74700
H  -5.49800 22.16300 42.68400
H  -4.26700 18.21400 41.06500
H  -4.95800 19.68300 40.40500
H  -7.00500 17.85500 39.57900
H  -5.38600 17.01700 39.57200
H  -11.14300 23.75200 40.95700
H  -9.96900 23.53300 42.31100
H  -11.53900 24.04300 42.69100
H  -15.30600 21.12300 43.68000
H  -15.83000 20.68700 42.04300
H  -16.24400 22.27300 42.60800
H  -15.30100 16.83200 42.59900
H  -14.32000 14.97900 44.70400
H  -15.21100 17.89300 45.34800
H  -15.81700 16.20900 45.26800
H  -16.44300 17.69000 44.39200
H  -13.83900 14.16600 41.80500
H  -15.39000 14.86800 42.05000
H  -14.47900 12.13400 42.61600
H  -16.12200 12.71100 42.87900
H  -14.78900 12.85800 44.09100
H  -10.19800 12.15400 44.31300
H  -8.50600 11.90700 43.85700
H  -9.62600 12.01500 42.53000
H  -5.50300 15.51600 41.60600
H  -4.55200 16.33400 46.59100
H  -4.48800 18.06100 46.00600
H  -3.28600 16.93500 45.61100

