158

Mg -1.41600 16.73000 26.12400
C  -1.85400 14.64000 28.84600
C  -2.43600 19.31400 27.96400
C  -1.63800 18.57400 23.33700
C  -1.46400 13.80900 23.99500
N  -2.14000 16.89000 28.11300
C  -2.15100 15.96700 29.11300
C  -2.48600 16.55300 30.50000
C  -3.01100 17.98400 30.09100
C  -2.62300 18.10600 28.59500
C  -4.50700 18.17300 30.35600
C  -1.27400 16.45500 31.52700
C  -1.12600 17.41700 32.66000
H  -0.65500 16.71400 33.92300
N  -1.59000 18.73700 25.70600
C  -1.98100 19.67400 26.65600
C  -1.83200 21.00300 26.02800
C  -1.54400 20.78000 24.62500
C  -1.58300 19.30600 24.51100
C  -1.92600 22.37600 26.84600
C  -1.30500 21.77300 23.50300
O  -1.06700 21.37200 22.34300
C  -1.22200 23.28600 23.70700
N  -1.61500 16.27500 24.05800
C  -1.52500 17.26200 23.09400
C  -1.51500 16.67900 21.67400
C  -1.28600 15.16700 21.92300
C  -1.50000 15.02300 23.42100
C  -2.92700 16.95500 20.90200
C  0.20700 14.64000 21.57800
C  1.37000 15.50300 22.17600
N  -1.53200 14.63900 26.33400
C  -1.55500 13.60500 25.39700
C  -1.47500 12.40700 26.06100
C  -1.52400 12.72700 27.43400
C  -1.64000 14.11000 27.55900
C  -1.48400 11.05400 25.55400
C  -1.69000 12.19500 28.78300
O  -1.74800 11.07100 29.17800
C  -1.74600 13.42400 29.80900
C  -0.56700 13.47300 30.71500
O  0.46100 14.00500 30.42400
O  -0.90700 12.87100 31.93700
C  0.04600 12.91000 33.04500
H  -2.70000 20.17200 28.58600
H  -1.64800 19.03300 22.34600
H  -1.24200 12.87300 23.47900
H  -3.27900 15.90500 30.87300
H  -2.35000 18.73200 30.52800
H  -4.98400 17.19400 30.40700
H  -4.87400 18.83000 29.56700
H  -4.68700 18.52000 31.37300
H  -0.38100 16.46500 30.90200
H  -1.36300 15.47800 32.00200
H  -2.02000 18.00900 32.85800
H  -0.34800 18.15900 32.48000
H  -0.98600 22.92400 26.78100
H  -2.17900 22.21000 27.89300
H  -2.60800 23.01400 26.28400
H  -2.11600 23.70400 24.17000
H  -1.09700 23.80400 22.75600
H  -0.34000 23.55100 24.28900
H  -0.67800 17.17200 21.18000
H  -1.95000 14.43600 21.46100
H  -3.43000 15.99300 20.79600
H  -2.68000 17.42400 19.95000
H  -3.45900 17.67200 21.52700
H  0.21900 14.74600 20.49300
H  0.27500 13.57700 21.80900
H  1.65600 16.13400 21.33500
H  2.23600 14.94200 22.52700
H  1.14800 16.13400 23.03600
H  -2.37200 10.58200 25.97400
H  -0.72800 10.50200 26.11100
H  -1.42800 10.98600 24.46700
H  -2.72500 13.40000 30.28800
H  0.28900 13.95000 33.26000
H  1.02300 12.51500 32.76500
H  -0.38300 12.48300 33.95100
Mg -4.35600 24.88200 26.06100
C  -2.80500 26.49800 28.81900
C  -5.34200 22.42700 28.36000
C  -5.47100 23.25500 23.47400
C  -2.86300 27.32100 23.98400
N  -4.04100 24.52800 28.32100
C  -3.59600 25.45900 29.20600
C  -3.94700 25.03200 30.68600
C  -4.41200 23.51100 30.51000
C  -4.58400 23.44900 28.93800
C  -3.44200 22.40900 31.02700
C  -5.20900 26.00700 31.00900
C  -5.44200 26.37500 32.52500
H  -5.26400 25.24700 33.56900
N  -5.24400 23.16800 25.92700
C  -5.67600 22.32800 27.01400
C  -6.32900 21.24300 26.38900
C  -6.41300 21.35300 24.99200
C  -5.72100 22.68200 24.74800
C  -6.77400 20.00800 27.15300
C  -7.06200 20.46100 23.99200
O  -6.97100 20.78700 22.78000
C  -7.90100 19.29700 24.42200
N  -4.34700 25.33700 24.03600
C  -4.83500 24.45900 23.15800
C  -4.48900 24.90700 21.67900
C  -3.90500 26.32700 21.90800
C  -3.65800 26.37500 23.41300
C  -3.53300 23.87300 20.97400
C  -4.66900 27.55100 21.30900
C  -4.97400 27.58500 19.76700
N  -3.08200 26.52400 26.24400
C  -2.51400 27.36000 25.33400
C  -1.52100 28.16600 25.98400
C  -1.64100 27.92500 27.39600
C  -2.58500 26.86300 27.47900
C  -0.72900 29.15800 25.23200
C  -1.13400 28.29200 28.67100
O  -0.28000 29.08600 28.99000
C  -1.93800 27.44400 29.65400
C  -1.10100 26.70300 30.70500
O  -0.46700 25.66600 30.51100
O  -1.22900 27.37900 31.89500
C  -0.40600 26.81200 32.96900
H  -5.82100 21.78300 29.10000
H  -5.78700 22.74900 22.55900
H  -2.58300 28.09700 23.26900
H  -3.10400 25.05800 31.37600
H  -5.29200 23.41000 31.14600
H  -2.76600 22.86700 31.74900
H  -2.75900 21.97700 30.29600
H  -3.99000 21.62600 31.55100
H  -6.14900 25.60300 30.63400
H  -5.12600 27.00100 30.56900
H  -6.52100 26.52900 32.54100
H  -4.83100 27.22500 32.83000
H  -7.83400 19.89000 26.93000
H  -6.57400 20.21000 28.20600
H  -6.24800 19.11900 26.80400
H  -7.38400 18.48000 24.92500
H  -8.54600 18.91000 23.63300
H  -8.70000 19.58800 25.10400
H  -5.34900 24.98500 21.01400
H  -2.89600 26.39400 21.49900
H  -3.18800 23.04100 21.58700
H  -2.61100 24.34000 20.62900
H  -4.13800 23.38100 20.21200
H  -4.09000 28.44500 21.54100
H  -5.66300 27.69600 21.73300
H  -4.11100 27.07500 19.33900
H  -4.93800 28.66500 19.62000
H  -5.95100 27.21600 19.45700
H  -1.33800 29.72400 24.52700
H  0.02800 28.58300 24.69900
H  -0.27700 29.88100 25.91100
H  -2.54500 28.11800 30.25800
H  0.66800 26.97500 32.87000
H  -0.54000 25.73800 33.10100
H  -0.43900 27.35300 33.91400

