158

Mg 40.34800 9.42200 30.78500
C  42.20200 10.68500 33.40500
C  38.02800 8.25800 32.89800
C  38.62400 8.11600 28.08300
C  42.99000 10.02600 28.60400
N  40.23500 9.37100 32.92000
C  40.97400 10.15400 33.83500
C  40.29700 10.27300 35.17500
C  39.10200 9.28500 35.06800
C  39.08700 8.89600 33.55900
C  39.28800 8.03500 35.99500
C  39.92200 11.73000 35.62500
C  39.37400 11.98800 36.99700
H  40.17500 12.92500 37.90200
N  38.55100 8.39500 30.48900
C  37.75200 7.91800 31.57600
C  36.71300 7.07600 31.03200
C  36.93000 6.94800 29.66000
C  38.10500 7.83500 29.34400
C  35.63600 6.48700 31.84300
C  36.12400 6.17500 28.65600
O  36.51500 6.05400 27.53400
C  34.94900 5.40500 29.02400
N  40.65600 9.27400 28.59600
C  39.73800 8.84300 27.66900
C  40.26300 8.86000 26.25400
C  41.64000 9.53700 26.40200
C  41.79400 9.56600 27.98900
C  40.19100 7.48900 25.50800
C  41.83400 10.97300 25.85400
C  40.61700 11.89000 26.00900
N  42.19200 10.16700 30.93900
C  43.25100 10.26800 30.00200
C  44.40500 10.72500 30.63300
C  44.03000 11.08900 31.94000
C  42.70800 10.63400 32.08100
C  45.73200 10.96100 29.94100
C  44.42100 11.76600 33.19100
O  45.46000 12.33100 33.55200
C  43.27400 11.51200 34.23500
C  43.77200 10.79100 35.45400
O  43.97200 9.60700 35.60400
O  43.68500 11.58100 36.56500
C  43.76900 10.83800 37.80200
H  37.36200 7.85700 33.66500
H  38.01300 7.73400 27.26300
H  43.88200 10.17200 27.99100
H  41.06300 9.92600 35.86800
H  38.17300 9.71100 35.44500
H  40.12500 7.43100 35.64500
H  38.31000 7.55600 36.01600
H  39.46400 8.52900 36.95000
H  39.25500 12.20800 34.90800
H  40.86100 12.27200 35.51700
H  39.23500 11.03600 37.51000
H  38.39800 12.46000 36.88100
H  34.65400 6.79200 31.48200
H  35.75100 6.58100 32.92300
H  35.59500 5.40900 31.68200
H  34.33100 6.13600 29.54400
H  35.34200 4.62700 29.67900
H  34.43400 4.91600 28.19700
H  39.48800 9.34900 25.66300
H  42.44500 8.96200 25.94400
H  39.54100 7.50700 24.63300
H  39.78800 6.64100 26.06100
H  41.18800 7.21900 25.15900
H  41.95600 10.78700 24.78700
H  42.79600 11.39200 26.15100
H  39.90300 11.59800 26.77900
H  40.08400 11.99500 25.06500
H  40.97100 12.87500 26.31100
H  46.13700 10.03800 29.52500
H  46.44600 11.57400 30.49100
H  45.41900 11.58900 29.10700
H  42.99100 12.53400 34.48800
H  43.82100 11.66100 38.51400
H  44.69800 10.27700 37.89900
H  42.84900 10.26300 37.91500
Mg 27.34200 50.52200 26.86700
C  25.05700 51.64800 29.45500
C  29.52000 49.67100 29.20900
C  29.31300 49.78500 24.34600
C  24.89700 51.75200 24.57800
N  27.24900 50.65200 29.05300
C  26.18500 50.94600 29.90500
C  26.59100 50.64400 31.31500
C  28.07300 50.19100 31.20200
C  28.28900 50.11500 29.74000
C  29.04700 51.25200 31.93300
C  25.74300 49.65300 32.15600
C  25.07500 50.08600 33.48600
H  25.91100 50.23800 34.68700
N  29.21600 49.84600 26.77100
C  29.94000 49.42200 27.84000
C  31.18000 48.78300 27.38600
C  31.20600 48.82900 25.96300
C  29.91300 49.52900 25.64000
C  32.10000 48.17500 28.32500
C  32.10300 48.23600 24.93700
O  31.90900 48.39100 23.75100
C  33.22100 47.42200 25.35000
N  27.19600 50.81300 24.77100
C  28.13200 50.31600 23.94100
C  27.68300 50.57800 22.48600
C  26.20700 50.88000 22.59000
C  26.01800 51.14800 24.09100
C  28.42700 51.67000 21.66400
C  25.18500 49.80400 22.07700
C  25.41200 48.34500 22.36600
N  25.50100 51.62900 26.98500
C  24.62500 52.09100 25.98100
C  23.59700 52.89300 26.55500
C  23.76600 52.70100 27.93300
C  24.87700 51.96100 28.12100
C  22.59100 53.71600 25.82100
C  23.11300 52.94900 29.19900
O  22.17000 53.59700 29.53200
C  24.00500 52.29800 30.24700
C  24.52900 53.40800 31.08500
O  25.58800 54.02400 30.90500
O  23.73700 53.46000 32.23800
C  24.03000 54.40000 33.28600
H  30.19000 49.27300 29.97400
H  29.91900 49.44800 23.50300
H  24.07700 52.04600 23.92000
H  26.50500 51.61200 31.80900
H  28.28000 49.17200 31.52800
H  28.54900 52.15100 32.29700
H  29.84800 51.54800 31.25600
H  29.59900 50.75400 32.72900
H  26.26300 48.70400 32.28400
H  24.95800 49.36700 31.45600
H  24.30700 49.40400 33.85200
H  24.70600 51.09100 33.28300
H  32.13500 47.08900 28.23900
H  31.82200 48.15400 29.37800
H  33.04900 48.70900 28.26300
H  33.61800 47.12100 24.38000
H  32.81800 46.49500 25.76000
H  33.93800 48.03700 25.89400
H  27.90200 49.61300 22.02900
H  25.87300 51.76200 22.04300
H  28.89800 51.22100 20.78900
H  29.26700 52.00900 22.27000
H  27.84600 52.57900 21.51300
H  25.17400 49.90500 20.99200
H  24.16900 50.06100 22.37500
H  25.76800 47.78600 21.50000
H  24.45400 47.91200 22.65500
H  26.08700 48.17300 23.20500
H  22.38800 53.17400 24.89700
H  23.00900 54.69700 25.59400
H  21.68800 53.89600 26.40400
H  23.46500 51.51300 30.77600
H  23.09900 54.91500 33.52500
H  24.76000 55.13800 32.95300
H  24.47600 53.87600 34.13200

