158

Mg 9.67300 48.33200 26.21200
C  7.42100 48.68100 28.89500
C  12.15700 49.57400 28.08400
C  11.54100 48.24900 23.44800
C  6.71400 47.95100 24.12000
N  9.70900 49.08300 28.17800
C  8.75800 48.88400 29.14900
C  9.44000 49.29900 30.52900
C  10.70000 50.12900 30.17500
C  10.85500 49.64900 28.66500
C  10.33800 51.59600 30.30200
C  9.76900 47.91800 31.20200
C  9.79600 47.94200 32.72400
H  9.22500 46.75500 33.46900
N  11.65900 48.79700 25.86000
C  12.58300 49.16500 26.80600
C  13.91400 49.05000 26.20700
C  13.70700 48.82800 24.78500
C  12.27500 48.60600 24.65400
C  15.26100 49.24800 26.93400
C  14.70900 48.60700 23.61000
O  14.45300 48.37600 22.43200
C  16.10900 48.82100 23.82200
N  9.12200 48.31600 24.02700
C  10.17100 48.20800 23.14700
C  9.57800 47.87500 21.69200
C  8.06200 47.63300 22.02900
C  7.93900 47.92400 23.50700
C  9.87900 48.93100 20.66000
C  7.51100 46.16300 21.63800
C  8.47900 44.97800 21.84000
N  7.56600 48.02600 26.43600
C  6.47500 47.93400 25.50300
C  5.20800 47.85600 26.16300
C  5.51900 48.17100 27.52800
C  6.93200 48.35800 27.59500
C  3.89200 47.58000 25.58800
C  5.00000 48.28800 28.90000
O  3.86000 48.10100 29.26000
C  6.27500 48.61100 29.86100
C  6.34600 47.42000 30.77800
O  6.97100 46.40400 30.62800
O  5.32900 47.54700 31.72500
C  5.04100 46.29000 32.48700
H  13.01000 49.75500 28.74100
H  12.20000 48.12100 22.58600
H  5.81800 47.91100 23.49700
H  8.65900 49.77600 31.12000
H  11.52400 49.83500 30.82500
H  9.67300 51.85200 29.47700
H  11.11600 52.36000 30.31600
H  9.79600 51.79200 31.22700
H  10.74200 47.59200 30.83700
H  9.10600 47.12400 30.85600
H  9.06200 48.71700 32.94500
H  10.82300 48.11400 33.04300
H  15.00000 49.58700 27.93600
H  15.60300 50.15000 26.42700
H  15.98600 48.43400 26.89500
H  16.54900 47.99000 24.37400
H  16.36700 49.75200 24.32500
H  16.78500 48.70300 22.97400
H  10.10200 46.97900 21.35700
H  7.42200 48.37200 21.54600
H  9.02000 49.53000 20.35600
H  10.28800 48.35400 19.83200
H  10.61500 49.58500 21.12800
H  7.13700 46.22400 20.61500
H  6.54400 46.00300 22.11500
H  8.72500 44.73700 20.80600
H  7.88700 44.16700 22.26400
H  9.27100 45.16600 22.56500
H  3.21600 47.29700 26.39600
H  4.17500 46.74500 24.94700
H  3.45400 48.39900 25.01900
H  5.93500 49.53700 30.32500
H  5.50800 46.26300 33.47100
H  5.51600 45.40200 32.06900
H  3.96200 46.16900 32.58700
Mg -5.55300 26.18100 25.61000
C  -3.81200 27.59900 28.33300
C  -7.12700 24.04100 27.76900
C  -6.63500 24.59900 22.95000
C  -3.69900 28.44100 23.46700
N  -5.52800 25.95700 27.78900
C  -4.72200 26.60500 28.69200
C  -5.14600 26.30400 30.09800
C  -5.96800 24.94200 29.92700
C  -6.29400 25.01600 28.40900
C  -5.20900 23.62900 30.27300
C  -6.09000 27.37800 30.65400
C  -5.70600 27.92800 32.06200
H  -4.97000 27.06400 33.08700
N  -6.65900 24.49000 25.41800
C  -7.28500 23.79900 26.38400
C  -8.10600 22.71500 25.83700
C  -7.96800 22.83600 24.42700
C  -7.07400 24.01300 24.20400
C  -8.96000 21.74900 26.65700
C  -8.65000 22.00000 23.35400
O  -8.44500 22.23500 22.18400
C  -9.64700 20.88900 23.66900
N  -5.15700 26.49400 23.46400
C  -5.83300 25.72900 22.58000
C  -5.56800 26.17300 21.07800
C  -4.70300 27.43400 21.33900
C  -4.52500 27.51000 22.82500
C  -4.83600 25.04500 20.34300
C  -5.29500 28.74000 20.67200
C  -4.37000 29.49500 19.72700
N  -3.97700 27.64900 25.82900
C  -3.37600 28.47900 24.81900
C  -2.46400 29.45000 25.46800
C  -2.55200 29.07200 26.82600
C  -3.50800 28.05100 27.02200
C  -1.67000 30.52200 24.74100
C  -2.01800 29.34000 28.14900
O  -1.22200 30.16300 28.59800
C  -2.80000 28.38900 29.16500
C  -1.75200 27.55000 29.80700
O  -1.26200 26.50900 29.38600
O  -1.24500 28.18600 30.90000
C  -0.40100 27.43000 31.74100
H  -7.75000 23.48900 28.47600
H  -7.15400 24.19800 22.07700
H  -3.32800 29.16500 22.73900
H  -4.27000 26.16000 30.73200
H  -6.89400 24.99100 30.50000
H  -4.21300 23.91900 30.61000
H  -5.17600 22.93600 29.43200
H  -5.73000 23.05200 31.03700
H  -7.14500 27.13400 30.78200
H  -6.01200 28.21700 29.96300
H  -6.56200 28.40600 32.53900
H  -5.16500 28.86700 31.94800
H  -8.62300 20.79200 26.25900
H  -10.02500 21.87800 26.46300
H  -8.78300 21.84800 27.72800
H  -10.23500 20.52200 22.82800
H  -10.38300 21.31900 24.34800
H  -9.09600 20.10100 24.18300
H  -6.49700 26.42300 20.56600
H  -3.73200 27.22500 20.89200
H  -4.39600 24.22100 20.90400
H  -4.14200 25.36500 19.56600
H  -5.68300 24.65300 19.77900
H  -5.61100 29.46700 21.42000
H  -6.21900 28.59000 20.11500
H  -5.00600 30.21300 19.20800
H  -3.90200 28.90900 18.93600
H  -3.60800 30.02800 20.29600
H  -2.02400 30.61900 23.71500
H  -0.60200 30.30800 24.71400
H  -1.71300 31.56000 25.07200
H  -3.36600 28.90600 29.94000
H  -0.42200 26.36000 31.53500
H  -0.75600 27.54300 32.76500
H  0.61100 27.76200 31.50900

