158

Mg 24.29400 -6.11600 46.44600
C  26.26600 -3.57900 44.77800
C  21.61200 -5.21300 44.39100
C  22.96700 -9.19000 46.87800
C  27.32000 -7.15400 47.86100
N  23.99400 -4.53600 44.85000
C  24.94100 -3.65300 44.30200
C  24.36300 -2.61500 43.31000
C  22.84600 -3.04600 43.40600
C  22.70600 -4.35900 44.31200
C  21.91700 -1.86700 43.82900
C  24.85900 -2.66700 41.83100
C  25.40100 -1.34900 41.17500
H  25.25800 -1.28700 39.65800
N  22.45800 -7.06400 45.75500
C  21.53800 -6.48200 44.97700
C  20.35300 -7.47700 44.89600
C  20.72300 -8.67200 45.53600
C  22.12400 -8.38800 46.07500
C  19.13900 -7.09200 44.15700
C  19.86300 -9.89400 45.57800
O  18.72100 -9.94200 45.07200
C  20.45700 -11.05600 46.31700
N  24.95900 -7.82300 47.31600
C  24.14800 -8.93000 47.48800
C  24.89700 -10.04300 48.19200
C  26.26600 -9.44000 48.59300
C  26.19600 -8.04300 47.92300
C  24.07100 -10.77400 49.35600
C  27.54100 -10.21600 48.24100
C  28.45500 -10.60000 49.41800
N  26.30600 -5.29900 46.56100
C  27.37800 -5.88500 47.17600
C  28.57100 -5.09900 46.90300
C  28.20600 -4.17100 45.92400
C  26.82000 -4.33800 45.77400
C  29.94400 -5.39300 47.49000
C  28.66300 -3.22800 45.01100
O  29.76600 -2.73900 44.77600
C  27.42300 -2.70600 44.20600
C  27.17800 -1.26100 44.55900
O  26.64400 -0.80600 45.57400
O  27.78900 -0.38400 43.67200
C  27.71300 1.06700 43.94700
H  20.74200 -4.97100 43.77800
H  22.57700 -10.16100 47.18900
H  28.24500 -7.56900 48.26700
H  24.47000 -1.67300 43.84700
H  22.59200 -3.28200 42.37200
H  22.32400 -0.86200 43.72200
H  21.58800 -2.08100 44.84700
H  21.04500 -1.97700 43.18400
H  24.26200 -3.18000 41.07800
H  25.75100 -3.29300 41.80000
H  26.45000 -1.33100 41.46800
H  25.05400 -0.38600 41.54800
H  18.44600 -7.91200 43.97000
H  19.46800 -6.54900 43.27100
H  18.59700 -6.28400 44.64900
H  20.70100 -10.64400 47.29600
H  21.32600 -11.49600 45.82600
H  19.71000 -11.84900 46.31200
H  25.10000 -10.76100 47.39800
H  26.18100 -9.27700 49.66700
H  24.11100 -11.84900 49.18300
H  23.02400 -10.48700 49.26200
H  24.41800 -10.53400 50.36100
H  28.17400 -9.69700 47.52100
H  27.19800 -11.14400 47.78400
H  28.62800 -11.67500 49.46800
H  27.93800 -10.47600 50.37000
H  29.35900 -10.00100 49.30700
H  30.55400 -4.49100 47.55800
H  30.43500 -5.95000 46.69300
H  29.91800 -5.87500 48.46700
H  27.63700 -2.80200 43.14100
H  27.56100 1.27300 45.00700
H  27.02100 1.64100 43.33000
H  28.69600 1.46800 43.70200
Mg 35.84400 49.60500 24.33100
C  36.01800 47.72300 27.23500
C  34.50300 52.21700 26.04500
C  35.04400 51.02800 21.33600
C  36.69300 46.61300 22.51900
N  35.37500 49.92100 26.42300
C  35.57600 49.03300 27.44300
C  35.46600 49.78200 28.76200
C  34.79600 51.08000 28.36100
C  34.81500 51.08700 26.84200
C  33.37000 51.29900 28.97000
C  36.88100 49.96000 29.44100
C  36.87500 49.74900 30.96500
H  35.57000 49.69200 31.71700
N  34.89200 51.39700 23.74400
C  34.56500 52.36800 24.66800
C  34.21900 53.59400 23.91400
C  34.24700 53.27600 22.58500
C  34.79800 51.87900 22.52000
C  33.89500 54.92800 24.56600
C  33.79100 54.06200 21.34300
O  34.10500 53.73300 20.19300
C  33.03900 55.38200 21.51900
N  35.72000 48.91900 22.26000
C  35.46500 49.66000 21.24400
C  35.56700 48.97700 19.95700
C  36.16600 47.58300 20.27700
C  36.26200 47.70400 21.79800
C  34.30900 48.90600 19.16800
C  37.49900 47.18900 19.57800
C  37.43700 46.36100 18.24200
N  36.42700 47.60700 24.71300
C  36.74400 46.50100 23.88300
C  37.11100 45.41600 24.75400
C  36.87400 45.87300 26.04200
C  36.34300 47.13100 25.95600
C  37.63100 44.08000 24.32300
C  36.88600 45.46200 27.42400
O  37.18100 44.36300 27.88900
C  36.36500 46.67600 28.21200
C  35.20800 46.19200 29.13400
O  34.08500 46.01100 28.67800
O  35.65900 45.99100 30.42400
C  34.63600 45.42400 31.32800
H  34.16400 53.12100 26.55600
H  35.02700 51.53900 20.37100
H  37.07700 45.69700 22.06300
H  34.89700 49.09400 29.38600
H  35.39700 51.88900 28.77700
H  33.29500 52.22100 29.54600
H  33.04300 50.43100 29.54400
H  32.64200 51.28900 28.15900
H  37.19100 50.99100 29.26900
H  37.62300 49.29800 28.99600
H  37.44100 50.56500 31.41500
H  37.42500 48.82500 31.14300
H  34.60500 55.03100 25.38700
H  32.84600 55.12500 24.78900
H  34.09900 55.63300 23.76000
H  33.72600 56.20200 21.72600
H  32.35400 55.38700 22.36700
H  32.47800 55.63900 20.62100
H  36.21700 49.53500 19.28300
H  35.42200 46.83100 20.01500
H  34.09400 47.90500 18.79500
H  34.43900 49.63200 18.36500
H  33.48300 49.33800 19.73300
H  38.14200 46.63600 20.26300
H  37.95500 48.15500 19.35600
H  37.83800 45.38000 18.49700
H  38.13600 46.75900 17.50700
H  36.43800 46.30900 17.81100
H  36.95100 43.24600 24.49600
H  38.54800 43.89600 24.88200
H  37.83700 44.04400 23.25400
H  37.22400 46.97700 28.81200
H  33.60400 45.55000 31.00200
H  34.71700 45.71700 32.37500
H  34.87900 44.36100 31.30600

