158

Mg -1.08900 7.31800 26.31900
C  -0.00500 9.38100 28.97500
C  -0.87500 4.62500 28.62200
C  -1.59300 5.17900 23.82800
C  -0.34700 9.93000 24.15700
N  -0.45700 7.04200 28.56500
C  -0.33900 8.06300 29.44400
C  -0.40500 7.61200 30.93900
C  -0.38300 6.02700 30.74500
C  -0.52400 5.84700 29.20500
C  0.63800 5.16700 31.55600
C  -1.70200 8.16000 31.65000
C  -1.75900 8.09600 33.22900
H  -0.44300 7.63500 33.87000
N  -1.19100 5.17500 26.29200
C  -1.09500 4.25200 27.30700
C  -1.38800 2.93100 26.78800
C  -1.59100 3.05700 25.35500
C  -1.50300 4.55800 25.06700
C  -1.55500 1.63500 27.59000
C  -1.94200 1.99900 24.32400
O  -2.17300 2.30400 23.19000
C  -1.70900 0.52400 24.73100
N  -0.95400 7.53600 24.23300
C  -1.34800 6.48100 23.40900
C  -1.56700 7.09000 21.89900
C  -1.06000 8.59800 22.10600
C  -0.81500 8.70700 23.59300
C  -0.76400 6.37800 20.71200
C  -1.88800 9.71200 21.44500
C  -3.04600 10.29800 22.22400
N  -0.38100 9.32400 26.45000
C  -0.13800 10.23600 25.51900
C  0.47500 11.41900 26.07800
C  0.45400 11.17300 27.46400
C  0.00400 9.83100 27.60400
C  0.82000 12.78500 25.34000
C  0.83600 11.59300 28.83500
O  1.38900 12.60200 29.25900
C  0.42300 10.51200 29.80000
C  1.57600 10.25800 30.67300
O  2.45300 9.46100 30.40000
O  1.51000 11.12700 31.75200
C  2.68100 11.11000 32.69600
H  -0.95700 3.75500 29.27600
H  -1.84800 4.57500 22.95500
H  -0.22600 10.67400 23.36700
H  0.50700 7.90300 31.46000
H  -1.30500 5.62000 31.16100
H  1.06500 5.76000 32.36500
H  1.53100 4.84800 31.01700
H  0.24700 4.28300 32.05900
H  -2.54300 7.65200 31.17900
H  -1.77000 9.19500 31.31400
H  -2.54100 7.46900 33.65700
H  -1.86400 9.14200 33.51600
H  -2.43500 1.12300 27.19900
H  -1.74600 1.96100 28.61300
H  -0.67900 0.99400 27.48900
H  -1.41300 -0.11700 23.90100
H  -2.58000 0.17600 25.28500
H  -0.86300 0.50100 25.41700
H  -2.61200 7.11400 21.59200
H  -0.05400 8.67600 21.69400
H  -1.54300 6.03500 20.03100
H  -0.22200 5.50300 21.07000
H  -0.14900 7.05600 20.12000
H  -2.38900 9.26000 20.58900
H  -1.30800 10.51000 20.98100
H  -4.03300 10.07500 21.81900
H  -2.88600 11.37500 22.28300
H  -2.97600 9.91800 23.24300
H  1.43200 12.48800 24.48900
H  1.41200 13.31400 26.08800
H  -0.09800 13.31800 25.09200
H  -0.41000 11.04000 30.26500
H  2.55700 12.00900 33.29900
H  3.61600 11.19400 32.14300
H  2.60000 10.16500 33.23300
Mg 36.25300 49.24200 24.25700
C  36.77600 47.65400 27.33700
C  35.02300 51.95400 25.74700
C  35.60700 50.61100 21.31100
C  37.48900 46.23600 22.62300
N  36.01700 49.70300 26.30700
C  36.28100 48.94900 27.42500
C  36.00500 49.69200 28.74500
C  35.42400 51.11800 28.20600
C  35.45900 50.89800 26.65500
C  33.97700 51.48300 28.73000
C  37.27000 49.83500 29.72100
C  37.04500 49.67700 31.20800
H  35.55300 49.64200 31.70000
N  35.40800 51.04600 23.61700
C  35.02000 52.07000 24.41300
C  34.64900 53.23100 23.60200
C  34.77200 52.81700 22.27100
C  35.28500 51.49400 22.34300
C  34.10100 54.61700 24.18700
C  34.45400 53.52100 20.96300
O  34.85900 53.11500 19.93900
C  33.73100 54.84300 21.02100
N  36.35300 48.44500 22.24000
C  36.05600 49.25100 21.21300
C  36.47400 48.65300 19.87300
C  37.16600 47.27100 20.28500
C  36.95400 47.28100 21.81600
C  35.31800 48.45200 18.89500
C  38.63500 47.05300 19.83300
C  39.69400 47.91800 20.52200
N  36.96400 47.34600 24.79000
C  37.43800 46.25200 24.01900
C  37.97800 45.25600 24.92000
C  37.72200 45.83100 26.20600
C  37.15600 47.06400 26.07200
C  38.60900 43.98200 24.71500
C  37.95800 45.56700 27.67600
O  38.63400 44.71800 28.24900
C  37.30100 46.71700 28.44000
C  36.28000 46.08000 29.29700
O  35.11500 45.76200 29.00000
O  36.80300 45.86900 30.57700
C  35.80100 45.27000 31.51800
H  34.55300 52.78100 26.28300
H  35.53300 51.12900 20.35200
H  38.04000 45.44200 22.11400
H  35.16600 49.20900 29.24600
H  36.00900 52.02200 28.37600
H  34.16000 52.43900 29.22200
H  33.60800 50.76500 29.46200
H  33.23000 51.66700 27.95700
H  37.71100 50.79800 29.46400
H  38.06200 49.12300 29.49100
H  37.65700 50.46400 31.64800
H  37.52900 48.75700 31.53600
H  34.41500 54.59800 25.23100
H  33.02100 54.76000 24.16000
H  34.52800 55.48600 23.68600
H  34.44200 55.61900 21.30500
H  32.97400 54.66200 21.78400
H  33.20100 55.04100 20.08900
H  37.16500 49.34500 19.39100
H  36.59800 46.46200 19.82500
H  34.35900 48.60700 19.38900
H  35.38500 47.46400 18.43900
H  35.36800 49.23200 18.13500
H  38.70500 47.18400 18.75300
H  38.83700 45.98200 19.86000
H  39.43200 48.37100 21.47900
H  40.14700 48.56400 19.77000
H  40.54700 47.27000 20.72600
H  38.20900 43.64600 23.75800
H  38.34200 43.16500 25.38600
H  39.68900 43.98700 24.86200
H  38.00900 47.18800 29.12200
H  35.86400 44.18700 31.41000
H  34.81000 45.70800 31.63900
H  36.31300 45.60100 32.42200

