158

Mg 44.96100 4.27900 47.09600
C  42.87500 6.98200 47.23200
C  42.23100 2.20300 47.10300
C  47.01200 1.77200 46.34000
C  47.75700 6.49000 46.81800
N  42.83400 4.56600 47.10100
C  42.13100 5.76500 47.06200
C  40.66600 5.58700 46.97300
C  40.55800 4.04900 47.34200
C  41.98100 3.54900 47.20700
C  39.79200 3.68500 48.67600
C  39.93700 5.86600 45.60200
C  40.71000 5.74400 44.27400
H  40.58200 6.73600 43.10500
N  44.64500 2.24500 46.70500
C  43.47200 1.55100 46.83300
C  43.65400 0.19700 46.58600
C  45.03800 0.10800 46.19100
C  45.61700 1.39500 46.43100
C  42.61200 -0.86800 46.55200
C  45.66000 -1.05200 45.52500
O  45.01000 -2.06300 45.22000
C  47.13900 -1.17200 45.13500
N  47.10600 4.21600 46.30900
C  47.72300 2.99500 46.52400
C  49.24800 3.09700 46.38100
C  49.47300 4.64300 46.61200
C  48.02800 5.18500 46.56100
C  49.97300 2.27400 47.50200
C  50.36700 5.19300 45.52400
C  49.70400 5.23800 44.11500
N  45.35300 6.34600 47.08000
C  46.49600 7.07500 46.93700
C  46.17200 8.47600 47.00700
C  44.77000 8.45600 47.20300
C  44.35400 7.14900 47.21500
C  47.09900 9.69400 46.88800
C  43.57100 9.31000 47.41000
O  43.47400 10.54800 47.51000
C  42.31100 8.36300 47.37800
C  41.39100 8.60200 48.51000
O  41.41200 7.96400 49.53900
O  40.47000 9.60500 48.24000
C  39.32100 9.67000 49.10200
H  41.39600 1.50100 47.07800
H  47.72000 0.94400 46.27500
H  48.63300 7.13100 46.93500
H  40.20100 6.13800 47.79100
H  39.96000 3.48400 46.62600
H  38.74300 3.59000 48.39600
H  39.96300 4.50200 49.37600
H  40.14500 2.79200 49.19100
H  39.65400 6.91800 45.65200
H  38.99600 5.33200 45.47000
H  40.38100 4.72700 44.05700
H  41.75300 5.59800 44.55700
H  42.30100 -0.99100 45.51500
H  41.73500 -0.62100 47.15000
H  42.92900 -1.88500 46.78000
H  47.72000 -1.24600 46.05500
H  47.39100 -0.40400 44.40400
H  47.29700 -2.13600 44.65100
H  49.38400 2.70200 45.37400
H  50.01400 4.83500 47.53900
H  50.11800 1.19700 47.41100
H  49.24700 2.27300 48.31500
H  50.93100 2.72000 47.77000
H  51.26400 4.57400 45.49700
H  50.73500 6.16800 45.84100
H  50.37100 4.84100 43.34900
H  49.64000 6.31500 43.96100
H  48.72700 4.76100 44.03300
H  47.38900 9.81700 45.84400
H  48.00200 9.67500 47.49800
H  46.51100 10.57500 47.14200
H  41.71000 8.73500 46.54800
H  38.61000 8.85600 48.95900
H  38.88100 10.63700 48.85800
H  39.56600 9.73400 50.16200
Mg 16.58700 51.20200 26.21600
C  18.49300 49.83800 29.01400
C  14.21900 52.02400 28.63500
C  14.97800 52.66000 23.81500
C  19.01400 49.83300 24.07800
N  16.39300 50.95300 28.58700
C  17.34400 50.49800 29.42800
C  17.10300 50.93800 30.89300
C  15.54800 51.31800 30.75900
C  15.33400 51.36200 29.22400
C  14.53800 50.37600 31.43000
C  18.04800 52.03700 31.31200
C  18.49200 52.05400 32.78300
H  17.74300 51.15300 33.82400
N  14.81300 52.18200 26.20900
C  13.99100 52.47300 27.27100
C  12.98700 53.39200 26.79300
C  13.26100 53.68200 25.41900
C  14.36200 52.82600 25.06300
C  11.95400 53.88900 27.68000
C  12.48900 54.52700 24.45700
O  12.82300 54.73200 23.29700
C  11.26300 55.23400 24.90000
N  16.91900 51.16300 24.17100
C  16.09400 51.85900 23.39200
C  16.46800 51.55800 21.89900
C  17.82500 50.78000 21.99700
C  17.97500 50.59500 23.49100
C  15.36000 50.72700 21.19200
C  19.12600 51.24700 21.27100
C  19.55900 50.38700 20.05900
N  18.31800 50.00000 26.46500
C  19.25800 49.61600 25.48100
C  20.38400 48.93400 26.12300
C  20.13100 49.04700 27.52100
C  18.88200 49.64300 27.66200
C  21.60300 48.41600 25.49200
C  20.68800 48.68600 28.90500
O  21.78000 48.13200 29.12400
C  19.63300 49.23500 29.90500
C  19.08600 48.00700 30.51200
O  18.10800 47.35300 30.17600
O  19.74300 47.88300 31.72000
C  19.18400 46.91000 32.62800
H  13.52100 52.34900 29.40900
H  14.44500 53.13400 22.98900
H  19.61000 49.21200 23.40500
H  17.03500 50.13500 31.62700
H  15.31500 52.24300 31.28600
H  13.84500 49.99300 30.68200
H  13.88000 50.90400 32.12000
H  14.88400 49.50800 31.99100
H  17.54200 52.98000 31.11100
H  18.97500 51.97100 30.74200
H  18.11600 53.02900 33.09300
H  19.58000 52.09800 32.73300
H  11.72600 53.23700 28.52400
H  11.02200 53.96300 27.11900
H  12.18400 54.90500 28.00000
H  11.45000 55.85300 25.77700
H  10.53600 54.44300 25.08200
H  10.91800 55.75600 24.00700
H  16.51900 52.50700 21.36500
H  17.77200 49.72100 21.74700
H  14.55200 50.48400 21.88200
H  15.63800 49.73200 20.84500
H  14.94000 51.31400 20.37500
H  19.96300 51.21000 21.96800
H  18.97000 52.23500 20.83800
H  20.47600 49.87200 20.34700
H  19.90100 51.01600 19.23700
H  18.88500 49.65200 19.61800
H  22.49500 48.61900 26.08500
H  21.89600 48.77700 24.50600
H  21.66000 47.32800 25.52200
H  19.91400 49.82400 30.77900
H  18.18200 46.50000 32.50500
H  19.10000 47.36700 33.61500
H  19.85300 46.05300 32.55600

