158

Mg 23.82200 -5.61900 44.96100
C  26.11900 -3.26200 43.28400
C  21.44700 -4.78400 42.55400
C  21.96600 -8.15200 45.96600
C  26.60700 -6.81200 46.67200
N  23.79700 -4.13900 43.13600
C  24.82700 -3.18800 42.76100
C  24.29400 -2.26800 41.66300
C  22.73500 -2.64400 41.67900
C  22.64400 -4.01800 42.36700
C  21.88900 -1.52300 42.27400
C  25.05200 -2.42200 40.34400
C  25.72500 -1.15600 39.76400
H  25.33000 -0.77400 38.35700
N  21.96800 -6.28400 44.47600
C  21.13800 -5.73500 43.51900
C  19.83500 -6.33300 43.64400
C  19.90400 -7.29900 44.68600
C  21.30800 -7.29200 45.07800
C  18.67100 -5.79600 42.83200
C  18.72600 -8.06100 45.24100
O  17.70700 -7.90100 44.60300
C  18.73900 -9.00300 46.36300
N  24.24300 -7.14700 46.27600
C  23.21700 -8.09700 46.49400
C  23.87100 -9.27200 47.25800
C  25.19200 -8.64100 47.82700
C  25.39900 -7.51700 46.84000
C  22.94900 -9.88000 48.34300
C  26.33100 -9.69000 47.82500
C  26.89900 -9.86100 49.26800
N  25.86200 -5.08900 45.10600
C  26.90100 -5.67700 45.85000
C  28.11800 -5.01000 45.62800
C  27.83100 -4.00100 44.65200
C  26.49400 -4.18700 44.24500
C  29.38300 -5.30700 46.38900
C  28.46200 -2.92500 43.98200
O  29.56600 -2.37300 44.06000
C  27.33600 -2.35600 43.08100
C  27.07800 -0.97000 43.50400
O  26.65700 -0.65500 44.57700
O  27.22900 -0.07500 42.42100
C  26.84200 1.27800 42.78100
H  20.62100 -4.47500 41.91000
H  21.35100 -9.03500 46.15300
H  27.51900 -7.11600 47.18900
H  24.50700 -1.26800 42.04000
H  22.27700 -2.92200 40.73000
H  22.32200 -0.52900 42.16600
H  21.62300 -1.69000 43.31800
H  20.99000 -1.61100 41.66500
H  24.35300 -2.71200 39.56000
H  25.71900 -3.28400 40.33300
H  26.80800 -1.15500 39.88500
H  25.38600 -0.24700 40.26100
H  18.99800 -5.85100 41.79400
H  18.39600 -4.75400 42.99400
H  17.75500 -6.38600 42.84400
H  19.28600 -8.53300 47.18000
H  19.22700 -9.93700 46.08300
H  17.71700 -9.18300 46.69600
H  24.09300 -10.10800 46.59500
H  24.94700 -8.10000 48.74200
H  22.88100 -10.84900 47.84800
H  21.93500 -9.49000 48.43800
H  23.47800 -9.94100 49.29400
H  27.26500 -9.56300 47.27800
H  25.89500 -10.64900 47.54400
H  27.98700 -9.83500 49.32000
H  26.56900 -10.83900 49.61900
H  26.41300 -9.08000 49.85300
H  29.98600 -5.98900 45.79000
H  29.07300 -5.76800 47.32700
H  29.96100 -4.39500 46.53600
H  27.77100 -2.29200 42.08400
H  25.80800 1.24500 43.12500
H  26.92300 1.90500 41.89300
H  27.40400 1.75400 43.58400
Mg -10.40000 38.80600 40.61300
C  -8.77300 35.71200 39.90400
C  -7.60800 40.35700 39.27400
C  -11.98100 41.74400 40.59000
C  -13.23000 37.12400 41.49700
N  -8.47000 38.13100 39.73300
C  -8.06800 36.81300 39.54100
C  -6.67700 36.71500 38.74600
C  -6.18200 38.20900 39.02600
C  -7.50900 38.94500 39.37000
C  -5.09300 38.44600 40.08800
C  -6.88200 36.23400 37.25300
C  -6.18300 36.88300 36.00500
H  -7.12500 37.60700 35.00100
N  -9.86000 40.75400 40.02900
C  -8.68300 41.22100 39.54800
C  -8.67200 42.69500 39.58200
C  -9.98200 43.08800 39.83600
C  -10.66700 41.85400 40.13100
C  -7.41900 43.54800 39.13000
C  -10.44000 44.50000 39.99600
O  -9.57400 45.36400 39.88100
C  -11.82800 44.91000 40.43100
N  -12.40100 39.28200 40.89600
C  -12.78300 40.60500 40.90400
C  -14.33900 40.62900 41.10900
C  -14.68100 39.20100 41.49200
C  -13.35200 38.46500 41.36300
C  -14.94800 41.62200 42.16400
C  -15.87300 38.56600 40.69700
C  -16.72800 37.51100 41.41400
N  -10.91500 36.87100 40.68000
C  -12.10800 36.36000 41.10000
C  -11.96400 34.86100 41.15800
C  -10.73400 34.59000 40.57900
C  -10.10200 35.86400 40.38900
C  -12.87000 33.87700 41.86000
C  -9.82000 33.52400 40.23000
O  -10.01400 32.32600 40.25900
C  -8.56800 34.19800 39.69300
C  -7.43700 33.67900 40.39700
O  -7.15000 33.87300 41.57400
O  -6.59900 32.98400 39.52100
C  -5.22200 32.69000 39.92600
H  -6.64200 40.80100 39.02300
H  -12.58600 42.65300 40.59500
H  -14.04100 36.51900 41.90700
H  -6.14100 35.92600 39.27200
H  -5.83100 38.72000 38.12900
H  -4.33400 39.10400 39.66500
H  -4.71800 37.48000 40.42600
H  -5.55600 38.86100 40.98200
H  -7.92900 36.31900 36.96400
H  -6.60300 35.18100 37.27100
H  -5.63400 36.02700 35.61100
H  -5.47600 37.64700 36.33100
H  -7.63200 44.19700 38.28000
H  -6.62400 42.87000 38.82000
H  -7.04300 44.15400 39.95400
H  -12.45100 44.73100 39.55500
H  -11.89100 45.98200 40.61700
H  -12.00400 44.40400 41.38000
H  -14.83800 40.94800 40.19400
H  -14.83800 39.13100 42.56800
H  -14.94500 41.13900 43.14100
H  -15.95600 41.94200 41.90100
H  -14.37000 42.54500 42.16600
H  -15.46800 38.14800 39.77500
H  -16.58700 39.31500 40.35600
H  -16.72900 36.55600 40.88900
H  -17.75000 37.88600 41.36700
H  -16.43000 37.38000 42.45500
H  -12.90800 33.88900 42.94900
H  -12.59200 32.89200 41.48600
H  -13.88600 34.04900 41.50300
H  -8.37400 33.95400 38.64900
H  -4.72900 33.65500 39.81200
H  -4.85600 31.88700 39.28600
H  -5.10800 32.40600 40.97200

