158

Mg -0.71700 18.08400 27.39000
C  -1.33600 15.80200 30.09500
C  -1.49500 20.57600 29.40500
C  -0.60400 19.96700 24.66900
C  -0.56600 15.14600 25.28500
N  -1.32900 18.19500 29.51400
C  -1.29900 17.16200 30.49700
C  -1.49100 17.70100 31.88700
C  -1.75000 19.21000 31.56700
C  -1.61600 19.31700 30.05700
C  -3.06000 19.79200 32.17400
C  -0.40000 17.41200 33.01300
C  -1.01500 16.90100 34.39500
H  -0.18600 17.25300 35.65600
N  -0.76700 20.04800 27.07200
C  -1.09300 20.95500 28.08300
C  -0.93000 22.30200 27.54300
C  -0.69800 22.14700 26.12300
C  -0.64900 20.70700 25.88500
C  -1.21200 23.57700 28.39700
C  -0.58500 23.17700 25.03800
O  -0.41900 22.94100 23.87800
C  -0.72300 24.62800 25.38000
N  -0.66200 17.61000 25.26600
C  -0.50300 18.63600 24.38400
C  -0.45100 17.97900 22.99000
C  -0.04800 16.57400 23.24400
C  -0.50100 16.43400 24.66000
C  -1.66700 18.29600 22.03100
C  1.57400 16.37600 23.05200
C  2.51000 17.25600 23.92000
N  -0.99200 16.00200 27.52700
C  -0.98400 14.93500 26.60100
C  -1.20800 13.69000 27.15300
C  -1.35100 13.96900 28.47000
C  -1.25700 15.35700 28.72900
C  -1.31600 12.41400 26.35300
C  -1.61700 13.31200 29.75900
O  -1.81300 12.08700 30.03600
C  -1.60300 14.52700 30.83500
C  -0.58500 14.16600 31.90000
O  0.63900 14.18400 31.77700
O  -1.29900 13.62000 32.94400
C  -0.52500 12.91800 34.00100
H  -1.73700 21.44600 30.01900
H  -0.54500 20.67000 23.83600
H  -0.32400 14.30700 24.62800
H  -2.42600 17.29600 32.27300
H  -0.96100 19.79000 32.04600
H  -3.70200 20.16900 31.37800
H  -2.93100 20.71700 32.73600
H  -3.59600 19.04100 32.75300
H  0.19400 18.31600 33.14400
H  0.31500 16.64500 32.71500
H  -1.14300 15.82300 34.49000
H  -1.93100 17.49000 34.44400
H  -1.62000 23.41400 29.39500
H  -1.93900 24.25900 27.95400
H  -0.40400 24.26900 28.63500
H  -0.72800 25.24800 24.48400
H  0.00200 24.99600 26.10700
H  -1.75000 24.66300 25.74500
H  0.34200 18.55600 22.51500
H  -0.67500 15.85500 22.71600
H  -2.02700 17.45100 21.44400
H  -1.12100 18.89200 21.29900
H  -2.47000 18.79100 22.57700
H  1.77800 16.59600 22.00400
H  1.83200 15.32300 23.16800
H  2.97400 16.67900 24.72000
H  2.02700 18.03900 24.50500
H  3.31000 17.65700 23.29700
H  -0.34300 12.01400 26.06800
H  -1.80100 12.60000 25.39500
H  -1.91300 11.65900 26.86500
H  -2.62700 14.53200 31.20900
H  -1.05000 13.25400 34.89600
H  0.53100 13.14900 34.14000
H  -0.68100 11.84200 33.92900
Mg 1.64200 8.54500 27.00800
C  2.18500 10.25800 29.96100
C  1.65100 5.58300 28.71500
C  1.41400 6.91500 24.04500
C  2.30600 11.54100 25.26400
N  1.85700 8.01900 29.03000
C  1.97000 8.90700 30.13000
C  1.85000 8.19400 31.48100
C  2.11500 6.73400 30.99700
C  1.81100 6.74400 29.46700
C  3.40500 6.14000 31.32800
C  0.43800 8.55100 32.15100
C  0.44600 8.81300 33.68600
H  1.70600 8.36800 34.41900
N  1.32000 6.55500 26.49800
C  1.36100 5.49000 27.32400
C  0.96000 4.26300 26.59600
C  0.94800 4.60600 25.21600
C  1.27800 6.06700 25.21500
C  0.61600 3.00200 27.26100
C  0.70900 3.71200 23.99400
O  0.48700 4.07000 22.81300
C  0.76300 2.23000 24.18300
N  1.72500 9.07800 24.99500
C  1.61900 8.26000 23.88600
C  1.55800 8.95800 22.58100
C  1.55000 10.44100 23.07400
C  1.98700 10.35200 24.53500
C  2.80400 8.64300 21.72000
C  0.21800 11.28100 22.82600
C  0.29100 12.20000 21.58100
N  2.26100 10.50200 27.45200
C  2.47800 11.61300 26.66700
C  2.77200 12.79300 27.48400
C  2.69300 12.30900 28.78700
C  2.41100 10.95300 28.73100
C  3.01400 14.19100 26.96000
C  2.79400 12.65600 30.19100
O  3.17300 13.67700 30.64800
C  2.47000 11.34400 31.01800
C  3.64200 11.18600 31.83700
O  4.55700 10.47300 31.56500
O  3.37600 11.80600 33.05200
C  4.18900 11.40300 34.15600
H  1.70500 4.55900 29.09000
H  1.21900 6.38200 23.11100
H  2.48600 12.47900 24.73600
H  2.65900 8.50000 32.14500
H  1.42500 6.11400 31.56900
H  4.21200 6.37100 30.63200
H  3.32000 5.05800 31.42100
H  3.79100 6.47400 32.29100
H  -0.10100 7.61200 32.02500
H  -0.11100 9.38200 31.70900
H  -0.42300 8.35700 34.15900
H  0.29700 9.88400 33.82400
H  0.18900 3.31700 28.21300
H  1.47300 2.39500 27.55100
H  -0.25000 2.52700 26.79900
H  1.70200 1.88200 24.61300
H  0.74100 1.75900 23.20000
H  -0.05800 1.87700 24.80600
H  0.62800 8.58700 22.14900
H  2.38300 11.03800 22.70400
H  2.88600 9.37900 20.92000
H  2.73900 7.61900 21.35300
H  3.72100 8.94900 22.22400
H  -0.09100 11.92100 23.65200
H  -0.58300 10.55200 22.70500
H  1.19500 11.92100 21.04000
H  0.46200 13.26300 21.75000
H  -0.66000 12.15300 21.04900
H  3.51500 13.97900 26.01600
H  3.75000 14.69800 27.58400
H  2.09000 14.76800 26.91800
H  1.61800 11.64700 31.62600
H  4.94300 12.19000 34.18900
H  4.54200 10.38500 33.99300
H  3.69600 11.46600 35.12700

