158

Mg 36.51700 0.67800 29.58700
C  34.19700 1.83700 32.04400
C  39.00800 0.79600 31.90600
C  38.73000 -0.35800 27.21800
C  33.96300 0.76500 27.32300
N  36.59700 1.26800 31.69200
C  35.55400 1.75200 32.51800
C  36.06100 1.78300 33.99000
C  37.63800 1.67300 33.78300
C  37.75800 1.24000 32.31900
C  38.35900 2.99200 33.94400
C  35.47300 0.60800 34.85900
C  34.96800 0.95200 36.32900
H  35.54200 2.17000 37.05300
N  38.58900 0.22300 29.56500
C  39.41000 0.28700 30.62500
C  40.77300 -0.06200 30.22300
C  40.80100 -0.37100 28.86000
C  39.34900 -0.17700 28.50800
C  41.92100 -0.01500 31.20600
C  41.90200 -0.71000 27.86200
O  41.59300 -0.88300 26.66900
C  43.36200 -0.99800 28.25900
N  36.39300 0.49600 27.45300
C  37.40500 -0.15400 26.78000
C  36.89900 -0.44600 25.36800
C  35.31400 -0.35700 25.44900
C  35.23500 0.43300 26.83100
C  37.56400 0.50400 24.29200
C  34.50100 -1.71000 25.26900
C  33.67800 -1.84500 23.96400
N  34.47900 1.20500 29.58400
C  33.58900 1.15800 28.57600
C  32.33600 1.58800 29.07000
C  32.49200 1.89300 30.38200
C  33.86800 1.62200 30.68500
C  31.07300 1.55600 28.23200
C  31.87200 2.29100 31.57300
O  30.70300 2.68200 31.84100
C  32.91800 2.31400 32.73100
C  32.96800 3.64000 33.35400
O  33.40100 4.64100 32.88700
O  32.34100 3.49900 34.59800
C  32.47000 4.74700 35.40300
H  39.77300 0.64100 32.67000
H  39.30500 -0.86300 26.43900
H  33.22100 0.72800 26.52300
H  35.73300 2.70400 34.47100
H  38.24200 0.99900 34.39100
H  38.91600 2.86400 34.87300
H  37.64000 3.78900 34.13400
H  39.08000 3.30200 33.18800
H  36.13800 -0.24700 34.98100
H  34.56500 0.30800 34.33500
H  35.05400 0.05600 36.94400
H  33.90800 1.20000 36.39100
H  42.52900 -0.91900 31.21900
H  41.57900 0.06600 32.23800
H  42.59100 0.80600 30.94900
H  43.58800 -0.54000 29.22200
H  44.15300 -0.61600 27.61300
H  43.46400 -2.06000 28.48100
H  37.22100 -1.44200 25.06200
H  34.99100 0.31500 24.65400
H  36.75600 1.15600 23.95900
H  38.04700 -0.05200 23.48800
H  38.30300 1.12400 24.79900
H  33.76900 -1.72100 26.07600
H  35.17300 -2.55100 25.43700
H  34.04500 -1.00300 23.37700
H  32.60800 -1.74900 24.15200
H  33.91800 -2.71100 23.34600
H  30.27100 1.00300 28.72300
H  31.31100 1.10300 27.27000
H  30.73900 2.57200 28.02300
H  32.65400 1.62500 33.53300
H  31.85700 5.50800 34.92000
H  33.48600 5.05400 35.64900
H  31.85100 4.52100 36.27100
Mg 0.19200 43.68000 25.60100
C  2.22900 43.31700 28.45300
C  -2.42200 42.69000 27.47000
C  -1.50600 43.91500 22.85500
C  3.16900 44.31800 23.62700
N  -0.03900 43.23100 27.73300
C  0.88900 43.12200 28.72400
C  0.32800 42.79100 30.09100
C  -1.20300 42.37800 29.70800
C  -1.26400 42.83800 28.24300
C  -1.54100 40.87700 29.85500
C  0.32900 44.10000 30.93000
C  -0.16400 44.00700 32.43400
H  -0.24700 42.63200 33.14100
N  -1.68400 43.29700 25.22000
C  -2.69500 42.87200 26.08800
C  -3.92000 42.82100 25.37700
C  -3.68400 43.24200 24.09000
C  -2.24100 43.49900 23.99800
C  -5.23500 42.39800 26.14500
C  -4.66500 43.59600 23.00900
O  -4.39300 44.27900 22.03100
C  -6.12400 43.15100 23.19400
N  0.77500 44.04000 23.44100
C  -0.18200 44.20500 22.55100
C  0.38000 44.65300 21.23300
C  1.84200 44.90700 21.52200
C  1.97800 44.32300 22.95500
C  0.19200 43.47300 20.14400
C  2.35600 46.37100 21.59700
C  1.37700 47.43100 22.19700
N  2.31400 43.89700 25.94800
C  3.40400 44.09900 25.02800
C  4.59600 43.97500 25.79100
C  4.18500 43.66600 27.06200
C  2.78600 43.54000 27.16800
C  5.98500 44.14000 25.26000
C  4.73300 43.37700 28.37200
O  5.89900 43.30300 28.74100
C  3.45900 43.20600 29.38000
C  3.63500 42.04000 30.21300
O  3.34800 40.89100 29.87900
O  4.29600 42.35700 31.33000
C  4.81900 41.20500 32.12600
H  -3.29600 42.25900 27.96200
H  -2.11400 43.91900 21.94800
H  4.06800 44.46900 23.02700
H  0.84000 41.95800 30.57400
H  -1.97200 42.86600 30.30600
H  -2.05300 40.55300 28.94900
H  -2.25200 40.72600 30.66700
H  -0.70000 40.22200 30.08500
H  -0.29800 44.86300 30.46800
H  1.35400 44.43800 30.78100
H  -1.15200 44.45600 32.53800
H  0.60000 44.55500 32.98500
H  -6.04500 43.11700 26.02000
H  -5.13500 42.19800 27.21200
H  -5.60200 41.42900 25.80700
H  -6.16000 42.08200 23.40100
H  -6.66400 43.17000 22.24700
H  -6.59000 43.71500 24.00200
H  -0.10400 45.57100 20.89900
H  2.47100 44.34300 20.83200
H  1.14600 43.06900 19.80500
H  -0.24900 43.89100 19.23900
H  -0.37800 42.67000 20.61200
H  2.64800 46.70300 20.60100
H  3.21700 46.40200 22.26500
H  1.80000 48.09200 22.95400
H  0.53400 46.94200 22.68400
H  1.04100 47.98400 21.31900
H  6.02400 45.10800 24.76000
H  6.23900 43.33000 24.57600
H  6.84400 44.15800 25.93100
H  3.56000 44.09900 29.99800
H  5.55600 41.51000 32.86900
H  5.33200 40.46500 31.51100
H  3.94000 40.84400 32.65800

