158

Mg 40.30800 8.35900 29.65900
C  42.28400 9.71500 32.23200
C  37.95900 7.53700 31.98000
C  38.55700 6.78800 27.19100
C  42.90700 9.03100 27.45000
N  40.27500 8.51100 31.82900
C  41.10300 9.24500 32.70600
C  40.50200 9.36200 34.03800
C  39.31100 8.40400 34.09500
C  39.12800 8.14500 32.50300
C  39.54200 7.07300 34.84900
C  40.04300 10.82800 34.47900
C  39.60000 10.93500 35.97000
H  40.52300 11.68500 36.86200
N  38.45500 7.35200 29.64600
C  37.61500 7.19200 30.67100
C  36.44800 6.37900 30.20700
C  36.57000 6.38600 28.80700
C  37.90600 6.86900 28.48900
C  35.32500 6.00200 31.12500
C  35.54900 6.00300 27.67000
O  35.71700 6.17500 26.48400
C  34.23100 5.39200 28.10000
N  40.74400 7.84100 27.63700
C  39.88200 7.16600 26.85400
C  40.36300 7.14300 25.38100
C  41.70900 7.95600 25.40700
C  41.83100 8.36000 26.94700
C  40.59300 5.65200 24.90200
C  41.74800 9.14400 24.39000
C  40.90300 10.28200 24.58900
N  42.26800 9.13000 29.72800
C  43.19900 9.42700 28.75600
C  44.39100 9.95400 29.31600
C  44.03700 10.24100 30.69300
C  42.72300 9.64900 30.88900
C  45.61300 10.20700 28.57100
C  44.46800 10.76200 31.96400
O  45.53100 11.27300 32.34300
C  43.30600 10.52100 32.90900
C  43.83700 9.81100 34.08500
O  44.28600 8.68100 33.94400
O  43.59400 10.51600 35.22400
C  44.01900 9.87700 36.45400
H  37.22400 7.43800 32.78200
H  38.11000 6.20800 26.38200
H  43.68800 9.17900 26.70100
H  41.27300 9.00700 34.72300
H  38.43400 8.89900 34.51100
H  40.49100 7.05400 35.38500
H  39.51500 6.16600 34.24500
H  38.86800 7.07000 35.70600
H  39.28100 11.20400 33.79600
H  40.89100 11.46200 34.22300
H  39.48900 9.94300 36.40900
H  38.62300 11.41700 35.94500
H  35.57400 6.23900 32.15900
H  35.22900 4.91600 31.10200
H  34.40500 6.53100 30.87700
H  33.77200 6.09000 28.80000
H  34.54400 4.47800 28.60400
H  33.59100 5.25600 27.22800
H  39.56300 7.39800 24.68600
H  42.57200 7.37800 25.07800
H  40.58700 5.69800 23.81300
H  39.74500 5.03500 25.20000
H  41.48700 5.21100 25.34200
H  41.69200 8.56000 23.47100
H  42.75500 9.53100 24.54700
H  40.16200 10.13500 23.80300
H  41.40700 11.21000 24.31800
H  40.46800 10.34400 25.58600
H  45.56800 11.17400 28.07000
H  45.74100 9.46600 27.78200
H  46.45300 10.25700 29.26400
H  42.83200 11.41100 33.32400
H  45.06700 10.08300 36.67300
H  43.80600 8.81200 36.54400
H  43.41300 10.29300 37.25900
Mg 29.48100 59.93400 41.06900
C  26.28200 58.75500 40.04200
C  30.88300 57.09400 39.67000
C  32.36700 61.47000 41.22700
C  27.76700 63.12400 41.66000
N  28.65000 58.20300 39.96600
C  27.34600 57.92400 39.63200
C  27.28400 56.67200 38.88300
C  28.74600 56.03100 39.12600
C  29.44900 57.19000 39.68900
C  28.74000 54.97300 40.21200
C  26.85600 56.77600 37.40100
C  26.06600 55.56600 36.85700
H  26.42900 55.08300 35.53000
N  31.37000 59.29000 40.73600
C  31.78100 58.11300 40.17800
C  33.22700 58.04000 40.19600
C  33.69300 59.28500 40.63000
C  32.46000 60.07300 40.97500
C  34.00100 56.86400 39.72700
C  35.13500 59.64200 40.81500
O  36.02100 58.84200 40.55100
C  35.67500 60.93100 41.35700
N  30.02200 62.06500 41.32600
C  31.34000 62.31400 41.40900
C  31.60800 63.77900 41.61200
C  30.17700 64.28600 42.02900
C  29.18400 63.15200 41.61600
C  32.59500 64.11500 42.77800
C  29.83600 65.59000 41.27300
C  30.06200 66.87000 42.16100
N  27.48900 60.83400 40.99200
C  26.97900 62.07000 41.29200
C  25.50800 61.94400 41.35900
C  25.20900 60.66400 40.88500
C  26.43000 60.04500 40.63000
C  24.44400 63.00900 41.72000
C  24.18800 59.74300 40.55300
O  22.96100 59.83600 40.72500
C  24.77900 58.45800 39.98700
C  24.42300 57.17500 40.60900
O  24.20800 56.90100 41.77600
O  24.08700 56.32000 39.63400
C  23.44200 54.96700 39.96600
H  31.31200 56.12400 39.41000
H  33.35100 61.94200 41.26600
H  27.36300 64.08400 41.98800
H  26.48600 56.00400 39.20700
H  29.18200 55.76000 38.16400
H  27.77300 54.83300 40.69600
H  29.44900 55.07400 41.03400
H  28.94400 54.01200 39.73900
H  27.81400 56.93500 36.90600
H  26.30700 57.66000 37.07800
H  25.01600 55.84200 36.76700
H  26.18900 54.62300 37.39000
H  34.52500 57.10100 38.80100
H  33.38000 55.96900 39.70300
H  34.76200 56.73100 40.49700
H  35.57000 61.71500 40.60800
H  36.73300 60.81800 41.59200
H  35.21600 61.29900 42.27500
H  31.93200 64.19400 40.65700
H  29.97200 64.41400 43.09200
H  32.73300 63.28400 43.47000
H  32.32600 65.04900 43.27200
H  33.52000 64.30600 42.23300
H  28.80500 65.67800 40.93100
H  30.48900 65.71500 40.41000
H  31.04700 67.29500 41.97100
H  30.11900 66.59800 43.21500
H  29.26200 67.60900 42.10000
H  24.26000 63.44100 40.73600
H  24.78700 63.76900 42.42200
H  23.60900 62.44600 42.13600
H  24.39200 58.44800 38.96800
H  23.51900 54.37300 39.05500
H  22.37700 55.12600 40.13800
H  23.89200 54.41000 40.78900

