158

Mg 17.56300 -1.03200 28.04800
C  16.25500 1.04000 30.54500
C  19.06400 -2.90200 30.50700
C  19.24200 -2.69200 25.66900
C  16.29400 1.22400 25.62100
N  17.66700 -0.87800 30.32300
C  16.91900 -0.04500 31.08200
C  17.01000 -0.43500 32.60200
C  18.16400 -1.52600 32.50100
C  18.28400 -1.85400 31.07100
C  19.52000 -1.10200 33.24000
C  15.58800 -0.88200 33.18800
C  15.39400 -0.58900 34.64700
H  16.47800 -0.03400 35.52800
N  19.00000 -2.58000 28.07000
C  19.37300 -3.28000 29.18100
C  20.31200 -4.31100 28.85200
C  20.46800 -4.23100 27.42500
C  19.57600 -3.09400 26.98200
C  20.94100 -5.15200 29.89400
C  21.38500 -5.07300 26.50100
O  21.36400 -4.85400 25.30400
C  22.23300 -6.15000 27.02900
N  17.84100 -0.65100 25.96100
C  18.43300 -1.62500 25.21300
C  18.35700 -1.24500 23.69200
C  17.37200 -0.02000 23.71400
C  17.13500 0.20200 25.23900
C  19.67700 -0.85500 22.98200
C  16.00800 0.00200 22.90400
C  15.90900 0.88200 21.58600
N  16.37400 0.77400 28.01000
C  15.98400 1.58300 27.00500
C  15.23100 2.65200 27.55500
C  15.35300 2.50400 28.98200
C  16.04200 1.38000 29.17600
C  14.35800 3.63100 26.81200
C  14.97100 3.14300 30.23300
O  14.37900 4.21500 30.46000
C  15.46800 2.17500 31.28400
C  16.35000 2.93000 32.10200
O  17.56400 2.76100 32.18700
O  15.62300 3.66200 33.06800
C  16.30700 4.48900 34.07000
H  19.47700 -3.56700 31.26800
H  19.76400 -3.23700 24.88000
H  15.90400 1.90500 24.86100
H  17.37800 0.47600 33.07400
H  17.70000 -2.38600 32.98400
H  19.44700 -0.04200 33.48600
H  20.39800 -1.27200 32.61600
H  19.51800 -1.57300 34.22200
H  15.51800 -1.94900 32.97900
H  14.75000 -0.42500 32.66200
H  14.92000 -1.45600 35.10600
H  14.73100 0.27600 34.64300
H  20.19300 -5.57600 30.56400
H  21.59700 -4.56000 30.53300
H  21.44000 -6.02200 29.46700
H  22.77300 -5.84700 27.92600
H  23.01300 -6.40700 26.31200
H  21.61200 -7.03700 27.15100
H  17.96100 -2.07500 23.10700
H  17.91900 0.90700 23.54400
H  19.59500 0.12200 22.50600
H  19.76600 -1.48700 22.09900
H  20.52000 -0.91100 23.67200
H  15.16400 0.24000 23.55200
H  15.95100 -1.04100 22.59200
H  15.22600 1.73000 21.53300
H  15.72000 0.19200 20.76400
H  16.89000 1.31400 21.38700
H  13.32300 3.35000 27.01100
H  14.57000 3.52800 25.74700
H  14.65100 4.61900 27.16500
H  14.55800 1.88100 31.80800
H  16.03100 5.54000 33.98400
H  17.38800 4.35500 34.11500
H  15.89600 4.22800 35.04600
Mg 35.58400 1.87000 29.97500
C  33.18400 2.91400 32.39900
C  37.96100 1.69500 32.57400
C  37.90900 1.24100 27.68200
C  33.17200 2.28100 27.43200
N  35.63400 2.35100 32.18400
C  34.50900 2.65900 32.94800
C  34.90600 2.75200 34.44400
C  36.47200 2.52300 34.44300
C  36.69100 2.10200 32.95300
C  37.38400 3.67600 34.86400
C  34.09500 1.69900 35.27800
C  33.18600 2.23600 36.50300
H  33.97900 3.33700 37.38300
N  37.75900 1.64300 30.05500
C  38.48100 1.49000 31.21000
C  39.86200 1.08400 30.82800
C  39.79800 0.89800 29.39400
C  38.44200 1.19200 28.96100
C  40.97900 0.88400 31.95900
C  40.89000 0.37100 28.47500
O  40.64700 0.07200 27.31700
C  42.33500 0.14200 28.95900
N  35.60400 2.01600 27.92000
C  36.67400 1.68800 27.17400
C  36.38800 1.77900 25.65400
C  34.89300 1.85800 25.56700
C  34.54900 2.08500 27.04100
C  37.15600 2.95800 24.96000
C  34.15100 0.60000 25.09500
C  32.96500 0.79500 24.16300
N  33.50800 2.28800 29.92900
C  32.68900 2.47100 28.78100
C  31.33600 2.75800 29.35200
C  31.54000 3.08200 30.75900
C  32.80500 2.63300 31.06500
C  30.16700 2.99000 28.46400
C  31.02900 3.56400 31.93100
O  29.93100 4.02300 32.18100
C  32.01500 3.39100 33.07500
C  32.14200 4.68000 33.77200
O  32.68000 5.66700 33.41100
O  31.40400 4.55600 34.86500
C  31.28700 5.72900 35.77300
H  38.60900 1.49000 33.42800
H  38.49800 0.94800 26.81000
H  32.39900 2.48500 26.68800
H  34.65000 3.73700 34.83300
H  36.68400 1.67900 35.09900
H  36.79300 4.50800 35.24800
H  37.89000 4.11000 34.00000
H  38.02300 3.43100 35.71200
H  34.70100 0.86200 35.62300
H  33.39700 1.22600 34.58700
H  32.71600 1.47300 37.12300
H  32.34600 2.73500 36.02000
H  40.66500 0.99900 32.99700
H  41.73300 1.64700 31.76800
H  41.45300 -0.09800 31.96700
H  42.65600 0.99200 29.56100
H  42.93000 -0.13400 28.08800
H  42.22800 -0.73200 29.60100
H  36.85500 0.86200 25.29300
H  34.52400 2.67800 24.95000
H  37.97900 2.69900 24.29400
H  37.42100 3.74300 25.66800
H  36.45700 3.38000 24.23900
H  33.91300 0.05000 26.00500
H  34.78300 -0.07900 24.52200
H  32.95400 1.80500 23.75400
H  32.13400 0.68400 24.86000
H  32.83700 0.17600 23.27400
H  29.33600 3.62500 28.77200
H  29.60600 2.09100 28.21100
H  30.51200 3.54200 27.59000
H  31.70600 2.59000 33.74600
H  30.42100 6.23200 35.34100
H  32.20200 6.32100 35.80300
H  31.01800 5.23300 36.70500

