158

Mg 8.39400 3.91200 27.70300
C  9.40700 2.05100 30.36200
C  6.19900 5.67000 29.87200
C  7.01200 5.45400 25.05300
C  9.57200 1.43300 25.45900
N  7.64900 3.68900 29.88400
C  8.54400 3.11200 30.73900
C  8.30300 3.60900 32.22700
C  7.16400 4.65500 32.07300
C  6.93600 4.65400 30.54100
C  5.83000 4.41000 32.94500
C  9.58200 4.09000 32.93000
C  9.47500 5.22100 33.95600
H  10.36100 5.13800 35.26500
N  6.96400 5.46900 27.49600
C  6.25000 6.07500 28.46700
C  5.51000 7.14700 27.93600
C  5.83000 7.20900 26.51500
C  6.65000 6.00600 26.32000
C  4.62000 8.07100 28.76500
C  5.45500 8.19600 25.42800
O  5.93000 8.21700 24.35100
C  4.67800 9.45900 25.85400
N  8.33700 3.56400 25.48400
C  7.69300 4.36700 24.63000
C  7.65700 3.86200 23.16000
C  8.71000 2.64900 23.24300
C  8.81400 2.46500 24.79800
C  6.26500 3.31100 22.66900
C  10.16600 3.06000 22.76400
C  10.82300 1.95400 21.94300
N  9.44300 2.06200 27.75800
C  9.88500 1.22100 26.81800
C  10.63800 0.18100 27.51400
C  10.54500 0.47500 28.89200
C  9.82300 1.66700 29.01700
C  11.24600 -0.93000 26.82000
C  10.95500 0.08000 30.23600
O  11.73300 -0.78100 30.64000
C  10.20200 1.08400 31.22500
C  9.39600 0.24700 32.16200
O  8.32600 -0.30200 31.97300
O  9.99000 0.33700 33.37700
C  9.43700 -0.41700 34.55100
H  5.77500 6.37100 30.59400
H  6.65700 5.92900 24.13600
H  10.06200 0.76200 24.75100
H  7.81300 2.79600 32.76300
H  7.55300 5.64800 32.29700
H  6.13800 4.01000 33.91100
H  5.18400 3.74400 32.37300
H  5.32100 5.34900 33.16200
H  10.24100 4.40000 32.11800
H  10.05200 3.20600 33.36000
H  8.44900 5.32700 34.30800
H  9.82100 6.10800 33.42400
H  4.60300 7.77000 29.81200
H  3.59100 8.02200 28.40900
H  4.88900 9.12600 28.80200
H  5.10700 9.67300 26.83400
H  3.61700 9.24200 25.97100
H  4.81500 10.26300 25.13100
H  8.09500 4.57100 22.45800
H  8.23800 1.78000 22.78400
H  5.48500 3.74700 23.29400
H  6.02500 2.25100 22.75400
H  6.30000 3.74500 21.67000
H  10.82900 3.34900 23.57900
H  10.07000 3.93100 22.11500
H  10.19900 1.06200 21.88100
H  11.82900 1.64200 22.22100
H  10.93500 2.25500 20.90200
H  12.28900 -0.69500 26.60600
H  10.82300 -1.19900 25.85200
H  11.19600 -1.68900 27.60000
H  10.89600 1.63300 31.86200
H  10.19500 -1.07300 34.97900
H  8.52500 -0.98900 34.38200
H  9.15800 0.38600 35.23400
Mg 48.06300 16.10000 28.30900
C  46.12600 15.78000 31.04300
C  50.34300 17.93200 29.92100
C  49.78300 16.21000 25.36300
C  45.42300 14.55300 26.46000
N  48.08500 16.90600 30.31700
C  47.28700 16.49500 31.27200
C  47.98800 16.75900 32.65200
C  49.17600 17.77100 32.32200
C  49.23600 17.54600 30.74800
C  48.89000 19.24100 32.64100
C  48.32300 15.62400 33.56300
C  48.01200 15.84100 35.10400
H  47.90400 17.31500 35.59000
N  49.86800 16.93700 27.71700
C  50.68900 17.68900 28.51600
C  51.93100 17.98100 27.83500
C  51.84200 17.36800 26.53900
C  50.41100 16.83900 26.46000
C  53.14100 18.65400 28.44900
C  52.91800 17.18200 25.44600
O  52.76500 16.38300 24.46100
C  54.31800 17.83000 25.56300
N  47.61100 15.56000 26.23900
C  48.50900 15.65500 25.23500
C  48.01100 15.07400 23.89800
C  46.63900 14.49900 24.33500
C  46.51600 14.91000 25.75000
C  48.12600 16.15200 22.80000
C  46.53800 12.94000 24.06900
C  45.56500 12.49500 22.96200
N  46.13200 15.40200 28.65700
C  45.18800 14.82900 27.79100
C  44.00500 14.38500 28.62200
C  44.41500 14.66600 29.87500
C  45.61800 15.38800 29.83200
C  42.76900 13.85300 28.09700
C  44.00300 14.62700 31.33300
O  43.05900 14.09400 31.88000
C  45.12000 15.29100 32.09900
C  44.43400 16.34400 32.92700
O  44.14800 17.45300 32.56400
O  44.24600 15.91300 34.21500
C  43.37600 16.65400 35.15800
H  51.13600 18.37200 30.52900
H  50.25000 16.32700 24.38300
H  44.59400 14.09400 25.91700
H  47.24200 17.44100 33.06000
H  50.09700 17.29400 32.65900
H  47.96600 19.26100 33.21900
H  48.69200 19.85100 31.75900
H  49.78600 19.61100 33.14000
H  49.38500 15.38200 33.51400
H  47.77300 14.77700 33.15400
H  48.76900 15.39200 35.74700
H  47.08500 15.34200 35.38800
H  52.92300 19.30200 29.29800
H  53.58700 19.26900 27.66800
H  53.93400 17.95400 28.71200
H  54.69800 17.78100 26.58400
H  54.14600 18.88900 25.36800
H  55.00400 17.41100 24.82700
H  48.77400 14.31000 23.74400
H  45.89100 15.04600 23.76100
H  47.34400 15.91400 22.08000
H  49.05200 16.07000 22.23100
H  47.97500 17.14200 23.23200
H  46.35100 12.38200 24.98600
H  47.49700 12.58300 23.69300
H  46.13000 12.46100 22.03000
H  44.77800 13.20900 22.72100
H  45.14500 11.50400 23.13500
H  42.18600 14.26100 27.27100
H  42.04700 13.76900 28.90900
H  43.00300 12.81000 27.88600
H  45.58700 14.51500 32.70600
H  43.00900 15.81900 35.75500
H  42.54700 17.04500 34.56700
H  43.95300 17.37900 35.73200

