158

Mg 35.98000 49.18200 25.72400
C  36.10200 47.15400 28.53000
C  34.47000 51.58700 27.61400
C  35.78300 51.00600 22.96500
C  36.79800 46.39100 23.79600
N  35.18500 49.22800 27.86900
C  35.52300 48.46900 28.86800
C  35.18200 49.00900 30.22700
C  34.41600 50.32700 29.89500
C  34.66300 50.42800 28.35700
C  32.98900 50.46600 30.33300
C  36.39900 49.02600 31.10200
C  36.18500 48.72900 32.54000
H  34.79000 48.92700 33.13600
N  35.37900 51.08800 25.39200
C  34.76200 51.92000 26.30400
C  34.57200 53.20200 25.69000
C  35.02200 53.10400 24.31300
C  35.48000 51.70300 24.17100
C  34.03700 54.37000 26.36700
C  35.06700 54.15100 23.27800
O  35.51700 53.87300 22.16500
C  34.62300 55.49000 23.49900
N  36.03900 48.66500 23.66300
C  36.03700 49.64700 22.71800
C  36.11100 49.05100 21.30500
C  36.53500 47.61800 21.62100
C  36.52300 47.53200 23.14000
C  34.81100 49.05900 20.42800
C  37.91600 47.17000 20.90900
C  39.21300 47.87400 21.41400
N  36.33600 47.17200 26.03100
C  36.72200 46.20700 25.22600
C  37.10000 44.99200 25.95500
C  36.91000 45.33300 27.27100
C  36.42300 46.62500 27.25900
C  37.66800 43.68000 25.38100
C  37.03200 44.87600 28.69700
O  37.49900 43.84000 29.16900
C  36.62700 46.07300 29.57800
C  35.50800 45.66600 30.43300
O  34.31700 45.46400 30.09200
O  35.92900 45.32500 31.68300
C  35.00100 44.83000 32.71300
H  33.93600 52.33100 28.20800
H  35.74400 51.52100 22.00200
H  37.12600 45.54900 23.18400
H  34.44600 48.29200 30.59200
H  35.03900 51.12400 30.30000
H  32.81000 51.37100 30.91300
H  32.75000 49.54700 30.86800
H  32.30200 50.50900 29.48700
H  36.82700 50.02400 31.01400
H  37.21400 48.46300 30.64800
H  36.87400 49.47000 32.94400
H  36.53900 47.71700 32.74100
H  33.47400 53.99200 27.22000
H  33.35300 54.99800 25.79600
H  34.91500 54.94300 26.66700
H  35.29300 55.94400 24.22900
H  33.57500 55.44200 23.79400
H  34.74400 56.11400 22.61300
H  36.92500 49.49700 20.73200
H  35.74000 46.92100 21.35600
H  34.59800 48.11800 19.92100
H  34.98400 49.82900 19.67600
H  33.90700 49.30300 20.98500
H  37.93300 47.36600 19.83600
H  38.04600 46.09100 20.99500
H  39.74900 47.05700 21.89600
H  38.99700 48.52900 22.25800
H  39.77900 48.40000 20.64400
H  38.59100 43.27500 25.79700
H  37.84000 43.71400 24.30500
H  36.97900 42.88100 25.65400
H  37.50300 46.34300 30.16900
H  34.59600 43.87300 32.38500
H  34.24300 45.60400 32.83200
H  35.60000 44.74400 33.62000
Mg 26.82000 50.48200 26.43200
C  24.76800 51.87200 28.87000
C  28.83800 49.37400 28.99700
C  28.72100 49.22600 24.08900
C  24.77300 52.17100 24.00000
N  26.84700 50.72600 28.67400
C  25.83500 51.24300 29.45300
C  26.01900 50.87400 30.96200
C  27.52300 50.26200 30.97800
C  27.74800 50.05900 29.44500
C  28.74500 50.95700 31.63500
C  24.95400 49.81200 31.53300
C  24.12900 50.26400 32.73900
H  23.99100 49.24000 33.87300
N  28.59700 49.50900 26.55000
C  29.26000 49.11500 27.65600
C  30.44900 48.40500 27.30100
C  30.50200 48.43800 25.89100
C  29.25200 49.09800 25.43500
C  31.43700 47.83800 28.38100
C  31.63200 48.01600 25.02100
O  31.69500 48.11200 23.79200
C  32.81500 47.20300 25.68300
N  26.71800 50.65200 24.33400
C  27.59700 49.96400 23.57500
C  27.34400 50.09100 22.06800
C  25.97800 50.92500 22.08300
C  25.83400 51.25300 23.54000
C  28.52500 50.70100 21.38500
C  24.77300 50.18200 21.40500
C  24.17000 48.86700 22.12500
N  25.08300 51.69200 26.42000
C  24.49600 52.32000 25.38300
C  23.30000 53.05600 25.88600
C  23.39200 52.82800 27.22900
C  24.52600 52.14100 27.53400
C  22.23000 53.75800 25.07000
C  22.62900 53.09200 28.44300
O  21.64700 53.80200 28.71100
C  23.42800 52.41800 29.56500
C  23.64900 53.30500 30.73400
O  24.45000 54.20800 30.79000
O  22.76000 53.05600 31.70600
C  22.75100 53.79800 32.95300
H  29.36900 48.86300 29.80300
H  29.31000 48.73700 23.31000
H  24.22400 52.57400 23.14600
H  25.86600 51.74500 31.59800
H  27.39000 49.24800 31.35700
H  29.47300 51.09400 30.83500
H  29.03400 50.26800 32.42800
H  28.54300 51.90000 32.14300
H  25.38700 48.82600 31.70000
H  24.16400 49.76300 30.78400
H  23.09200 50.54600 32.55500
H  24.54200 51.21500 33.07600
H  31.57100 46.76100 28.28000
H  31.16500 47.94800 29.43100
H  32.42500 48.28000 28.25500
H  33.42100 47.65800 26.46700
H  33.54400 46.89400 24.93300
H  32.48100 46.25700 26.10900
H  27.21600 49.09600 21.64100
H  26.11300 51.84200 21.50800
H  29.29300 50.97600 22.10700
H  28.34600 51.53300 20.70400
H  28.93600 49.94000 20.72100
H  25.12800 49.96700 20.39800
H  23.90900 50.79000 21.13700
H  23.13700 49.15600 22.32000
H  24.65300 48.67400 23.08300
H  24.11600 47.92200 21.58500
H  22.25700 53.36500 24.05400
H  22.33200 54.84400 25.07100
H  21.24400 53.55100 25.48400
H  22.89200 51.52700 29.89300
H  21.87100 53.52800 33.53800
H  22.67700 54.88400 32.89400
H  23.62500 53.63400 33.58400

