158

Mg 17.50300 -1.29000 27.17500
C  16.53400 0.56700 29.93900
C  19.44000 -3.29800 29.12900
C  18.73300 -2.82200 24.39200
C  15.82000 1.04200 25.12000
N  17.97100 -1.30200 29.23400
C  17.38100 -0.52500 30.24800
C  17.84700 -0.92900 31.67800
C  18.88100 -2.08400 31.31800
C  18.80200 -2.18900 29.79200
C  20.33900 -1.69100 31.73000
C  16.73000 -1.35700 32.67900
C  16.75000 -0.77800 34.14400
H  18.02400 -0.34200 34.76500
N  18.74300 -3.00700 26.82300
C  19.43200 -3.68900 27.78600
C  20.10900 -4.82400 27.18100
C  19.87400 -4.77000 25.81900
C  19.09700 -3.47500 25.56400
C  21.12300 -5.74000 27.88100
C  20.23000 -5.77000 24.70000
O  19.88200 -5.64500 23.55000
C  21.04000 -7.06200 24.96500
N  17.32300 -0.86000 25.07800
C  17.91700 -1.72300 24.14200
C  17.80100 -0.96000 22.78300
C  16.54500 -0.06000 22.96200
C  16.60500 0.10200 24.45800
C  19.17300 -0.30300 22.41900
C  15.26600 -0.71500 22.37200
C  14.37500 0.34300 21.71500
N  16.34500 0.50600 27.40300
C  15.65400 1.27000 26.51900
C  14.97600 2.29200 27.24900
C  15.32600 2.09400 28.54100
C  16.09900 0.92400 28.64100
C  14.02300 3.35900 26.67300
C  15.03800 2.54200 29.93500
O  14.34100 3.46600 30.41700
C  15.88100 1.56200 30.85400
C  16.92300 2.45800 31.62800
O  17.96100 2.89600 31.12400
O  16.45000 2.58000 32.93200
C  17.31000 3.54400 33.69900
H  20.09900 -3.93900 29.72000
H  19.09200 -3.28800 23.47200
H  15.18900 1.70900 24.52800
H  18.40300 -0.11200 32.13800
H  18.65300 -3.04000 31.78900
H  20.40600 -0.95400 32.53000
H  21.03200 -1.43600 30.92900
H  20.86400 -2.49100 32.25200
H  16.64100 -2.43700 32.79700
H  15.78300 -1.08700 32.21300
H  16.31000 -1.53300 34.79600
H  16.10900 0.10300 34.09300
H  20.56700 -6.67700 27.90000
H  21.40800 -5.56400 28.91900
H  22.05000 -5.86000 27.32000
H  21.17300 -7.75800 24.13700
H  20.54200 -7.55900 25.79800
H  22.05700 -6.84100 25.28600
H  17.61200 -1.69500 22.00100
H  16.77000 0.87200 22.44500
H  19.06600 0.78100 22.46300
H  19.45900 -0.67800 21.43700
H  19.88000 -0.57800 23.20200
H  14.74900 -1.06000 23.26700
H  15.43100 -1.41600 21.55400
H  14.86400 1.31700 21.67600
H  13.37200 0.36700 22.14000
H  14.25600 0.14800 20.64900
H  14.40800 4.37200 26.79300
H  13.12100 3.26400 27.27800
H  13.67500 3.36400 25.64000
H  15.16900 1.07600 31.52100
H  17.16100 4.47400 33.15000
H  18.33500 3.17700 33.74100
H  17.03700 3.72400 34.73900
Mg 36.36700 1.67000 29.53500
C  34.19200 2.58800 31.91400
C  38.91600 1.65100 31.90700
C  38.60200 1.11300 27.07600
C  33.86600 2.00500 27.13500
N  36.52000 2.12100 31.67100
C  35.48400 2.45300 32.48200
C  35.83300 2.35400 33.93700
C  37.42400 2.33000 33.86900
C  37.65300 1.94100 32.41600
C  38.06500 3.68900 34.28000
C  35.20800 1.07500 34.56400
C  34.75900 1.20700 35.98200
H  35.10900 2.50300 36.74500
N  38.45800 1.40400 29.52900
C  39.32700 1.48900 30.61700
C  40.68300 1.17400 30.14200
C  40.66000 1.01000 28.74100
C  39.20400 1.17900 28.37300
C  41.86300 0.95900 31.16600
C  41.80800 0.72800 27.78800
O  41.64400 0.74000 26.57800
C  43.23900 0.53300 28.26500
N  36.33400 1.81900 27.39300
C  37.34100 1.31100 26.65900
C  36.98900 1.22200 25.18200
C  35.45700 1.46700 25.18100
C  35.17800 1.80700 26.60600
C  37.77400 2.13100 24.23500
C  34.67400 0.30100 24.48300
C  33.80000 -0.68600 25.34700
N  34.41600 2.14800 29.47800
C  33.51900 2.25900 28.45300
C  32.22600 2.65700 28.96000
C  32.43000 2.74300 30.32800
C  33.78900 2.48800 30.50500
C  31.01900 2.81400 28.23900
C  31.75400 2.92500 31.60100
O  30.58600 3.23100 31.89700
C  32.88200 2.88700 32.63700
C  32.95700 4.22100 33.41500
O  33.33700 5.24700 32.87600
O  32.33500 4.10700 34.65700
C  32.12200 5.30700 35.38600
H  39.67800 1.60600 32.68800
H  39.32700 0.92300 26.28100
H  33.06000 2.11100 26.40700
H  35.49100 3.31200 34.32900
H  37.80500 1.48200 34.43700
H  37.33300 4.35100 34.74200
H  38.51500 4.12600 33.38800
H  38.89600 3.65800 34.98500
H  35.93400 0.28000 34.39400
H  34.31100 0.77800 34.02100
H  35.12700 0.36900 36.57500
H  33.66900 1.24400 35.99300
H  42.38400 0.07800 30.79300
H  41.58900 0.72800 32.19600
H  42.48200 1.85600 31.17700
H  43.83200 0.51900 27.35100
H  43.22100 -0.51400 28.56900
H  43.55700 1.30200 28.96800
H  37.30900 0.20300 24.96600
H  35.20700 2.42500 24.72700
H  38.22800 2.86700 24.89900
H  37.08200 2.56600 23.51500
H  38.50100 1.55100 23.66700
H  35.52300 -0.26400 24.09900
H  34.08100 0.73200 23.67700
H  32.75600 -0.49000 25.10100
H  33.89800 -0.76500 26.42900
H  34.06900 -1.73200 25.19900
H  30.97900 3.68400 27.58400
H  30.20900 2.84700 28.96800
H  30.88300 1.99700 27.53000
H  32.56600 2.11500 33.33900
H  31.64200 5.08900 36.34000
H  31.43400 5.94700 34.83300
H  33.05100 5.86600 35.49600

