158

Mg 9.67800 47.66200 26.09200
C  7.76300 48.06700 28.91400
C  12.50300 48.42500 27.79900
C  11.45500 47.21400 23.20800
C  6.72600 47.52100 24.23500
N  10.13800 48.22500 28.13700
C  9.18400 48.25300 29.17300
C  9.90700 48.30000 30.50100
C  11.27200 48.78100 30.03800
C  11.35100 48.47900 28.57000
C  11.69100 50.24900 30.24600
C  9.83300 47.01700 31.38100
C  9.67500 47.35200 32.89400
H  9.46400 46.22500 33.94800
N  11.69100 47.70600 25.58800
C  12.71600 48.06700 26.48000
C  13.95600 48.15500 25.79300
C  13.64600 47.87300 24.43600
C  12.23200 47.53200 24.37900
C  15.37500 48.52000 26.42400
C  14.60600 47.84200 23.17700
O  14.16600 47.73800 22.05100
C  16.14500 47.84500 23.44800
N  9.19700 47.34000 24.08300
C  10.09800 47.15600 23.13100
C  9.41400 46.72700 21.81000
C  7.88500 46.75600 22.17200
C  7.92400 47.21300 23.60300
C  9.83000 47.42000 20.45800
C  7.27700 45.35900 22.07100
C  7.49700 44.36200 23.20900
N  7.61300 48.00200 26.39900
C  6.52900 47.92300 25.55300
C  5.26000 47.98800 26.30100
C  5.70000 47.98300 27.63700
C  7.12900 48.01100 27.64100
C  3.90200 47.91900 25.69600
C  5.27500 47.93000 28.99800
O  4.12700 47.83900 29.41900
C  6.54200 47.95800 29.91300
C  6.49100 46.66500 30.68200
O  6.90200 45.55900 30.37600
O  5.86300 46.85900 31.92200
C  5.80800 45.68200 32.82200
H  13.45100 48.55500 28.32400
H  12.08200 46.94700 22.35500
H  5.88800 47.32000 23.56400
H  9.33800 49.07000 31.02300
H  11.96300 48.18300 30.63300
H  10.79200 50.80800 30.50700
H  12.24900 50.77700 29.47200
H  12.37300 50.36500 31.08700
H  10.69600 46.35800 31.27700
H  9.02100 46.42600 30.95800
H  8.73700 47.90600 32.89800
H  10.46000 48.02600 33.23800
H  15.46900 48.46900 27.50900
H  15.78000 49.47100 26.07900
H  16.07600 47.74500 26.11500
H  16.30800 46.97700 24.08600
H  16.47200 48.74900 23.96200
H  16.83200 47.83600 22.60100
H  9.74000 45.68900 21.73900
H  7.24200 47.43100 21.60700
H  10.17900 48.38900 20.81600
H  9.09200 47.68900 19.70200
H  10.76000 46.95300 20.13200
H  7.72600 44.90000 21.19000
H  6.20000 45.34200 21.90400
H  6.98000 43.41400 23.06400
H  6.99300 44.74100 24.09900
H  8.48900 44.11800 23.58900
H  3.76600 46.84800 25.84500
H  3.79400 48.05400 24.62000
H  3.19100 48.50100 26.28300
H  6.46400 48.73900 30.66800
H  6.73100 45.10400 32.77700
H  4.91600 45.07900 32.65400
H  5.68000 46.00500 33.85500
Mg 0.53200 43.32100 26.01200
C  1.87500 43.18300 29.29200
C  -2.45100 42.13400 27.30500
C  -0.53600 42.58200 22.83800
C  3.71400 44.03600 24.77800
N  -0.24300 42.95000 28.05900
C  0.49000 43.00700 29.25200
C  -0.32500 42.59900 30.42900
C  -1.75000 42.19200 29.75300
C  -1.45400 42.39200 28.26100
C  -2.13000 40.68500 30.04000
C  -0.52500 43.82100 31.42400
C  -0.69600 43.44200 32.90200
H  -1.78900 42.47700 33.36800
N  -1.28900 42.53200 25.17300
C  -2.40700 42.15600 25.92800
C  -3.44200 41.82100 24.98500
C  -2.92900 41.97300 23.68600
C  -1.54500 42.35400 23.82500
C  -4.83000 41.49900 25.47600
C  -3.66500 41.99100 22.37600
O  -3.07300 42.19800 21.32900
C  -5.09600 41.70600 22.31400
N  1.44500 43.27600 24.11600
C  0.83000 42.87200 22.96700
C  1.71300 43.10300 21.74500
C  2.83000 44.04900 22.34000
C  2.67600 43.76900 23.88800
C  2.26000 41.88900 21.02400
C  2.71400 45.51100 21.99100
C  3.57300 46.02400 20.90800
N  2.46300 43.59300 26.77000
C  3.72700 43.84600 26.19900
C  4.77900 43.72100 27.26400
C  4.04000 43.57800 28.47600
C  2.63200 43.45800 28.13300
C  6.22400 43.87000 26.92500
C  4.27000 43.44200 29.87200
O  5.30000 43.27700 30.53400
C  2.86900 43.17200 30.52100
C  2.97300 41.75200 30.96700
O  2.70100 40.76000 30.28000
O  3.20100 41.79200 32.31400
C  2.85800 40.63100 32.99900
H  -3.43200 41.90900 27.72900
H  -0.83800 42.26600 21.83700
H  4.68100 44.36600 24.39100
H  0.10300 41.73500 30.93800
H  -2.61400 42.82900 29.94600
H  -1.80900 40.08600 29.18700
H  -3.21700 40.70700 30.12800
H  -1.69600 40.25700 30.94300
H  -1.28200 44.52400 31.07600
H  0.39800 44.40000 31.45600
H  -0.84700 44.31500 33.53700
H  0.29200 43.08500 33.19600
H  -5.48100 42.32100 25.77300
H  -4.81300 40.75800 26.27500
H  -5.40800 40.92700 24.75000
H  -5.16800 40.65400 22.59000
H  -5.44900 41.69600 21.28300
H  -5.62200 42.35000 23.01900
H  1.10500 43.67400 21.04300
H  3.78100 43.62500 22.01700
H  1.84700 40.93700 21.35800
H  3.34000 41.83600 21.16100
H  2.26600 42.11100 19.95700
H  2.83700 46.10900 22.89400
H  1.66200 45.66600 21.75300
H  3.02700 46.27000 19.99700
H  4.19300 45.21400 20.52400
H  4.25400 46.83900 21.15000
H  6.64000 43.11300 26.26000
H  6.66400 43.64800 27.89700
H  6.44700 44.87900 26.57800
H  2.51400 43.83100 31.31300
H  2.74900 41.01700 34.01300
H  3.64100 39.88300 32.86800
H  1.91200 40.18700 32.68800

