158

Mg 34.94500 48.62000 26.42800
C  35.34100 46.74500 29.37100
C  33.66600 51.20600 28.27100
C  34.04600 50.10900 23.54100
C  35.81300 45.70100 24.60100
N  34.49600 48.81200 28.62000
C  34.91200 48.04700 29.59700
C  34.90900 48.74600 30.98000
C  34.17100 50.09000 30.61300
C  34.08600 50.01600 29.03200
C  32.71900 50.10900 31.26700
C  36.33500 48.98000 31.60400
C  36.38000 48.60100 33.16500
H  35.15300 48.40200 33.92600
N  34.17900 50.46700 26.01700
C  33.77100 51.48500 26.86200
C  33.51400 52.73700 26.13300
C  33.49300 52.31100 24.75200
C  33.89300 50.89500 24.72800
C  33.19100 54.05300 26.81800
C  33.06400 53.16200 23.57100
O  33.19300 52.67400 22.42300
C  32.56400 54.62700 23.63900
N  35.00500 48.10200 24.43700
C  34.51800 48.77100 23.43800
C  34.50900 48.07600 22.05800
C  35.40700 46.86700 22.47000
C  35.46900 46.94600 23.97600
C  33.16800 47.68200 21.44000
C  36.75200 46.73400 21.77500
C  37.64800 48.00000 22.00600
N  35.56200 46.60500 26.87200
C  35.88200 45.58500 26.01100
C  36.21800 44.41800 26.79500
C  36.00300 44.77100 28.14500
C  35.59200 46.17400 28.12500
C  36.66100 43.15500 26.27600
C  36.01400 44.36900 29.51800
O  36.21300 43.25600 29.92600
C  35.62300 45.61000 30.36700
C  34.39000 45.07300 31.00600
O  33.25800 45.11600 30.52100
O  34.63000 44.52300 32.19900
C  33.47100 43.85300 32.85000
H  33.31700 52.06100 28.85400
H  33.72200 50.50100 22.57400
H  36.02900 44.90500 23.88400
H  34.30400 48.11400 31.62900
H  34.81000 50.91800 30.91800
H  32.44800 49.22800 31.84900
H  32.00700 50.20100 30.44700
H  32.51700 50.92800 31.95700
H  36.53100 50.05200 31.59900
H  37.17500 48.51300 31.09000
H  36.98200 49.34600 33.68400
H  37.05000 47.75000 33.04400
H  33.73200 54.88100 26.35900
H  33.50000 54.06100 27.86300
H  32.10700 54.16500 26.80500
H  32.54500 55.10000 22.65700
H  33.30800 55.19200 24.20100
H  31.56500 54.64600 24.07400
H  35.04900 48.87200 21.54500
H  34.87600 45.93600 22.27300
H  33.03700 46.62400 21.21500
H  33.15100 48.21800 20.49100
H  32.33200 47.95400 22.08500
H  36.72900 46.63300 20.69000
H  37.32200 45.87400 22.12700
H  38.16300 48.09700 21.05000
H  38.27600 47.80000 22.87400
H  37.12300 48.94500 22.14800
H  36.93600 43.32100 25.23400
H  36.01400 42.27900 26.32200
H  37.52800 42.79900 26.83200
H  36.27600 45.93300 31.17700
H  33.50500 42.78800 32.62500
H  32.49600 44.28900 32.63400
H  33.61500 43.86900 33.93100
Mg 9.30900 48.24700 25.34500
C  6.98500 48.80500 27.86600
C  11.70100 49.46500 27.44000
C  11.46100 47.64800 22.96800
C  6.67200 47.70000 22.98800
N  9.27800 49.20400 27.40000
C  8.28300 49.05500 28.35000
C  8.81800 49.13700 29.83200
C  10.21500 49.83500 29.60200
C  10.42800 49.47400 28.02300
C  10.15700 51.34300 29.82700
C  8.80600 47.75600 30.52400
C  9.37600 47.75700 31.96000
H  8.46000 47.21600 33.06100
N  11.34000 48.39000 25.25500
C  12.14800 48.90400 26.25200
C  13.50900 48.71900 25.78200
C  13.52000 48.21600 24.51400
C  12.05500 48.08700 24.18400
C  14.66000 49.15200 26.71600
C  14.58300 47.90800 23.57400
O  14.38600 47.35600 22.50000
C  15.96700 48.10200 23.99600
N  9.07200 47.81300 23.23600
C  10.18100 47.60200 22.57300
C  9.86500 46.99000 21.16000
C  8.29500 47.01700 21.13800
C  7.97200 47.61500 22.47700
C  10.67700 47.51000 19.93700
C  7.60600 45.67000 20.78800
C  6.59400 45.75600 19.54200
N  7.25800 48.33100 25.37600
C  6.28400 48.09200 24.30600
C  4.98400 48.18200 24.90900
C  5.25700 48.41800 26.34000
C  6.59000 48.52500 26.50700
C  3.62800 48.18300 24.17600
C  4.58800 48.66500 27.59900
O  3.36000 48.60700 27.88300
C  5.70100 48.85900 28.65100
C  5.39500 47.74800 29.66100
O  5.74900 46.60100 29.59600
O  4.60200 48.23000 30.65900
C  4.06900 47.26200 31.63700
H  12.46900 49.69000 28.18300
H  12.11900 47.31300 22.16400
H  5.87000 47.53400 22.26700
H  8.16000 49.77200 30.42500
H  11.05600 49.35900 30.10600
H  9.26000 51.61300 30.38300
H  10.18700 51.88500 28.88100
H  11.01300 51.60800 30.44800
H  9.23700 46.91900 29.97700
H  7.75500 47.52200 30.69300
H  9.72300 48.78000 32.10900
H  10.23500 47.08700 31.92400
H  14.42900 49.36600 27.75900
H  15.03900 50.12400 26.40000
H  15.44800 48.40000 26.67200
H  16.12500 47.31300 24.73100
H  16.01300 49.05400 24.52400
H  16.60700 48.05500 23.11500
H  10.25500 45.97200 21.13900
H  7.94100 47.86300 20.54900
H  10.08800 48.19400 19.32700
H  11.14300 46.77800 19.27700
H  11.49900 48.06200 20.39300
H  7.14800 45.14300 21.62500
H  8.37700 44.93900 20.54800
H  5.78600 45.04900 19.73300
H  7.07300 45.67600 18.56600
H  6.10900 46.72500 19.65500
H  3.84300 48.10200 23.11100
H  2.99700 49.04400 24.39900
H  3.10500 47.35500 24.65500
H  5.67300 49.83300 29.14000
H  3.44600 47.92100 32.24100
H  4.89500 46.97800 32.28900
H  3.57600 46.37700 31.23500

