158

Mg 1.43200 -1.71900 43.38000
C  4.73500 -0.91800 42.75600
C  0.40200 0.78600 41.41700
C  -1.77100 -3.02900 43.61000
C  2.60000 -4.72900 44.90900
N  2.44700 -0.29100 42.12900
C  3.85800 -0.08800 42.12200
C  4.22300 1.32900 41.56500
C  2.81100 1.96100 41.47500
C  1.80000 0.76900 41.65500
C  2.50100 3.34400 42.20500
C  5.01400 1.20900 40.15600
C  6.22200 2.14100 39.84700
H  6.19800 2.98700 38.59300
N  -0.43800 -1.11400 42.66600
C  -0.60600 -0.02600 41.95300
C  -2.02200 0.19400 41.80300
C  -2.74800 -0.96500 42.32800
C  -1.66800 -1.78700 42.88100
C  -2.56600 1.47600 41.20400
C  -4.22400 -1.19100 42.30500
O  -4.97000 -0.40400 41.75800
C  -4.81600 -2.34600 42.96200
N  0.54700 -3.66100 44.12100
C  -0.81500 -3.86500 44.10800
C  -1.12500 -5.17400 44.80800
C  0.26700 -5.62000 45.35000
C  1.24400 -4.61100 44.72800
C  -2.21900 -5.16300 45.92000
C  0.66300 -7.12500 45.02700
C  0.70600 -8.00100 46.29500
N  3.27800 -2.63400 43.78700
C  3.61000 -3.81300 44.48300
C  5.01600 -3.94400 44.55100
C  5.53000 -2.82000 43.93000
C  4.41300 -2.08000 43.45200
C  5.77500 -5.00100 45.28600
C  6.67700 -2.10100 43.58300
O  7.90300 -2.32900 43.86400
C  6.26900 -0.88900 42.80800
C  6.82100 0.36900 43.46400
O  6.86500 0.62000 44.72300
O  7.42200 1.18100 42.48700
C  8.32300 2.30500 42.97000
H  0.07600 1.65900 40.84800
H  -2.76000 -3.48900 43.64400
H  2.81100 -5.60800 45.52200
H  4.79200 1.81700 42.35600
H  2.68300 2.37000 40.47200
H  1.49400 3.35600 42.62300
H  2.57200 4.21400 41.55200
H  3.28700 3.42500 42.95600
H  4.36600 1.38900 39.29700
H  5.33800 0.17400 40.04200
H  7.14300 1.57800 39.69500
H  6.34600 2.82000 40.69000
H  -2.91800 1.14900 40.22500
H  -1.83700 2.28600 41.17200
H  -3.28600 1.89400 41.90800
H  -5.85800 -2.06300 42.81000
H  -4.64300 -2.32800 44.03800
H  -4.54800 -3.31900 42.55000
H  -1.51200 -5.81100 44.01300
H  0.30300 -5.46400 46.42800
H  -2.71200 -4.19100 45.90900
H  -1.76500 -5.52000 46.84400
H  -2.94400 -5.96600 45.79000
H  1.61200 -7.19600 44.49600
H  -0.13900 -7.48700 44.38400
H  -0.26800 -8.44600 46.50300
H  1.10900 -7.42300 47.12600
H  1.47500 -8.74300 46.08200
H  5.54100 -5.81900 44.60500
H  5.30600 -5.33900 46.21000
H  6.82200 -4.70500 45.35300
H  6.58800 -0.98000 41.77000
H  9.24700 2.14200 42.41500
H  8.58900 2.22100 44.02300
H  8.01200 3.29900 42.64900
Mg 9.22200 48.36300 26.07400
C  7.17900 48.61100 28.94800
C  11.89400 49.51100 28.11200
C  11.23400 48.17000 23.39400
C  6.55600 47.81900 24.18700
N  9.52700 48.87000 28.30600
C  8.54600 48.79500 29.26600
C  9.15600 49.11700 30.66500
C  10.41200 49.88000 30.25200
C  10.65500 49.39900 28.78600
C  10.48700 51.44100 30.42000
C  9.41300 47.88400 31.67800
C  8.92300 48.12400 33.09700
H  8.98000 46.90100 34.09700
N  11.28100 48.83100 25.79200
C  12.16600 49.27500 26.81200
C  13.42000 49.39900 26.14000
C  13.26200 49.03200 24.78500
C  11.86700 48.60400 24.59600
C  14.72800 49.84700 26.91600
C  14.30900 49.05700 23.65100
O  13.95500 48.67400 22.53200
C  15.72100 49.42100 23.95400
N  8.95500 48.08100 24.12300
C  9.91100 47.99200 23.16400
C  9.36700 47.65900 21.76300
C  7.83200 47.62400 22.02500
C  7.79500 47.85100 23.57400
C  9.77800 48.60500 20.58000
C  7.17900 46.22500 21.57500
C  5.74200 46.27500 21.10200
N  7.22100 48.21100 26.44400
C  6.18100 48.03400 25.51700
C  4.93700 48.06400 26.13300
C  5.28500 48.21900 27.52600
C  6.68700 48.33000 27.64200
C  3.57300 47.79800 25.45100
C  4.75900 48.30600 28.82600
O  3.57700 48.26500 29.17300
C  5.92900 48.56500 29.81500
C  5.84600 47.53000 30.80900
O  6.39200 46.42100 30.81400
O  4.97900 47.94200 31.81500
C  4.77900 46.94700 32.86200
H  12.71600 49.83600 28.75400
H  11.82400 48.13900 22.47500
H  5.72700 47.84700 23.47700
H  8.55200 49.84000 31.21300
H  11.26800 49.61900 30.87300
H  10.44800 51.87800 29.42200
H  11.38500 51.75500 30.95100
H  9.70800 51.86000 31.05600
H  10.46600 47.60300 31.67900
H  8.71700 47.10600 31.36500
H  7.88100 48.44200 33.05700
H  9.46700 48.98200 33.49200
H  14.70700 49.76800 28.00300
H  15.04400 50.86600 26.69400
H  15.50000 49.14700 26.59600
H  15.60700 50.28500 24.60800
H  16.30500 49.79800 23.11500
H  16.08900 48.51800 24.44200
H  9.60600 46.63600 21.47400
H  7.28500 48.50200 21.68200
H  9.07800 48.65500 19.74700
H  10.65300 48.04800 20.24600
H  9.95800 49.63800 20.87900
H  7.24800 45.54500 22.42500
H  7.87100 45.89200 20.80200
H  5.16800 45.80700 21.90200
H  5.57800 45.74300 20.16500
H  5.28900 47.26600 21.06400
H  3.42600 48.66600 24.80800
H  2.75500 47.64700 26.15600
H  3.60500 46.90900 24.82100
H  5.67400 49.54100 30.22800
H  3.94400 47.17500 33.52600
H  5.67900 47.08200 33.46300
H  4.59300 45.94000 32.49000

