158

Mg 41.47600 41.45400 26.21500
C  40.59600 43.66000 28.80300
C  42.45400 39.19000 28.65200
C  42.39000 39.49300 23.85400
C  40.50800 43.91100 23.91500
N  41.50400 41.49700 28.45700
C  41.07200 42.44500 29.29800
C  41.11100 42.01800 30.78300
C  41.70100 40.54700 30.73000
C  41.93900 40.38400 29.20900
C  42.91200 40.30500 31.72000
C  39.77000 42.15800 31.50600
C  39.52000 41.34600 32.78900
H  38.92300 42.08300 34.01700
N  42.33600 39.56000 26.26000
C  42.54800 38.73500 27.29100
C  42.89000 37.37500 26.90900
C  42.78000 37.40000 25.46800
C  42.50600 38.83800 25.13000
C  43.18000 36.27800 27.86700
C  42.77000 36.32800 24.44900
O  42.73100 36.54300 23.20800
C  43.10100 34.99300 24.89800
N  41.60100 41.78100 24.24400
C  42.00000 40.77500 23.45100
C  41.71400 41.09400 21.90300
C  40.80100 42.39500 21.98400
C  40.88800 42.73600 23.48000
C  43.00900 41.14900 21.02500
C  39.25900 42.34900 21.54200
C  38.52000 41.10800 22.10100
N  40.63900 43.39000 26.29900
C  40.41600 44.30100 25.30500
C  40.10100 45.58800 25.85300
C  40.09500 45.35100 27.25400
C  40.40300 43.98800 27.42500
C  39.84400 46.85000 25.15400
C  39.83300 45.93100 28.52700
O  39.32100 46.98300 28.76700
C  39.99900 44.82200 29.59100
C  40.80000 45.36500 30.66400
O  41.99700 45.57600 30.60700
O  39.94800 45.52300 31.73100
C  40.53200 46.03000 32.96300
H  42.43900 38.44000 29.44600
H  42.65400 38.81600 23.04000
H  40.17500 44.63000 23.16400
H  41.73800 42.62600 31.43600
H  41.03800 39.71600 30.96900
H  43.84900 40.25100 31.16600
H  42.88100 39.40000 32.32600
H  42.95900 41.13300 32.42700
H  39.04600 41.83700 30.75600
H  39.47300 43.17100 31.77800
H  40.52600 41.01000 33.04300
H  38.82700 40.52200 32.62000
H  42.38700 35.53800 27.76300
H  43.11400 36.59300 28.90800
H  44.20800 35.92200 27.80900
H  44.15500 34.84100 25.13100
H  42.81700 34.25600 24.14600
H  42.39800 34.86200 25.72100
H  41.11600 40.26200 21.53100
H  41.29800 43.18500 21.42200
H  43.32600 42.19200 21.00100
H  42.95700 40.72100 20.02400
H  43.69900 40.60500 21.67000
H  39.31300 42.25800 20.45700
H  38.69900 43.25800 21.76200
H  37.84000 41.36200 22.91500
H  39.20800 40.43300 22.61100
H  38.05900 40.59300 21.25800
H  40.68200 47.52300 24.96900
H  39.17000 47.40000 25.80900
H  39.36700 46.74200 24.17900
H  38.96100 44.63300 29.86500
H  40.29500 47.08900 33.06100
H  41.61700 46.05200 33.06600
H  40.24600 45.56900 33.90800
Mg 30.04400 58.90700 40.76400
C  27.34100 56.90200 39.67200
C  32.12100 56.36500 39.66600
C  32.81400 60.92100 40.75200
C  27.94400 61.54500 41.16100
N  29.71400 56.92900 39.75000
C  28.56400 56.32400 39.38500
C  28.79700 55.17000 38.42000
C  30.23600 54.78300 38.80200
C  30.73900 56.10600 39.47900
C  30.26000 53.56300 39.70500
C  28.56100 55.54100 36.92500
C  27.36800 55.08100 36.17100
H  26.62000 56.05200 35.30700
N  32.20100 58.56000 40.42500
C  32.83100 57.49200 39.97700
C  34.31200 57.62000 39.90000
C  34.53000 58.97500 40.28800
C  33.12600 59.57100 40.44200
C  35.30700 56.61200 39.26900
C  35.85100 59.74200 40.54600
O  36.90300 59.10600 40.51800
C  35.94400 61.12300 41.17600
N  30.33800 60.94700 40.90700
C  31.55100 61.52900 41.04500
C  31.43700 63.03700 41.34100
C  29.93000 63.18600 41.46300
C  29.33000 61.83700 41.17000
C  32.31500 63.58500 42.44800
C  29.24400 64.31700 40.55900
C  30.00900 65.60000 40.33000
N  28.06300 59.17200 40.71400
C  27.31400 60.29500 40.95100
C  25.86900 59.88800 40.91800
C  25.88000 58.57100 40.41400
C  27.20100 58.20300 40.24500
C  24.69300 60.82600 41.15100
C  25.02200 57.59100 39.93900
O  23.77900 57.63500 39.96700
C  25.93800 56.37700 39.45600
C  25.53300 55.21300 40.21000
O  25.96400 54.92800 41.28500
O  24.55700 54.52300 39.50200
C  24.06100 53.31600 40.17100
H  32.78700 55.57400 39.31600
H  33.60900 61.66900 40.78600
H  27.28400 62.38700 41.37900
H  28.24300 54.28700 38.74200
H  30.92500 54.61000 37.97500
H  29.27600 53.28700 40.08200
H  30.91700 53.74200 40.55600
H  30.54100 52.70000 39.10100
H  29.48300 55.25800 36.41600
H  28.62300 56.62500 36.83400
H  26.71700 54.56400 36.87600
H  27.71100 54.37500 35.41500
H  36.25100 56.99000 38.87700
H  34.88100 56.21100 38.35000
H  35.41100 55.71000 39.87100
H  35.28700 61.15000 42.04500
H  35.50800 61.83100 40.47100
H  37.00000 61.23600 41.42300
H  31.64300 63.50600 40.37900
H  29.63000 63.43300 42.48200
H  32.96700 62.81000 42.85100
H  31.76800 63.99900 43.29600
H  32.88000 64.41000 42.01400
H  28.21000 64.47400 40.86600
H  29.04500 63.85500 39.59200
H  29.26200 66.38600 40.44200
H  30.44100 65.70300 39.33400
H  30.70900 65.72200 41.15700
H  24.51200 61.24400 40.16100
H  25.09800 61.47400 41.92900
H  23.87800 60.22600 41.55700
H  25.61700 56.17400 38.43400
H  24.06400 53.21500 41.25600
H  24.63100 52.42200 39.91500
H  23.05600 53.13300 39.79100

