158

Mg 26.03800 1.59900 28.63000
C  27.81900 1.22200 31.59300
C  23.20400 1.97500 30.70300
C  24.18100 1.90700 25.85200
C  28.96400 1.14400 26.82500
N  25.68200 1.64600 30.90000
C  26.51500 1.43700 31.90300
C  25.86700 1.48400 33.29800
C  24.40400 1.85500 32.97400
C  24.38400 1.79800 31.44800
C  23.35900 0.87700 33.67000
C  26.51200 2.53900 34.23500
C  25.73200 2.93800 35.52800
H  26.42000 2.83400 36.87900
N  23.92200 1.79400 28.30800
C  22.97300 1.93400 29.27700
C  21.67000 1.99300 28.58400
C  21.93300 2.13200 27.19300
C  23.39900 1.94000 27.04100
C  20.41500 1.94500 29.32500
C  20.92600 2.30700 26.07200
O  21.31700 2.28600 24.91100
C  19.51000 2.51800 26.41100
N  26.42300 1.32000 26.61900
C  25.54900 1.63900 25.66700
C  26.17200 1.60100 24.27200
C  27.63800 1.11000 24.58400
C  27.72900 1.35800 26.14600
C  25.53400 0.70300 23.17100
C  28.65400 1.80700 23.64500
C  29.93000 1.07800 23.40200
N  27.98900 1.25400 29.05100
C  29.11200 1.08700 28.21100
C  30.28500 0.80500 28.98400
C  29.89600 0.99200 30.23200
C  28.45900 1.14800 30.29700
C  31.65300 0.53100 28.50600
C  30.36000 1.01300 31.67500
O  31.48600 0.92700 32.14300
C  29.06300 1.13200 32.51300
C  29.05000 -0.07200 33.39500
O  28.62600 -1.17500 33.13200
O  29.44400 0.29600 34.68100
C  29.16100 -0.57200 35.81700
H  22.32600 2.02400 31.35100
H  23.67300 2.27600 24.95800
H  29.81500 0.95300 26.16900
H  26.03000 0.51300 33.76600
H  24.07800 2.85000 33.27600
H  22.65200 1.34300 34.35700
H  23.88100 0.17100 34.31700
H  22.86200 0.33900 32.86300
H  26.67300 3.44000 33.64300
H  27.45300 2.14900 34.62200
H  24.93800 2.19300 35.58100
H  25.27800 3.91400 35.35800
H  19.78200 1.19300 28.85500
H  19.91900 2.89700 29.13400
H  20.30800 1.68800 30.37800
H  18.91800 2.57600 25.49800
H  19.33500 3.45100 26.94600
H  19.03200 1.71100 26.96700
H  26.10200 2.60300 23.84900
H  27.55500 0.02300 24.55800
H  25.79400 -0.34000 23.35000
H  25.85400 1.13900 22.22500
H  24.47200 0.79000 23.40400
H  28.94400 2.79200 24.01300
H  28.25700 1.95200 22.64100
H  29.89800 0.11800 23.91700
H  30.72600 1.74600 23.73400
H  30.02200 0.98300 22.32000
H  31.77600 1.20000 27.65400
H  31.69600 -0.51500 28.20200
H  32.42800 0.72200 29.24800
H  29.07000 2.05800 33.08800
H  30.00400 -0.45300 36.49700
H  29.18400 -1.62000 35.51600
H  28.14400 -0.40800 36.17300
Mg 40.91900 9.20300 29.72700
C  42.58100 10.37100 32.51900
C  38.76100 7.54200 31.82600
C  39.22600 8.02600 27.00800
C  43.40100 10.27600 27.70300
N  40.81900 8.88300 31.94200
C  41.47100 9.62800 32.85100
C  40.91000 9.50900 34.27500
C  39.89600 8.33600 34.03300
C  39.75700 8.23700 32.48000
C  40.36300 6.95400 34.69100
C  40.37300 10.82600 34.85200
C  40.27500 10.80800 36.40900
H  41.18200 11.81200 37.18800
N  39.15300 8.09600 29.49400
C  38.46300 7.45200 30.46200
C  37.29300 6.89300 29.86000
C  37.26700 7.24700 28.51200
C  38.59600 7.84100 28.26500
C  36.18600 6.16600 30.65300
C  36.17300 7.05300 27.50300
O  36.29000 7.46500 26.35300
C  34.91600 6.35800 27.96700
N  41.27500 9.11200 27.66200
C  40.43300 8.55500 26.73700
C  40.87900 8.84300 25.21700
C  42.18500 9.68700 25.42900
C  42.39100 9.70400 26.98500
C  40.91600 7.51000 24.29300
C  42.09600 11.06600 24.79100
C  41.29300 12.14300 25.47500
N  42.68700 10.09700 29.99200
C  43.65000 10.45500 29.06000
C  44.76100 11.07400 29.75800
C  44.42400 11.04900 31.11300
C  43.13200 10.45500 31.20400
C  45.98300 11.73200 29.11700
C  44.83100 11.46400 32.38200
O  45.78300 12.09900 32.76400
C  43.59400 11.02400 33.41600
C  44.20400 10.06000 34.30800
O  44.73000 9.06900 33.86200
O  44.18800 10.36200 35.61900
C  44.68800 9.25800 36.52300
H  37.98400 7.18600 32.50500
H  38.57300 7.71100 26.19200
H  44.09700 10.70600 26.97900
H  41.70500 9.16300 34.93600
H  38.89800 8.62400 34.36300
H  41.11200 7.10200 35.47000
H  40.86400 6.26800 34.00800
H  39.43300 6.51000 35.04600
H  39.35300 10.96800 34.49700
H  40.91800 11.68100 34.45200
H  40.39500 9.75400 36.66100
H  39.21600 11.05300 36.49400
H  36.70200 5.97900 31.59500
H  36.13800 5.19400 30.16200
H  35.23500 6.67100 30.82200
H  34.26000 6.87200 28.67000
H  35.24600 5.32700 28.09900
H  34.26700 6.35900 27.09200
H  40.11200 9.48700 24.78800
H  43.12800 9.20400 25.17200
H  40.94000 6.57300 24.84800
H  41.85800 7.54600 23.74500
H  40.04900 7.44700 23.63400
H  41.72300 10.97900 23.77000
H  43.17100 11.24400 24.80900
H  40.74600 11.84400 26.37000
H  40.47900 12.49400 24.84100
H  41.99300 12.95300 25.68000
H  46.43200 12.39400 29.85700
H  45.54300 12.44100 28.41500
H  46.61300 11.09900 28.49200
H  43.19900 11.83100 34.03400
H  45.77100 9.20400 36.41600
H  44.30200 8.31700 36.13100
H  44.33400 9.33500 37.55100

