158

Mg 8.12400 2.48900 28.40100
C  9.55800 1.03900 31.25900
C  6.48100 4.72700 30.36500
C  6.16100 3.32100 25.77000
C  9.35200 -0.31100 26.46000
N  7.93000 2.73900 30.62100
C  8.68700 2.09900 31.59200
C  8.54500 2.79300 32.93600
C  7.35200 3.83500 32.58800
C  7.24800 3.82700 31.09700
C  6.00400 3.53100 33.27600
C  9.79300 3.44000 33.56700
C  10.39800 2.76300 34.82100
H  10.79100 3.72800 35.89800
N  6.76700 4.04900 27.99400
C  6.21600 4.90900 28.93800
C  5.27100 5.78800 28.24300
C  5.23800 5.42800 26.85600
C  6.11500 4.28500 26.83500
C  4.47200 6.97200 28.93300
C  4.44600 6.04700 25.63000
O  4.47900 5.68300 24.46900
C  3.51100 7.26400 25.84800
N  7.85200 1.61900 26.38800
C  6.92500 2.17400 25.58400
C  7.13000 1.59300 24.12100
C  8.00500 0.35500 24.37900
C  8.39400 0.55700 25.84800
C  5.87700 1.12400 23.37500
C  9.07700 0.08900 23.26200
C  9.02800 -1.18400 22.37800
N  9.23900 0.77100 28.73600
C  9.65700 -0.23600 27.83600
C  10.48600 -1.20800 28.60600
C  10.48800 -0.70300 29.89300
C  9.70900 0.45900 29.94900
C  11.29800 -2.33400 28.02500
C  10.93400 -0.95900 31.31200
O  11.74200 -1.75300 31.80100
C  10.32400 0.15200 32.17600
C  9.43800 -0.58800 33.16100
O  8.31600 -1.00100 32.97800
O  10.12300 -0.63600 34.34600
C  9.38500 -1.41400 35.41200
H  6.09400 5.54000 30.98200
H  5.60800 3.63200 24.88100
H  9.73600 -1.05700 25.76000
H  8.20800 2.16400 33.76000
H  7.63700 4.79500 33.01800
H  6.09000 2.47300 33.52200
H  5.21800 3.47200 32.52300
H  5.78500 4.36700 33.94000
H  9.71100 4.51600 33.71900
H  10.57700 3.36400 32.81300
H  11.29100 2.25500 34.45500
H  9.75500 1.96800 35.19700
H  4.81800 7.94200 28.57600
H  4.85400 7.05400 29.95000
H  3.43100 6.89300 28.62000
H  2.75100 7.06100 26.60300
H  2.93900 7.55800 24.96800
H  4.10300 8.08900 26.24500
H  7.68300 2.23900 23.43900
H  7.34300 -0.50700 24.45800
H  5.07800 1.33800 24.08600
H  5.77300 0.10700 22.99900
H  5.72100 1.93500 22.66300
H  10.09300 0.20600 23.63800
H  9.03000 0.83500 22.46800
H  8.95300 -0.98700 21.30800
H  8.15900 -1.80400 22.59800
H  9.92800 -1.78900 22.48400
H  12.02400 -2.03600 27.26900
H  10.75200 -3.17600 27.59800
H  11.80800 -2.67400 28.92600
H  11.23200 0.62200 32.55300
H  8.88500 -2.27300 34.96500
H  8.60300 -0.83400 35.90000
H  9.98200 -1.85600 36.21000
Mg 47.11500 25.59600 28.13300
C  48.10800 27.67100 30.68200
C  46.05000 23.37700 30.37800
C  46.60700 23.38200 25.58100
C  49.13900 27.45400 25.95700
N  46.97300 25.59700 30.29900
C  47.40300 26.60100 31.16700
C  47.08500 26.24700 32.64100
C  46.46900 24.85300 32.54400
C  46.48300 24.55400 30.94800
C  47.21500 23.78300 33.44000
C  46.11000 27.23200 33.29600
C  46.41000 27.83500 34.61900
H  45.41400 27.74100 35.77600
N  46.17300 23.76200 28.00600
C  45.82900 22.96400 29.08200
C  45.30900 21.66400 28.57800
C  45.39300 21.73900 27.11900
C  46.09900 22.99000 26.84400
C  44.73500 20.56000 29.50700
C  44.82100 20.83900 26.11600
O  44.88300 20.96100 24.87400
C  44.06700 19.68700 26.58800
N  47.77600 25.45400 26.06600
C  47.35200 24.52600 25.18700
C  47.93700 24.71300 23.76400
C  48.60000 26.12100 23.91600
C  48.52400 26.37900 25.41500
C  48.86400 23.53400 23.39300
C  47.92800 27.29600 23.13300
C  48.77900 28.02600 22.08300
N  48.29800 27.22200 28.25900
C  49.12300 27.83000 27.31400
C  49.72500 29.06200 27.90100
C  49.37700 28.94700 29.23000
C  48.49800 27.84700 29.40600
C  50.65000 29.97000 27.21000
C  49.64500 29.55000 30.49300
O  50.40100 30.47300 30.75300
C  48.83800 28.73200 31.52400
C  49.80700 28.18200 32.49100
O  50.58800 27.22800 32.33600
O  49.70100 28.82700 33.71300
C  50.32100 28.15900 34.91800
H  45.82600 22.58700 31.09800
H  46.51700 22.61800 24.80600
H  49.64000 28.14100 25.27200
H  48.07000 26.36400 33.09400
H  45.40200 24.82000 32.76200
H  47.60700 24.36800 34.27100
H  48.07300 23.43400 32.86400
H  46.57800 22.99500 33.84200
H  45.10500 26.81300 33.33900
H  45.98200 28.09000 32.63600
H  46.70600 28.88300 34.57400
H  47.30900 27.38800 35.04300
H  43.64600 20.57500 29.49300
H  45.08800 20.64100 30.53500
H  45.00400 19.56600 29.15000
H  44.94800 19.10900 26.86700
H  43.52400 19.18500 25.78800
H  43.37200 19.86800 27.40800
H  47.06500 24.69700 23.11000
H  49.63300 26.12700 23.56800
H  49.15500 23.09500 24.34700
H  49.76700 23.78300 22.83400
H  48.38200 22.76600 22.78800
H  47.52300 28.00300 23.85800
H  47.10100 26.91800 22.53200
H  48.32600 27.90000 21.09900
H  49.80700 27.66400 22.07400
H  48.82600 29.10400 22.24000
H  50.06400 30.45200 26.42700
H  51.47100 29.46600 26.70100
H  51.02900 30.54500 28.05500
H  48.11800 29.41300 31.97700
H  50.67500 27.16000 34.66200
H  49.51400 28.08300 35.64800
H  50.99600 28.80500 35.47800

