158

Mg 17.39600 -0.64200 27.58800
C  16.39500 1.01300 30.41900
C  19.61800 -2.50000 29.54800
C  19.08000 -1.85800 24.86400
C  15.69000 1.54700 25.61100
N  17.94900 -0.70800 29.77700
C  17.42600 0.08900 30.75700
C  18.11400 -0.19300 32.12400
C  19.18900 -1.32900 31.68700
C  18.94700 -1.51900 30.21800
C  20.63700 -0.95600 31.98100
C  17.18900 -0.69800 33.16100
C  16.96800 0.17200 34.41900
H  18.18100 0.66700 35.17100
N  19.01600 -2.06500 27.22500
C  19.73300 -2.80600 28.16400
C  20.48000 -3.89100 27.50400
C  20.18500 -3.80400 26.08900
C  19.37600 -2.57800 26.00600
C  21.26900 -4.96100 28.23400
C  20.57000 -4.69300 24.99900
O  20.18300 -4.58600 23.84500
C  21.49000 -5.89800 25.30500
N  17.38100 -0.20200 25.48900
C  18.15400 -0.86100 24.60200
C  17.90300 -0.23800 23.18200
C  16.65200 0.60500 23.50800
C  16.61000 0.78000 24.93500
C  19.14900 0.53600 22.58100
C  15.31500 0.01200 22.91000
C  14.35400 -0.95500 23.78200
N  16.11700 0.85000 27.88700
C  15.43200 1.66300 27.01300
C  14.63500 2.66100 27.72800
C  14.95900 2.35900 29.07400
C  15.88900 1.27200 29.14900
C  13.72600 3.66900 27.18400
C  14.71400 2.79700 30.43000
O  13.92300 3.67200 30.83200
C  15.72600 2.01200 31.32500
C  16.65800 2.89900 32.04700
O  17.83800 3.06600 31.74800
O  16.09000 3.50600 33.13000
C  16.85400 4.44600 33.92800
H  20.24500 -3.14300 30.17000
H  19.43600 -2.26100 23.91400
H  15.08200 2.08600 24.88200
H  18.63600 0.69500 32.48000
H  18.94400 -2.30400 32.10900
H  21.02700 -1.68400 32.69200
H  20.62000 -0.00200 32.50900
H  21.23100 -0.88600 31.07100
H  17.53300 -1.67000 33.51300
H  16.20600 -0.71000 32.68900
H  16.34700 -0.34500 35.15000
H  16.39600 1.04500 34.10400
H  22.16800 -5.14300 27.64400
H  20.78100 -5.91100 28.44900
H  21.60000 -4.52500 29.17700
H  21.20400 -6.55100 26.12900
H  22.47900 -5.47100 25.46800
H  21.55200 -6.48000 24.38500
H  17.55900 -1.02500 22.51100
H  16.79000 1.58700 23.05600
H  19.98500 0.63700 23.27200
H  18.96800 1.49200 22.08900
H  19.46800 -0.13700 21.78500
H  15.40800 -0.55200 21.98300
H  14.62900 0.81300 22.63500
H  13.64700 -0.39600 24.39500
H  14.90500 -1.53000 24.52600
H  13.70900 -1.58600 23.17200
H  13.76900 3.51900 26.10600
H  14.10100 4.66800 27.41000
H  12.79300 3.39800 27.67900
H  15.21100 1.41200 32.07600
H  16.76400 5.44600 33.50200
H  17.86700 4.06800 34.07000
H  16.44400 4.35700 34.93400
Mg -10.65200 40.24600 39.53900
C  -9.21300 36.98900 38.86800
C  -7.82400 41.60600 38.28200
C  -12.25200 43.10500 39.36300
C  -13.56300 38.56500 40.55700
N  -8.82000 39.39700 38.68200
C  -8.41000 38.06900 38.44800
C  -6.95800 37.99400 37.92100
C  -6.53100 39.40700 38.52100
C  -7.76600 40.23400 38.39000
C  -5.97000 39.34700 40.00200
C  -6.88500 37.88200 36.35900
C  -6.16600 36.66000 35.82700
H  -6.85800 35.91300 34.72500
N  -10.08300 42.12600 38.93800
C  -8.83600 42.54600 38.49700
C  -8.83200 43.94800 38.37900
C  -10.08300 44.42000 38.69300
C  -10.86600 43.22300 39.03700
C  -7.53600 44.73000 37.93000
C  -10.57400 45.81700 38.52400
O  -9.78300 46.61100 38.13200
C  -11.95700 46.35700 38.81500
N  -12.63000 40.76100 39.83900
C  -13.08500 42.04500 39.69300
C  -14.49700 42.21100 40.17700
C  -14.90200 40.73500 40.46400
C  -13.64600 39.97700 40.30800
C  -14.56500 43.00000 41.41600
C  -15.95500 40.22500 39.47300
C  -17.37400 40.15600 40.00900
N  -11.25200 38.16900 39.88500
C  -12.45600 37.69200 40.30000
C  -12.32100 36.23500 40.60300
C  -11.13500 35.93800 39.95300
C  -10.51600 37.15000 39.52400
C  -13.26800 35.30000 41.26900
C  -10.21800 34.83400 39.53800
O  -10.36700 33.64800 39.70900
C  -8.99400 35.48200 38.79800
C  -7.77500 35.00800 39.45700
O  -7.35700 35.51300 40.53900
O  -7.12300 34.00700 38.69800
C  -5.77800 33.68900 39.21100
H  -6.88900 41.93200 37.82100
H  -12.78400 44.05500 39.44100
H  -14.51200 38.09900 40.82900
H  -6.41800 37.16200 38.37300
H  -5.86100 39.97800 37.87900
H  -6.76500 39.67500 40.67100
H  -5.14900 40.05400 40.12300
H  -5.75400 38.31300 40.27100
H  -6.29600 38.73100 36.01200
H  -7.87900 37.82700 35.91500
H  -6.01200 35.87800 36.57100
H  -5.21100 36.90800 35.36400
H  -7.52000 44.91200 36.85600
H  -6.67400 44.12000 38.20100
H  -7.39400 45.66200 38.47800
H  -12.60600 46.08500 37.98300
H  -11.76200 47.42500 38.72000
H  -12.26700 45.96900 39.78600
H  -15.09900 42.71000 39.41800
H  -15.26600 40.62800 41.48600
H  -13.84300 42.53700 42.08800
H  -15.57600 43.08700 41.81400
H  -14.47900 44.08500 41.35200
H  -15.79700 39.22100 39.08000
H  -15.94000 40.96900 38.67700
H  -17.85600 39.28800 39.55900
H  -17.99000 41.03800 39.83400
H  -17.41300 40.02600 41.09000
H  -13.29200 35.52500 42.33500
H  -12.93700 34.30500 40.97100
H  -14.22700 35.35800 40.75500
H  -8.90300 35.18800 37.75200
H  -5.73000 33.71600 40.29900
H  -4.97400 34.38900 38.98000
H  -5.51400 32.66100 38.96300

