158

Mg 54.65200 23.84000 44.73300
C  52.18200 26.09900 43.51300
C  53.13100 21.31300 43.01400
C  57.58900 21.98400 44.94700
C  56.48500 26.55500 45.92700
N  52.85700 23.78800 43.46600
C  51.95700 24.79500 43.10800
C  50.91900 24.22100 42.18900
C  51.04900 22.64900 42.26700
C  52.37400 22.54100 43.04100
C  49.92200 22.12200 43.13300
C  51.29400 24.74500 40.68800
C  50.12800 25.16200 39.77500
H  50.63200 25.55700 38.34000
N  55.20300 21.86900 44.23500
C  54.44000 20.95500 43.50400
C  55.08700 19.68800 43.57300
C  56.37000 19.91300 44.13100
C  56.38100 21.32400 44.51800
C  54.52000 18.52600 42.88900
C  57.42300 18.87000 44.32200
O  57.27800 17.70800 43.96300
C  58.64200 19.10700 45.18500
N  56.82200 24.27700 45.29800
C  57.78600 23.33900 45.25400
C  59.07800 23.90900 45.81800
C  58.74500 25.38000 45.96200
C  57.25000 25.43400 45.75600
C  59.39100 23.27300 47.17700
C  59.64400 26.31400 44.93200
C  59.94200 27.60400 45.67600
N  54.43900 25.88700 44.79300
C  55.19700 26.85700 45.45600
C  54.36700 28.03700 45.67700
C  53.27800 27.80400 44.79900
C  53.29300 26.49800 44.35000
C  54.61000 29.25900 46.39400
C  52.08600 28.45900 44.25100
O  51.61300 29.57300 44.27800
C  51.35700 27.34200 43.45800
C  51.16700 27.94200 42.06800
O  52.02400 28.47600 41.39900
O  49.87700 27.74500 41.72800
C  49.41300 28.48100 40.58500
H  52.54600 20.55500 42.49000
H  58.52600 21.43300 45.05400
H  56.94200 27.42500 46.40300
H  49.90200 24.51500 42.44600
H  51.16700 22.13700 41.31200
H  48.96100 22.58600 42.91000
H  50.24200 22.38000 44.14300
H  49.80600 21.04700 42.99500
H  51.81400 23.94500 40.16000
H  52.05100 25.52000 40.80200
H  49.61600 26.00500 40.24000
H  49.44600 24.31200 39.74300
H  55.01400 18.41400 41.92400
H  53.45700 18.72400 42.75200
H  54.74300 17.65800 43.51000
H  58.32600 19.65500 46.07300
H  59.43400 19.54900 44.58000
H  59.05000 18.11300 45.36600
H  59.96000 23.87400 45.17800
H  58.86300 25.61800 47.01900
H  60.40500 23.60200 47.40600
H  59.36100 22.18400 47.17600
H  58.70600 23.68300 47.91900
H  59.08000 26.63300 44.05500
H  60.53600 25.83900 44.52300
H  59.26600 28.42600 45.43800
H  60.95200 27.96500 45.47900
H  59.89600 27.50000 46.76000
H  53.86800 29.37600 47.18500
H  54.55800 30.17300 45.80200
H  55.60800 29.14900 46.82000
H  50.35800 27.09100 43.81400
H  49.30700 29.54700 40.78400
H  48.41100 28.11700 40.35700
H  50.01900 28.24900 39.70900
Mg 47.66500 24.92400 28.97800
C  47.98600 27.30400 31.43000
C  46.66100 22.70100 31.39800
C  47.55700 22.45300 26.58400
C  48.87600 27.16100 26.58300
N  47.42300 25.01800 31.22500
C  47.52400 26.08000 31.98900
C  47.20700 25.81500 33.43600
C  46.83300 24.31900 33.37000
C  47.01300 23.95800 31.87400
C  47.71500 23.44300 34.35000
C  45.98700 26.65100 33.96900
C  46.04300 27.45400 35.30200
H  46.57400 26.68100 36.50200
N  47.21700 22.89900 28.96700
C  46.73600 22.16900 30.05900
C  46.21000 20.94400 29.58100
C  46.36900 20.96400 28.12500
C  47.14000 22.13500 27.86500
C  45.60000 19.81200 30.38300
C  45.85400 19.93500 27.02800
O  45.89900 20.06000 25.81700
C  44.99000 18.77200 27.50800
N  48.20000 24.78600 26.87700
C  48.12300 23.67500 26.07000
C  48.54700 24.03900 24.61600
C  48.91700 25.52200 24.65600
C  48.60700 25.85000 26.10900
C  49.58900 23.03700 24.16400
C  48.31800 26.42200 23.57100
C  46.80700 26.54900 23.65400
N  48.30700 26.80400 29.01800
C  48.80900 27.61000 27.99200
C  49.16700 28.93300 28.46200
C  48.87900 28.92200 29.82500
C  48.30000 27.57500 30.10600
C  49.72700 30.03500 27.61900
C  48.84500 29.63400 31.04800
O  49.12400 30.81300 31.21100
C  48.44000 28.63000 32.11800
C  49.52100 28.33100 33.05200
O  50.59200 27.85000 32.65500
O  49.33000 28.93000 34.24300
C  50.45700 28.84400 35.18300
H  46.28000 22.05200 32.18900
H  47.27400 21.72400 25.82200
H  49.39200 27.91100 25.98000
H  48.13100 26.02700 33.97500
H  45.80500 24.16100 33.69500
H  47.06700 23.15800 35.17900
H  48.51900 24.00000 34.83100
H  48.14600 22.58200 33.84000
H  45.09400 26.04400 34.12200
H  45.80700 27.40600 33.20400
H  45.00500 27.70700 35.52000
H  46.64200 28.33600 35.07800
H  44.53500 19.75700 30.15600
H  45.61800 19.86800 31.47100
H  46.05900 18.92900 29.93800
H  44.16500 19.19700 28.08000
H  45.50200 18.05800 28.15400
H  44.62000 18.27600 26.61100
H  47.74200 23.95100 23.88600
H  49.98400 25.58500 24.44600
H  49.93300 22.44800 25.01400
H  50.46400 23.60600 23.85000
H  49.26000 22.31300 23.41900
H  48.59500 26.01000 22.60100
H  48.75600 27.41500 23.46800
H  46.46200 27.57400 23.78800
H  46.40600 26.13300 24.57900
H  46.25400 26.18300 22.78900
H  48.97500 30.14700 26.83700
H  50.70400 29.69200 27.28000
H  49.77400 30.93700 28.22900
H  47.59000 28.97800 32.70500
H  50.03300 29.15200 36.13900
H  51.31700 29.51000 35.12000
H  50.78400 27.80500 35.23900

