158

Mg 48.84600 47.06800 42.20600
C  45.44900 47.53500 41.42900
C  48.57200 43.92700 40.70100
C  52.00500 46.66600 42.71300
C  49.00000 50.46500 43.25600
N  47.22600 45.97000 41.00400
C  45.93800 46.29500 40.95200
C  45.14200 45.31600 40.11200
C  46.12600 44.14700 40.00400
C  47.40600 44.71000 40.60800
C  45.51200 42.80700 40.64100
C  44.62500 45.98000 38.85100
C  43.12100 45.83700 38.58700
H  42.65200 45.40500 37.27500
N  50.14300 45.49600 41.67700
C  49.86500 44.29300 41.10800
C  51.02400 43.44500 41.13100
C  52.06800 44.19700 41.76600
C  51.43600 45.50200 42.13300
C  51.04300 42.05200 40.58600
C  53.52700 43.73200 42.09900
O  53.85800 42.64100 41.68900
C  54.51400 44.52900 42.80500
N  50.34800 48.45200 42.55500
C  51.54400 47.96500 42.90500
C  52.47000 49.08000 43.21500
C  51.52200 50.30100 43.49200
C  50.20500 49.75100 43.12300
C  53.37700 48.81000 44.40600
C  51.87900 51.63800 42.75700
C  52.27900 52.81500 43.65200
N  47.54100 48.72400 42.38900
C  47.76300 50.00200 42.90400
C  46.44600 50.69400 43.08200
C  45.53100 49.70100 42.55800
C  46.21900 48.58100 42.08100
C  46.28800 52.09600 43.61400
C  44.10400 49.43800 42.23100
O  43.12600 50.09000 42.50000
C  44.06800 48.11100 41.46000
C  43.13700 47.25600 42.21800
O  43.40500 46.85100 43.38500
O  41.97600 46.87600 41.56700
C  41.13200 45.91900 42.29500
H  48.39900 42.90700 40.35000
H  53.03700 46.44300 42.99400
H  48.94000 51.49800 43.60700
H  44.27500 45.07500 40.72800
H  46.43400 43.84300 39.00400
H  44.53600 42.60500 40.20000
H  45.25500 42.89000 41.69700
H  46.09800 41.91900 40.40400
H  44.99900 45.43300 37.98600
H  45.00000 46.99100 38.68800
H  42.68000 46.80400 38.82700
H  42.85800 45.08800 39.33400
H  51.34900 42.05700 39.54000
H  50.04500 41.64500 40.74800
H  51.75100 41.49600 41.20200
H  54.78700 45.42200 42.24300
H  55.44000 43.96100 42.89100
H  54.19300 44.81100 43.80800
H  53.13700 49.19300 42.36100
H  51.60000 50.59500 44.53900
H  53.43400 49.58800 45.16700
H  54.41100 48.75100 44.06600
H  53.00400 47.91600 44.90500
H  51.09600 52.08800 42.14700
H  52.81800 51.46000 42.23100
H  53.35100 53.01700 43.65500
H  52.01100 52.63300 44.69200
H  51.70600 53.68800 43.34100
H  45.28700 52.47500 43.82100
H  46.78400 52.68600 42.84400
H  46.83300 52.16600 44.55600
H  43.61800 48.25700 40.47900
H  40.19000 46.11400 41.78300
H  41.01800 46.08600 43.36600
H  41.37900 44.87200 42.11500
Mg 5.52000 54.31400 41.53800
C  4.92200 50.90900 41.07900
C  8.55600 54.05400 39.95300
C  5.61600 57.75500 41.59200
C  2.06800 54.62100 42.62500
N  6.55200 52.65100 40.54900
C  6.18500 51.32000 40.58100
C  7.30900 50.44300 40.09700
C  8.57500 51.45000 40.13600
C  7.84400 52.79500 40.17800
C  9.64300 51.21900 41.24300
C  7.03700 49.83000 38.72000
C  6.30200 50.62800 37.65500
H  5.50100 49.70800 36.67400
N  6.90800 55.67300 40.91100
C  8.10300 55.35400 40.30200
C  8.68400 56.53800 39.93400
C  7.94100 57.65200 40.47400
C  6.75700 57.04500 41.12100
C  9.96100 56.49400 39.01700
C  8.28500 59.15500 40.19200
O  9.33800 59.39100 39.62700
C  7.34900 60.33700 40.45900
N  4.06400 56.01300 42.12800
C  4.32800 57.33000 41.89700
C  3.16200 58.23400 42.19800
C  2.00700 57.18100 42.53900
C  2.73500 55.85100 42.43500
C  3.41400 59.25900 43.27200
C  0.59100 57.41700 41.83000
C  -0.67600 57.41500 42.79800
N  3.82200 53.03800 41.86200
C  2.59900 53.29200 42.32300
C  1.94300 52.01500 42.50600
C  2.81100 51.04400 42.07600
C  3.95500 51.74700 41.65200
C  0.64900 51.68300 43.08700
C  3.08700 49.67000 42.06700
O  2.47700 48.75000 42.55100
C  4.38400 49.48300 41.29500
C  3.97000 48.74700 40.11100
O  3.49800 49.28000 39.12100
O  4.12000 47.37400 40.30200
C  3.49200 46.46500 39.33100
H  9.58000 54.01200 39.57600
H  5.63300 58.84500 41.53000
H  0.97800 54.63000 42.69500
H  7.49600 49.56800 40.71900
H  9.19100 51.41600 39.23800
H  9.55400 50.28800 41.80300
H  9.76400 52.10000 41.87400
H  10.62600 51.11000 40.78700
H  6.49100 48.89100 38.81800
H  8.04900 49.54800 38.42900
H  7.11200 51.13700 37.13200
H  5.55800 51.31100 38.06500
H  10.41200 57.47900 38.89200
H  9.74800 56.07500 38.03400
H  10.76600 55.94600 39.50600
H  7.86000 61.29900 40.44100
H  7.12400 60.32000 41.52600
H  6.54300 60.33900 39.72600
H  2.92600 58.72600 41.25400
H  1.85600 57.28400 43.61400
H  3.65500 60.20800 42.79400
H  4.40600 59.18000 43.71800
H  2.55600 59.27800 43.94300
H  0.49000 56.63800 41.07500
H  0.60700 58.36800 41.29600
H  -1.50800 56.85900 42.36700
H  -1.10700 58.40800 42.91800
H  -0.30600 56.85500 43.65800
H  0.05500 51.41200 42.21400
H  0.20700 52.54600 43.58300
H  0.86800 50.91100 43.82500
H  5.11500 48.98900 41.93500
H  2.46000 46.36000 39.66800
H  4.01400 45.50800 39.33600
H  3.34600 46.74300 38.28700

