158

Mg 53.58400 25.51300 44.03800
C  50.74800 27.46500 43.93800
C  51.72200 22.87000 42.80200
C  56.42700 23.76100 43.84000
C  55.44800 28.42000 45.08300
N  51.56300 25.25700 43.43600
C  50.59800 26.21800 43.35100
C  49.23200 25.72100 42.78500
C  49.43600 24.19800 42.94600
C  51.02000 24.05000 43.14200
C  48.51500 23.44700 43.99700
C  48.97200 26.22700 41.26200
C  50.15600 26.29600 40.30000
H  50.10100 25.51500 38.93600
N  53.99500 23.58400 43.40500
C  53.13700 22.67400 42.86900
C  53.84400 21.49600 42.47900
C  55.21700 21.74900 42.86600
C  55.29900 23.07700 43.37000
C  53.16400 20.31300 41.96700
C  56.16000 20.62600 42.81700
O  55.81400 19.47500 42.52500
C  57.52600 20.74900 43.48800
N  55.70600 26.09900 44.13700
C  56.65600 25.12500 44.24300
C  57.97100 25.67000 44.87000
C  57.68000 27.20300 45.08200
C  56.20100 27.25200 44.73500
C  58.35800 25.00200 46.25000
C  58.45100 28.15300 44.15700
C  58.33100 27.89800 42.61200
N  53.18800 27.48400 44.50500
C  54.00800 28.56400 45.00000
C  53.20400 29.62300 45.42800
C  51.95900 29.28400 44.92200
C  51.95000 27.98300 44.42000
C  53.59700 30.90100 46.17900
C  50.58800 29.78400 44.82300
O  50.07300 30.81800 45.18900
C  49.77300 28.66200 44.08500
C  49.50700 29.12800 42.69200
O  50.33400 29.32500 41.79800
O  48.21700 29.39900 42.56400
C  47.67800 29.95300 41.36000
H  51.14700 22.02000 42.42800
H  57.34100 23.18200 43.98800
H  55.98800 29.26200 45.52200
H  48.35400 26.06800 43.33000
H  49.17800 23.70300 42.01000
H  49.03300 22.76000 44.66600
H  47.79100 22.89600 43.39700
H  48.01600 24.26000 44.52400
H  48.51900 27.21900 41.27900
H  48.19700 25.64100 40.76900
H  51.04100 25.84700 40.75100
H  50.46700 27.30800 40.03900
H  53.61700 19.89900 41.06700
H  52.10400 20.47400 41.77600
H  53.25700 19.49500 42.68100
H  57.91100 19.73500 43.38400
H  57.55800 21.02800 44.54100
H  58.10300 21.42900 42.86100
H  58.82500 25.62300 44.19400
H  57.68300 27.56300 46.11000
H  59.01900 24.16600 46.02300
H  57.44500 24.56300 46.65400
H  58.81200 25.65000 46.99900
H  59.49800 28.04800 44.44300
H  58.00300 29.14100 44.26900
H  59.28400 27.58700 42.18300
H  58.05500 28.84800 42.15400
H  57.59700 27.17200 42.26100
H  54.46500 30.86100 46.83600
H  52.79300 31.34400 46.76800
H  53.90500 31.66800 45.46800
H  48.80800 28.40700 44.52500
H  46.59800 30.05900 41.46900
H  47.85200 29.44500 40.41100
H  47.99900 30.99100 41.27900
Mg 36.11400 48.49300 25.16400
C  36.64300 46.70600 28.14800
C  34.60300 50.96500 26.77500
C  35.48700 50.07800 22.14300
C  37.74100 45.90100 23.36100
N  35.52700 48.67800 27.20200
C  35.87800 47.87600 28.25400
C  35.60400 48.61700 29.56000
C  34.77400 49.85100 29.13800
C  34.91000 49.80300 27.57900
C  33.26400 49.86800 29.64200
C  36.93800 48.99800 30.32200
C  36.82900 49.12100 31.85000
H  35.47600 49.10200 32.54600
N  35.23000 50.31300 24.55100
C  34.67000 51.15900 25.43200
C  34.22700 52.34400 24.74400
C  34.47200 52.13200 23.36900
C  35.04700 50.80900 23.26100
C  33.68300 53.54900 25.49000
C  34.24000 53.06600 22.19000
O  34.64200 52.88100 21.02300
C  33.34200 54.27300 22.38100
N  36.55300 48.07300 23.05500
C  36.07600 48.79000 22.06700
C  36.44800 48.11300 20.71600
C  37.52100 47.09200 21.07600
C  37.38200 47.06300 22.62800
C  35.15500 47.75200 19.96000
C  39.00200 47.43400 20.58300
C  39.59100 46.43200 19.56800
N  36.90700 46.59700 25.60900
C  37.60000 45.70400 24.79000
C  37.97100 44.59900 25.55400
C  37.59900 44.88200 26.89400
C  36.95800 46.16400 26.83100
C  38.60000 43.25500 24.98600
C  37.65800 44.42600 28.34400
O  37.94000 43.30200 28.84800
C  37.06800 45.61200 29.18300
C  35.85200 45.05800 29.83400
O  34.83900 44.73000 29.19200
O  36.02700 44.99400 31.22000
C  34.76100 44.86700 31.95000
H  34.14100 51.77800 27.33900
H  35.21900 50.55100 21.19600
H  38.21300 45.00600 22.95000
H  34.95700 47.93400 30.11100
H  35.23000 50.73300 29.58700
H  33.02800 48.93900 30.16000
H  32.56800 49.85700 28.80200
H  33.09600 50.74600 30.26600
H  37.22600 49.99300 29.98400
H  37.65600 48.24200 30.00500
H  37.38600 49.94600 32.29300
H  37.26100 48.16900 32.15900
H  33.46900 54.46300 24.93700
H  34.31600 53.85400 26.32300
H  32.71600 53.35900 25.95500
H  32.39200 54.11300 22.89000
H  33.14200 54.80200 21.44900
H  33.83100 55.07700 22.93100
H  36.86000 48.91000 20.09600
H  37.27600 46.08400 20.74300
H  34.45700 47.24300 20.62400
H  35.43800 47.13600 19.10600
H  34.60000 48.62300 19.61300
H  39.56700 47.63800 21.49300
H  39.10200 48.44600 20.19000
H  39.89800 46.98800 18.68200
H  39.01600 45.53800 19.32700
H  40.40300 45.91500 20.07900
H  39.37400 43.45400 24.24500
H  37.79800 42.59100 24.66400
H  39.08800 42.81600 25.85600
H  37.73100 45.94600 29.98100
H  35.04700 44.64300 32.97800
H  34.06600 44.07200 31.68000
H  34.21300 45.79000 31.75900

