158

Mg 44.12900 4.22400 48.25400
C  42.01800 6.98000 47.58700
C  41.55300 2.15800 47.79400
C  46.29700 1.65500 48.54200
C  46.81300 6.51000 48.29800
N  42.05900 4.59800 47.53800
C  41.37100 5.74400 47.37500
C  39.93500 5.50500 47.14000
C  39.77700 4.04000 47.43100
C  41.23700 3.57100 47.59100
C  38.89700 3.76900 48.69100
C  39.48800 5.91900 45.69000
C  38.29900 6.85900 45.65600
H  37.60500 6.83900 44.28500
N  43.92000 2.18000 48.03400
C  42.78400 1.52700 47.94500
C  43.04600 0.08500 48.01700
C  44.45900 -0.05200 48.24400
C  44.98200 1.33100 48.27700
C  42.07100 -0.99500 47.82300
C  45.15200 -1.37500 48.42000
O  44.57500 -2.45300 48.39300
C  46.62100 -1.48100 48.68900
N  46.14300 4.04700 48.12400
C  46.86500 2.86700 48.46100
C  48.26600 3.14700 48.88900
C  48.42900 4.66200 48.41300
C  47.00600 5.12300 48.18700
C  48.52800 2.97700 50.44600
C  49.28000 4.79200 47.15100
C  50.73500 5.06500 47.55700
N  44.44700 6.34300 48.08700
C  45.54300 7.12700 48.17700
C  45.22400 8.52300 48.07500
C  43.82300 8.51200 47.85300
C  43.40000 7.21100 47.85300
C  46.27400 9.59800 48.05100
C  42.73400 9.33700 47.60800
O  42.67600 10.55600 47.43700
C  41.38600 8.40200 47.48200
C  40.51800 8.80400 48.71200
O  40.98800 8.95900 49.81900
O  39.24000 9.13600 48.34700
C  38.52600 9.83500 49.44900
H  40.68200 1.50000 47.77600
H  47.07000 0.93300 48.81700
H  47.59800 7.26200 48.39600
H  39.39800 6.08800 47.88900
H  39.31900 3.41900 46.66100
H  38.09100 4.49200 48.81500
H  39.58300 3.91100 49.52600
H  38.54700 2.73600 48.68200
H  39.28100 5.05200 45.06300
H  40.38500 6.24900 45.16600
H  38.63800 7.87300 45.86600
H  37.49800 6.64500 46.36400
H  42.08900 -1.47200 46.84400
H  41.05300 -0.63000 47.95800
H  42.20100 -1.66800 48.67000
H  46.68700 -0.94600 49.63600
H  47.13400 -0.96200 47.87800
H  46.95500 -2.50200 48.87400
H  48.86500 2.39400 48.37900
H  48.89200 5.26700 49.19300
H  47.80500 2.34000 50.95600
H  48.62800 3.93100 50.96500
H  49.42800 2.37300 50.33100
H  48.87100 5.64400 46.60800
H  49.30800 3.84300 46.61600
H  50.88400 5.12500 48.63500
H  51.11400 5.94000 47.02900
H  51.52000 4.39700 47.20400
H  46.91500 9.35100 47.20500
H  46.93900 9.48500 48.90800
H  45.98400 10.64500 48.13900
H  40.78700 8.38900 46.57100
H  39.04800 10.66100 49.93300
H  38.28800 9.10500 50.22300
H  37.57000 10.23700 49.11300
Mg 54.35100 23.73700 44.94800
C  51.90300 26.05100 43.79700
C  52.33900 21.19700 43.65200
C  56.87400 21.64400 45.46100
C  56.23200 26.59500 45.78100
N  52.42500 23.63700 43.76100
C  51.73900 24.72800 43.27000
C  50.70100 24.24100 42.28300
C  50.44200 22.77300 42.75400
C  51.78400 22.46900 43.38900
C  49.27200 22.57100 43.71800
C  51.27900 24.28500 40.85100
C  50.54800 25.15600 39.80800
H  51.42600 25.71400 38.62000
N  54.52400 21.68200 44.66900
C  53.58200 20.79100 44.21300
C  54.10600 19.48400 44.26800
C  55.38900 19.51900 44.86100
C  55.67200 20.95100 45.01900
C  53.42700 18.28400 43.60000
C  56.24600 18.35100 45.38800
O  55.81700 17.23800 45.27100
C  57.56700 18.52700 46.19300
N  56.31700 24.09400 45.28200
C  57.15200 23.05300 45.53400
C  58.58800 23.63900 45.94000
C  58.32300 25.18600 45.88800
C  56.85300 25.30600 45.69800
C  59.09500 23.17600 47.34500
C  59.12800 25.86800 44.76900
C  59.81400 27.19000 45.23900
N  54.05300 25.88300 44.99700
C  54.85900 26.84100 45.45500
C  54.10500 28.05800 45.68100
C  52.89800 27.82100 45.00500
C  52.92900 26.45900 44.56000
C  54.61000 29.23800 46.62900
C  51.66300 28.41600 44.56100
O  51.10200 29.49000 44.74300
C  50.94900 27.29400 43.78200
C  50.58200 27.84800 42.39500
O  51.38000 27.90300 41.47500
O  49.30600 28.18800 42.27600
C  48.79000 28.93800 41.09600
H  51.58800 20.44000 43.41400
H  57.76600 21.04400 45.65400
H  56.90500 27.43800 45.94700
H  49.85600 24.91800 42.41400
H  50.30600 22.10100 41.90600
H  48.56200 21.78000 43.47800
H  48.76400 23.53500 43.73700
H  49.65000 22.40000 44.72600
H  51.14900 23.30100 40.40200
H  52.34600 24.50600 40.82100
H  50.10000 25.92000 40.44300
H  49.80000 24.46200 39.42500
H  52.91100 18.56300 42.68200
H  52.69200 17.84300 44.27300
H  54.18800 17.54600 43.34700
H  57.41800 19.18700 47.04800
H  58.36100 18.93600 45.56900
H  57.83000 17.52700 46.53700
H  59.36000 23.30000 45.24900
H  58.51600 25.61100 46.87300
H  58.78700 22.13600 47.45100
H  58.68800 23.78500 48.15300
H  60.18000 23.27300 47.37900
H  58.52300 26.13700 43.90200
H  59.84300 25.20000 44.28900
H  59.22100 28.05000 44.92600
H  60.76600 27.31500 44.72200
H  59.94700 27.15400 46.32100
H  55.68500 29.40600 46.56900
H  54.37800 28.92100 47.64600
H  54.13500 30.19100 46.39800
H  50.03100 26.94200 44.25200
H  49.28600 29.88500 40.88300
H  47.70900 29.07800 41.09900
H  49.02100 28.47500 40.13600

