158

Mg 2.49200 -1.04800 43.28200
C  5.89000 -0.30100 42.80100
C  1.68500 1.77600 41.52000
C  -0.63700 -2.31900 42.73000
C  3.54000 -4.23400 44.45300
N  3.65500 0.49300 42.22900
C  5.00400 0.59400 42.18700
C  5.37100 1.87200 41.38200
C  4.06400 2.76200 41.45100
C  3.00600 1.62300 41.86100
C  4.05500 4.04300 42.29900
C  5.95700 1.48200 39.96600
C  5.10200 1.02900 38.87200
H  4.97300 1.87200 37.53900
N  0.76300 -0.32000 42.46700
C  0.65900 0.89200 41.75400
C  -0.74600 1.14600 41.38400
C  -1.46400 -0.00700 41.80100
C  -0.48300 -0.95300 42.40700
C  -1.05900 2.44900 40.57300
C  -2.88100 -0.14900 41.52700
O  -3.43500 0.82600 40.96900
C  -3.68900 -1.26200 41.92400
N  1.57800 -2.97300 43.63800
C  0.32600 -3.27400 43.23900
C  0.03300 -4.79600 43.25900
C  1.31200 -5.31300 44.01500
C  2.22200 -4.11900 44.09900
C  -1.28600 -5.08700 44.05800
C  1.87500 -6.62000 43.47200
C  2.07000 -7.69500 44.58500
N  4.32500 -2.06100 43.70600
C  4.55300 -3.34500 44.20100
C  5.96500 -3.53100 44.22900
C  6.56800 -2.36800 43.70200
C  5.53600 -1.49100 43.38400
C  6.58500 -4.72700 44.89900
C  7.82300 -1.67900 43.38800
O  8.99700 -2.02500 43.43600
C  7.38100 -0.33700 42.74200
C  7.99500 0.85900 43.33700
O  8.78100 1.59300 42.73800
O  7.76900 0.95900 44.65400
C  8.61800 2.02400 45.32800
H  1.43600 2.63300 40.89100
H  -1.56400 -2.75100 42.34600
H  3.82000 -5.23000 44.80200
H  6.16500 2.36100 41.94600
H  3.96600 3.08900 40.41600
H  3.22400 3.92700 42.99500
H  3.85700 4.86500 41.61100
H  5.04200 4.21600 42.72800
H  6.74000 0.73600 40.10200
H  6.44700 2.37500 39.57700
H  4.06600 0.98700 39.20800
H  5.40000 0.01900 38.59100
H  -0.26100 2.66800 39.86300
H  -1.20900 3.35300 41.16400
H  -2.01800 2.46400 40.05600
H  -3.59600 -1.28400 43.01000
H  -3.36600 -2.20500 41.48300
H  -4.67500 -1.29300 41.46000
H  -0.10600 -5.21000 42.26100
H  0.96700 -5.50300 45.03100
H  -1.24600 -5.65200 44.98900
H  -1.78400 -5.76100 43.36100
H  -1.96600 -4.24700 44.20300
H  2.83300 -6.34900 43.02800
H  1.38200 -7.07000 42.61000
H  2.79200 -8.41900 44.20700
H  1.12300 -8.10100 44.94000
H  2.42200 -7.05000 45.39100
H  6.76200 -5.54400 44.20100
H  6.09200 -4.99700 45.83300
H  7.56000 -4.43700 45.29000
H  7.82300 -0.30000 41.74600
H  8.27400 3.04500 45.16200
H  9.63700 2.00400 44.94300
H  8.60700 1.84600 46.40300
Mg 46.95900 25.54200 28.91900
C  47.64900 27.55700 31.66000
C  46.19700 22.90100 31.16600
C  46.95900 23.41900 26.34500
C  48.26500 28.12200 26.85600
N  46.82000 25.34300 31.09200
C  47.05200 26.37700 31.99900
C  46.71500 26.00700 33.38100
C  46.53000 24.47100 33.24000
C  46.55800 24.17800 31.76400
C  47.40500 23.54000 34.03100
C  45.62200 26.74600 34.15800
C  45.73800 26.62100 35.75000
H  44.40300 26.33400 36.50000
N  46.47600 23.50500 28.68200
C  46.10300 22.65400 29.71000
C  45.80100 21.35500 29.07500
C  46.11200 21.47100 27.65700
C  46.53800 22.88300 27.49000
C  45.29200 20.23800 29.90800
C  45.97300 20.41500 26.54900
O  46.36700 20.57100 25.42000
C  45.47800 19.01500 26.90700
N  47.62000 25.73900 26.91200
C  47.41300 24.72500 26.00700
C  47.92500 25.03800 24.55500
C  47.99200 26.56700 24.70700
C  47.95300 26.86100 26.26100
C  49.19800 24.25600 24.23800
C  46.84600 27.26300 23.90900
C  45.49100 27.29000 24.64900
N  47.86800 27.44100 29.15800
C  48.20100 28.44200 28.24000
C  48.60800 29.64500 28.97200
C  48.42000 29.32300 30.29000
C  47.95900 28.02000 30.37400
C  49.19300 30.93000 28.28800
C  48.46200 29.87100 31.62500
O  48.80100 30.95000 32.04300
C  47.97300 28.70300 32.63000
C  49.03800 28.31100 33.57500
O  50.15900 27.95500 33.18300
O  48.59400 28.20300 34.90300
C  49.63500 27.65700 35.72000
H  45.92000 22.16600 31.92500
H  46.93300 22.78100 25.45900
H  48.50000 28.91800 26.14700
H  47.63600 26.10900 33.95500
H  45.50800 24.20200 33.50700
H  48.13700 24.14800 34.56200
H  48.00100 22.84000 33.44600
H  46.86200 22.99900 34.80600
H  44.64700 26.42000 33.79500
H  45.68100 27.82100 33.98800
H  46.16700 27.50500 36.22200
H  46.40300 25.76500 35.85700
H  45.99700 19.40700 29.92400
H  44.32800 19.85700 29.57100
H  45.08200 20.61200 30.91000
H  45.81600 18.60500 27.85800
H  45.70100 18.26600 26.14700
H  44.39300 18.93300 26.85200
H  47.20500 24.79900 23.77200
H  48.97900 26.81500 24.31600
H  49.34000 23.78200 23.26600
H  49.40900 23.56100 25.05100
H  49.97500 25.02000 24.21900
H  46.72000 26.74500 22.95800
H  47.20700 28.28600 23.80200
H  45.34800 28.26900 25.10700
H  45.51100 26.59700 25.49000
H  44.61700 27.16300 24.01000
H  49.71700 30.69000 27.36200
H  49.85100 31.43000 28.99900
H  48.40500 31.62500 27.99800
H  47.07600 29.08300 33.11900
H  50.67000 27.99900 35.73500
H  49.74500 26.62000 35.40300
H  49.20000 27.68700 36.71900

