158

Mg -0.85900 7.93200 27.06900
C  0.13900 9.96700 29.83800
C  -1.10200 5.29300 29.17300
C  -1.44500 6.05300 24.33000
C  -0.47600 10.78800 25.09500
N  -0.37600 7.67700 29.31500
C  -0.20300 8.65500 30.28000
C  -0.48500 8.06100 31.66700
C  -0.74400 6.53100 31.41100
C  -0.79000 6.51300 29.87300
C  0.17600 5.45100 32.02700
C  -1.71800 8.77400 32.25500
C  -1.88600 8.80900 33.81200
H  -1.03200 7.93900 34.72600
N  -1.13000 5.90800 26.84300
C  -1.17900 4.93500 27.79200
C  -1.51800 3.66100 27.19800
C  -1.74900 3.89900 25.80100
C  -1.45200 5.33700 25.57700
C  -1.44400 2.40800 28.09600
C  -2.15500 2.96300 24.69600
O  -2.17300 3.18600 23.53700
C  -2.54000 1.50300 25.16800
N  -0.92800 8.34800 24.99100
C  -1.20200 7.45200 24.02700
C  -1.29000 8.07200 22.68000
C  -1.37400 9.59000 23.00000
C  -0.90300 9.61600 24.46400
C  -0.13200 7.67600 21.67700
C  -2.81700 10.25300 22.88400
C  -3.43600 10.47500 21.52500
N  -0.33900 9.96300 27.36400
C  -0.15100 10.98800 26.44200
C  0.33200 12.14400 27.07100
C  0.51000 11.81800 28.38900
C  0.12800 10.48600 28.47300
C  0.77400 13.33400 26.32600
C  0.98100 12.24400 29.63100
O  1.61400 13.25700 29.92300
C  0.57600 11.13200 30.65300
C  1.66300 10.71400 31.51300
O  2.58300 9.93900 31.29100
O  1.48300 11.49900 32.71700
C  2.63400 11.59100 33.61700
H  -1.38800 4.51900 29.88900
H  -1.81300 5.59400 23.41000
H  -0.32200 11.65000 24.44300
H  0.33900 8.31400 32.33400
H  -1.74500 6.32200 31.78600
H  -0.33300 4.62900 32.53200
H  0.81300 5.97400 32.74000
H  0.92700 5.05800 31.34100
H  -2.62400 8.24900 31.95400
H  -1.85000 9.79100 31.88700
H  -2.91900 8.53500 34.03100
H  -1.77500 9.85400 34.10000
H  -2.46200 2.12200 28.36300
H  -0.89800 2.63800 29.01000
H  -0.98800 1.61900 27.49800
H  -3.13400 1.70800 26.05800
H  -1.57800 1.05600 25.41900
H  -3.03700 0.94500 24.37400
H  -2.28100 7.81900 22.30200
H  -0.56600 10.17800 22.56300
H  -0.01500 8.42700 20.89600
H  -0.44300 6.71800 21.25900
H  0.79100 7.62600 22.25500
H  -2.52200 11.25600 23.19500
H  -3.50700 9.82200 23.60800
H  -3.22300 11.47500 21.14700
H  -4.51000 10.31400 21.43200
H  -3.01500 9.84400 20.74200
H  1.04100 12.99500 25.32500
H  1.63600 13.75100 26.84700
H  -0.04800 14.00500 26.07700
H  -0.26200 11.53600 31.22100
H  2.65100 12.58300 34.06900
H  3.53700 11.36200 33.05100
H  2.47500 10.91800 34.46000
Mg -12.39100 17.58900 41.29200
C  -9.02700 16.36200 40.76200
C  -11.20700 20.83700 40.58600
C  -15.48600 18.60400 40.66300
C  -13.43800 14.17000 41.18200
N  -10.37900 18.39700 40.72500
C  -9.10800 17.76700 40.59800
C  -7.91900 18.82400 40.32800
C  -8.74900 20.18700 40.35700
C  -10.25900 19.79400 40.59000
C  -8.23600 21.33800 41.34800
C  -7.15000 18.62600 39.01000
C  -5.75100 18.06800 39.21400
H  -5.40200 16.93000 38.16400
N  -13.18700 19.43700 40.71900
C  -12.59700 20.65000 40.52400
C  -13.55500 21.64000 40.01800
C  -14.85500 20.98600 40.03600
C  -14.56800 19.62200 40.46800
C  -13.22900 23.02100 39.59700
C  -16.17500 21.60900 39.59200
O  -16.18300 22.77200 39.15500
C  -17.52300 21.01100 39.81200
N  -14.21500 16.51000 40.97000
C  -15.34700 17.21600 40.83800
C  -16.54300 16.27200 40.77800
C  -15.90800 14.87100 41.23600
C  -14.44000 15.16500 41.04500
C  -17.85600 16.62600 41.53300
C  -16.54700 13.67100 40.40500
C  -17.57800 12.76300 41.15800
N  -11.46600 15.61600 41.16000
C  -12.06900 14.32400 41.11800
C  -11.02100 13.36800 40.95800
C  -9.82600 14.17600 40.92200
C  -10.14500 15.53000 41.01000
C  -11.15300 11.89300 40.88000
C  -8.38400 13.99100 40.67600
O  -7.75500 12.95300 40.53700
C  -7.78900 15.45300 40.54900
C  -6.67100 15.60100 41.61900
O  -6.78100 16.27800 42.63500
O  -5.58700 14.84400 41.28200
C  -4.64900 14.67400 42.42600
H  -10.73900 21.80500 40.39100
H  -16.54000 18.81700 40.47300
H  -13.80200 13.14100 41.22100
H  -7.24000 18.68100 41.16800
H  -8.87100 20.61000 39.36000
H  -7.23900 21.23100 41.77600
H  -9.02000 21.33000 42.10500
H  -8.29100 22.24300 40.74400
H  -7.05900 19.60500 38.54100
H  -7.74300 17.95200 38.39100
H  -5.56600 17.66300 40.20900
H  -5.06800 18.87200 38.94100
H  -13.51300 23.27100 38.57500
H  -12.16500 23.22100 39.72100
H  -13.76200 23.66300 40.29800
H  -17.63600 20.04900 39.31200
H  -18.25500 21.67100 39.34700
H  -17.67600 20.92900 40.88900
H  -16.79200 16.00500 39.75100
H  -15.99800 14.63000 42.29500
H  -18.49100 17.12900 40.80400
H  -17.80100 17.20200 42.45700
H  -18.35700 15.67700 41.72600
H  -15.69100 13.03100 40.19200
H  -17.14000 13.86100 39.51000
H  -17.35600 12.37700 42.15300
H  -17.65200 11.93800 40.44900
H  -18.54000 13.27400 41.18000
H  -11.07400 11.52200 41.90100
H  -10.45000 11.27700 40.32000
H  -12.13800 11.60000 40.51600
H  -7.38400 15.62700 39.55200
H  -4.13100 15.62300 42.57000
H  -3.96300 13.82900 42.47300
H  -5.18900 14.50800 43.35800

