158

Mg 25.55600 0.55800 29.61700
C  27.48000 0.26200 32.43900
C  22.84500 1.47300 31.51700
C  23.62300 0.52200 26.81200
C  28.24600 -0.75000 27.72400
N  25.17800 0.56400 31.76900
C  26.15000 0.60800 32.72900
C  25.54500 1.13700 34.06900
C  24.02900 1.24100 33.78300
C  24.00300 1.02700 32.29200
C  23.10200 0.34300 34.61400
C  26.17600 2.45900 34.62600
C  26.87300 2.27600 35.94700
H  26.58100 3.20200 37.15800
N  23.46500 0.96700 29.20300
C  22.62500 1.40800 30.09400
C  21.29400 1.64200 29.47400
C  21.48800 1.29600 28.11800
C  22.88600 0.92800 27.94500
C  20.01900 1.99200 30.21000
C  20.44700 1.18000 26.94400
O  20.67700 0.52700 25.92700
C  19.11900 1.75200 27.13000
N  25.87700 -0.01700 27.53700
C  24.95000 0.15200 26.59100
C  25.53400 -0.16500 25.22200
C  27.03600 -0.45000 25.46300
C  27.06700 -0.39900 26.96500
C  24.81900 -1.19600 24.29500
C  28.05200 0.53900 24.73200
C  28.31400 1.93800 25.39600
N  27.46500 -0.06000 29.93200
C  28.44500 -0.54000 29.06600
C  29.68100 -0.64000 29.84500
C  29.34100 -0.29200 31.19700
C  27.99000 -0.02700 31.20400
C  31.07500 -1.01000 29.38600
C  29.84700 -0.13000 32.55700
O  30.90600 -0.27800 32.99100
C  28.66900 0.33500 33.45800
C  28.48200 -0.67000 34.52100
O  28.18600 -1.80300 34.36000
O  28.86200 -0.05400 35.76800
C  28.49300 -0.76600 36.95300
H  21.97600 1.81000 32.08600
H  23.03100 0.44300 25.89800
H  29.12100 -1.02200 27.12900
H  25.64500 0.34000 34.80500
H  23.62400 2.25200 33.83300
H  23.57700 -0.07400 35.50200
H  22.69900 -0.43900 33.97000
H  22.25900 0.95900 34.92800
H  25.36100 3.15900 34.80700
H  26.86700 2.94300 33.93600
H  27.91700 2.46500 35.69700
H  26.72800 1.28400 36.37400
H  19.31700 1.15900 30.18500
H  19.40900 2.77300 29.75500
H  20.24100 2.31800 31.22600
H  18.60800 2.03700 26.21000
H  19.30900 2.67700 27.67400
H  18.46000 1.17700 27.78000
H  25.58400 0.75700 24.64300
H  27.27500 -1.46400 25.14100
H  23.89300 -1.60700 24.69700
H  25.49100 -2.02900 24.08600
H  24.50300 -0.69300 23.38200
H  27.73200 0.63200 23.69400
H  29.02600 0.05500 24.80400
H  27.67700 2.10400 26.26500
H  28.09600 2.85100 24.84100
H  29.35600 1.98300 25.71100
H  31.91900 -0.67100 29.98600
H  31.25300 -0.67800 28.36300
H  31.14300 -2.09800 29.42000
H  28.87500 1.31100 33.89700
H  28.16700 -0.05400 37.71100
H  29.43400 -1.26400 37.18800
H  27.79700 -1.60100 36.86600
Mg -0.30100 43.88900 26.13100
C  1.81800 43.77100 28.81000
C  -2.91400 43.14000 28.41700
C  -2.41600 43.23600 23.61400
C  2.44900 44.42400 23.93200
N  -0.40500 43.27700 28.40600
C  0.51900 43.55200 29.27000
C  0.03400 43.50000 30.71600
C  -1.46100 43.15400 30.55200
C  -1.60800 43.17300 29.04800
C  -1.86300 41.85000 31.14900
C  0.31200 44.84400 31.47200
C  0.77900 44.77300 32.96700
H  0.51200 43.55600 33.82200
N  -2.37000 43.30900 26.02300
C  -3.28000 43.08700 27.06000
C  -4.51600 42.68500 26.50700
C  -4.35700 42.56300 25.10900
C  -3.01800 43.04200 24.83200
C  -5.73500 42.34500 27.38200
C  -5.33000 41.93600 24.14000
O  -5.07900 41.98900 22.94800
C  -6.64100 41.38700 24.48500
N  -0.01200 43.93500 24.10100
C  -1.07000 43.63700 23.27200
C  -0.54000 43.57600 21.86300
C  0.94300 44.05700 21.95100
C  1.15000 44.10900 23.41900
C  -0.69700 42.13600 21.16200
C  1.21800 45.38000 21.14100
C  1.10600 46.79900 21.77900
N  1.75600 44.18400 26.24300
C  2.70100 44.45600 25.32400
C  3.98100 44.54700 25.97300
C  3.67800 44.21000 27.35200
C  2.33000 44.02600 27.45900
C  5.34300 44.79600 25.25600
C  4.27300 43.92000 28.64200
O  5.41700 43.80800 29.08000
C  3.03300 43.80900 29.63900
C  3.18500 42.63400 30.44700
O  3.18400 41.53900 29.95000
O  3.52400 42.87400 31.78300
C  4.13700 41.78400 32.54600
H  -3.77400 42.90900 29.04900
H  -3.04000 42.96800 22.75900
H  3.25300 44.56400 23.20700
H  0.53500 42.63600 31.15400
H  -2.06200 43.95600 30.98200
H  -0.93800 41.47100 31.58200
H  -2.38100 41.22600 30.42100
H  -2.55200 41.92100 31.99100
H  -0.59300 45.45100 31.47100
H  1.06800 45.35900 30.87900
H  0.10300 45.50400 33.41100
H  1.81900 45.09100 33.03800
H  -6.67300 42.35000 26.82600
H  -5.88900 42.77800 28.37100
H  -5.45500 41.33200 27.67200
H  -6.62600 40.55000 25.18300
H  -6.97700 40.95800 23.54100
H  -7.52800 41.96800 24.73600
H  -1.08200 44.27900 21.23000
H  1.54300 43.21500 21.60500
H  0.25100 41.64600 20.94200
H  -1.31700 42.24600 20.27200
H  -1.32200 41.50800 21.79700
H  0.44400 45.29100 20.37800
H  2.17900 45.41300 20.62700
H  0.25600 47.30200 21.31700
H  1.98800 47.35000 21.45100
H  0.91500 46.85800 22.85100
H  5.38600 44.60900 24.18300
H  6.05500 44.17700 25.80300
H  5.61000 45.84400 25.39000
H  3.06800 44.78200 30.12800
H  4.45600 42.28200 33.46100
H  5.05600 41.41800 32.08600
H  3.40000 41.00800 32.75000

