158

Mg 17.23900 -1.34100 28.40200
C  16.16600 0.64400 30.97900
C  19.46500 -2.96400 30.65300
C  18.89400 -2.79700 25.84300
C  15.68200 0.76600 26.16600
N  17.79900 -1.18500 30.53700
C  17.08000 -0.32900 31.43300
C  17.53800 -0.67100 32.92500
C  18.74300 -1.70100 32.75700
C  18.71500 -1.93700 31.18500
C  20.11200 -1.23000 33.26600
C  16.30000 -1.15700 33.81400
C  16.30200 -0.83600 35.33500
H  17.63800 -0.79400 36.06300
N  18.78600 -2.87700 28.32300
C  19.53400 -3.45600 29.31500
C  20.37000 -4.54000 28.81000
C  20.18100 -4.55200 27.35400
C  19.29500 -3.37400 27.12500
C  21.29700 -5.30800 29.75900
C  20.74000 -5.54400 26.30600
O  20.42400 -5.41800 25.12300
C  21.64500 -6.68500 26.69800
N  17.29500 -0.99100 26.32300
C  18.04500 -1.78400 25.49700
C  17.76700 -1.39200 23.95400
C  16.63500 -0.28800 24.02400
C  16.48900 -0.20800 25.57800
C  19.07700 -0.89900 23.21100
C  15.35600 -0.66000 23.25800
C  14.09500 -1.22200 23.98700
N  16.10700 0.41600 28.49600
C  15.49100 1.13500 27.53300
C  14.73500 2.20000 28.15400
C  15.02800 2.07100 29.52300
C  15.90500 0.93400 29.63800
C  13.82400 3.24700 27.48400
C  14.67100 2.67400 30.77100
O  13.91500 3.55500 31.14500
C  15.33700 1.69300 31.78000
C  16.26000 2.55900 32.66700
O  17.20100 3.16700 32.29800
O  15.92100 2.52400 33.98900
C  16.83500 3.24100 34.92300
H  20.02900 -3.43800 31.46000
H  19.35400 -3.29100 24.98400
H  15.05600 1.42800 25.56400
H  17.85600 0.26300 33.38700
H  18.47200 -2.62400 33.26900
H  20.43600 -1.83600 34.11300
H  19.98800 -0.20000 33.60000
H  20.83400 -1.18800 32.45000
H  16.44000 -2.23800 33.81600
H  15.41100 -0.84400 33.26600
H  15.67300 -1.65800 35.67700
H  15.70000 0.07200 35.38200
H  22.33700 -5.26800 29.43400
H  20.94000 -6.33100 29.87400
H  21.29600 -4.80000 30.72300
H  22.02500 -6.68000 27.72000
H  22.51000 -6.70200 26.03400
H  20.94000 -7.50800 26.58900
H  17.39700 -2.29300 23.46500
H  16.97900 0.70000 23.72000
H  18.94300 0.08300 22.75700
H  19.35000 -1.67200 22.49200
H  19.85800 -0.76200 23.95900
H  15.58000 -1.31900 22.42000
H  15.13300 0.28300 22.76100
H  13.26700 -0.51400 24.02100
H  14.38100 -1.52600 24.99400
H  13.79700 -2.04700 23.34000
H  12.92600 3.17700 28.09800
H  13.57700 3.06100 26.43900
H  14.39900 4.16800 27.57900
H  14.57400 1.20700 32.38700
H  16.22300 3.83500 35.60200
H  17.50900 3.90600 34.38300
H  17.45100 2.59400 35.54800
Mg 0.41200 43.87800 26.23500
C  1.96300 43.98500 29.36700
C  -2.50200 43.16500 27.99900
C  -1.00200 43.16600 23.30800
C  3.62400 44.23100 24.72700
N  -0.21800 43.54200 28.51000
C  0.61300 43.79600 29.52600
C  -0.21400 43.64200 30.90800
C  -1.60600 43.18600 30.43400
C  -1.42900 43.31800 28.91100
C  -1.96700 41.80100 30.90600
C  -0.23800 45.01800 31.66500
C  -0.43400 44.97100 33.22700
H  -0.81700 43.68200 34.00700
N  -1.52700 43.42100 25.74200
C  -2.59600 43.17400 26.57500
C  -3.74500 42.78900 25.67900
C  -3.33500 42.91400 24.32200
C  -1.90000 43.15400 24.43400
C  -5.10900 42.46200 26.16500
C  -4.15800 42.71900 22.99200
O  -3.71800 42.86800 21.87200
C  -5.60800 42.28400 23.01300
N  1.19500 43.75300 24.33400
C  0.40100 43.46600 23.29900
C  1.18600 43.44200 21.96200
C  2.55200 44.11300 22.36500
C  2.49500 44.06800 23.90400
C  1.34200 42.15000 21.18300
C  2.75900 45.49900 21.85200
C  3.46600 45.56600 20.48100
N  2.46200 44.07000 26.81200
C  3.63400 44.15900 26.12700
C  4.68000 44.33700 27.13600
C  4.08600 44.25700 28.40500
C  2.70700 44.10500 28.15300
C  6.16200 44.52500 26.80800
C  4.33400 44.18700 29.82100
O  5.36400 44.17200 30.48500
C  3.01300 44.11600 30.49000
C  3.13900 42.99300 31.38400
O  3.16700 41.84000 31.03000
O  3.01100 43.39300 32.68300
C  3.03500 42.22200 33.56900
H  -3.36500 43.02800 28.65500
H  -1.51700 42.98400 22.36300
H  4.53400 44.47300 24.17500
H  0.30500 42.95700 31.57800
H  -2.35300 43.93600 30.69000
H  -2.96400 41.80200 31.34600
H  -1.21900 41.32700 31.54200
H  -1.98900 41.16600 30.02000
H  -0.93200 45.76000 31.26900
H  0.73900 45.49500 31.58700
H  -1.03600 45.79500 33.60900
H  0.57000 45.25500 33.54300
H  -5.94500 43.08500 25.84800
H  -5.16800 42.12100 27.19900
H  -5.40200 41.50700 25.72900
H  -6.26700 43.02900 23.45900
H  -5.81200 41.33600 23.50900
H  -5.88400 42.04100 21.98600
H  0.62400 44.16000 21.36500
H  3.40200 43.45100 22.20300
H  2.28100 42.13100 20.62900
H  0.54900 42.03900 20.44300
H  1.37100 41.26900 21.82400
H  3.32900 46.15800 22.50700
H  1.82500 46.05400 21.75700
H  2.68700 45.75700 19.74200
H  3.82500 44.59000 20.15400
H  4.22300 46.35000 20.46300
H  6.81800 43.92300 27.43700
H  6.30900 45.58000 27.04000
H  6.42200 44.40600 25.75600
H  2.89400 45.01900 31.08800
H  3.89900 41.57700 33.40500
H  2.14700 41.59700 33.46900
H  3.04000 42.41500 34.64100

