158

Mg 54.71000 22.88900 44.67900
C  52.84900 25.63800 43.75700
C  52.09900 20.97100 43.54900
C  56.78200 20.27500 44.86300
C  57.48500 25.03700 45.40400
N  52.72900 23.26900 43.57900
C  52.16500 24.48400 43.46300
C  50.66700 24.34000 42.98600
C  50.32400 22.86200 43.41600
C  51.79800 22.36800 43.55900
C  49.43700 22.80500 44.62000
C  50.55200 24.49300 41.45800
C  49.17400 24.77800 41.01800
H  48.73400 24.03100 39.70300
N  54.49500 20.88400 44.26800
C  53.36600 20.34100 43.75800
C  53.66900 18.88300 43.60900
C  55.03400 18.61100 43.79500
C  55.49900 19.93200 44.35800
C  52.67100 17.84900 43.11600
C  55.77900 17.40300 43.67700
O  55.29800 16.41900 43.16000
C  57.33300 17.23900 43.96200
N  56.87100 22.75900 44.94600
C  57.45800 21.49600 45.09200
C  58.93400 21.59000 45.54700
C  59.11200 23.16700 45.81400
C  57.72100 23.67700 45.39800
C  59.46900 20.64000 46.62500
C  60.31400 23.78100 44.97800
C  61.48400 22.92900 44.60300
N  55.16300 24.91700 44.61500
C  56.26500 25.62700 44.96700
C  55.90900 27.03700 44.92500
C  54.58800 27.12100 44.43800
C  54.18700 25.81200 44.24100
C  56.80800 28.13800 45.06900
C  53.46000 27.98200 44.21000
O  53.32100 29.20300 44.22900
C  52.31900 27.07600 43.63600
C  52.16300 27.39100 42.21100
O  52.96500 27.13000 41.35800
O  51.03700 28.12400 42.03800
C  50.62700 28.41000 40.69700
H  51.20400 20.37300 43.36500
H  57.51700 19.48100 45.00500
H  58.35500 25.67800 45.56300
H  50.09500 25.12800 43.47500
H  49.79500 22.20200 42.72900
H  48.58500 22.14900 44.44200
H  48.95000 23.75500 44.83700
H  50.08500 22.53500 45.45300
H  50.92100 23.59600 40.95900
H  51.24600 25.28000 41.16300
H  48.95600 25.83600 40.87100
H  48.52700 24.45000 41.83100
H  52.78400 17.64000 42.05200
H  51.65600 18.16300 43.35500
H  52.88100 16.93600 43.67400
H  57.63500 17.34800 45.00400
H  57.72300 18.06200 43.36400
H  57.62800 16.26100 43.58200
H  59.46800 21.19800 44.68200
H  59.35900 23.47600 46.83000
H  60.15600 21.13600 47.31100
H  60.09300 19.92900 46.08300
H  58.66600 20.20600 47.22000
H  60.66700 24.61900 45.57900
H  59.87600 24.17900 44.06300
H  61.36100 22.52800 43.59700
H  61.57700 22.19500 45.40400
H  62.40900 23.49900 44.67800
H  56.78500 28.62500 44.09500
H  57.83100 27.93000 45.38400
H  56.33300 28.78000 45.81100
H  51.37300 27.34900 44.10400
H  49.56000 28.60900 40.59400
H  50.85400 27.57300 40.03700
H  51.12500 29.34600 40.44500
Mg 16.18800 52.20600 26.29800
C  18.19300 51.37800 29.09300
C  13.65600 52.93000 28.57300
C  14.52300 53.28000 23.78900
C  18.79400 51.08800 24.25500
N  16.01800 52.29600 28.63200
C  16.91700 51.79300 29.49900
C  16.32600 51.93100 30.99700
C  14.75200 52.17600 30.73100
C  14.74000 52.46900 29.24300
C  13.88200 50.95800 31.17100
C  16.95200 53.23300 31.62000
C  17.53900 52.99500 33.09600
H  16.60600 52.26200 34.12700
N  14.31300 52.99300 26.13500
C  13.44500 53.23000 27.13900
C  12.28800 53.85400 26.59400
C  12.54500 54.06000 25.24400
C  13.84200 53.47700 24.99400
C  11.13500 54.45800 27.46100
C  11.75700 54.86600 24.16000
O  12.07200 54.93000 22.98300
C  10.45300 55.38600 24.50600
N  16.66200 52.12900 24.30200
C  15.76700 52.70600 23.40500
C  16.29300 52.63200 21.95500
C  17.72300 52.10100 22.20000
C  17.74200 51.74900 23.72100
C  15.33700 51.80300 20.88500
C  18.88100 53.12000 21.83900
C  20.22300 52.50000 21.47300
N  18.05500 51.29900 26.54900
C  18.98100 50.95200 25.61800
C  20.16800 50.47900 26.31200
C  19.87200 50.64500 27.66000
C  18.61300 51.20100 27.76000
C  21.29600 49.87000 25.70800
C  20.41700 50.50500 29.05100
O  21.49500 50.07400 29.48200
C  19.35100 51.01700 29.99800
C  18.98400 49.81300 30.83200
O  18.28000 48.86900 30.45200
O  19.37800 50.07100 32.10500
C  18.67400 49.20100 33.02900
H  12.75400 53.18000 29.13600
H  14.03000 53.66900 22.89500
H  19.55300 50.79300 23.52700
H  16.50100 50.98800 31.51500
H  14.34300 53.09500 31.14900
H  13.08200 50.73100 30.46700
H  13.40100 51.20900 32.11600
H  14.45400 50.03600 31.28000
H  16.21500 54.03200 31.69900
H  17.77800 53.64400 31.03900
H  17.85400 53.94700 33.52300
H  18.44900 52.39800 33.03700
H  11.14100 54.12400 28.49900
H  10.20800 54.11800 26.99900
H  11.18600 55.54400 27.53500
H  9.78400 55.65600 23.68800
H  10.50700 56.23500 25.18800
H  9.97900 54.51000 24.94700
H  16.30200 53.63100 21.51800
H  17.86100 51.21000 21.58800
H  14.64400 51.17200 21.44100
H  15.93000 51.31900 20.10900
H  14.71200 52.58500 20.45300
H  19.15200 53.79400 22.65000
H  18.58900 53.79400 21.03400
H  20.09800 51.56500 20.92600
H  20.77400 52.30900 22.39400
H  20.79900 53.17800 20.84400
H  21.02500 49.07200 25.01600
H  21.92900 49.44600 26.48800
H  21.86200 50.58200 25.10800
H  19.65700 51.80800 30.68300
H  18.89800 49.76100 33.93600
H  19.04300 48.18700 33.18400
H  17.62700 49.15300 32.72700

