158

Mg 35.73200 1.44600 30.54200
C  33.37200 2.59800 32.93400
C  38.15400 1.55200 33.00700
C  37.83500 0.71300 28.20200
C  33.03900 1.71600 28.18200
N  35.80400 2.17100 32.68400
C  34.70500 2.50600 33.45400
C  35.14700 2.68400 34.96200
C  36.69300 2.80600 34.78000
C  36.90700 2.06800 33.44200
C  37.24200 4.29200 34.91300
C  34.61800 1.51200 35.85500
C  33.84600 2.01700 37.12000
H  34.33400 3.40400 37.69800
N  37.68500 0.96800 30.66400
C  38.50300 0.98700 31.77600
C  39.71600 0.38800 31.38000
C  39.56100 0.01800 30.03300
C  38.32400 0.57800 29.56100
C  40.82900 0.17700 32.42000
C  40.47600 -0.79500 29.17400
O  40.24800 -0.98000 28.02400
C  41.87400 -1.33300 29.66300
N  35.47800 1.31900 28.49800
C  36.57800 1.10000 27.71900
C  36.27800 1.29300 26.20600
C  34.72600 1.28300 26.17400
C  34.36700 1.45500 27.71200
C  36.92200 2.53200 25.44500
C  34.05000 -0.02400 25.66500
C  32.70800 0.27500 25.01200
N  33.57700 1.94900 30.50300
C  32.68500 2.00300 29.46800
C  31.38000 2.45100 29.93100
C  31.61400 2.62200 31.34300
C  32.95600 2.37900 31.55500
C  30.08300 2.64400 29.23500
C  30.99000 3.00400 32.62700
O  29.80200 3.20900 32.89300
C  32.10000 2.92000 33.76200
C  31.91600 4.25400 34.46600
O  32.34600 5.34400 34.15100
O  31.23200 4.09500 35.61400
C  31.00100 5.29500 36.35200
H  38.89200 1.76500 33.78300
H  38.57100 0.51200 27.42000
H  32.19300 1.77000 27.49400
H  34.73000 3.65400 35.23400
H  37.12100 2.19800 35.57700
H  37.79800 4.57900 34.02100
H  37.95600 4.31900 35.73600
H  36.57900 5.11200 35.18900
H  35.44200 0.92000 36.25200
H  33.96200 0.91900 35.21800
H  33.75900 1.27200 37.91100
H  32.85200 2.14500 36.69100
H  40.79500 -0.80400 32.89500
H  40.79100 1.00700 33.12500
H  41.75200 0.20000 31.84100
H  41.75200 -2.00900 30.51000
H  42.61100 -0.54000 29.78900
H  42.29800 -1.97500 28.89100
H  36.66500 0.47700 25.59600
H  34.26600 2.16600 25.73100
H  36.22400 3.11400 24.84300
H  37.82000 2.16100 24.95100
H  37.29500 3.19600 26.22400
H  34.02100 -0.76200 26.46600
H  34.70400 -0.48100 24.92200
H  32.27100 1.23600 25.28500
H  31.99600 -0.49900 25.29900
H  32.86300 0.07700 23.95200
H  30.31200 2.87700 28.19400
H  29.55900 3.51600 29.62800
H  29.54800 1.69700 29.17500
H  31.92800 2.14900 34.51200
H  30.81000 5.03200 37.39200
H  30.21900 5.96000 35.98500
H  31.94000 5.84900 36.33300
Mg -4.80400 25.60100 26.12300
C  -3.31500 27.01100 28.87900
C  -6.51000 23.34000 28.27400
C  -6.00700 23.99000 23.53300
C  -2.76900 27.63600 24.02400
N  -4.94100 25.28900 28.29200
C  -4.24700 26.04200 29.25000
C  -4.71900 25.69800 30.72500
C  -5.68200 24.42700 30.39200
C  -5.70500 24.36200 28.87900
C  -5.06300 23.15900 31.03400
C  -5.46400 26.95000 31.28500
C  -5.25400 27.17300 32.73100
H  -5.18500 25.99200 33.68300
N  -6.14500 23.90100 25.95800
C  -6.74000 23.14900 26.95200
C  -7.68500 22.28700 26.34100
C  -7.65200 22.51700 24.92100
C  -6.62100 23.52000 24.72100
C  -8.49400 21.33200 27.23600
C  -8.47200 21.91200 23.88500
O  -8.50700 22.34800 22.72600
C  -9.56200 20.89400 24.24800
N  -4.48400 25.85400 24.12200
C  -5.12000 25.00600 23.29300
C  -4.94000 25.45500 21.77400
C  -3.89600 26.63400 21.95100
C  -3.65400 26.67100 23.42800
C  -4.40500 24.36100 20.79100
C  -4.27400 28.01900 21.33400
C  -3.09000 28.73000 20.70200
N  -3.16700 26.86100 26.31400
C  -2.54400 27.72900 25.43000
C  -1.53800 28.54100 26.19200
C  -1.79000 28.32700 27.54800
C  -2.81600 27.28800 27.57000
C  -0.49000 29.50400 25.61400
C  -1.37600 28.68700 28.86500
O  -0.50800 29.48400 29.25800
C  -2.34100 27.84300 29.80000
C  -1.47300 27.05500 30.71500
O  -1.14200 25.89700 30.61600
O  -1.20600 27.92900 31.73200
C  -0.75000 27.39000 32.93400
H  -6.93800 22.63200 28.98700
H  -6.40100 23.65200 22.57200
H  -2.20400 28.33200 23.40000
H  -3.83200 25.48100 31.32100
H  -6.72300 24.53300 30.70000
H  -3.97600 23.16800 30.95000
H  -5.60400 22.28600 30.67100
H  -5.25700 23.22300 32.10500
H  -6.53700 26.83600 31.12600
H  -5.08600 27.81200 30.73600
H  -5.97100 27.86200 33.17700
H  -4.26100 27.59300 32.88800
H  -8.13600 20.30400 27.18900
H  -9.55900 21.20600 27.04600
H  -8.32100 21.63600 28.26900
H  -10.21500 20.51800 23.46100
H  -10.20800 21.43100 24.94200
H  -9.08600 20.01300 24.67700
H  -5.94800 25.71900 21.45400
H  -3.01400 26.39400 21.35600
H  -4.00200 23.50100 21.32600
H  -3.61000 24.70000 20.12800
H  -5.12600 24.09700 20.01600
H  -4.73000 28.69200 22.06000
H  -5.08600 27.81900 20.63500
H  -3.39800 29.05200 19.70700
H  -2.21700 28.09000 20.57600
H  -2.98400 29.64700 21.28100
H  0.08300 30.01600 26.38700
H  -1.18400 30.24400 25.21600
H  0.27000 29.18400 24.90100
H  -2.89900 28.65200 30.27100
H  0.33600 27.37500 33.03100
H  -1.16200 26.39600 33.10800
H  -1.10300 27.94600 33.80200

