158

Mg 7.18700 1.58200 28.08700
C  8.73500 0.23900 30.93800
C  5.14600 3.40400 30.20400
C  6.06800 3.04900 25.48000
C  9.11400 -0.59100 26.15300
N  6.98200 1.70300 30.28900
C  7.82600 1.18800 31.23100
C  7.58800 1.79700 32.70300
C  6.21200 2.66300 32.44700
C  6.00500 2.52400 30.91000
C  4.99900 2.31000 33.33500
C  8.79600 2.64300 33.21900
C  9.25600 2.42600 34.68700
H  8.17500 2.23700 35.81100
N  5.74200 3.12700 27.89800
C  5.01500 3.74200 28.83000
C  4.17800 4.71100 28.18500
C  4.62300 4.83000 26.85500
C  5.53500 3.63600 26.68400
C  3.13400 5.54300 29.03300
C  4.24500 5.85500 25.76100
O  4.86000 5.85600 24.64600
C  3.26000 6.86700 26.09600
N  7.36200 1.16000 26.07800
C  6.80500 1.94800 25.20700
C  7.22100 1.54500 23.74000
C  8.09600 0.33900 23.95100
C  8.17000 0.22700 25.51100
C  6.00800 1.32200 22.62700
C  9.40800 0.33900 23.15200
C  10.56600 1.17200 23.84600
N  8.59500 0.13200 28.43500
C  9.39300 -0.64900 27.54400
C  10.31600 -1.51600 28.27700
C  10.18600 -1.04900 29.60400
C  9.06000 -0.15000 29.59600
C  11.18500 -2.58700 27.69400
C  10.72900 -1.23900 30.89800
O  11.63000 -2.00800 31.33500
C  9.88300 -0.22300 31.79800
C  9.26400 -0.94900 32.93200
O  8.25900 -1.66300 32.82600
O  9.97000 -0.89100 34.08300
C  9.38000 -1.45100 35.26900
H  4.59800 3.99500 30.94000
H  5.80800 3.62100 24.58600
H  9.67800 -1.30300 25.54600
H  7.41900 0.96300 33.38300
H  6.33800 3.73300 32.61500
H  5.30000 1.59600 34.10200
H  4.20500 1.86000 32.73900
H  4.71900 3.21300 33.87800
H  8.65400 3.67700 32.90400
H  9.69100 2.30900 32.69300
H  9.92400 3.24400 34.95900
H  9.91900 1.56100 34.73100
H  3.35900 6.59800 28.87400
H  2.95300 5.19900 30.05100
H  2.20800 5.43800 28.46800
H  2.33200 6.49600 26.52900
H  3.00100 7.33000 25.14400
H  3.70200 7.60700 26.76300
H  7.76500 2.43700 23.42700
H  7.67400 -0.62100 23.65400
H  5.07900 1.50700 23.16500
H  5.90000 0.31900 22.21500
H  6.13800 2.05100 21.82700
H  9.32300 0.62800 22.10500
H  9.81400 -0.66900 23.07200
H  10.38700 1.56300 24.84700
H  10.78600 1.96100 23.12600
H  11.44000 0.55400 24.05300
H  12.05000 -2.22400 27.14000
H  10.49000 -3.22600 27.14800
H  11.54400 -3.27900 28.45500
H  10.62200 0.55300 32.00100
H  9.96100 -2.37100 35.33100
H  8.32700 -1.71600 35.17500
H  9.47200 -0.76200 36.10800
Mg -11.06800 16.87400 41.27700
C  -7.58600 16.17600 41.86900
C  -10.14200 20.18000 41.10800
C  -14.16400 17.58300 40.27700
C  -11.66100 13.43900 41.06900
N  -8.99100 17.97000 41.28800
C  -7.77000 17.48800 41.48500
C  -6.74100 18.54600 41.34400
C  -7.63300 19.83600 41.67200
C  -9.03000 19.33500 41.30400
C  -7.52400 20.31000 43.13000
C  -6.25100 18.54000 39.82900
C  -5.00900 17.77300 39.47700
H  -5.05800 16.36900 38.82100
N  -12.05100 18.64200 40.73100
C  -11.43600 19.86800 40.63100
C  -12.44000 20.80300 40.07800
C  -13.66400 20.08300 39.93000
C  -13.36500 18.69500 40.34200
C  -12.03600 22.21400 39.75900
C  -14.92700 20.71700 39.33100
O  -15.01000 21.89900 39.07500
C  -16.23900 19.96500 39.18300
N  -12.64900 15.69800 40.77600
C  -13.84800 16.24100 40.54800
C  -14.98300 15.17700 40.73300
C  -14.21000 13.77700 40.73800
C  -12.70800 14.34600 40.84500
C  -15.75600 15.45300 42.01300
C  -14.41700 12.89400 39.46200
C  -14.76600 11.42700 39.66000
N  -9.86400 15.09600 41.55600
C  -10.27700 13.77000 41.46700
C  -9.14300 12.94600 41.74800
C  -8.10000 13.85500 42.07000
C  -8.56900 15.14400 41.78100
C  -9.17300 11.46100 41.85700
C  -6.78600 13.97200 42.50500
O  -6.03400 13.05100 42.79100
C  -6.38600 15.55900 42.51400
C  -6.34300 16.01500 43.96400
O  -7.24800 16.59600 44.52800
O  -5.15400 15.72800 44.54600
C  -4.94200 16.18400 45.90400
H  -9.94100 21.25000 41.19000
H  -15.22100 17.63500 40.00700
H  -11.81900 12.36100 41.00500
H  -5.83200 18.41700 41.93200
H  -7.61800 20.59500 40.89000
H  -6.69500 19.83000 43.64900
H  -8.43300 20.27500 43.73000
H  -7.32700 21.36900 42.96700
H  -6.08300 19.52600 39.39400
H  -6.95400 17.99300 39.20100
H  -4.51800 17.66700 40.44500
H  -4.31900 18.38700 38.89900
H  -11.56600 22.20300 38.77500
H  -11.39400 22.65400 40.52100
H  -12.82800 22.96300 39.75600
H  -16.11700 19.01500 38.66400
H  -16.72300 20.64300 38.48000
H  -16.67500 19.79300 40.16700
H  -15.62200 15.30300 39.85800
H  -14.44200 13.28800 41.68400
H  -16.29800 14.59200 42.40500
H  -16.60800 16.05600 41.70100
H  -15.22100 15.97400 42.80700
H  -13.49200 13.01900 38.89900
H  -15.22800 13.27800 38.84400
H  -13.93000 10.78200 39.39100
H  -15.59100 11.11500 39.01900
H  -15.13900 11.11800 40.63700
H  -8.37100 11.25600 42.56500
H  -9.00500 10.85500 40.96600
H  -10.11100 11.24900 42.37100
H  -5.37000 15.78600 42.19200
H  -4.43000 17.14600 45.94600
H  -4.21100 15.48100 46.30100
H  -5.82000 16.23000 46.54800

