158

Mg 30.41200 58.28800 38.56600
C  27.66500 56.22700 37.29800
C  32.48100 55.38300 38.16200
C  33.04100 60.22800 38.76700
C  28.31400 60.98100 37.95600
N  30.06500 56.07100 37.77000
C  28.82600 55.50800 37.37400
C  29.09700 54.00700 37.12600
C  30.55300 53.71000 37.69100
C  31.05200 55.14900 37.91400
C  30.69400 52.82200 38.98600
C  28.93500 53.41200 35.66900
C  29.28100 54.41000 34.56600
H  28.32300 54.55600 33.30800
N  32.50300 57.82100 38.48900
C  33.14100 56.64100 38.27800
C  34.59700 56.81800 38.47600
C  34.79900 58.26100 38.55100
C  33.43400 58.85200 38.65900
C  35.63000 55.68100 38.36800
C  36.08500 58.91300 38.47600
O  37.14500 58.24300 38.42300
C  36.25000 60.41600 38.52400
N  30.61200 60.30800 38.45200
C  31.84300 60.95100 38.65100
C  31.75400 62.44800 38.30100
C  30.25800 62.65800 38.08700
C  29.69700 61.26100 38.01600
C  32.28800 63.32900 39.47400
C  29.95100 63.66600 36.87900
C  28.95600 64.83000 37.15600
N  28.32300 58.60100 38.04500
C  27.60800 59.69300 37.92600
C  26.19500 59.38000 37.57100
C  26.21400 58.00400 37.40200
C  27.54200 57.58800 37.58300
C  25.15300 60.36500 37.42000
C  25.35800 56.88800 37.09400
O  24.13400 56.80300 36.83000
C  26.27700 55.66000 37.01400
C  25.80200 54.62800 37.89900
O  25.91200 54.62900 39.11300
O  25.12500 53.67700 37.17000
C  24.49600 52.56500 37.89300
H  33.04900 54.45100 38.17700
H  33.82900 60.94500 39.00600
H  27.70800 61.85900 37.72300
H  28.47800 53.48100 37.85400
H  31.13000 53.31800 36.85300
H  31.50300 52.10300 38.85600
H  29.85000 52.16800 39.20600
H  30.94800 53.31400 39.92400
H  27.88300 53.13400 35.59800
H  29.55600 52.52600 35.53800
H  30.22100 54.07000 34.13200
H  29.46200 55.43600 34.88400
H  35.93300 55.69900 37.32100
H  35.16700 54.70700 38.53100
H  36.46100 55.86500 39.04800
H  35.89700 60.75500 39.49800
H  35.64300 60.75200 37.68200
H  37.26200 60.78800 38.36700
H  32.21800 62.67800 37.34300
H  29.83600 63.08000 38.99900
H  33.12300 63.96300 39.17700
H  32.65900 62.74000 40.31300
H  31.52500 63.98800 39.88900
H  29.67200 63.04800 36.02500
H  30.87100 64.16400 36.57100
H  27.97700 64.56400 36.75500
H  29.14000 65.76000 36.61800
H  28.84500 65.02300 38.22300
H  25.03900 60.59400 36.36000
H  25.41400 61.32400 37.86800
H  24.18500 60.10300 37.84600
H  26.30800 55.14900 36.05200
H  24.03100 51.97900 37.10000
H  23.63400 52.88300 38.48000
H  25.21500 51.94800 38.43200
Mg -2.76100 34.81000 26.57800
C  -4.22400 33.00800 28.98300
C  -1.71900 37.04800 28.84900
C  -1.27600 36.65800 24.12800
C  -3.90600 32.57800 24.13500
N  -3.05400 35.04700 28.78900
C  -3.62400 34.12000 29.56900
C  -3.39900 34.47600 31.01800
C  -2.89000 35.98400 30.96200
C  -2.56100 36.08100 29.44500
C  -3.92500 37.04300 31.45400
C  -2.40000 33.58700 31.71800
C  -2.94200 32.55500 32.76000
H  -2.15900 32.41200 34.07500
N  -1.59800 36.61900 26.49200
C  -1.26600 37.30600 27.56200
C  -0.40600 38.43300 27.20700
C  -0.43200 38.45200 25.80600
C  -1.10700 37.22400 25.38300
C  0.27000 39.34100 28.20300
C  0.32000 39.45200 24.93700
O  0.36000 39.31400 23.70700
C  0.91400 40.70500 25.53800
N  -2.57300 34.66700 24.36900
C  -1.97600 35.54000 23.55700
C  -1.80500 34.99500 22.15600
C  -2.52200 33.62100 22.31400
C  -3.11100 33.67800 23.68300
C  -2.16300 35.85400 20.85100
C  -1.70000 32.35100 21.91800
C  -0.33000 32.23900 22.67900
N  -3.96300 33.22200 26.49700
C  -4.38500 32.39300 25.44500
C  -5.20800 31.36400 25.94500
C  -5.16900 31.54500 27.27300
C  -4.41600 32.72700 27.61100
C  -5.96400 30.26700 25.21700
C  -5.61700 31.08100 28.57000
O  -6.39500 30.20100 28.74400
C  -4.94200 31.90600 29.70200
C  -5.93700 32.36200 30.68800
O  -6.62600 33.33100 30.55500
O  -6.02900 31.53300 31.78300
C  -6.89900 31.79100 32.92900
H  -1.48000 37.77900 29.62500
H  -0.75000 37.22100 23.35400
H  -4.10400 31.85500 23.34100
H  -4.37700 34.57300 31.49000
H  -1.93800 36.10200 31.47900
H  -3.74200 37.25600 32.50700
H  -4.88600 36.53000 31.43400
H  -3.96800 37.92700 30.81700
H  -1.66600 34.18100 32.26100
H  -1.77500 33.04400 31.01000
H  -3.12000 31.57400 32.31900
H  -3.95600 32.85900 33.01900
H  1.27600 39.53900 27.83100
H  0.26100 38.95800 29.22300
H  -0.21500 40.31600 28.23400
H  0.33700 41.17500 26.33400
H  0.98400 41.42900 24.72600
H  1.90700 40.49000 25.93200
H  -0.73900 34.78700 22.06200
H  -3.39300 33.56400 21.66000
H  -2.61700 36.80400 21.13200
H  -2.88500 35.25200 20.30000
H  -1.30000 36.05300 20.21500
H  -1.50600 32.35100 20.84600
H  -2.20200 31.41300 22.15600
H  -0.29500 32.97400 23.48400
H  0.39600 32.42100 21.88700
H  -0.28900 31.28500 23.20700
H  -5.38000 29.35100 25.12600
H  -6.18200 30.66400 24.22600
H  -6.97100 30.21000 25.63000
H  -4.24800 31.31300 30.29800
H  -6.37300 32.50900 33.55800
H  -7.17900 30.85100 33.40400
H  -7.82600 32.18000 32.50700

