158

Mg 50.17600 45.66400 42.28100
C  47.06900 46.41400 40.77600
C  49.72500 42.40500 40.91400
C  53.47900 45.10200 42.42900
C  50.66900 49.06800 42.87700
N  48.48800 44.50000 41.00700
C  47.33300 45.07300 40.49200
C  46.53700 44.07000 39.66400
C  47.31100 42.70800 40.03800
C  48.64800 43.17600 40.68700
C  46.44900 41.79500 41.00100
C  46.51900 44.50500 38.23200
C  45.16400 44.39900 37.46900
H  45.17500 43.91200 36.00400
N  51.46200 43.98600 41.89600
C  51.06100 42.75500 41.42800
C  52.18100 41.89100 41.49400
C  53.27000 42.63600 42.02200
C  52.73600 43.94800 42.13900
C  52.18100 40.33100 41.21900
C  54.61700 42.06800 42.31100
O  54.96100 40.94500 41.97900
C  55.60900 42.92900 42.96900
N  51.83500 46.97000 42.67800
C  53.12300 46.44200 42.65500
C  54.19300 47.56900 42.87600
C  53.26400 48.83200 43.09600
C  51.83000 48.27700 42.92500
C  55.17000 47.27700 44.04300
C  53.65900 50.11000 42.23600
C  54.66800 51.03600 42.91600
N  49.11500 47.43100 41.97500
C  49.45200 48.72700 42.27100
C  48.32100 49.59500 41.90400
C  47.38300 48.73800 41.29500
C  47.90800 47.39100 41.37300
C  48.27700 51.00200 42.02500
C  46.20100 48.70300 40.54600
O  45.42800 49.58900 40.12100
C  45.95300 47.25400 40.31600
C  44.69700 46.84200 40.89800
O  44.52600 46.59200 42.08900
O  43.67600 46.75500 39.96100
C  42.39200 46.38700 40.45000
H  49.57100 41.35300 40.66600
H  54.56500 45.07900 42.31900
H  50.86700 50.12700 43.05100
H  45.53600 44.01100 40.09100
H  47.44700 42.00000 39.22000
H  46.52400 40.76700 40.64700
H  45.41900 42.14200 41.07600
H  46.84500 41.73700 42.01500
H  47.23300 43.86700 37.71200
H  46.90300 45.51900 38.11200
H  44.62500 45.34600 37.49600
H  44.60000 43.65600 38.03200
H  52.64000 40.27000 40.23300
H  51.17100 39.92900 41.13700
H  52.74000 39.71100 41.92000
H  56.42900 42.42000 43.47600
H  55.13000 43.53900 43.73500
H  55.97200 43.64600 42.23200
H  54.68300 47.61000 41.90300
H  53.22400 49.15500 44.13700
H  54.93600 47.75500 44.99400
H  56.21600 47.31900 43.73900
H  55.01800 46.22500 44.28600
H  52.79400 50.62300 41.81700
H  54.15100 49.72500 41.34200
H  54.31100 52.04800 43.10400
H  55.51700 51.23200 42.26100
H  55.14200 50.73500 43.85000
H  47.94000 51.35000 43.00200
H  47.61600 51.52300 41.33300
H  49.31000 51.24700 41.77600
H  45.72100 47.18000 39.25400
H  42.00400 47.06300 41.21100
H  42.27700 45.42300 40.94600
H  41.70500 46.40400 39.60400
Mg 29.47500 57.94100 39.96800
C  26.35500 56.34100 39.13900
C  31.03400 55.32900 38.70700
C  32.14700 60.00000 39.74700
C  27.42400 60.96700 40.59400
N  28.77400 56.04200 39.05400
C  27.51900 55.58300 38.92800
C  27.48600 54.17800 38.36900
C  29.02300 53.69700 38.62000
C  29.65400 55.07700 38.78300
C  29.24300 52.75100 39.75100
C  26.94400 53.98600 36.97700
C  27.12400 55.16500 35.93600
H  27.98100 54.87800 34.67500
N  31.41700 57.64700 39.47600
C  31.89100 56.42300 39.04900
C  33.34900 56.49200 38.99300
C  33.72400 57.85600 39.22700
C  32.43900 58.58500 39.50400
C  34.20400 55.31400 38.61500
C  35.06500 58.44800 39.26400
O  36.04800 57.75400 39.05700
C  35.25100 59.84500 39.58900
N  29.71400 60.19500 40.13200
C  30.94200 60.66900 40.09000
C  30.88800 62.24600 40.34900
C  29.44700 62.50600 40.61200
C  28.77300 61.15400 40.44000
C  31.86500 62.76600 41.56000
C  28.76300 63.55500 39.73100
C  27.77700 64.52700 40.43800
N  27.35600 58.52400 40.08500
C  26.68600 59.77700 40.29200
C  25.27400 59.50400 40.20400
C  25.09000 58.18000 39.69800
C  26.38600 57.65400 39.62500
C  24.18700 60.55200 40.46400
C  24.13400 57.19600 39.28700
O  22.92800 57.30000 39.16300
C  24.96900 55.89600 38.88500
C  24.54600 54.69100 39.74300
O  24.81500 54.45100 40.88600
O  23.75400 53.90300 38.98300
C  22.93300 52.84000 39.62500
H  31.60600 54.46300 38.36900
H  32.92900 60.75100 39.87700
H  26.78600 61.80500 40.88100
H  26.83800 53.58500 39.01500
H  29.40500 53.34600 37.66100
H  29.80900 51.86000 39.48000
H  28.30600 52.30000 40.07800
H  29.74800 53.28300 40.55700
H  25.88300 53.76200 37.09100
H  27.39500 53.08400 36.56500
H  27.64300 55.97900 36.44200
H  26.13700 55.51100 35.62700
H  35.20100 55.22600 39.04600
H  34.33700 55.20100 37.54000
H  33.75700 54.39900 39.00500
H  36.29800 60.14900 39.56300
H  34.94300 60.05000 40.61400
H  34.63600 60.30000 38.81300
H  31.17300 62.84800 39.48500
H  29.47400 62.83100 41.65200
H  32.63000 63.47600 41.24600
H  32.16400 61.92500 42.18500
H  31.32400 63.42100 42.24300
H  28.07500 63.11300 39.01000
H  29.50100 64.09900 39.14100
H  28.29300 65.40600 40.82500
H  27.55200 64.02000 41.37600
H  26.85200 64.74800 39.90600
H  24.64000 61.38400 41.00200
H  23.35700 60.30500 41.12600
H  23.85800 60.85600 39.47000
H  24.75900 55.66700 37.84000
H  23.45900 52.35600 40.44800
H  22.73800 51.94200 39.03900
H  21.98200 53.31200 39.87300

