158

Mg 1.51300 -1.09400 45.24900
C  5.07700 -0.02200 44.82300
C  0.73200 1.51000 43.24000
C  -1.38000 -2.56100 44.87400
C  2.91200 -4.03300 46.74800
N  2.83200 0.57500 44.13000
C  4.15900 0.79100 44.09000
C  4.50200 1.88200 43.16200
C  3.11100 2.57500 42.93700
C  2.12700 1.48300 43.39800
C  2.89000 3.96200 43.58700
C  5.16500 1.25700 41.89700
C  6.64100 1.64100 41.61100
H  6.87400 2.70700 40.49900
N  -0.13000 -0.51500 44.38300
C  -0.32700 0.63500 43.58600
C  -1.74700 0.67600 43.26100
C  -2.33700 -0.56000 43.63000
C  -1.28200 -1.29200 44.33000
C  -2.29600 1.88100 42.53800
C  -3.74800 -0.93200 43.42500
O  -4.46200 -0.10300 42.91200
C  -4.35400 -2.31000 43.78700
N  0.87400 -2.98300 45.75000
C  -0.41000 -3.32000 45.60800
C  -0.71700 -4.75300 46.06700
C  0.59200 -5.19300 46.70100
C  1.51400 -4.00400 46.43700
C  -2.04400 -4.94600 46.88400
C  1.21200 -6.60200 46.28200
C  1.78700 -7.45600 47.41900
N  3.51300 -1.74800 45.96100
C  3.89700 -3.02500 46.43000
C  5.35100 -3.04000 46.70000
C  5.81300 -1.85100 46.07300
C  4.68700 -1.17400 45.56800
C  6.17800 -4.12900 47.31600
C  7.05300 -1.08200 45.79600
O  8.17100 -1.27900 46.22600
C  6.61200 0.14900 44.97400
C  6.93100 1.39400 45.80000
O  6.68800 1.49800 47.01100
O  7.60100 2.35200 45.08800
C  7.99100 3.53100 45.88000
H  0.44600 2.20100 42.44500
H  -2.28400 -3.15900 44.74200
H  3.27900 -4.96900 47.17400
H  5.17600 2.54200 43.70800
H  2.94900 2.59800 41.85900
H  2.02100 3.90000 44.24100
H  2.68600 4.70800 42.81900
H  3.71300 4.26800 44.23300
H  4.60200 1.52900 41.00400
H  4.97000 0.18500 41.89200
H  6.97400 0.68600 41.20300
H  7.25000 1.75700 42.50700
H  -2.76000 1.56000 41.60600
H  -1.52300 2.60600 42.28100
H  -3.04100 2.28800 43.22100
H  -4.39100 -2.36100 44.87500
H  -3.68300 -3.01800 43.30100
H  -5.38500 -2.31200 43.43200
H  -0.95400 -5.31300 45.16300
H  0.45000 -5.11500 47.77900
H  -2.69700 -4.07400 46.86400
H  -1.75600 -5.26300 47.88700
H  -2.58500 -5.70600 46.32100
H  2.09600 -6.36800 45.68900
H  0.63200 -7.28800 45.66500
H  2.86000 -7.26600 47.39500
H  1.57600 -8.51900 47.30200
H  1.42300 -7.13500 48.39500
H  6.32700 -4.03500 48.39200
H  7.14400 -4.19400 46.81400
H  5.71600 -5.11500 47.26600
H  7.18600 0.17700 44.04700
H  7.16400 3.97000 46.43900
H  8.17100 4.21600 45.05200
H  8.90900 3.31800 46.42700
Mg -11.76800 38.44900 41.11400
C  -9.68800 35.72200 40.21200
C  -9.60200 40.56600 39.60700
C  -14.08100 40.84800 41.32400
C  -14.05500 36.14100 42.34600
N  -10.00600 38.10800 39.93900
C  -9.27800 36.97400 39.73700
C  -8.06600 37.19000 38.81300
C  -7.95600 38.79200 38.69800
C  -9.32300 39.18500 39.42600
C  -6.72400 39.40300 39.45200
C  -8.18600 36.35100 37.46500
C  -6.78700 35.67400 37.08500
H  -6.10500 36.00600 35.74000
N  -11.80400 40.45600 40.55000
C  -10.81700 41.17200 40.06800
C  -11.16300 42.58800 39.94600
C  -12.57300 42.63100 40.34000
C  -12.89000 41.29300 40.74600
C  -10.28000 43.62600 39.27400
C  -13.40500 43.87600 40.25500
O  -12.88300 44.93700 39.82300
C  -14.90700 43.91000 40.67400
N  -13.79300 38.41600 41.47200
C  -14.50700 39.56600 41.68800
C  -15.94100 39.34700 42.28200
C  -15.84000 37.85900 42.61500
C  -14.51900 37.46200 42.08200
C  -16.41600 40.38300 43.48500
C  -16.99200 36.99700 42.04700
C  -17.75900 36.22300 43.08500
N  -11.84500 36.32200 41.29800
C  -12.82600 35.54000 41.90800
C  -12.31600 34.14800 42.10100
C  -11.08100 34.18600 41.35500
C  -10.89600 35.48600 40.87700
C  -12.95600 33.08700 42.89500
C  -9.96600 33.40900 40.76800
O  -9.75200 32.23300 40.71100
C  -8.93300 34.40900 40.08300
C  -7.62400 34.33700 40.84400
O  -6.87300 33.38700 40.80700
O  -7.41900 35.41500 41.67200
C  -6.22400 35.66400 42.46400
H  -8.86200 41.31800 39.32500
H  -14.83100 41.62600 41.48000
H  -14.70800 35.55600 42.99700
H  -7.16900 36.79500 39.28900
H  -7.98600 39.18100 37.68000
H  -6.21700 38.70700 40.12000
H  -7.04600 40.24800 40.06000
H  -6.03500 39.84300 38.73100
H  -8.66800 36.88800 36.64800
H  -8.82600 35.49300 37.67400
H  -6.81600 34.59400 37.23200
H  -6.01500 35.92100 37.81400
H  -10.60500 43.86800 38.26200
H  -9.21200 43.41300 39.30200
H  -10.21200 44.61700 39.72400
H  -15.42500 44.82000 40.37100
H  -14.93500 43.87700 41.76300
H  -15.45500 43.05300 40.28300
H  -16.59900 39.53600 41.43300
H  -15.76800 37.70800 43.69300
H  -17.29900 40.90500 43.11600
H  -15.64300 41.13600 43.63200
H  -16.79400 39.99700 44.43200
H  -16.63700 36.19900 41.39500
H  -17.74800 37.53500 41.47600
H  -17.62300 36.59700 44.10000
H  -17.39500 35.19700 43.13700
H  -18.81400 36.24300 42.81400
H  -12.08400 32.55800 43.28100
H  -13.55200 32.44400 42.24800
H  -13.51600 33.48100 43.74400
H  -8.75600 34.03200 39.07600
H  -6.16300 35.04300 43.35800
H  -6.15800 36.70600 42.78000
H  -5.43100 35.41500 41.76000

