158

Mg 41.46100 40.61700 26.68900
C  41.02700 43.02300 29.07100
C  42.47100 38.45400 29.08700
C  42.32100 38.48700 24.28400
C  40.63700 43.00400 24.25700
N  41.79000 40.81000 28.91000
C  41.44500 41.80200 29.68300
C  41.52000 41.39100 31.11500
C  42.02900 39.91500 31.02500
C  42.08100 39.65900 29.58500
C  43.42100 39.56800 31.71600
C  40.07600 41.46100 31.79100
C  39.86500 40.84000 33.15800
H  39.34300 41.84600 34.15400
N  42.25600 38.67300 26.71100
C  42.61500 37.95900 27.79700
C  43.07200 36.67500 27.33800
C  43.09400 36.64100 25.93400
C  42.54300 37.99400 25.60900
C  43.60200 35.72200 28.31600
C  43.49200 35.53400 24.96200
O  43.26200 35.56200 23.72600
C  44.06000 34.21800 25.45700
N  41.56300 40.78200 24.63400
C  41.91000 39.74300 23.80700
C  41.89100 40.12200 22.28500
C  41.00500 41.34300 22.33000
C  40.98200 41.76700 23.82700
C  43.25200 40.46300 21.68400
C  39.63300 41.18400 21.82300
C  38.51700 40.70200 22.84100
N  40.89400 42.67900 26.61300
C  40.58400 43.48100 25.54900
C  40.32200 44.81000 26.02500
C  40.40500 44.65400 27.46700
C  40.76800 43.34100 27.74600
C  40.16000 46.06000 25.29600
C  40.33800 45.34000 28.76000
O  40.23000 46.54500 29.05200
C  40.58700 44.27700 29.81000
C  41.72900 44.81000 30.59200
O  42.78400 45.24000 30.21100
O  41.43800 44.69000 31.98200
C  42.49200 45.03300 32.94400
H  42.50600 37.73500 29.90800
H  42.44800 37.74600 23.49100
H  40.32500 43.60800 23.40300
H  42.19700 41.99600 31.71800
H  41.25500 39.27000 31.44200
H  44.22300 39.34900 31.01100
H  43.32900 38.68400 32.34800
H  43.83100 40.39700 32.29400
H  39.36400 41.00900 31.09900
H  39.72300 42.48700 31.89800
H  40.87900 40.48400 33.33900
H  39.26800 39.93000 33.11200
H  43.16400 35.79200 29.31200
H  44.68700 35.73400 28.41200
H  43.30300 34.71600 28.02100
H  43.17300 33.69900 25.81900
H  44.59200 34.43600 26.38300
H  44.62200 33.62200 24.73700
H  41.43500 39.24600 21.82500
H  41.53300 42.18100 21.87500
H  43.83400 39.54300 21.73300
H  43.75400 41.25600 22.23900
H  43.20900 40.64000 20.61000
H  39.68100 40.45700 21.01200
H  39.33600 42.16000 21.44200
H  38.73500 40.94000 23.88200
H  38.35600 39.63800 22.66500
H  37.60400 41.28000 22.69700
H  39.42800 46.12900 24.49100
H  41.08300 46.39000 24.81900
H  39.98900 46.79200 26.08400
H  39.77200 44.14600 30.52100
H  43.47600 45.20200 32.50700
H  42.56300 44.19800 33.64100
H  42.33300 45.93700 33.53200
Mg 35.99700 48.92600 25.62200
C  36.41400 47.06000 28.44600
C  34.97000 51.61200 27.24100
C  35.67100 50.35100 22.66900
C  36.81000 45.93500 23.76200
N  35.72200 49.25700 27.63900
C  36.05400 48.45300 28.64900
C  35.90600 49.21100 29.99000
C  35.36200 50.63600 29.59600
C  35.27700 50.50400 28.08600
C  33.93900 50.84400 30.25100
C  37.33800 49.20400 30.68800
C  37.31400 49.09700 32.18100
H  36.00800 49.19700 32.96700
N  35.28800 50.70500 25.05500
C  35.00200 51.70100 25.90200
C  34.66000 52.86100 25.14800
C  34.74400 52.52200 23.79800
C  35.28700 51.13700 23.81100
C  34.16100 54.23200 25.71700
C  34.45800 53.33300 22.54700
O  34.38800 52.87000 21.39600
C  34.24300 54.81700 22.69100
N  36.18700 48.19600 23.44800
C  36.05700 49.06200 22.44800
C  36.38700 48.51400 21.06400
C  36.99300 47.12800 21.47400
C  36.64300 47.05500 22.97900
C  35.17500 48.53500 20.10700
C  38.51100 46.93100 21.28400
C  39.01100 45.59500 20.63200
N  36.49800 46.86700 26.00100
C  36.77500 45.74100 25.16200
C  37.00800 44.52400 25.96900
C  36.88100 45.03800 27.29100
C  36.61000 46.44100 27.20900
C  37.18200 43.13300 25.38300
C  37.01400 44.62500 28.66900
O  37.36600 43.58800 29.21100
C  36.66300 45.97400 29.49700
C  35.47600 45.68600 30.30200
O  34.34900 45.73600 29.96300
O  35.86100 45.23900 31.53700
C  34.66700 44.99600 32.40100
H  34.68700 52.51000 27.79400
H  35.66500 50.84200 21.69300
H  37.02600 45.09800 23.09600
H  35.18700 48.71900 30.64500
H  36.02300 51.46100 29.86100
H  33.13100 50.75600 29.52500
H  33.84000 51.89900 30.50700
H  33.64600 50.27300 31.13200
H  37.75300 50.15100 30.34400
H  38.01100 48.45400 30.27300
H  37.93800 49.87900 32.61500
H  37.76500 48.14900 32.47400
H  34.79600 55.02900 25.32800
H  34.24200 54.45400 26.78200
H  33.26200 54.57500 25.20600
H  33.30200 55.14100 23.13400
H  34.14700 55.11700 21.64800
H  35.07500 55.28900 23.21500
H  37.00700 49.28000 20.59800
H  36.36300 46.48500 20.86000
H  34.30700 48.87900 20.67000
H  34.96200 47.55600 19.67800
H  35.25800 49.38100 19.42400
H  38.96100 47.05300 22.26900
H  38.98400 47.73000 20.71400
H  39.62800 45.05800 21.35200
H  39.63800 45.84500 19.77600
H  38.14300 45.02300 20.30300
H  37.90700 43.15300 24.56900
H  36.24900 42.74100 24.97800
H  37.42100 42.47800 26.22000
H  37.50100 46.30800 30.11000
H  33.81500 45.66200 32.26300
H  35.13700 45.14400 33.37300
H  34.36500 43.96100 32.24000

