158

Mg 47.21100 32.96000 25.52400
C  45.69800 31.98700 28.69100
C  47.73400 35.97600 27.02400
C  48.81300 33.74500 22.86300
C  46.46800 29.77700 24.33900
N  46.83400 33.81100 27.72500
C  46.35000 33.21300 28.85700
C  46.50600 34.09800 30.13700
C  46.95400 35.45800 29.42200
C  47.24300 35.10900 27.99400
C  46.01900 36.67700 29.61200
C  47.53100 33.50100 31.12500
C  47.12300 33.33000 32.56600
H  46.41600 34.38900 33.41600
N  48.04100 34.69800 24.99500
C  48.19900 35.85900 25.73500
C  48.94500 36.83100 24.96100
C  49.22100 36.25900 23.68300
C  48.71900 34.82500 23.78800
C  49.40800 38.21400 25.45100
C  49.90700 36.72700 22.48000
O  50.22400 36.06200 21.51200
C  50.44300 38.18700 22.43700
N  47.55300 31.89600 23.83100
C  48.32600 32.41600 22.86500
C  48.62300 31.39400 21.76400
C  47.88300 30.12400 22.20600
C  47.26300 30.58400 23.52900
C  48.06200 31.90300 20.35400
C  48.68500 28.82900 22.26700
C  49.65700 28.76500 21.04100
N  46.19900 31.26500 26.20700
C  45.87600 30.12100 25.57000
C  45.03000 29.23900 26.37000
C  44.96200 30.04000 27.53700
C  45.67500 31.20600 27.46200
C  44.40400 27.88300 25.95600
C  44.35300 29.98200 28.80600
O  43.61700 29.13200 29.23900
C  44.69900 31.31600 29.58300
C  45.07900 30.85300 30.97900
O  46.10300 30.37800 31.36600
O  43.97400 31.01400 31.81600
C  44.25400 30.86700 33.26400
H  47.95400 36.99500 27.34600
H  49.30300 33.92200 21.90300
H  46.37000 28.75300 23.97300
H  45.55600 34.07100 30.67000
H  47.83300 35.90800 29.88300
H  45.49400 36.97100 28.70400
H  46.63100 37.56800 29.74600
H  45.26200 36.61400 30.39400
H  48.41800 34.13400 31.14800
H  47.70700 32.50600 30.71600
H  48.02100 33.01000 33.09500
H  46.49700 32.43900 32.57800
H  50.49000 38.08700 25.46200
H  49.11300 38.38900 26.48600
H  49.13500 39.17300 25.01000
H  50.65300 38.48300 21.40900
H  51.32500 38.33100 23.06100
H  49.69000 38.84200 22.87500
H  49.70400 31.42200 21.62800
H  47.05300 29.88000 21.54300
H  47.92800 32.98500 20.38200
H  47.11700 31.48400 20.00900
H  48.83600 31.94100 19.58700
H  48.09400 27.91800 22.17400
H  49.24400 28.93600 23.19600
H  50.62900 29.11500 21.39000
H  49.36600 29.32500 20.15300
H  49.71700 27.70500 20.79100
H  44.26400 27.83000 24.87600
H  43.47500 27.64200 26.47300
H  45.13900 27.11700 26.20400
H  43.81900 31.93900 29.74100
H  43.52500 30.21100 33.74100
H  44.26000 31.87100 33.68600
H  45.20300 30.38300 33.49600
Mg 5.35700 54.96200 40.63600
C  4.87800 51.45500 40.78000
C  8.41200 54.63100 39.68300
C  5.26700 58.31400 39.92400
C  1.87000 55.28700 41.49000
N  6.38800 53.24900 40.09900
C  6.10900 51.90100 40.18100
C  7.32200 51.05000 39.71400
C  8.49900 52.12500 39.75900
C  7.67500 53.40900 39.81800
C  9.60700 52.00100 40.87900
C  7.03100 50.41600 38.31800
C  5.99200 51.14200 37.37700
H  6.69800 51.93300 36.28100
N  6.81200 56.44200 40.07000
C  8.03500 56.04500 39.58000
C  8.76900 57.23900 39.20600
C  7.84600 58.39600 39.37100
C  6.56000 57.78700 39.80600
C  10.14800 57.33400 38.64100
C  8.08100 59.84100 39.12600
O  9.10600 60.19200 38.54300
C  7.01200 60.90400 39.40000
N  3.73900 56.59800 40.71200
C  4.02200 57.87200 40.33700
C  2.74800 58.78400 40.36200
C  1.63100 57.74000 40.70300
C  2.43900 56.51600 41.00400
C  2.74500 60.03200 41.24800
C  0.48500 57.46300 39.69900
C  -0.09400 58.67600 38.98800
N  3.64100 53.68600 41.02200
C  2.36300 53.96500 41.45800
C  1.72200 52.71400 41.88700
C  2.62600 51.66700 41.71200
C  3.73700 52.33100 41.13000
C  0.45500 52.51900 42.59100
C  3.01100 50.30000 41.94000
O  2.48700 49.41900 42.61300
C  4.40000 50.04600 41.20400
C  4.28600 49.02500 40.04900
O  3.81000 49.23800 38.97300
O  4.63800 47.83200 40.48100
C  4.31500 46.59900 39.76600
H  9.48300 54.45100 39.57000
H  5.01900 59.35800 39.72400
H  0.84800 55.25900 41.87100
H  7.46200 50.29200 40.48500
H  8.92500 52.11900 38.75600
H  10.58200 51.87300 40.40800
H  9.43500 51.07800 41.43200
H  9.56800 52.86700 41.54000
H  6.68000 49.40000 38.49900
H  7.94900 50.31900 37.73800
H  5.29700 51.78000 37.92400
H  5.39200 50.37800 36.88300
H  10.82500 57.52500 39.47300
H  10.38000 57.91100 37.74500
H  10.43100 56.28400 38.56000
H  6.22700 60.92800 38.64500
H  7.49700 61.87200 39.53200
H  6.48900 60.64900 40.32200
H  2.61800 59.16300 39.34900
H  1.20200 58.05200 41.65500
H  1.78900 60.14900 41.75900
H  2.91900 60.94000 40.67200
H  3.60700 59.97600 41.91300
H  -0.31400 56.96100 40.24500
H  0.91600 56.77500 38.97200
H  0.50300 58.89300 38.10300
H  -0.09800 59.46500 39.74000
H  -1.12800 58.47200 38.71100
H  0.59200 52.13300 43.60100
H  -0.12100 51.77800 42.03600
H  -0.10600 53.44600 42.71500
H  5.06500 49.58600 41.93500
H  4.71400 46.68200 38.75500
H  3.24900 46.45200 39.59500
H  4.69500 45.71400 40.27700

