158

Mg 46.43100 44.52900 43.32900
C  42.99100 43.66900 42.98200
C  47.26900 41.40900 42.23800
C  49.54100 45.55500 42.88400
C  45.38300 47.94500 43.87200
N  45.20600 42.76400 43.00600
C  43.88000 42.68100 42.80700
C  43.52600 41.27700 42.26600
C  44.87700 40.50400 42.36400
C  45.89200 41.56700 42.56400
C  44.95900 39.34800 43.34100
C  42.79700 41.28000 40.96300
C  43.38800 42.10800 39.77600
H  43.20500 41.39200 38.39000
N  48.13200 43.54900 42.72300
C  48.30600 42.28500 42.30000
C  49.67800 42.03000 42.06900
C  50.38700 43.24900 42.24600
C  49.38600 44.21900 42.63000
C  50.24800 40.65600 41.77500
C  51.95900 43.41800 42.05600
O  52.66800 42.51400 41.70100
C  52.59800 44.75900 42.24600
N  47.28000 46.51800 43.11200
C  48.68100 46.57700 43.12400
C  49.09400 47.98900 43.65700
C  47.72500 48.79300 43.84600
C  46.71300 47.71900 43.65200
C  50.06500 48.18100 44.79400
C  47.49300 49.87400 42.79400
C  47.47300 51.34800 43.34400
N  44.55100 45.58100 43.53200
C  44.34200 46.95200 43.69300
C  42.91100 47.17000 43.86400
C  42.28400 45.93600 43.54400
C  43.36100 44.99600 43.36600
C  42.20600 48.48100 43.98500
C  41.01400 45.29300 43.21900
O  39.89600 45.80500 43.18200
C  41.49800 43.81200 42.88500
C  40.83400 42.95600 43.98200
O  39.99300 42.10800 43.67900
O  41.53100 42.97100 45.21700
C  41.32100 41.91600 46.23400
H  47.52600 40.40900 41.88300
H  50.56900 45.85400 43.10000
H  45.15300 48.98300 44.12000
H  42.95900 40.71800 43.01100
H  45.06300 39.99000 41.42100
H  44.13200 39.38000 44.05100
H  45.85800 39.43000 43.95200
H  44.94900 38.35200 42.89800
H  41.77000 41.57900 41.17500
H  42.77400 40.20900 40.76100
H  44.47000 42.21300 39.85000
H  42.91800 43.09100 39.76500
H  49.44700 39.98200 42.08100
H  51.28600 40.53600 42.08500
H  50.13600 40.57000 40.69400
H  52.08300 45.51400 41.65200
H  53.64300 44.81200 41.94000
H  52.57400 45.05600 43.29500
H  49.60900 48.39300 42.78500
H  47.70800 49.22400 44.84700
H  50.49000 47.22900 45.11200
H  49.58100 48.59900 45.67700
H  50.87700 48.87800 44.58700
H  46.49300 49.71600 42.39000
H  48.31300 49.74800 42.08700
H  48.30200 51.68500 43.96700
H  46.44200 51.49800 43.66400
H  47.62500 51.96500 42.45900
H  41.65900 48.34300 44.91700
H  41.34300 48.50100 43.32000
H  42.86400 49.34800 43.92100
H  41.09700 43.64600 41.88500
H  40.37400 41.95400 46.77300
H  42.18500 41.96600 46.89700
H  41.37800 41.06100 45.56100
Mg 9.51300 47.03500 26.24900
C  7.21800 46.82800 28.83700
C  11.78400 48.02800 28.34300
C  11.53600 47.62400 23.61100
C  6.80600 46.73200 24.01500
N  9.48700 47.45000 28.44100
C  8.49200 47.17000 29.31500
C  8.94300 47.39500 30.77500
C  10.37000 47.97400 30.60000
C  10.60600 47.88400 29.04300
C  10.52700 49.41600 31.20300
C  8.75700 46.12300 31.75300
C  9.76100 45.97500 32.91100
H  9.16200 45.46500 34.24900
N  11.43900 47.47700 26.05400
C  12.27700 47.86500 27.04200
C  13.60200 47.94700 26.51700
C  13.54900 47.73600 25.08000
C  12.11200 47.64500 24.86700
C  14.79200 47.96700 27.43800
C  14.64300 47.65600 24.03100
O  14.40600 47.49000 22.82600
C  16.07200 47.45900 24.53200
N  9.20300 47.13000 24.10600
C  10.22500 47.44700 23.23800
C  9.77300 47.36700 21.75900
C  8.24200 47.15100 21.88200
C  8.06300 47.02600 23.41700
C  10.11900 48.71700 21.07300
C  7.68400 45.89900 21.04600
C  6.44500 46.27000 20.21200
N  7.43000 46.93200 26.35200
C  6.47500 46.67300 25.39000
C  5.22900 46.47900 25.95300
C  5.44400 46.50200 27.30900
C  6.83500 46.78200 27.53900
C  3.90700 46.37900 25.32200
C  4.78900 46.32100 28.61200
O  3.69600 45.98600 29.00300
C  6.00500 46.56700 29.68300
C  6.01100 45.37100 30.46800
O  6.76200 44.40900 30.37100
O  5.27700 45.51800 31.58400
C  5.16900 44.44900 32.63900
H  12.61300 47.95900 29.05100
H  12.15700 47.75300 22.72300
H  5.92200 46.52800 23.40800
H  8.19300 48.11700 31.09700
H  11.11400 47.31500 31.04900
H  10.99700 49.29300 32.17900
H  9.55100 49.79300 31.50800
H  10.98100 50.19500 30.59100
H  8.85400 45.23000 31.13600
H  7.77600 46.13300 32.22900
H  10.39500 46.82600 33.16000
H  10.42700 45.17300 32.59200
H  15.30800 48.91300 27.26900
H  15.61000 47.30500 27.15500
H  14.56600 47.92900 28.50400
H  16.78000 47.29500 23.72000
H  16.11800 46.61700 25.22200
H  16.38500 48.36500 25.05200
H  10.26300 46.63300 21.11900
H  7.65700 48.04200 21.65400
H  9.19500 49.23600 20.82000
H  10.67800 48.57000 20.14900
H  10.71200 49.30400 21.77500
H  7.29600 45.16800 21.75600
H  8.40200 45.53000 20.31400
H  6.41100 45.64400 19.32000
H  6.41500 47.34200 20.02000
H  5.49200 46.04800 20.69200
H  4.06900 45.78000 24.42600
H  3.62100 47.38400 25.01100
H  3.11000 45.96300 25.93700
H  5.71300 47.38500 30.34100
H  5.23700 43.48700 32.12900
H  4.16400 44.48700 33.05800
H  5.97700 44.50500 33.36800

