158

Mg 0.54800 7.53000 25.26700
C  0.99600 9.40600 28.21000
C  1.19100 4.75600 27.21500
C  0.38300 5.74400 22.54300
C  0.74300 10.53100 23.43100
N  1.02600 7.15100 27.54200
C  0.96200 8.05500 28.52300
C  1.03800 7.36000 29.91300
C  1.29600 5.87700 29.55300
C  1.17000 5.93100 28.02300
C  2.63700 5.22500 30.05500
C  -0.24700 7.69200 30.71000
C  -0.14800 7.55100 32.25200
H  1.17700 7.01000 32.82700
N  0.37600 5.49700 24.96500
C  0.79500 4.57700 25.85100
C  0.51200 3.31900 25.17700
C  0.26600 3.59200 23.77500
C  0.37900 4.99400 23.69400
C  0.60300 1.97400 25.90400
C  -0.11900 2.62600 22.58500
O  -0.23500 2.96500 21.44300
C  -0.53700 1.20300 22.99300
N  0.72500 8.07200 23.22900
C  0.40700 7.14200 22.38400
C  0.32800 7.76300 20.98900
C  -0.01900 9.27000 21.38500
C  0.46200 9.32500 22.77800
C  1.49400 7.63900 20.03600
C  -1.47800 9.65300 21.26900
C  -1.82700 11.10000 20.70600
N  0.87800 9.61200 25.72000
C  0.98900 10.66400 24.85600
C  1.33800 11.87300 25.62600
C  1.40100 11.38500 26.95500
C  1.04300 10.05000 26.93600
C  1.35500 13.26100 25.07900
C  1.59600 11.83000 28.29800
O  1.93600 12.90700 28.72900
C  1.21400 10.59000 29.21900
C  2.44900 10.44200 30.16100
O  3.51700 9.85400 29.78800
O  2.24100 11.08300 31.32600
C  3.46800 11.03400 32.14300
H  1.45100 3.86100 27.78500
H  0.18000 5.26300 21.58400
H  0.81100 11.42000 22.80100
H  1.88900 7.85500 30.38200
H  0.52600 5.19400 29.91000
H  3.24900 5.99300 30.52700
H  3.21800 4.83900 29.21700
H  2.40500 4.32400 30.62400
H  -0.97300 6.96100 30.35600
H  -0.62400 8.67500 30.42500
H  -0.89200 6.83000 32.59200
H  -0.30000 8.47200 32.81300
H  1.09100 2.01900 26.87700
H  1.04800 1.20300 25.27500
H  -0.41900 1.65600 26.10900
H  0.34800 0.60400 23.20600
H  -0.95400 0.80300 22.06900
H  -1.28800 1.30500 23.77600
H  -0.51800 7.30000 20.48100
H  0.52500 9.86900 20.65400
H  2.26000 7.12900 20.62000
H  2.02700 8.56900 19.83900
H  1.18300 7.16000 19.10800
H  -2.03200 9.59100 22.20500
H  -1.98200 8.92100 20.63800
H  -2.17500 10.96200 19.68200
H  -0.95000 11.73500 20.83200
H  -2.66000 11.42200 21.33000
H  0.56000 13.26300 24.33300
H  2.31900 13.43000 24.59900
H  1.33900 13.92500 25.94300
H  0.29600 10.82100 29.76000
H  3.38000 11.73400 32.97300
H  4.36000 11.25600 31.55800
H  3.49400 10.02700 32.55900
Mg -12.19000 38.60300 41.55000
C  -10.02500 36.13800 40.43900
C  -10.09700 40.97100 40.33400
C  -14.65300 40.72500 42.05900
C  -14.41000 35.89800 42.48500
N  -10.33000 38.50900 40.38100
C  -9.65000 37.40400 40.06200
C  -8.37400 37.76800 39.18900
C  -8.33300 39.40700 39.31600
C  -9.65900 39.64500 40.01000
C  -7.27400 39.97400 40.27300
C  -8.49200 37.15300 37.67700
C  -7.45500 36.02900 37.34700
H  -6.28800 36.27100 36.36300
N  -12.27500 40.59200 41.41600
C  -11.32700 41.40000 40.94500
C  -11.85200 42.75500 40.91000
C  -13.15100 42.75600 41.49000
C  -13.40000 41.28500 41.64900
C  -10.97500 43.98000 40.50700
C  -14.01200 43.94700 41.81700
O  -13.67900 45.14500 41.57500
C  -15.37600 43.78100 42.45200
N  -14.28800 38.33900 42.43300
C  -15.06300 39.40500 42.37600
C  -16.56800 39.06700 42.56000
C  -16.47100 37.51900 42.65200
C  -15.00000 37.21300 42.44900
C  -17.25500 39.63200 43.75600
C  -17.48100 36.72300 41.67200
C  -18.41900 35.57200 42.21300
N  -12.26100 36.46800 41.50800
C  -13.14500 35.55200 42.03900
C  -12.55200 34.24600 42.01000
C  -11.30100 34.41700 41.42200
C  -11.23800 35.80500 41.03400
C  -13.13800 33.04300 42.70400
C  -10.08600 33.73300 40.88400
O  -9.82200 32.55100 40.91500
C  -9.18800 34.83700 40.34700
C  -8.01300 34.84900 41.26400
O  -7.96300 35.33500 42.33400
O  -6.99400 34.14700 40.65000
C  -5.83600 33.85700 41.43900
H  -9.41500 41.68500 39.86700
H  -15.57100 41.31400 42.00500
H  -15.13800 35.10900 42.68100
H  -7.52800 37.34800 39.73300
H  -8.28100 39.75300 38.28300
H  -7.78900 40.41100 41.12900
H  -6.71800 40.72400 39.71100
H  -6.52400 39.22200 40.52000
H  -8.23900 37.92700 36.95200
H  -9.51600 36.80000 37.55600
H  -8.01600 35.14400 37.04500
H  -7.09600 35.76700 38.34200
H  -10.95900 44.65500 41.36200
H  -11.47100 44.51400 39.69600
H  -9.92100 43.79500 40.30200
H  -16.04400 43.30100 41.73700
H  -15.73900 44.79400 42.62900
H  -15.36900 43.33400 43.44600
H  -17.12100 39.24300 41.63800
H  -16.69200 37.10300 43.63500
H  -16.54900 40.33500 44.19700
H  -17.57900 38.88400 44.47900
H  -18.06900 40.26700 43.40300
H  -16.82400 36.41200 40.85900
H  -18.12300 37.44600 41.16800
H  -18.02300 35.08100 43.10200
H  -18.54500 34.85300 41.40300
H  -19.48300 35.79600 42.29500
H  -12.72900 33.05900 43.71400
H  -12.80100 32.16500 42.15300
H  -14.22300 33.14800 42.71900
H  -8.83600 34.55000 39.35700
H  -5.75500 34.44200 42.35500
H  -4.99900 33.93900 40.74500
H  -5.80300 32.79200 41.66900

