158

Mg 24.75700 -4.03500 45.67200
C  26.98500 -1.76400 43.89700
C  22.34300 -3.06500 43.56100
C  23.13300 -6.87400 46.48900
C  27.73400 -5.26400 47.33400
N  24.70800 -2.47800 43.95800
C  25.64500 -1.70800 43.38500
C  25.09200 -0.79500 42.25400
C  23.62500 -1.26300 42.25300
C  23.52100 -2.34900 43.31000
C  22.60400 -0.12700 42.36300
C  25.78000 -1.00800 40.92800
C  25.88300 0.07700 39.89000
H  25.16800 -0.14400 38.52600
N  22.92300 -4.76400 45.25300
C  22.05700 -4.23400 44.33800
C  20.80100 -4.95900 44.35000
C  21.01000 -6.10100 45.19800
C  22.44200 -5.97300 45.70900
C  19.57400 -4.51800 43.57200
C  20.00000 -7.22200 45.35700
O  18.84400 -7.06900 44.97000
C  20.35800 -8.57200 45.99000
N  25.45800 -5.87700 46.57200
C  24.48200 -6.82100 46.92800
C  25.15800 -7.96800 47.70900
C  26.54500 -7.34000 48.14800
C  26.62700 -6.10000 47.25400
C  24.35200 -8.67600 48.82400
C  27.80200 -8.31300 48.13700
C  28.24200 -8.91600 49.38800
N  26.85500 -3.58300 45.79300
C  27.88300 -4.13500 46.52100
C  29.06700 -3.37100 46.31100
C  28.80200 -2.44100 45.29800
C  27.42500 -2.63000 44.93200
C  30.38600 -3.46300 47.03900
C  29.36600 -1.32500 44.48800
O  30.51000 -0.83800 44.46500
C  28.19000 -0.79200 43.62900
C  28.04800 0.68400 43.96200
O  27.32600 1.10100 44.79500
O  28.63500 1.46300 42.95300
C  28.32200 2.91500 42.94300
H  21.49500 -2.73700 42.95700
H  22.65200 -7.76400 46.89900
H  28.55500 -5.65900 47.93500
H  25.28000 0.24800 42.50800
H  23.30900 -1.78900 41.35200
H  21.84700 -0.13300 41.57900
H  23.11100 0.83100 42.24200
H  22.15300 -0.18000 43.35400
H  25.22300 -1.83600 40.49100
H  26.82100 -1.30700 41.05400
H  26.89300 0.38700 39.62000
H  25.34800 0.92400 40.31800
H  19.78100 -4.60500 42.50600
H  19.61700 -3.43000 43.62600
H  18.63700 -5.02600 43.79900
H  20.57600 -8.39500 47.04300
H  21.12500 -9.13200 45.45300
H  19.48400 -9.22200 46.02800
H  25.31700 -8.68400 46.90300
H  26.46400 -6.99200 49.17800
H  24.18200 -9.74700 48.70800
H  23.33600 -8.36200 49.06100
H  24.95900 -8.48300 49.70800
H  28.67100 -7.80600 47.71600
H  27.63500 -9.17400 47.49100
H  28.02700 -9.98500 49.39100
H  27.63400 -8.46700 50.17400
H  29.28900 -8.85900 49.68400
H  31.10700 -2.89600 46.45000
H  30.72100 -4.43800 47.39200
H  30.41400 -2.85700 47.94400
H  28.47700 -0.97100 42.59300
H  28.72900 3.52800 43.74700
H  27.24800 3.10200 42.97800
H  28.67700 3.35500 42.01200
Mg -2.26900 34.77100 27.14000
C  -4.09900 33.17900 29.72700
C  -0.83400 36.84100 29.42600
C  -1.32700 36.82900 24.57700
C  -4.26500 32.89200 24.93000
N  -2.54800 35.02700 29.38700
C  -3.30000 34.25100 30.25500
C  -2.99300 34.58800 31.73100
C  -2.26400 35.98500 31.51800
C  -1.77600 35.93500 30.06500
C  -2.96000 37.29600 31.80700
C  -2.17300 33.48600 32.41300
C  -1.92300 33.72300 33.88000
H  -2.48600 32.82800 34.93300
N  -1.06800 36.43300 27.02000
C  -0.44400 37.08500 28.07500
C  0.43200 38.09400 27.56400
C  0.27400 38.12300 26.10800
C  -0.78400 37.10600 25.84700
C  1.35800 38.85800 28.45200
C  1.14100 38.90500 25.08700
O  0.89200 38.73800 23.91400
C  2.23200 39.76900 25.42200
N  -2.80000 34.91700 25.07100
C  -2.22500 35.88600 24.19700
C  -2.73800 35.70400 22.75500
C  -3.56400 34.34300 22.86100
C  -3.54800 33.98200 24.36800
C  -3.56400 36.88600 22.27900
C  -3.24100 33.12900 21.82300
C  -2.32500 31.93100 22.38200
N  -3.84900 33.28100 27.20000
C  -4.48400 32.53600 26.24800
C  -5.40700 31.61000 26.79700
C  -5.21200 31.76200 28.18800
C  -4.30500 32.84600 28.40600
C  -6.31600 30.67100 26.09300
C  -5.64800 31.23400 29.47800
O  -6.56500 30.45600 29.82400
C  -4.92300 32.14500 30.48600
C  -5.94300 32.73000 31.42400
O  -6.85000 33.45500 31.01600
O  -5.73500 32.36300 32.76100
C  -6.82400 32.65300 33.62500
H  -0.27600 37.42800 30.15900
H  -0.99000 37.54300 23.82300
H  -4.74500 32.14500 24.29400
H  -3.90500 34.78100 32.29600
H  -1.29400 35.92600 32.01100
H  -3.76200 37.20000 32.53800
H  -3.33900 37.59200 30.83000
H  -2.23200 37.97500 32.25200
H  -1.17000 33.37600 32.00200
H  -2.77500 32.58000 32.34300
H  -2.25200 34.73900 34.09700
H  -0.84600 33.79900 34.02900
H  0.87100 39.81100 28.65800
H  2.33800 38.94000 27.98300
H  1.57600 38.39400 29.41400
H  2.66200 40.35900 24.61200
H  3.02700 39.11300 25.77600
H  1.96100 40.53400 26.15000
H  -1.83800 35.67100 22.14100
H  -4.61800 34.56900 22.70000
H  -4.62100 36.62100 22.30200
H  -3.30900 37.29900 21.30400
H  -3.59100 37.64900 23.05700
H  -2.82000 33.64100 20.95800
H  -4.20300 32.76600 21.45900
H  -1.73100 31.58100 21.53800
H  -2.98000 31.07800 22.55900
H  -1.67400 32.20500 23.21200
H  -7.30000 31.13900 26.05800
H  -6.37500 29.83200 26.78600
H  -6.03800 30.27700 25.11500
H  -4.18700 31.51100 30.97900
H  -6.50400 32.93400 34.62900
H  -7.32400 31.68700 33.69300
H  -7.48300 33.44200 33.26300

