158

Mg 0.20600 7.40700 24.71900
C  0.92300 9.29900 27.58800
C  0.70800 4.56800 26.60700
C  0.03600 5.61500 21.84100
C  0.46200 10.42300 22.77700
N  0.80600 7.02700 26.79100
C  0.78000 7.89900 27.83800
C  0.68300 7.20700 29.17900
C  0.91900 5.76400 28.79600
C  0.73100 5.74800 27.29600
C  2.41600 5.18000 29.17600
C  -0.66600 7.51400 29.90900
C  -0.65500 7.58100 31.47200
H  0.63500 7.25500 32.38100
N  0.46200 5.36200 24.32700
C  0.60400 4.32600 25.21700
C  0.53100 3.07900 24.52500
C  0.30100 3.37500 23.12500
C  0.32200 4.82000 23.04100
C  0.59800 1.75500 25.28100
C  0.17100 2.40000 21.98600
O  -0.09000 2.71900 20.84300
C  0.12200 0.94100 22.24200
N  0.22500 7.98300 22.57300
C  0.08100 6.97800 21.61200
C  0.25300 7.73100 20.27400
C  0.05600 9.22400 20.57000
C  0.21400 9.26600 22.06500
C  1.55600 7.28400 19.49200
C  -1.18700 10.04800 20.11200
C  -2.38700 10.38500 21.03600
N  0.67600 9.41600 25.07000
C  0.66500 10.51500 24.22600
C  0.97600 11.72300 24.99900
C  1.01800 11.23600 26.32500
C  0.83200 9.86300 26.33000
C  1.00600 13.16200 24.47200
C  1.28500 11.63600 27.65100
O  1.63500 12.76500 28.03900
C  1.03200 10.34200 28.60700
C  2.19900 10.33200 29.53900
O  3.25200 9.71400 29.39900
O  1.87200 11.16300 30.63600
C  3.00100 11.28800 31.58100
H  0.50500 3.67900 27.20900
H  0.08800 5.04500 20.91100
H  0.41100 11.40400 22.30100
H  1.48900 7.61700 29.78800
H  0.17400 5.09500 29.22600
H  2.98100 5.93900 29.71700
H  3.00300 4.86900 28.31200
H  2.19500 4.35900 29.85700
H  -1.37600 6.71800 29.68400
H  -1.04700 8.44400 29.48500
H  -1.37100 6.79800 31.72100
H  -1.23500 8.45200 31.77700
H  -0.44500 1.54400 25.51400
H  1.09900 1.96900 26.22600
H  1.25600 0.98300 24.88300
H  1.12500 0.71000 22.60100
H  0.04800 0.28500 21.37500
H  -0.75000 0.70800 22.85400
H  -0.58900 7.37700 19.68000
H  0.87600 9.82900 20.18400
H  1.27800 6.81000 18.55000
H  2.18800 6.59500 20.05200
H  2.22500 8.14400 19.52700
H  -1.54200 9.56600 19.20100
H  -0.73700 10.99700 19.81800
H  -2.50000 11.45100 20.84200
H  -2.10900 10.25000 22.08100
H  -3.18000 9.74400 20.65100
H  0.07500 13.38600 23.95100
H  1.87600 13.17600 23.81500
H  1.16600 13.93400 25.22400
H  0.11900 10.60100 29.14500
H  2.84000 10.41200 32.20900
H  2.89800 12.15600 32.23300
H  3.95900 11.17300 31.07400
Mg -12.32600 39.04600 42.25300
C  -10.54600 36.20600 41.34800
C  -9.90800 40.96600 40.83200
C  -14.36200 41.73900 42.84100
C  -15.02100 36.88400 43.10600
N  -10.56900 38.58600 40.92400
C  -10.00600 37.34600 40.81200
C  -8.71100 37.48400 39.96000
C  -8.28900 38.99700 40.15600
C  -9.63400 39.58400 40.59500
C  -7.18000 39.16000 41.23100
C  -8.96700 37.09000 38.38900
C  -7.92900 36.09700 37.78900
H  -6.72000 36.66800 37.14400
N  -12.11700 41.13000 41.97600
C  -11.02000 41.67900 41.43700
C  -11.07400 43.07700 41.67400
C  -12.39700 43.38400 42.08900
C  -13.05200 42.08900 42.31500
C  -9.88600 43.96300 41.31300
C  -12.93900 44.78700 42.25700
O  -12.26300 45.73700 41.86700
C  -14.38400 45.06200 42.83800
N  -14.37000 39.26400 43.02000
C  -14.99900 40.48000 43.02300
C  -16.47100 40.33900 43.51100
C  -16.60700 38.77700 43.78800
C  -15.29500 38.28400 43.23600
C  -16.77600 41.18500 44.76000
C  -17.88200 38.06100 43.19700
C  -18.44000 36.85000 43.95200
N  -12.70100 36.96300 42.34800
C  -13.87800 36.24300 42.67900
C  -13.61300 34.84500 42.53500
C  -12.28600 34.77000 42.16900
C  -11.78700 36.07000 42.01500
C  -14.66100 33.80400 42.76300
C  -11.22500 33.88200 41.79800
O  -11.13700 32.64700 41.85500
C  -10.01200 34.76800 41.22000
C  -8.73100 34.44500 42.07300
O  -8.48000 34.89900 43.21800
O  -7.91100 33.62400 41.40400
C  -6.84200 33.12500 42.18700
H  -8.99400 41.41000 40.43200
H  -15.03100 42.58100 43.02500
H  -15.86500 36.19700 43.20200
H  -7.96700 36.81500 40.39300
H  -8.00700 39.39700 39.18200
H  -7.42300 40.03700 41.83100
H  -6.16200 39.16100 40.84200
H  -7.33100 38.31400 41.90100
H  -8.97800 37.95000 37.71900
H  -9.95200 36.63100 38.29600
H  -8.42000 35.54100 36.99000
H  -7.55400 35.52200 38.63500
H  -10.14900 44.28100 40.30400
H  -8.96000 43.40500 41.17600
H  -9.74700 44.80900 41.98600
H  -14.98800 44.56600 42.07900
H  -14.58400 46.13300 42.86800
H  -14.47400 44.55700 43.80000
H  -17.05300 40.66800 42.65000
H  -16.47900 38.35600 44.78600
H  -16.81500 42.23100 44.45400
H  -15.98400 41.11400 45.50400
H  -17.67200 40.75400 45.20600
H  -17.52800 37.76800 42.20900
H  -18.77600 38.63400 42.95100
H  -19.47400 36.71200 43.63500
H  -18.49000 36.99700 45.03100
H  -17.99700 35.90000 43.65400
H  -14.41900 32.81100 42.38300
H  -15.50500 34.24800 42.23500
H  -14.76300 33.67700 43.84100
H  -9.95900 34.63200 40.13900
H  -7.25100 32.78900 43.14000
H  -5.98300 33.77100 42.37300
H  -6.55000 32.17000 41.75200

