158

Mg -1.13000 17.41800 26.16800
C  -1.78900 14.86600 28.61800
C  -2.03800 19.70300 28.60500
C  -1.32900 19.81600 23.69400
C  -1.41900 14.97400 23.64200
N  -1.84200 17.19700 28.32600
C  -1.80100 16.09700 29.20100
C  -1.70700 16.44500 30.62300
C  -2.03200 17.95700 30.56100
C  -1.95000 18.32900 29.06400
C  -3.39400 18.28700 31.24500
C  -0.49400 16.04400 31.44800
C  -0.00600 16.89200 32.61400
H  0.25200 16.22900 33.95300
N  -1.37500 19.42600 26.20200
C  -1.71100 20.18100 27.26400
C  -1.93600 21.56400 26.91700
C  -1.83200 21.63000 25.50900
C  -1.41000 20.25800 25.05900
C  -2.31800 22.74800 27.86100
C  -2.16500 22.72500 24.58400
O  -2.15300 22.58300 23.38100
C  -2.28400 24.14500 25.15700
N  -1.21200 17.40300 23.96400
C  -1.23000 18.49100 23.18800
C  -1.17200 18.09900 21.70200
C  -1.57700 16.67900 21.76100
C  -1.36600 16.27300 23.20800
C  -2.07600 18.94100 20.73800
C  -0.71600 15.91500 20.78600
C  -1.43900 15.12800 19.65200
N  -1.45600 15.36600 26.07400
C  -1.47100 14.53000 25.00500
C  -1.61900 13.13500 25.46600
C  -1.64800 13.22700 26.87800
C  -1.63800 14.63000 27.20200
C  -1.80600 11.99900 24.67100
C  -1.80300 12.42400 28.06400
O  -1.85200 11.24700 28.25900
C  -1.97300 13.42200 29.22500
C  -0.76000 13.16600 30.08300
O  0.32000 13.61500 29.87200
O  -0.98900 12.28000 31.11700
C  -0.07000 12.20300 32.24600
H  -2.13400 20.43800 29.40700
H  -1.20200 20.56800 22.91200
H  -1.48400 14.23200 22.84300
H  -2.54400 15.97700 31.14100
H  -1.25800 18.63800 30.91500
H  -3.99400 19.02400 30.70900
H  -3.34000 18.57400 32.29500
H  -4.14600 17.50000 31.29800
H  0.33100 15.94300 30.74300
H  -0.72900 15.04100 31.80500
H  -0.76200 17.66600 32.74700
H  0.95400 17.36500 32.40500
H  -1.54900 23.48400 28.09900
H  -2.61200 22.32700 28.82300
H  -3.19500 23.29600 27.51700
H  -3.23500 24.26000 25.67700
H  -2.24900 24.89800 24.36900
H  -1.46000 24.37700 25.83200
H  -0.10300 18.18500 21.50900
H  -2.60400 16.44800 21.47700
H  -2.74300 19.56700 21.33100
H  -2.61700 18.21900 20.12600
H  -1.44800 19.61400 20.15300
H  -0.21000 15.07600 21.26400
H  0.01800 16.58400 20.33600
H  -1.21300 14.06300 19.67900
H  -1.08700 15.52000 18.69800
H  -2.51400 15.31100 19.63700
H  -2.15000 11.29500 25.42900
H  -0.92100 11.45400 24.34000
H  -2.50400 12.24000 23.86900
H  -2.92400 13.31900 29.74900
H  0.08900 11.12700 32.31300
H  -0.68900 12.57700 33.06200
H  0.85200 12.76700 32.10400
Mg 8.99600 3.26200 27.07800
C  10.13100 1.76900 30.00800
C  7.13000 5.47700 29.01500
C  7.34400 4.22000 24.27400
C  10.46700 0.69300 25.21200
N  8.52500 3.46800 29.25300
C  9.22500 2.76500 30.25400
C  8.95500 3.39000 31.62600
C  7.87600 4.38000 31.35700
C  7.81400 4.50300 29.78000
C  6.42500 4.14100 31.90100
C  10.22100 4.09500 32.18400
C  10.76100 3.58000 33.50300
H  10.94900 4.46500 34.71600
N  7.49300 4.64500 26.68400
C  6.93000 5.53800 27.59700
C  6.13300 6.54500 26.91000
C  6.34900 6.30600 25.54800
C  7.06000 5.00100 25.43900
C  5.16000 7.51500 27.53900
C  5.95700 7.19600 24.27200
O  6.20600 6.89200 23.11800
C  5.32400 8.55500 24.48000
N  8.80500 2.47200 25.01200
C  8.12600 3.10600 24.06400
C  8.29000 2.46900 22.70800
C  9.46900 1.50000 23.01000
C  9.58700 1.55000 24.46600
C  6.97200 1.66000 22.32000
C  10.78700 1.77500 22.24300
C  11.25600 0.55700 21.36600
N  10.14000 1.63100 27.47700
C  10.73100 0.72700 26.61700
C  11.48500 -0.24100 27.40600
C  11.33200 0.18700 28.76400
C  10.41300 1.27500 28.65200
C  12.39700 -1.39800 26.93700
C  11.75300 -0.04000 30.11800
O  12.70100 -0.74800 30.53900
C  10.93400 1.02800 31.00800
C  10.18100 0.30300 32.04200
O  9.06500 -0.13200 31.96700
O  10.98500 0.22200 33.15800
C  10.36600 -0.57500 34.24200
H  6.54500 6.17000 29.62300
H  6.82800 4.62600 23.40200
H  11.02400 -0.07300 24.66800
H  8.70600 2.51400 32.22500
H  8.05000 5.39500 31.71300
H  6.48000 3.14500 32.33900
H  5.68400 4.12400 31.10200
H  6.26900 4.97600 32.58400
H  10.07100 5.15000 32.41500
H  11.00200 3.93000 31.44200
H  11.79100 3.37900 33.20600
H  10.31200 2.71000 33.98100
H  4.21100 6.97900 27.53600
H  5.09600 8.47800 27.03300
H  5.42300 7.77900 28.56400
H  5.19000 9.13600 23.56700
H  5.96700 9.18600 25.09400
H  4.37000 8.45300 24.99700
H  8.61700 3.26200 22.03500
H  9.03900 0.50800 22.87300
H  6.71000 2.05900 21.34100
H  6.07200 1.84500 22.90700
H  7.11700 0.58000 22.32400
H  11.53500 1.85500 23.03200
H  10.55900 2.69000 21.69600
H  10.45400 -0.13800 21.11500
H  11.95500 0.01000 22.00000
H  11.72200 0.91800 20.44900
H  13.44000 -1.08100 26.89800
H  12.11300 -1.74900 25.94500
H  12.33600 -2.30500 27.53800
H  11.58600 1.73800 31.51600
H  9.66900 0.09700 34.74300
H  11.16200 -0.69000 34.97700
H  9.89700 -1.54500 34.07500

