158

Mg 17.81500 -2.34400 28.08600
C  16.61100 -0.10000 30.39900
C  19.80700 -3.67500 30.54600
C  19.08400 -4.32100 25.72600
C  15.96900 -0.53900 25.48800
N  18.03600 -2.03200 30.28200
C  17.48800 -1.06800 31.00800
C  17.80300 -1.15100 32.49900
C  18.90700 -2.23000 32.50100
C  18.95300 -2.74600 31.01200
C  20.31000 -1.72300 32.90100
C  16.57700 -1.53400 33.37600
C  16.47000 -0.91400 34.80700
H  17.64200 -0.11500 35.37600
N  19.22600 -3.88200 28.14600
C  19.92300 -4.28300 29.27700
C  20.72000 -5.38600 28.90100
C  20.50600 -5.60800 27.48500
C  19.54300 -4.64100 27.02300
C  21.61200 -6.06000 29.90600
C  21.23000 -6.74500 26.64200
O  20.83200 -6.99800 25.46500
C  22.20900 -7.59800 27.27700
N  17.56900 -2.37600 26.03200
C  18.22900 -3.36400 25.30300
C  17.95300 -3.21600 23.85500
C  17.05500 -1.99700 23.69800
C  16.82300 -1.61800 25.16100
C  19.23000 -3.06300 23.04500
C  15.79400 -2.23500 22.81600
C  15.25200 -1.05500 22.14400
N  16.51900 -0.69000 27.91200
C  15.78600 -0.07900 26.85200
C  15.00200 1.04800 27.31700
C  15.26400 1.05900 28.71200
C  16.18700 0.00700 29.02900
C  14.04800 1.92700 26.66700
C  14.91600 1.67600 29.95000
O  14.08400 2.55100 30.14300
C  15.81400 0.95200 31.06500
C  16.69700 1.98700 31.73900
O  17.81400 2.29100 31.53400
O  15.94200 2.62900 32.69100
C  16.49700 3.92700 33.22200
H  20.38500 -4.17200 31.32700
H  19.47700 -5.02800 24.99300
H  15.60300 0.08900 24.67300
H  18.17800 -0.19900 32.87500
H  18.74000 -3.04300 33.20700
H  21.15100 -2.16100 32.36300
H  20.59900 -1.93700 33.93000
H  20.39200 -0.65500 32.69700
H  16.74300 -2.61000 33.43900
H  15.68200 -1.27300 32.81200
H  16.27900 -1.78100 35.44000
H  15.63200 -0.21900 34.75100
H  21.82500 -5.49900 30.81600
H  22.57900 -6.17300 29.41500
H  21.17700 -7.01000 30.21700
H  21.93000 -8.09900 28.20400
H  23.10100 -7.02500 27.53000
H  22.44900 -8.34200 26.51800
H  17.37600 -4.12100 23.66500
H  17.61300 -1.18000 23.23900
H  19.92900 -3.89900 23.07500
H  19.85400 -2.21700 23.33600
H  18.89000 -3.09300 22.01000
H  15.05900 -2.75100 23.43400
H  16.05500 -2.93100 22.01900
H  14.17400 -0.90300 22.18500
H  15.49300 -1.17600 21.08800
H  15.70500 -0.11400 22.45500
H  13.30300 1.39800 26.07300
H  14.66600 2.50000 25.97600
H  13.53400 2.60300 27.35100
H  15.04100 0.65600 31.77500
H  17.16300 3.62000 34.02800
H  15.81500 4.70000 33.57600
H  17.11500 4.39400 32.45500
Mg 25.84100 1.08100 28.84200
C  27.66200 0.71000 31.75200
C  22.95500 0.70600 30.57200
C  24.07400 0.80000 25.87800
C  28.84800 0.76500 26.97300
N  25.41800 0.70000 30.92800
C  26.27900 0.78200 31.99500
C  25.56500 0.98000 33.31700
C  24.12700 1.04500 32.90000
C  24.15100 0.72400 31.34500
C  23.14600 0.13000 33.69300
C  25.93300 2.24500 34.12600
C  25.64900 2.20300 35.60000
H  26.70000 2.77700 36.59800
N  23.79400 0.76000 28.23200
C  22.73800 0.75000 29.14700
C  21.50600 0.65800 28.50600
C  21.81600 0.76900 27.11900
C  23.26200 0.76100 26.97300
C  20.14100 0.53700 29.06700
C  20.88600 0.69700 25.89400
O  21.32500 0.63800 24.76600
C  19.38400 0.73000 26.07100
N  26.44500 0.83500 26.70000
C  25.50300 0.78200 25.69700
C  26.18100 0.78100 24.31300
C  27.68300 1.22800 24.68500
C  27.68400 0.99600 26.20400
C  26.22100 -0.70600 23.68300
C  28.06000 2.70900 24.35500
C  28.86400 2.96500 23.08400
N  27.86700 0.68900 29.23200
C  28.97100 0.49900 28.35900
C  30.08500 0.17100 29.19500
C  29.72600 0.32400 30.55100
C  28.35600 0.64900 30.49500
C  31.46500 -0.17800 28.61700
C  30.05200 0.23400 31.95900
O  31.11500 0.08300 32.51000
C  28.73300 0.56100 32.80400
C  28.63700 -0.49600 33.79100
O  28.03800 -1.55000 33.64900
O  29.37800 -0.20200 34.91200
C  29.31400 -1.17400 36.04600
H  21.98200 0.85100 31.04600
H  23.62400 0.72100 24.88700
H  29.82300 0.70000 26.48500
H  25.73900 0.13300 33.98000
H  23.71800 2.05600 32.90600
H  23.46100 0.06500 34.73400
H  22.89600 -0.88700 33.39100
H  22.18800 0.61800 33.87500
H  25.45200 3.16800 33.80300
H  26.99700 2.43400 33.98600
H  25.54900 1.17500 35.95000
H  24.69300 2.65100 35.87100
H  20.17100 0.50500 30.15600
H  19.64800 -0.35500 28.67900
H  19.48400 1.30900 28.66700
H  19.05100 1.54800 26.70900
H  18.93500 -0.20500 26.40700
H  18.95800 0.89200 25.08100
H  25.73900 1.46200 23.58600
H  28.39900 0.58200 24.17700
H  25.40500 -1.29400 24.10400
H  27.14400 -1.28000 23.76100
H  25.94400 -0.67800 22.62900
H  28.70200 3.10700 25.14100
H  27.11800 3.25500 24.29600
H  29.95100 2.91600 23.14400
H  28.54900 3.96900 22.79800
H  28.57500 2.26100 22.30400
H  32.00200 0.60600 28.08400
H  31.29800 -0.78100 27.72500
H  31.94600 -0.71400 29.43600
H  28.94700 1.54100 33.23100
H  28.43000 -0.99900 36.65800
H  30.20100 -0.90300 36.61900
H  29.26100 -2.22800 35.77400

