158

Mg -8.12000 39.19500 39.96700
C  -7.73300 35.87400 38.94600
C  -4.79000 39.76500 39.13900
C  -8.68900 42.56000 39.73100
C  -11.49600 38.66200 40.24500
N  -6.52700 38.06000 39.02800
C  -6.53600 36.67800 38.86000
C  -5.12000 36.21600 38.49000
C  -4.14300 37.37900 38.95600
C  -5.18300 38.48300 39.07200
C  -3.38400 37.10800 40.26400
C  -4.95100 35.84300 37.00500
C  -5.29800 36.96400 35.99400
H  -6.53500 36.74800 35.04800
N  -6.92100 40.96100 39.50900
C  -5.59500 40.94300 39.31600
C  -5.06900 42.26900 39.17400
C  -6.22300 43.16700 39.15100
C  -7.35400 42.23700 39.49700
C  -3.69200 42.70000 38.82600
C  -6.16200 44.67200 38.79400
O  -5.10200 45.31300 38.61100
C  -7.51000 45.38000 38.58900
N  -9.78300 40.47200 39.96900
C  -9.74800 41.80800 40.03700
C  -11.20600 42.31900 40.39600
C  -11.95800 41.10600 40.90400
C  -11.07300 39.95800 40.22900
C  -11.28200 43.53400 41.29000
C  -13.49800 40.93900 40.66200
C  -14.36200 40.46500 41.87100
N  -9.36600 37.55100 39.81700
C  -10.72600 37.50300 40.02500
C  -11.15000 36.09700 40.03000
C  -10.05000 35.47400 39.48100
C  -8.99000 36.40000 39.38800
C  -12.59800 35.55300 40.06600
C  -9.53600 34.22900 39.05600
O  -10.03300 33.11400 39.03400
C  -7.99400 34.38800 38.72100
C  -7.07200 33.59700 39.47700
O  -6.76000 33.77600 40.64400
O  -6.56200 32.57100 38.62100
C  -5.56800 31.63400 39.15400
H  -3.72500 39.97000 39.01500
H  -8.92300 43.62700 39.71700
H  -12.53800 38.36100 40.36600
H  -4.81500 35.37900 39.11700
H  -3.55900 37.67800 38.08600
H  -3.39100 36.06900 40.59300
H  -3.67500 37.76100 41.08700
H  -2.36400 37.48500 40.19700
H  -5.53200 34.92600 36.90500
H  -3.89100 35.61100 36.89800
H  -4.39300 37.15400 35.41700
H  -5.42300 37.89100 36.55400
H  -2.97300 41.88100 38.79600
H  -3.33900 43.38500 39.59700
H  -3.80400 43.22100 37.87400
H  -7.94500 45.55900 39.57300
H  -8.04600 44.65900 37.97100
H  -7.34100 46.30600 38.04100
H  -11.55700 42.53300 39.38600
H  -11.78200 40.96400 41.97000
H  -12.06700 43.45800 42.04100
H  -11.45700 44.46100 40.74300
H  -10.39500 43.52300 41.92300
H  -13.75900 40.26300 39.84800
H  -13.83100 41.95700 40.46100
H  -14.68300 39.42800 41.78300
H  -15.32000 40.98500 41.91900
H  -13.85000 40.52400 42.83100
H  -13.12900 36.38600 39.60700
H  -13.05700 35.15400 40.97000
H  -12.63100 34.73900 39.34200
H  -7.87300 34.15200 37.66300
H  -4.67600 31.66800 38.52900
H  -5.91100 30.59900 39.16300
H  -5.20000 31.97900 40.12000
Mg -1.95100 35.26500 27.27000
C  -3.95900 33.48000 29.66600
C  -0.98300 37.48500 29.67800
C  -0.60800 37.18500 24.76200
C  -3.44100 33.28300 24.84200
N  -2.41500 35.42100 29.42400
C  -3.09800 34.48800 30.22800
C  -3.15100 35.01700 31.63600
C  -2.23100 36.24500 31.60200
C  -1.83100 36.37900 30.10900
C  -2.79400 37.55500 32.25200
C  -2.93800 33.94600 32.80400
C  -1.93500 34.33400 33.92800
H  -1.98800 33.51500 35.16500
N  -0.87700 37.05900 27.26800
C  -0.49000 37.77700 28.33900
C  0.36800 38.88700 28.01000
C  0.46900 38.85100 26.56200
C  -0.36400 37.70800 26.14800
C  1.12900 39.69700 28.96000
C  1.18500 39.77800 25.58300
O  1.18700 39.62600 24.34800
C  1.93500 40.93100 26.11700
N  -2.04400 35.28600 25.03000
C  -1.47500 36.24500 24.21200
C  -1.60400 35.92100 22.68700
C  -2.38600 34.55600 22.83500
C  -2.55100 34.30500 24.34400
C  -2.26500 36.96600 21.76900
C  -1.80100 33.29600 22.25200
C  -2.72200 32.59800 21.22400
N  -3.42800 33.71300 27.21100
C  -3.88000 32.99600 26.17500
C  -4.70600 31.89100 26.64500
C  -4.82300 32.08000 27.99000
C  -4.02900 33.21500 28.31500
C  -5.31400 30.78900 25.74800
C  -5.39700 31.59500 29.26500
O  -6.04800 30.54900 29.45800
C  -4.88700 32.54700 30.41100
C  -6.09800 33.36000 30.94600
O  -6.75100 34.21700 30.40100
O  -6.36300 32.86300 32.16600
C  -7.34700 33.53200 33.01500
H  -0.60700 38.14000 30.46700
H  -0.17300 37.71600 23.91200
H  -3.85400 32.65300 24.05200
H  -4.17800 35.27100 31.89700
H  -1.33000 36.15800 32.21000
H  -3.05200 38.23700 31.44100
H  -2.07700 38.03800 32.91500
H  -3.72800 37.42600 32.79800
H  -2.55700 33.01200 32.39100
H  -3.87900 33.72200 33.30600
H  -2.01900 35.35600 34.29800
H  -0.97500 34.15600 33.44200
H  0.93500 39.23700 29.92900
H  0.69200 40.68600 28.81900
H  2.21000 39.71900 28.81800
H  2.80600 40.49200 26.60400
H  1.36100 41.55700 26.80000
H  2.27600 41.47600 25.23700
H  -0.54800 35.84000 22.42600
H  -3.45100 34.76000 22.72200
H  -2.39400 37.83100 22.41900
H  -3.16000 36.51900 21.33800
H  -1.63400 37.25200 20.92700
H  -1.47100 32.61700 23.03900
H  -0.95400 33.66500 21.67400
H  -2.30400 32.86100 20.25200
H  -3.71600 33.04600 21.20800
H  -2.77300 31.52800 21.42500
H  -4.73300 30.69500 24.83000
H  -6.26300 31.04100 25.27500
H  -5.42000 29.83900 26.27100
H  -4.33800 32.02400 31.19400
H  -6.97500 34.53900 33.19900
H  -7.54300 32.90300 33.88400
H  -8.32200 33.67400 32.54700

