158

Mg 44.44600 4.01400 48.03100
C  42.27800 6.73800 47.45900
C  41.88000 1.84600 47.92200
C  46.84100 1.43400 48.02200
C  47.13400 6.20900 47.73000
N  42.34500 4.27000 47.63600
C  41.66700 5.48100 47.45500
C  40.18000 5.17300 47.35200
C  40.00200 3.62000 47.76000
C  41.52300 3.21300 47.80700
C  39.10900 3.38600 48.99500
C  39.41400 5.58400 46.05300
C  38.42000 6.79100 46.13500
H  37.64900 6.99200 44.80700
N  44.37700 1.93600 47.88600
C  43.16300 1.24900 47.93200
C  43.46300 -0.16800 47.93900
C  44.88400 -0.28900 48.05700
C  45.44800 1.06500 48.01000
C  42.42500 -1.24600 47.79100
C  45.60100 -1.69800 48.24600
O  44.99400 -2.74700 48.29500
C  47.05100 -1.81900 48.32100
N  46.63900 3.80300 47.82100
C  47.37400 2.70000 48.00100
C  48.93600 2.90300 48.01700
C  49.01600 4.50600 47.99500
C  47.51800 4.87100 47.79400
C  49.61500 2.27600 49.28800
C  49.86300 5.07900 46.83500
C  50.73100 6.27600 47.23800
N  44.65800 6.02200 47.65300
C  45.82800 6.74100 47.61000
C  45.47600 8.13500 47.38200
C  44.10200 8.20700 47.36300
C  43.67500 6.91300 47.52200
C  46.43400 9.34900 47.25000
C  42.91400 9.06400 47.33600
O  42.77700 10.29300 47.15000
C  41.74100 8.11800 47.42100
C  40.96800 8.48500 48.63000
O  41.00100 7.85600 49.65100
O  40.32700 9.65400 48.41200
C  39.44500 10.22100 49.46800
H  40.95000 1.27500 47.96100
H  47.62000 0.67500 48.11900
H  47.99700 6.87600 47.67800
H  39.69400 5.67500 48.18900
H  39.46900 3.06100 46.99200
H  38.55500 4.25500 49.35100
H  39.71700 3.03400 49.82800
H  38.41300 2.62000 48.65400
H  38.97700 4.73500 45.52700
H  40.26300 6.04000 45.54300
H  39.00700 7.70700 46.06600
H  37.73600 6.78700 46.98300
H  41.51500 -0.92300 47.28500
H  42.20100 -1.68800 48.76100
H  42.80000 -2.01200 47.11300
H  47.14400 -2.90300 48.25500
H  47.46300 -1.63400 49.31300
H  47.68300 -1.50200 47.49100
H  49.34000 2.34600 47.17200
H  49.20900 4.95300 48.97000
H  50.14700 2.98100 49.92800
H  50.35100 1.60400 48.84700
H  48.83100 1.72300 49.80500
H  49.19900 5.28500 45.99600
H  50.53700 4.30500 46.46600
H  51.66400 6.18700 46.68200
H  51.06400 6.27100 48.27600
H  50.30700 7.25600 47.01600
H  46.61000 9.91500 48.16400
H  46.07900 10.09000 46.53400
H  47.40900 9.06600 46.85500
H  41.19200 8.28200 46.49400
H  38.39300 9.94200 49.40900
H  39.43500 11.31100 49.44400
H  39.71800 9.99600 50.49900
Mg 46.75500 24.65100 27.99700
C  48.11000 27.04100 30.42200
C  45.99900 22.63800 30.80100
C  45.81700 22.44200 25.88300
C  47.84600 26.88100 25.55400
N  46.88300 24.97200 30.37000
C  47.49000 25.99000 31.07400
C  47.29000 25.73700 32.61000
C  46.69200 24.32300 32.67400
C  46.44600 23.92800 31.18700
C  47.50900 23.19100 33.44900
C  46.46500 26.88700 33.23800
C  45.78900 26.65200 34.68200
H  46.25700 27.58200 35.86500
N  46.12300 22.70300 28.27700
C  45.82900 22.08200 29.44500
C  45.29000 20.73700 29.12600
C  45.24500 20.66700 27.75100
C  45.65100 21.97100 27.22800
C  45.08900 19.75600 30.19700
C  44.85500 19.51100 26.92500
O  44.80100 19.56200 25.70000
C  44.38900 18.28000 27.52100
N  47.05800 24.57900 25.99500
C  46.40900 23.59200 25.29800
C  46.61500 23.71400 23.80300
C  47.02300 25.29600 23.76500
C  47.31600 25.64100 25.21700
C  47.63600 22.70400 23.22800
C  45.87000 26.07400 23.07500
C  46.06100 27.56800 22.74000
N  47.71700 26.58600 27.89000
C  48.18300 27.28400 26.82400
C  48.89000 28.46800 27.28000
C  48.96800 28.39000 28.66900
C  48.23900 27.22900 29.04600
C  49.62400 29.45200 26.37200
C  49.37000 29.09600 29.87000
O  50.09200 30.11100 30.03900
C  48.71100 28.24600 31.06900
C  49.88000 27.95100 31.92100
O  50.79600 27.16900 31.73400
O  49.70800 28.71900 33.02900
C  50.47000 28.48300 34.30800
H  45.85100 22.06600 31.72000
H  45.56000 21.69400 25.13000
H  48.25000 27.53300 24.77700
H  48.24600 25.86300 33.11800
H  45.79100 24.21200 33.27700
H  46.91200 22.87300 34.30400
H  48.51700 23.56300 33.63700
H  47.75400 22.34800 32.80400
H  45.68500 27.21500 32.55000
H  47.05600 27.75400 33.53600
H  45.92600 25.60400 34.94800
H  44.77800 26.89400 34.35700
H  44.07200 19.39700 30.35600
H  45.36100 20.11100 31.19100
H  45.77800 18.91800 30.09400
H  44.96600 17.88900 28.36000
H  44.21200 17.49300 26.78800
H  43.48300 18.68700 27.97000
H  45.64400 23.64600 23.31300
H  47.91300 25.35100 23.13800
H  48.27300 22.22500 23.97200
H  48.10900 23.25000 22.41100
H  46.93600 21.93800 22.89500
H  45.03700 26.09900 23.77800
H  45.58000 25.57000 22.15300
H  47.14500 27.64900 22.65700
H  45.73200 28.20500 23.56100
H  45.54200 27.83900 21.82000
H  49.82400 29.06600 25.37200
H  50.58700 29.68700 26.82500
H  49.17100 30.44200 26.43400
H  48.01000 28.85200 31.64200
H  50.08400 27.59500 34.80900
H  50.22600 29.30000 34.98700
H  51.52700 28.56500 34.05600

