158

Mg 23.61100 -5.86200 45.95600
C  26.04700 -3.86400 44.51800
C  21.34000 -4.70500 43.70400
C  21.64900 -8.50600 46.65300
C  26.27200 -7.41700 47.83700
N  23.72100 -4.44700 44.34000
C  24.80100 -3.71300 43.91800
C  24.42700 -2.80500 42.73300
C  22.84000 -2.85500 42.66200
C  22.62900 -4.16800 43.59000
C  22.13400 -1.67700 43.27900
C  25.16500 -3.21300 41.40600
C  26.13700 -2.21200 40.78800
H  25.48900 -1.20000 39.79500
N  21.72600 -6.44500 45.31600
C  20.85300 -5.74400 44.51800
C  19.58300 -6.48900 44.42600
C  19.61400 -7.52700 45.39000
C  21.05000 -7.54700 45.82400
C  18.39900 -6.04400 43.57400
C  18.41900 -8.46100 45.77000
O  17.34100 -8.28200 45.23000
C  18.52500 -9.51500 46.81700
N  23.92500 -7.73900 47.10600
C  22.93100 -8.64300 47.24300
C  23.46900 -9.88800 48.01400
C  24.74000 -9.31900 48.66000
C  24.99300 -8.04600 47.82800
C  22.35300 -10.50000 48.94100
C  26.00200 -10.21000 49.03400
C  26.94500 -10.56600 47.79800
N  25.71000 -5.68000 46.20700
C  26.66800 -6.39100 46.95700
C  27.95800 -5.73900 46.80200
C  27.68100 -4.80500 45.78900
C  26.39800 -4.80000 45.49800
C  29.25200 -6.00900 47.45900
C  28.36300 -3.84800 44.95600
O  29.55000 -3.65500 44.83600
C  27.26100 -3.12800 44.16000
C  27.34800 -1.67900 44.55700
O  26.62600 -1.11700 45.35100
O  28.39700 -1.16400 43.86800
C  28.83500 0.18900 44.32300
H  20.49900 -4.31800 43.12500
H  21.06400 -9.40600 46.85400
H  27.07300 -7.88800 48.41200
H  24.86400 -1.84100 42.99300
H  22.41400 -2.99700 41.66900
H  21.35400 -1.93700 43.99500
H  21.78300 -1.05600 42.45400
H  22.83200 -1.01100 43.78800
H  24.39700 -3.36300 40.64800
H  25.50600 -4.24200 41.51900
H  27.06600 -2.66000 40.43700
H  26.44200 -1.52900 41.58200
H  18.59200 -5.33200 42.77200
H  17.68500 -5.56800 44.24700
H  17.95200 -6.94100 43.14600
H  17.51500 -9.67000 47.19500
H  19.05800 -9.19800 47.71400
H  19.07300 -10.40700 46.51400
H  23.74200 -10.68200 47.31900
H  24.43900 -8.87500 49.60900
H  22.05700 -11.51000 48.65800
H  21.62600 -9.69500 49.05100
H  22.77800 -10.64500 49.93400
H  25.55700 -11.13900 49.39100
H  26.55000 -9.69500 49.82300
H  26.85900 -11.65100 47.74700
H  27.95600 -10.33200 48.12900
H  26.79900 -10.10300 46.82200
H  29.94700 -6.42100 46.72700
H  29.15400 -6.62500 48.35200
H  29.59500 -5.00600 47.71500
H  27.44400 -3.18300 43.08700
H  29.92100 0.13600 44.23500
H  28.62500 0.46400 45.35700
H  28.37200 0.87900 43.61800
Mg 24.52200 1.46700 29.11800
C  26.62400 0.75100 31.89300
C  21.93100 1.35500 31.14700
C  22.54800 2.05900 26.34100
C  27.31600 1.16800 27.06800
N  24.36200 1.15000 31.30100
C  25.29800 1.00000 32.25700
C  24.73300 1.03800 33.63600
C  23.19200 1.30700 33.40000
C  23.15500 1.32200 31.86500
C  22.18200 0.34100 34.11700
C  25.50000 2.07900 34.57000
C  24.67100 2.72300 35.65200
H  25.45400 3.28100 36.82300
N  22.54200 1.65100 28.87500
C  21.59100 1.51600 29.79700
C  20.27400 1.62300 29.23500
C  20.45400 1.69300 27.81200
C  21.90400 1.85200 27.60800
C  19.01700 1.34600 30.04600
C  19.40900 1.55200 26.68900
O  19.65800 1.43200 25.47100
C  17.98100 1.52900 27.07300
N  24.85700 1.73600 27.06000
C  23.91800 1.96600 26.10800
C  24.58400 2.15200 24.75300
C  26.10500 2.02500 25.01000
C  26.12000 1.66000 26.50100
C  24.08200 1.48600 23.50000
C  26.85700 3.40300 24.79200
C  26.64200 4.42500 25.91700
N  26.49400 0.78100 29.28100
C  27.49600 0.73600 28.37000
C  28.73300 0.38400 29.01100
C  28.43600 0.50100 30.39100
C  27.03200 0.59800 30.53100
C  29.97000 0.08700 28.34200
C  29.03200 0.46200 31.67700
O  30.16000 0.25300 32.12600
C  27.87600 0.71600 32.71900
C  28.02300 -0.41400 33.73300
O  27.58300 -1.50600 33.55700
O  28.66000 0.05100 34.95600
C  28.79900 -1.02200 36.04100
H  21.14500 1.36800 31.90400
H  22.06600 2.18900 25.36900
H  28.17000 1.12500 26.38900
H  24.94000 0.04300 34.02800
H  23.05100 2.33300 33.74000
H  21.73200 0.91600 34.92700
H  22.75800 -0.41700 34.64700
H  21.60200 -0.11900 33.31700
H  25.95900 2.88400 33.99600
H  26.30200 1.56700 35.10100
H  24.00200 1.88800 35.86200
H  24.17400 3.62700 35.29800
H  18.77400 0.30600 29.82900
H  18.16100 1.98300 29.82500
H  19.29300 1.48100 31.09100
H  17.34400 1.60600 26.19200
H  17.80500 2.32100 27.80100
H  17.86800 0.50000 27.41700
H  24.35700 3.17300 24.44600
H  26.48300 1.18800 24.42300
H  23.65600 2.24000 22.83800
H  23.33600 0.72900 23.74100
H  24.90600 1.06400 22.92400
H  26.28700 3.81100 23.95700
H  27.89500 3.27800 24.48700
H  26.76000 4.13000 26.95900
H  25.65300 4.87800 25.84000
H  27.33500 5.26500 25.87500
H  29.73700 -0.18800 27.31300
H  30.52200 -0.67800 28.88600
H  30.59700 0.97600 28.40700
H  27.98800 1.68800 33.19900
H  28.34700 -1.98400 35.80100
H  28.21600 -0.67800 36.89600
H  29.81700 -1.12500 36.41600

