158

Mg -0.43900 7.72900 27.66200
C  0.27400 9.89100 30.16200
C  -0.55300 5.03500 29.89300
C  -1.34500 5.78700 25.06000
C  0.13200 10.40100 25.38700
N  -0.05500 7.46300 29.74800
C  0.04100 8.53500 30.60200
C  -0.11500 8.06000 32.03600
C  0.17600 6.46700 31.88600
C  -0.26000 6.28100 30.42900
C  1.65400 5.97200 32.18400
C  -1.50400 8.48100 32.63700
C  -1.64400 8.57500 34.20000
H  -0.37900 8.43600 35.01200
N  -0.98300 5.71200 27.48100
C  -0.96600 4.75600 28.55500
C  -1.33700 3.45000 28.00600
C  -1.43900 3.66600 26.56500
C  -1.32100 5.08700 26.30100
C  -1.35200 2.14800 28.83400
C  -1.57200 2.60100 25.48900
O  -1.51700 2.87100 24.27900
C  -1.72800 1.16000 25.80400
N  -0.60000 8.05200 25.49800
C  -1.04600 7.04000 24.67700
C  -0.95300 7.51200 23.20900
C  -0.73100 9.07100 23.41900
C  -0.41500 9.25700 24.85600
C  0.08800 6.71000 22.36900
C  -1.85500 10.06000 22.92800
C  -1.58100 10.88400 21.64600
N  0.30400 9.72700 27.68900
C  0.47400 10.67300 26.73500
C  0.91800 11.92100 27.32500
C  0.83800 11.66200 28.72800
C  0.33400 10.31800 28.87200
C  1.30300 13.22600 26.69100
C  1.09400 12.13400 30.06600
O  1.49400 13.19700 30.39300
C  0.71000 11.00700 31.04400
C  1.90600 10.67200 31.88500
O  2.83900 9.99800 31.51400
O  1.80100 11.25600 33.13600
C  2.89900 11.05600 34.00900
H  -0.41000 4.19300 30.57300
H  -1.69000 5.21900 24.19400
H  0.33600 11.17800 24.64800
H  0.70600 8.51400 32.59200
H  -0.56000 5.91000 32.46600
H  2.07100 6.87900 32.62300
H  2.09600 5.63800 31.24500
H  1.60800 5.16300 32.91200
H  -2.12800 7.63400 32.35400
H  -1.86100 9.39200 32.15700
H  -2.46600 7.99800 34.62300
H  -2.06000 9.56600 34.37400
H  -0.62300 1.49700 28.35200
H  -2.36800 1.75300 28.81300
H  -1.04100 2.37100 29.85400
H  -2.55500 1.25700 26.50700
H  -0.77400 0.68700 26.03800
H  -2.18100 0.59100 24.99200
H  -1.91100 7.36500 22.71000
H  0.24600 9.31300 23.00000
H  -0.29600 6.18000 21.49700
H  0.59700 5.94600 22.95600
H  0.73600 7.43700 21.87900
H  -2.02200 10.84200 23.66800
H  -2.82900 9.57400 22.97500
H  -1.16600 11.85200 21.92600
H  -2.48300 10.83900 21.03500
H  -0.77700 10.39900 21.09200
H  1.39000 13.02400 25.62300
H  2.32800 13.51600 26.92000
H  0.54200 13.94600 26.99200
H  -0.16100 11.20600 31.66800
H  3.84600 10.85300 33.51000
H  2.56100 10.39000 34.80300
H  3.09700 12.05000 34.41100
Mg 40.13200 9.20400 29.92400
C  42.40400 10.60300 32.26300
C  38.26800 8.11600 32.57800
C  38.15400 7.86400 27.77900
C  42.36300 10.03800 27.37100
N  40.44000 9.32500 32.17400
C  41.29000 10.07500 32.88900
C  40.86000 10.12900 34.35400
C  39.82600 8.92400 34.32600
C  39.44700 8.78900 32.97400
C  40.27900 7.62300 35.01500
C  40.28300 11.52800 34.78500
C  40.07200 11.43100 36.31200
H  40.93700 12.23400 37.21600
N  38.43400 8.19100 30.17100
C  37.79200 7.76900 31.33300
C  36.47000 7.16400 30.97000
C  36.52400 7.02100 29.55700
C  37.75100 7.66200 29.11200
C  35.46700 6.54200 31.96900
C  35.51900 6.30300 28.60900
O  35.65300 6.10700 27.41700
C  34.44400 5.63500 29.27700
N  40.31200 8.82900 27.85900
C  39.23800 8.42800 27.20500
C  39.38000 8.56600 25.68800
C  40.87200 9.09300 25.52900
C  41.22900 9.34800 26.94200
C  39.07400 7.12200 24.98500
C  40.95000 10.29500 24.59000
C  40.47500 11.63400 25.14100
N  42.05400 10.09300 29.76500
C  42.78000 10.39400 28.65400
C  44.03500 11.02200 29.08500
C  43.89200 11.20500 30.49300
C  42.73000 10.56800 30.89700
C  45.10800 11.49300 28.11400
C  44.43500 11.87700 31.66300
O  45.44500 12.60500 31.79000
C  43.57700 11.42500 32.84500
C  44.46500 10.68400 33.77200
O  44.82200 9.53700 33.61200
O  44.69600 11.49600 34.87700
C  45.43900 10.92600 36.00300
H  37.71300 7.67100 33.40700
H  37.42600 7.55000 27.02800
H  43.02600 10.20200 26.52000
H  41.71400 9.86300 34.97700
H  38.93700 9.25300 34.86400
H  40.15100 6.77000 34.34800
H  39.85100 7.32100 35.97100
H  41.34600 7.77800 35.17400
H  39.41400 11.76300 34.17100
H  40.99500 12.29900 34.49100
H  40.01100 10.43800 36.75800
H  39.03800 11.76900 36.37000
H  34.53100 7.00100 31.65200
H  35.73200 6.88200 32.97000
H  35.50300 5.46100 31.84000
H  34.91500 4.83700 29.85000
H  33.72700 5.19100 28.58600
H  33.88200 6.26600 29.96500
H  38.63600 9.31000 25.40500
H  41.59700 8.34100 25.21900
H  39.95600 6.76100 24.45600
H  38.21400 7.13600 24.31600
H  38.87100 6.36800 25.74600
H  40.31100 10.17000 23.71600
H  41.99600 10.34100 24.28400
H  40.20100 11.76200 26.18800
H  39.74800 12.10600 24.48000
H  41.33100 12.30300 25.06500
H  44.65000 12.42600 27.78500
H  44.89900 10.72800 27.36600
H  46.05300 11.55700 28.65200
H  43.13200 12.29500 33.32900
H  44.63600 10.55700 36.64000
H  46.04700 11.70600 36.46100
H  46.07000 10.10300 35.66800

