158

Mg 6.69400 54.32700 41.97800
C  5.89200 50.97600 41.67300
C  9.85600 53.66400 40.71500
C  7.33100 57.65300 41.45500
C  3.40300 55.02300 42.88900
N  7.70000 52.57300 41.12600
C  7.23000 51.27000 41.25800
C  8.32900 50.22900 40.85600
C  9.65500 51.06700 41.01900
C  9.06800 52.52700 40.93700
C  10.55900 50.80000 42.32400
C  8.11400 49.62300 39.40900
C  7.78800 50.56000 38.21900
H  6.60200 50.21500 37.32500
N  8.36000 55.54400 41.12400
C  9.56000 55.03700 40.69700
C  10.44900 56.13000 40.36100
C  9.72700 57.33400 40.49500
C  8.41100 56.85000 41.01900
C  11.80700 55.97300 39.84700
C  10.31100 58.65800 40.09600
O  11.29500 58.76000 39.37700
C  9.57800 59.99800 40.48500
N  5.47000 56.01800 41.94600
C  6.00600 57.30700 41.93900
C  5.11400 58.34100 42.52900
C  3.77300 57.51900 42.71000
C  4.23000 56.06600 42.57100
C  5.62300 58.91600 43.89700
C  2.62100 57.98500 41.76800
C  1.42900 58.69900 42.43900
N  4.92100 53.31000 42.24200
C  3.72500 53.69400 42.61600
C  2.90300 52.49000 42.82500
C  3.69400 51.44100 42.48400
C  4.93900 51.96100 42.10600
C  1.41500 52.58500 43.27000
C  3.73400 50.00900 42.36200
O  2.80600 49.23300 42.42400
C  5.10200 49.64800 41.86900
C  4.89800 48.92300 40.63700
O  4.29700 49.32000 39.68100
O  5.46600 47.69500 40.75100
C  5.24900 46.68700 39.64500
H  10.88200 53.36400 40.49000
H  7.51200 58.71800 41.30000
H  2.38600 55.20400 43.24500
H  8.44500 49.41500 41.57200
H  10.32300 50.88400 40.17800
H  10.53200 51.63300 43.02800
H  11.60700 50.64600 42.06600
H  10.19700 49.92100 42.85700
H  7.38000 48.81800 39.45300
H  9.10600 49.24500 39.16000
H  8.72600 50.56200 37.66500
H  7.73800 51.62300 38.45800
H  11.76700 55.06500 39.24500
H  12.45200 55.77600 40.70300
H  12.42400 56.60300 39.20600
H  8.69900 60.05200 39.84200
H  10.27200 60.80600 40.25800
H  9.36600 59.90800 41.55000
H  5.02500 59.02000 41.68100
H  3.27300 57.62500 43.67300
H  6.51500 58.32900 44.11500
H  4.87200 58.81300 44.67900
H  5.94600 59.95700 43.92800
H  2.13900 57.08000 41.39800
H  3.03600 58.49800 40.90000
H  1.69800 59.02700 43.44300
H  0.53000 58.10600 42.26400
H  1.33000 59.61700 41.86000
H  0.76400 53.01700 42.51100
H  1.22800 52.97600 44.27100
H  1.06400 51.55500 43.34300
H  5.60000 49.05500 42.63600
H  4.21100 46.38600 39.50600
H  5.70400 45.71900 39.85500
H  5.74300 47.18200 38.80900
Mg -6.27700 25.88900 26.25000
C  -5.00200 27.36100 29.08700
C  -8.08900 23.61900 28.35800
C  -7.29700 23.97300 23.58200
C  -4.41100 27.88100 24.29900
N  -6.45100 25.47000 28.46000
C  -5.98700 26.32900 29.43100
C  -6.51300 26.01600 30.77900
C  -7.28600 24.63400 30.47700
C  -7.23700 24.55200 28.98000
C  -6.89800 23.39100 31.22200
C  -7.44600 27.22100 31.41500
C  -7.15000 27.48400 32.87200
H  -6.87200 26.36100 33.91400
N  -7.52800 24.08400 25.99600
C  -8.09800 23.33100 26.96500
C  -8.72600 22.18500 26.44500
C  -8.52800 22.22800 25.01000
C  -7.77500 23.43100 24.80500
C  -9.38100 21.15600 27.34500
C  -9.02200 21.35800 23.83400
O  -8.74100 21.41700 22.66000
C  -10.12700 20.39000 24.18800
N  -5.91300 25.92900 24.19800
C  -6.49200 25.08700 23.20400
C  -5.95700 25.46800 21.82000
C  -5.18900 26.82300 22.09300
C  -5.14600 26.88800 23.61900
C  -5.15200 24.30500 21.10100
C  -5.75600 28.12500 21.52100
C  -4.87000 28.71800 20.49300
N  -4.85500 27.24900 26.56100
C  -4.21000 28.05100 25.70500
C  -3.44500 29.07300 26.42700
C  -3.73300 28.77900 27.74500
C  -4.57300 27.68200 27.75800
C  -2.65800 30.19800 25.83800
C  -3.46800 29.26600 29.08200
O  -2.79200 30.22100 29.45100
C  -4.31200 28.38000 29.98600
C  -3.30900 27.77300 30.85500
O  -2.57400 26.85500 30.44900
O  -3.37700 28.37900 32.03700
C  -2.42200 27.83300 33.00400
H  -8.72900 23.01800 29.00700
H  -7.59600 23.43700 22.67800
H  -3.94800 28.72800 23.78800
H  -5.72600 25.70000 31.46400
H  -8.35500 24.75300 30.65200
H  -6.70200 23.72800 32.24000
H  -6.08200 22.77400 30.84500
H  -7.75600 22.72000 31.21300
H  -8.50000 26.95500 31.32700
H  -7.28200 28.09500 30.78500
H  -8.08000 27.86100 33.29700
H  -6.29600 28.14700 33.00600
H  -10.14400 20.60700 26.79200
H  -9.93500 21.59300 28.17600
H  -8.69000 20.37900 27.67100
H  -10.51300 19.85800 23.31900
H  -10.91000 20.85300 24.79000
H  -9.63400 19.69000 24.86200
H  -6.85400 25.74300 21.26600
H  -4.12700 26.79600 21.85100
H  -4.18000 24.73700 20.86500
H  -5.84200 23.93000 20.34600
H  -5.02700 23.44600 21.76000
H  -5.82400 28.84000 22.34100
H  -6.74500 27.81800 21.18100
H  -4.31100 27.99300 19.90200
H  -4.15900 29.36100 21.01100
H  -5.52800 29.30000 19.84700
H  -1.67100 29.94500 26.22400
H  -3.14600 31.16100 25.99100
H  -2.49700 30.13600 24.76200
H  -4.95000 28.91500 30.68900
H  -1.91800 28.68400 33.46200
H  -1.67100 27.15100 32.60500
H  -2.93300 27.21300 33.74100

