158

Mg 40.97500 10.02700 30.20600
C  43.07000 10.95100 32.69000
C  38.76500 8.69800 32.59200
C  38.92100 8.78800 27.76400
C  43.20200 11.07300 27.79800
N  40.95400 9.80000 32.43300
C  41.89100 10.35000 33.20000
C  41.35600 10.46100 34.65800
C  40.10200 9.53100 34.64300
C  39.87000 9.31400 33.15000
C  40.19500 8.08800 35.42100
C  41.11300 11.95900 35.10200
C  41.77100 12.32400 36.48200
H  40.89000 12.74000 37.68500
N  39.18900 8.81800 30.21700
C  38.50000 8.39200 31.31100
C  37.33700 7.68000 30.88500
C  37.28900 7.71400 29.43300
C  38.50000 8.44300 29.07500
C  36.36000 6.99900 31.87400
C  36.31000 7.06500 28.38400
O  36.49400 7.05600 27.12900
C  35.28600 6.05900 28.86100
N  41.18200 9.76200 27.98500
C  40.01400 9.43000 27.29200
C  40.31900 9.62800 25.79700
C  41.73700 10.29400 25.79800
C  42.00000 10.51100 27.25800
C  40.16700 8.44200 24.88000
C  42.03100 11.48200 24.80300
C  41.21400 12.72400 25.21100
N  42.86000 10.70800 30.24000
C  43.57400 11.15400 29.19200
C  44.79800 11.76600 29.69400
C  44.64500 11.74600 31.06300
C  43.45900 11.01400 31.35600
C  45.85700 12.28000 28.78400
C  45.20700 12.16100 32.25300
O  46.30100 12.73100 32.47600
C  44.18200 11.66800 33.46200
C  44.88700 10.81200 34.45100
O  44.91200 9.58600 34.61000
O  45.50600 11.67600 35.36400
C  46.04600 11.02600 36.60000
H  38.05100 8.40400 33.36400
H  38.31200 8.29200 27.00600
H  43.84300 11.53800 27.04700
H  42.17500 9.94900 35.16400
H  39.32600 10.14400 35.10300
H  40.71300 8.34600 36.34500
H  40.68200 7.27600 34.88100
H  39.19500 7.78200 35.72900
H  40.08000 12.28600 35.22700
H  41.50500 12.59100 34.30500
H  42.49900 13.11200 36.29100
H  42.40600 11.47600 36.73900
H  36.50100 7.15300 32.94300
H  36.19900 5.94600 31.63900
H  35.43100 7.48800 31.58100
H  34.48800 6.60000 29.37100
H  35.77400 5.37800 29.55700
H  34.92300 5.37900 28.09000
H  39.55200 10.33500 25.48100
H  42.42300 9.58200 25.34100
H  40.88700 8.37300 24.06400
H  39.14100 8.38700 24.51500
H  40.33400 7.59000 25.53800
H  41.71300 11.25700 23.78500
H  43.10400 11.66400 24.75800
H  40.62300 12.53900 26.10700
H  40.55100 13.13100 24.44800
H  41.85500 13.53600 25.55500
H  45.49000 13.15800 28.25100
H  46.15800 11.56000 28.02300
H  46.75300 12.40500 29.39200
H  43.80800 12.57300 33.94300
H  46.87900 10.38300 36.31600
H  45.28700 10.45900 37.13800
H  46.65700 11.64900 37.25300
Mg 0.41800 43.39600 25.54000
C  1.75200 43.20600 28.87900
C  -2.58500 42.46200 26.87100
C  -0.69800 43.04500 22.50200
C  3.71800 43.51900 24.36300
N  -0.37000 43.03900 27.64500
C  0.34200 43.01400 28.80200
C  -0.53500 42.88700 30.04600
C  -1.91900 42.37300 29.42300
C  -1.59200 42.49500 27.87600
C  -2.33800 40.95200 29.79000
C  -0.61200 44.23900 30.83400
C  0.02800 44.29700 32.27200
H  -0.85500 44.34000 33.49500
N  -1.45500 42.96700 24.80900
C  -2.59300 42.62300 25.46100
C  -3.73200 42.72000 24.45800
C  -3.18900 42.94700 23.15400
C  -1.70400 42.99500 23.43000
C  -5.19500 42.62400 24.87100
C  -3.84100 42.90300 21.77400
O  -3.24700 43.05100 20.73000
C  -5.22400 42.45200 21.67000
N  1.34400 43.24100 23.74100
C  0.64300 43.20700 22.55600
C  1.60800 43.22700 21.36800
C  2.92200 43.61300 21.94800
C  2.67200 43.43000 23.46600
C  1.51200 41.91500 20.55100
C  3.29400 45.01900 21.60200
C  3.70300 45.39500 20.14000
N  2.41300 43.47200 26.41700
C  3.68500 43.48900 25.78400
C  4.73500 43.69500 26.82200
C  3.96300 43.60000 28.06800
C  2.58000 43.42200 27.74800
C  6.24500 43.75900 26.74400
C  4.16200 43.30500 29.44600
O  5.20400 43.20000 30.12300
C  2.70400 43.20100 30.06700
C  2.66300 41.92200 30.76500
O  2.42000 40.83300 30.26700
O  3.13600 42.24200 32.03600
C  3.21100 41.01800 32.97500
H  -3.59500 42.30600 27.25600
H  -1.04700 42.96900 21.47000
H  4.72400 43.68800 23.97300
H  -0.13200 42.06300 30.63500
H  -2.73200 42.97600 29.82800
H  -1.88000 40.64700 30.73000
H  -1.93600 40.25700 29.05300
H  -3.42700 40.89300 29.80800
H  -1.63800 44.60500 30.86500
H  -0.08400 44.95400 30.20500
H  0.56100 45.24800 32.27800
H  0.87100 43.62500 32.43300
H  -5.88600 43.19100 24.24700
H  -5.21500 43.02600 25.88400
H  -5.48600 41.57700 24.95700
H  -5.46300 42.20400 20.63500
H  -5.81900 43.27700 22.06100
H  -5.26100 41.50100 22.20100
H  1.23500 44.05400 20.76400
H  3.73700 42.98800 21.58200
H  1.42500 41.11700 21.28900
H  2.46100 41.68200 20.06700
H  0.84200 41.98100 19.69300
H  4.15500 45.25000 22.22900
H  2.52200 45.69700 21.96600
H  3.23800 44.66100 19.48200
H  4.77200 45.54700 19.99300
H  3.24400 46.35800 19.91500
H  6.65300 43.35000 25.82000
H  6.64400 43.18400 27.58000
H  6.53500 44.81000 26.75600
H  2.53000 43.97800 30.81100
H  3.39900 40.06200 32.48700
H  2.22400 40.94400 33.42900
H  3.90300 40.95800 33.81500

