158

Mg 24.48300 -5.05400 46.32300
C  26.39900 -2.49900 44.61200
C  21.87000 -4.07500 44.36700
C  22.81600 -7.67600 47.44800
C  27.44600 -6.15500 47.76500
N  24.23600 -3.37000 44.76600
C  25.08100 -2.46600 44.23100
C  24.41200 -1.62400 43.14800
C  22.95400 -2.05200 43.26000
C  22.97200 -3.23400 44.24400
C  21.97100 -0.89400 43.70600
C  25.17100 -1.95600 41.77600
C  25.87800 -0.76300 41.06100
H  25.69900 -0.66000 39.54800
N  22.56300 -5.78200 46.00300
C  21.59400 -5.25400 45.11800
C  20.41000 -6.02700 45.17900
C  20.66300 -7.11200 46.09800
C  22.03900 -6.86500 46.63600
C  19.16800 -5.80500 44.27900
C  19.63100 -8.23900 46.43700
O  18.48800 -8.18600 45.96600
C  20.04100 -9.36200 47.41600
N  25.09600 -6.78600 47.38700
C  24.15900 -7.60500 47.91100
C  24.88900 -8.67400 48.82500
C  26.24000 -7.93200 49.09200
C  26.26200 -6.97100 47.93700
C  24.07200 -9.02700 50.07400
C  27.45700 -8.95400 49.21300
C  28.36400 -8.90300 50.39900
N  26.49200 -4.47300 46.28000
C  27.58100 -4.99600 46.95100
C  28.74500 -4.13100 46.71500
C  28.31700 -3.12300 45.82400
C  26.94400 -3.37600 45.58600
C  30.12600 -4.38900 47.20800
C  28.75900 -1.97000 45.06200
O  29.84900 -1.38200 44.92300
C  27.51700 -1.58800 44.17000
C  27.31100 -0.13300 44.35700
O  26.41500 0.38100 45.05200
O  28.23200 0.55900 43.62500
C  28.11000 2.09000 43.74400
H  21.10000 -3.73600 43.67000
H  22.40300 -8.56200 47.93400
H  28.29800 -6.34300 48.42100
H  24.56400 -0.55200 43.27900
H  22.59600 -2.49100 42.32900
H  21.22800 -1.30600 44.38800
H  21.60100 -0.61700 42.71800
H  22.41900 0.03200 44.06600
H  24.36100 -2.34400 41.15900
H  25.91800 -2.73200 41.94500
H  26.94300 -0.89300 41.25300
H  25.52300 0.16700 41.50400
H  19.08200 -6.57300 43.51000
H  19.04600 -4.89400 43.69200
H  18.34800 -5.76000 44.99600
H  19.30200 -10.12800 47.65000
H  20.47400 -9.03500 48.36100
H  20.82000 -9.84300 46.82400
H  24.99600 -9.58300 48.23300
H  26.15000 -7.45500 50.06800
H  24.82500 -9.19200 50.84400
H  23.63100 -9.97800 49.77500
H  23.28500 -8.39900 50.49100
H  28.03500 -8.86000 48.29300
H  27.08900 -9.96900 49.36600
H  29.32400 -8.50900 50.06400
H  28.41000 -9.96600 50.63700
H  28.04600 -8.29200 51.24300
H  30.17000 -4.19100 48.27900
H  30.95000 -4.02900 46.59100
H  30.19800 -5.47600 47.22500
H  27.76600 -1.68500 43.11300
H  27.92100 2.32400 44.79200
H  27.29100 2.53000 43.17600
H  29.02900 2.60900 43.47100
Mg 10.20300 47.51500 26.05000
C  8.17200 47.80000 28.89400
C  12.82000 48.77300 27.84400
C  12.02600 47.22100 23.28000
C  7.29500 46.55900 24.26400
N  10.46500 48.16100 28.09400
C  9.52700 48.12200 29.12200
C  10.18900 48.44400 30.47100
C  11.40000 49.28700 29.95400
C  11.63400 48.79600 28.58200
C  11.17600 50.88800 30.02200
C  10.61400 47.17000 31.26900
C  10.73400 47.28800 32.74500
H  10.46300 46.12700 33.74200
N  12.23500 47.94600 25.59700
C  13.16400 48.44000 26.48900
C  14.50800 48.35900 25.85700
C  14.22100 47.91800 24.51500
C  12.79200 47.65100 24.37100
C  15.71600 48.76500 26.63800
C  15.20100 47.78900 23.31300
O  14.87000 47.60800 22.12300
C  16.73600 47.94500 23.63600
N  9.70600 47.16400 23.94400
C  10.67100 46.97600 23.06200
C  10.01200 46.68700 21.64600
C  8.56200 46.31600 22.01800
C  8.50900 46.66700 23.47500
C  10.08500 47.93600 20.75300
C  8.10800 44.85100 21.70800
C  8.20600 43.67900 22.77900
N  8.09100 47.30000 26.45600
C  7.02300 46.89600 25.59900
C  5.81200 46.97800 26.36700
C  6.21500 47.19200 27.68200
C  7.59600 47.48100 27.69600
C  4.35400 46.58700 26.01900
C  5.77400 47.31900 29.06600
O  4.69600 47.06300 29.61400
C  7.07500 47.65700 29.97000
C  7.23400 46.42300 30.75100
O  7.34000 45.27800 30.30500
O  7.25800 46.76800 32.08900
C  7.20000 45.58400 33.02600
H  13.59900 49.18900 28.48600
H  12.48500 47.16500 22.29100
H  6.41000 46.30000 23.68000
H  9.43900 49.04700 30.98400
H  12.37800 49.19100 30.42400
H  12.12600 51.32300 30.33300
H  10.47900 51.14100 30.82100
H  10.85200 51.28600 29.06100
H  11.63000 46.93400 30.95500
H  9.98100 46.29200 31.13900
H  10.18500 48.08200 33.25100
H  11.75300 47.65000 32.88200
H  15.51200 48.53200 27.68300
H  16.01000 49.80300 26.48400
H  16.50500 48.06500 26.36400
H  16.91200 47.32700 24.51600
H  16.84300 48.93200 24.08600
H  17.34900 47.77200 22.75100
H  10.65100 45.87000 21.30900
H  7.80200 46.92700 21.53100
H  9.10300 48.13500 20.32300
H  10.83200 47.80400 19.97000
H  10.24900 48.89500 21.24400
H  8.66000 44.47500 20.84700
H  7.06500 44.89100 21.39400
H  8.38500 43.82700 23.84400
H  8.94400 42.90200 22.57800
H  7.26800 43.14500 22.63000
H  4.38100 45.60100 25.55400
H  4.02400 47.32900 25.29200
H  3.67200 46.61100 26.86800
H  6.89500 48.53500 30.59100
H  6.46700 44.80900 32.80600
H  6.99700 45.98900 34.01700
H  8.12200 45.00400 33.07100

