158

Mg 47.39800 14.81000 27.81600
C  45.38600 14.77300 30.75900
C  49.44900 16.98000 29.42500
C  48.87100 15.19600 24.95900
C  44.70000 13.23000 26.13000
N  47.35600 15.68100 29.94200
C  46.55600 15.54000 31.00200
C  47.12600 15.97200 32.32800
C  48.37500 16.77300 31.81500
C  48.42900 16.48500 30.28000
C  48.29200 18.34800 32.13300
C  47.36800 14.81800 33.30000
C  47.00700 15.12700 34.76800
H  46.94100 16.61900 35.27400
N  48.98100 15.87200 27.29000
C  49.72700 16.63000 28.08300
C  50.87700 17.22200 27.39000
C  50.85300 16.70300 26.08300
C  49.51500 15.88700 26.00300
C  51.89400 18.12000 28.10700
C  51.88900 16.77800 24.94500
O  51.63000 16.20500 23.87200
C  53.23400 17.49500 25.01200
N  46.75700 14.41100 25.80400
C  47.66000 14.57800 24.85000
C  47.18600 13.96900 23.52300
C  45.74700 13.38500 23.85800
C  45.70200 13.73400 25.35500
C  47.33900 14.80500 22.20200
C  45.47900 12.06100 23.30500
C  46.12100 10.88800 24.04300
N  45.57300 13.95400 28.35200
C  44.58800 13.36700 27.51400
C  43.47400 13.07800 28.36300
C  43.71500 13.61400 29.64200
C  44.98700 14.18100 29.57000
C  42.21600 12.28400 27.98200
C  43.12400 13.79700 30.94300
O  42.03800 13.52200 31.36600
C  44.28500 14.44800 31.79900
C  43.69600 15.67300 32.53400
O  43.54500 16.82500 32.15100
O  43.34400 15.23300 33.76900
C  42.68500 16.23800 34.57800
H  50.25600 17.37200 30.04700
H  49.40300 15.27100 24.00900
H  43.92300 12.63600 25.64300
H  46.52100 16.74700 32.79900
H  49.23000 16.39600 32.37400
H  48.04400 18.98100 31.28100
H  49.29300 18.59800 32.48400
H  47.65100 18.46700 33.00700
H  48.44800 14.75700 33.16000
H  46.92000 13.86800 33.00900
H  47.71000 14.58100 35.39700
H  45.98500 14.76000 34.85800
H  52.30600 18.89500 27.46100
H  52.71400 17.55600 28.55100
H  51.28100 18.65300 28.83400
H  53.80700 16.80100 25.62800
H  53.04400 18.45400 25.49300
H  53.69100 17.51900 24.02300
H  47.79000 13.06700 23.42300
H  45.00600 13.94400 23.28600
H  46.90700 14.25100 21.36800
H  48.37500 15.10300 22.04200
H  46.69800 15.67700 22.33600
H  45.73300 12.14500 22.24800
H  44.41300 11.94600 23.50300
H  45.41300 10.18200 24.47700
H  46.81500 11.23300 24.80900
H  46.58000 10.29600 23.25100
H  42.24400 11.34200 28.52900
H  42.14400 12.09600 26.91100
H  41.35900 12.92000 28.20300
H  44.63500 13.75200 32.56100
H  41.82700 16.69900 34.08700
H  43.24800 17.11200 34.90400
H  42.34500 15.88500 35.55200
Mg -0.02300 43.14700 26.22300
C  2.12200 43.06300 29.02000
C  -2.57600 42.06600 28.18600
C  -1.80700 42.92100 23.45000
C  2.76100 44.13000 24.29900
N  -0.25500 42.79500 28.36500
C  0.80600 42.75100 29.31600
C  0.21600 42.32900 30.69000
C  -1.24900 41.77000 30.36700
C  -1.40900 42.25400 28.86600
C  -1.45900 40.21200 30.46200
C  0.15500 43.50500 31.66600
C  0.65100 43.19300 33.08300
H  0.15000 41.85800 33.74500
N  -1.91200 42.59200 25.85500
C  -2.78400 42.20800 26.79500
C  -4.04600 41.98300 26.07700
C  -3.81800 42.04700 24.67900
C  -2.44500 42.57000 24.62100
C  -5.32300 41.53500 26.81200
C  -4.78200 41.81200 23.54100
O  -4.48400 42.12300 22.37200
C  -6.19700 41.22300 23.81700
N  0.41800 43.46600 24.13300
C  -0.50700 43.37800 23.15600
C  0.01800 43.82500 21.78000
C  1.41800 44.38800 22.15700
C  1.53300 43.98600 23.63300
C  -0.05500 42.61900 20.75400
C  1.60200 45.83000 21.91100
C  0.97000 46.44900 20.65800
N  1.97900 43.62300 26.52000
C  2.98300 44.02800 25.70200
C  4.19800 44.14600 26.40200
C  3.86300 43.84600 27.71800
C  2.54500 43.48100 27.77100
C  5.56600 44.30900 25.85900
C  4.38200 43.75200 29.11500
O  5.50900 44.03500 29.60600
C  3.22400 43.28200 30.03900
C  3.65900 42.04900 30.67100
O  3.95500 40.97700 30.24700
O  3.77500 42.32500 32.04900
C  4.26200 41.28000 32.97400
H  -3.41100 41.59600 28.71000
H  -2.33000 42.76800 22.50300
H  3.62000 44.43000 23.69500
H  0.83900 41.56300 31.15100
H  -1.90000 42.20500 31.12600
H  -0.50500 39.74800 30.71200
H  -1.79900 39.60700 29.62100
H  -2.04600 40.05200 31.36700
H  -0.82800 43.97500 31.68000
H  0.83700 44.29000 31.33900
H  0.38800 44.00100 33.76600
H  1.74000 43.21200 33.04300
H  -5.21700 41.44700 27.89300
H  -5.69600 40.61600 26.35900
H  -6.09400 42.29300 26.67600
H  -6.87300 41.28900 22.96500
H  -6.64300 41.96300 24.48100
H  -6.23100 40.20300 24.20200
H  -0.67000 44.58900 21.41900
H  2.18000 43.77800 21.67100
H  0.92700 42.53000 20.28900
H  -0.81700 42.89100 20.02400
H  -0.22500 41.68300 21.28500
H  2.68800 45.92600 21.89900
H  1.16400 46.29200 22.79600
H  0.46600 45.77500 19.96600
H  1.75800 46.92600 20.07600
H  0.28500 47.20500 21.04300
H  6.14600 43.41400 26.08700
H  6.02500 45.26000 26.13100
H  5.63500 44.26100 24.77200
H  3.00400 43.99100 30.83700
H  4.71500 41.62400 33.90400
H  5.04400 40.67200 32.52000
H  3.40100 40.65300 33.20600

