158

Mg -1.77900 17.55400 27.07200
C  -2.34200 15.24100 29.83200
C  -2.63000 20.04100 29.35800
C  -1.76800 19.65400 24.56000
C  -1.62700 14.76700 25.03800
N  -2.33100 17.70400 29.35500
C  -2.36200 16.62200 30.27600
C  -2.62700 17.12500 31.71000
C  -3.02700 18.56400 31.49300
C  -2.66700 18.83100 30.04000
C  -4.62600 18.70000 31.67600
C  -1.42800 16.77300 32.67900
C  -0.99700 17.70700 33.90400
H  -0.87000 16.91800 35.23200
N  -1.96000 19.54400 27.03600
C  -2.32600 20.35800 28.03300
C  -2.48200 21.69100 27.45300
C  -2.09300 21.63300 26.14700
C  -1.94400 20.22500 25.82800
C  -2.92400 23.00700 28.22400
C  -1.89200 22.70700 25.09900
O  -1.40900 22.57400 23.97500
C  -2.00700 24.16900 25.53400
N  -1.55400 17.23800 25.09300
C  -1.59700 18.27100 24.22300
C  -1.41200 17.79100 22.78900
C  -1.17800 16.26100 22.96800
C  -1.49800 16.03200 24.44200
C  -2.66700 18.10900 21.88200
C  0.30800 15.78900 22.70300
C  1.35200 16.58600 23.48500
N  -1.87700 15.46500 27.33700
C  -1.78000 14.41900 26.39700
C  -2.05300 13.16400 27.03200
C  -2.20600 13.48300 28.39800
C  -2.16400 14.85600 28.49700
C  -2.05800 11.91100 26.22900
C  -2.47500 12.76200 29.70700
O  -2.69600 11.63100 30.07400
C  -2.60500 13.98500 30.72700
C  -1.47400 13.66200 31.68500
O  -0.20600 13.85200 31.53800
O  -2.03000 13.09100 32.77500
C  -1.17100 12.62200 33.78500
H  -2.80900 20.88500 30.02700
H  -1.88800 20.40000 23.77100
H  -1.63200 13.95500 24.30800
H  -3.43500 16.49000 32.07200
H  -2.54500 19.31300 32.12200
H  -5.04300 17.70600 31.84200
H  -4.99600 18.88300 30.66700
H  -4.91000 19.41900 32.44400
H  -0.56800 16.76500 32.00800
H  -1.54500 15.79800 33.15100
H  -1.56100 18.61200 34.12900
H  0.08100 17.84600 33.81600
H  -2.12700 23.74400 28.31800
H  -3.22400 22.66600 29.21500
H  -3.81200 23.40500 27.73200
H  -2.99200 24.39500 25.94200
H  -1.95600 24.73300 24.60300
H  -1.13900 24.31600 26.17600
H  -0.60400 18.31900 22.28200
H  -1.96300 15.63600 22.54200
H  -2.32100 18.43200 20.90000
H  -3.29000 18.95500 22.17200
H  -3.36200 17.27300 21.79800
H  0.50800 15.87200 21.63400
H  0.50600 14.72500 22.83200
H  0.83700 17.32100 24.10300
H  2.01300 16.93000 22.69000
H  1.89200 15.83900 24.06700
H  -1.38300 12.09500 25.39300
H  -3.06700 11.70200 25.87200
H  -1.83200 11.11500 26.93900
H  -3.54900 14.09500 31.26100
H  -1.74800 11.90300 34.36700
H  -0.97900 13.53200 34.35300
H  -0.20300 12.30500 33.39500
Mg 8.39300 3.45700 28.05500
C  9.87300 2.14600 30.85900
C  6.32300 5.38500 30.07000
C  6.74800 4.49000 25.18900
C  10.23400 1.26800 26.01900
N  8.18700 3.73700 30.23600
C  8.94100 3.13000 31.16400
C  8.62800 3.74800 32.62700
C  7.36800 4.56300 32.38300
C  7.32700 4.61300 30.78900
C  6.11400 3.92700 32.96600
C  9.86900 4.65200 33.02000
C  10.57000 4.19900 34.32500
H  10.72500 5.22000 35.41300
N  6.80900 4.81400 27.68900
C  6.09300 5.48400 28.64400
C  5.16200 6.33100 27.98300
C  5.27200 6.09500 26.58700
C  6.29100 5.02800 26.45000
C  4.31900 7.25500 28.82500
C  4.56500 6.81700 25.41300
O  4.84600 6.58200 24.23500
C  3.70400 7.93300 25.80200
N  8.40300 2.98600 25.92200
C  7.59500 3.44000 24.95700
C  7.96000 2.92700 23.53600
C  9.24000 2.07900 23.79300
C  9.30400 2.15100 25.33900
C  6.84200 2.16300 22.83700
C  10.58900 2.46100 23.18200
C  11.29800 1.33200 22.27200
N  9.76700 2.01100 28.30300
C  10.39600 1.19100 27.39200
C  11.32900 0.35700 28.12300
C  11.21400 0.73000 29.45500
C  10.22900 1.70000 29.54000
C  11.91400 -0.88600 27.60200
C  11.70500 0.45000 30.74000
O  12.50700 -0.39000 31.13100
C  10.88500 1.41000 31.72300
C  10.31900 0.44800 32.72900
O  9.31800 -0.22500 32.61800
O  11.05100 0.57600 33.85700
C  10.34700 0.23200 35.12800
H  5.72300 5.98300 30.75900
H  6.12300 4.73700 24.32800
H  10.75000 0.58100 25.34400
H  8.44200 2.96700 33.36300
H  7.44400 5.55500 32.82800
H  6.37900 3.03800 33.53900
H  5.28500 3.72000 32.29000
H  5.74400 4.58400 33.75400
H  9.45100 5.65500 33.10300
H  10.60800 4.70500 32.22100
H  11.42500 3.53500 34.20000
H  9.83000 3.67400 34.93000
H  4.68600 8.25000 28.57500
H  4.20800 7.08900 29.89700
H  3.30700 7.08200 28.46000
H  2.76500 7.54700 26.19600
H  3.48400 8.46700 24.87800
H  4.04000 8.75700 26.43300
H  8.27400 3.79400 22.95500
H  9.13000 1.06400 23.40900
H  5.98500 1.86500 23.44000
H  7.19700 1.29500 22.28200
H  6.32100 2.81900 22.13800
H  11.24400 2.76500 23.99800
H  10.43600 3.32500 22.53600
H  11.22700 1.58000 21.21300
H  10.85200 0.34800 22.41200
H  12.36600 1.20100 22.44100
H  11.24800 -1.53500 27.03300
H  12.33800 -1.51400 28.38500
H  12.77300 -0.66100 26.97000
H  11.62800 2.08700 32.14600
H  10.28300 -0.85500 35.19100
H  9.44500 0.81200 35.32200
H  10.98800 0.57900 35.93700

