158

Mg 47.33200 35.68600 27.08600
C  45.65300 33.76400 29.61100
C  47.25400 38.28800 29.38000
C  48.27300 37.66400 24.69700
C  46.77100 32.89400 24.86700
N  46.72200 35.87100 29.21000
C  46.14800 34.97000 29.99200
C  46.32000 35.51500 31.44500
C  46.43600 37.02900 31.39700
C  46.89700 37.10200 29.90000
C  45.16000 37.82700 31.73000
C  47.61000 34.78400 32.05700
C  47.53900 34.61000 33.56800
H  46.90700 35.67300 34.41600
N  47.96100 37.68200 27.10500
C  47.80700 38.64600 28.11200
C  48.33600 39.87500 27.67400
C  48.59400 39.73100 26.30200
C  48.29800 38.32000 25.96100
C  48.45200 41.12000 28.54900
C  49.18000 40.71800 25.29500
O  49.50200 40.43500 24.13000
C  49.55200 42.17100 25.65700
N  47.55100 35.30500 25.05400
C  47.99400 36.31800 24.29000
C  48.13900 35.77500 22.85100
C  47.96300 34.19900 22.94400
C  47.41400 34.15000 24.34500
C  47.20600 36.47400 21.78000
C  49.22100 33.35500 22.77400
C  49.11600 31.95800 22.11700
N  46.38700 33.71700 27.16800
C  46.25600 32.73900 26.20000
C  45.49400 31.63400 26.77100
C  45.24300 32.00400 28.06500
C  45.73900 33.29700 28.30100
C  45.26800 30.34900 26.09100
C  44.69200 31.54800 29.28700
O  44.23800 30.45500 29.61900
C  44.76900 32.73400 30.25700
C  45.14800 32.22300 31.60500
O  46.13200 31.48300 31.89400
O  44.22800 32.62700 32.55600
C  44.39800 32.06300 33.94800
H  47.08300 39.14800 30.03000
H  48.49000 38.29200 23.83000
H  46.59300 32.08400 24.15700
H  45.56200 35.19900 32.16200
H  47.18700 37.40900 32.08900
H  44.38200 37.06300 31.71300
H  45.05500 38.58200 30.95100
H  45.22700 38.33900 32.68900
H  48.54000 35.29800 31.81300
H  47.67700 33.78500 31.62700
H  48.60100 34.52600 33.79900
H  47.02500 33.65800 33.69700
H  49.47900 41.47900 28.49900
H  48.16400 40.87500 29.57200
H  47.73800 41.90700 28.30900
H  48.69700 42.44900 26.27300
H  49.61100 42.76700 24.74600
H  50.45700 42.16300 26.26400
H  49.11800 36.06800 22.47200
H  47.21400 33.84000 22.23900
H  46.37600 35.83200 21.48500
H  47.77300 36.78200 20.90200
H  46.77600 37.35800 22.25100
H  49.73000 33.17700 23.72100
H  50.01700 33.86500 22.23100
H  48.04600 31.90300 21.91600
H  49.36800 31.22400 22.88200
H  49.71500 31.86400 21.21100
H  46.09000 29.95100 25.49500
H  44.62800 30.55700 25.23300
H  44.87600 29.55200 26.72200
H  43.80100 33.22300 30.36200
H  44.96400 31.14800 34.12500
H  43.35900 31.94500 34.25500
H  44.76600 32.94000 34.48000
Mg -2.59700 35.12500 27.02300
C  -4.44000 33.05800 29.24300
C  -1.62500 36.90400 29.75300
C  -0.75600 36.84000 24.92700
C  -3.97000 33.35400 24.26600
N  -3.13100 35.09800 29.23400
C  -3.71400 34.05000 29.90800
C  -3.61400 34.18000 31.43900
C  -3.08800 35.60500 31.50200
C  -2.51600 35.95500 30.13200
C  -3.99900 36.73300 32.00500
C  -2.72400 32.99700 32.06800
C  -3.25400 32.38400 33.40200
H  -3.95500 33.36500 34.34300
N  -1.35000 36.59700 27.32000
C  -0.92300 37.10100 28.55600
C  0.03700 38.08800 28.24500
C  0.30900 38.09300 26.87400
C  -0.65200 37.11300 26.26900
C  0.56900 39.01100 29.31400
C  1.39800 38.88900 26.06800
O  1.51000 38.74700 24.87300
C  2.37500 39.71100 26.76400
N  -2.48000 35.19100 24.81900
C  -1.57900 35.97000 24.21700
C  -1.56900 35.79000 22.68200
C  -2.54900 34.59600 22.49500
C  -3.09200 34.35400 23.94100
C  -1.83200 37.16400 21.98900
C  -2.00300 33.39500 21.69000
C  -1.28600 32.26000 22.46900
N  -3.92200 33.57800 26.74600
C  -4.31300 32.95400 25.59200
C  -5.21600 31.86600 25.93000
C  -5.33300 31.87900 27.33400
C  -4.55000 32.99100 27.78700
C  -5.86100 30.89900 24.94000
C  -5.81200 31.15300 28.52300
O  -6.53100 30.18600 28.55400
C  -5.28600 31.85000 29.76000
C  -6.41300 32.34300 30.64200
O  -7.27100 33.13800 30.33800
O  -6.41800 31.58200 31.82100
C  -7.46400 31.88000 32.82100
H  -1.34300 37.60000 30.54700
H  0.00500 37.24900 24.25900
H  -4.18100 32.61600 23.48900
H  -4.58100 34.32200 31.92200
H  -2.28100 35.67700 32.23100
H  -4.33200 36.32100 32.95700
H  -4.87100 36.93600 31.38200
H  -3.39200 37.60100 32.26400
H  -1.75600 33.43600 32.30800
H  -2.66300 32.15400 31.37900
H  -2.44800 32.07400 34.06700
H  -3.90700 31.54100 33.17800
H  0.14300 39.00400 30.31700
H  0.57700 40.02200 28.90700
H  1.60500 38.71300 29.48200
H  1.81600 40.46900 27.31300
H  2.99900 40.16500 25.99400
H  2.96600 39.06800 27.41700
H  -0.60500 35.42800 22.32500
H  -3.48700 34.92200 22.04600
H  -0.95600 37.80400 22.09700
H  -2.74800 37.72000 22.19000
H  -1.87700 36.96400 20.91800
H  -1.36500 33.80700 20.90800
H  -2.67700 32.85000 21.02900
H  -0.48300 31.81700 21.88100
H  -1.96600 31.43300 22.67200
H  -0.78700 32.81800 23.26100
H  -6.70900 30.43200 25.44200
H  -5.11100 30.17600 24.62100
H  -6.18700 31.47000 24.07000
H  -4.52500 31.18600 30.16900
H  -7.11200 32.77400 33.33600
H  -7.51000 31.10400 33.58500
H  -8.45900 31.97800 32.38700

