158

Mg -2.00100 17.36300 26.57700
C  -2.63100 15.25900 29.28000
C  -2.85700 20.03800 28.62600
C  -1.52500 19.34700 23.99900
C  -1.53000 14.55000 24.69700
N  -2.67300 17.51600 28.67000
C  -2.82200 16.59200 29.58100
C  -3.03300 17.14300 30.98600
C  -3.29200 18.69300 30.69000
C  -2.95800 18.79100 29.21700
C  -4.57900 19.32100 31.28000
C  -1.83300 16.96500 32.03800
C  -2.32900 16.59200 33.50000
H  -1.30300 16.61900 34.59400
N  -2.26600 19.43400 26.28200
C  -2.53100 20.37600 27.28100
C  -2.41700 21.67200 26.69400
C  -2.01500 21.55500 25.37600
C  -1.95700 20.03500 25.17300
C  -2.95100 22.92100 27.38700
C  -1.87200 22.60000 24.30100
O  -1.66600 22.33300 23.12000
C  -1.64800 23.99700 24.69500
N  -1.74000 17.01900 24.53000
C  -1.57500 17.98300 23.62900
C  -1.22100 17.38800 22.22700
C  -0.90100 15.90300 22.58100
C  -1.40600 15.78600 24.05300
C  -2.21800 17.68600 21.05300
C  0.53000 15.54600 22.18000
C  1.69100 15.92500 23.14200
N  -2.17600 15.30900 26.81100
C  -1.99800 14.29300 25.94400
C  -2.25500 12.98700 26.57200
C  -2.54700 13.32900 27.92600
C  -2.42900 14.74100 27.98400
C  -2.11100 11.66200 25.88800
C  -2.84800 12.79100 29.23000
O  -2.99800 11.65700 29.62300
C  -2.92300 14.04800 30.14300
C  -1.78700 13.83400 31.05700
O  -0.60600 14.02600 30.79500
O  -2.18000 13.41800 32.30900
C  -1.16600 13.25500 33.29500
H  -3.17500 20.77400 29.36700
H  -1.22300 19.97400 23.15800
H  -1.14500 13.66700 24.18400
H  -3.88500 16.60900 31.40700
H  -2.51200 19.25800 31.20000
H  -5.13400 18.57000 31.84200
H  -5.27600 19.76800 30.57100
H  -4.19300 20.08400 31.95600
H  -1.29700 17.89500 32.22600
H  -1.11600 16.20800 31.72000
H  -2.63000 15.55500 33.34600
H  -3.15100 17.24400 33.79300
H  -3.31900 22.73900 28.39700
H  -3.76000 23.40100 26.83700
H  -2.08000 23.54900 27.57500
H  -2.56600 24.35700 25.15900
H  -1.43500 24.49500 23.74900
H  -0.82700 24.13100 25.39800
H  -0.24600 17.76900 21.92400
H  -1.60500 15.31700 21.99100
H  -3.22400 17.34900 21.30500
H  -1.81100 17.19300 20.17000
H  -2.37300 18.76300 20.99500
H  0.71700 15.60800 21.10800
H  0.39500 14.46500 22.21900
H  2.36300 16.40700 22.43200
H  2.11400 15.02000 23.58000
H  1.33100 16.56900 23.94400
H  -1.42200 11.79900 25.05400
H  -3.05400 11.21000 25.58100
H  -1.61200 11.02200 26.61600
H  -3.84500 14.08500 30.72300
H  -1.63300 13.16400 34.27600
H  -0.47300 14.09600 33.28400
H  -0.64100 12.39100 32.88800
Mg 47.96300 16.06600 28.19100
C  45.75400 15.85500 31.07700
C  49.91500 18.24100 30.19400
C  49.90500 16.70600 25.55200
C  45.67100 14.27400 26.37900
N  47.79600 16.99400 30.35700
C  46.89500 16.57300 31.38600
C  47.38000 17.16300 32.78900
C  48.54100 18.15700 32.32700
C  48.74900 17.75200 30.90300
C  48.28500 19.69100 32.39800
C  47.93300 16.10800 33.81300
C  47.69800 16.48600 35.27500
H  47.28000 17.90000 35.62500
N  49.67300 17.28800 27.91600
C  50.31900 18.04400 28.88800
C  51.50300 18.57800 28.38100
C  51.45100 18.30800 26.90300
C  50.30300 17.35800 26.72200
C  52.44000 19.45100 29.16900
C  52.34000 18.92000 25.76400
O  52.16400 18.69600 24.56400
C  53.52700 19.77800 26.12800
N  47.76300 15.61000 26.25700
C  48.74500 15.91800 25.35000
C  48.38800 15.35100 24.00200
C  47.21600 14.44000 24.28600
C  46.86700 14.74300 25.75000
C  48.16600 16.45000 22.99400
C  47.58900 12.92500 24.05100
C  46.96400 12.28700 22.79100
N  46.00100 15.27300 28.50500
C  45.20700 14.54300 27.64900
C  43.99200 14.16300 28.34800
C  44.13700 14.66000 29.70800
C  45.42700 15.32900 29.75800
C  42.87000 13.38700 27.75500
C  43.51900 14.70600 31.05200
O  42.46700 14.30900 31.48600
C  44.58500 15.38800 31.98500
C  44.00100 16.64100 32.62600
O  43.95900 17.69500 32.09900
O  43.53600 16.37500 33.87100
C  43.07300 17.55700 34.64000
H  50.59300 18.88900 30.75300
H  50.45000 16.97100 24.64400
H  45.12500 13.54500 25.77700
H  46.55100 17.80500 33.08300
H  49.46100 18.02000 32.89600
H  48.17100 20.12600 31.40500
H  49.16000 20.13200 32.87600
H  47.42600 19.94300 33.02100
H  49.00700 15.94100 33.72500
H  47.50500 15.12100 33.64000
H  48.63800 16.37100 35.81400
H  46.94200 15.81500 35.68400
H  52.94900 18.93000 29.98000
H  51.92400 20.22600 29.73500
H  53.29500 19.87700 28.64500
H  53.26600 20.75100 26.54500
H  53.98600 19.92400 25.15000
H  54.06800 19.16600 26.85000
H  49.25000 14.76100 23.69100
H  46.42200 14.73700 23.60000
H  48.94700 16.24300 22.26200
H  48.29500 17.46000 23.38500
H  47.30100 16.26900 22.35600
H  47.28100 12.31500 24.90000
H  48.67400 12.83100 24.01400
H  46.50000 11.34300 23.07600
H  47.75700 12.16900 22.05200
H  46.22100 12.89600 22.27500
H  43.11500 13.03800 26.75200
H  42.01900 14.05200 27.61000
H  42.62400 12.51400 28.35900
H  44.83400 14.66600 32.76300
H  42.01600 17.82500 34.63900
H  43.59100 18.49400 34.43700
H  43.49100 17.38600 35.63200

