158

Mg 25.83800 1.66900 29.26700
C  27.69500 1.18200 32.20500
C  22.96400 2.00400 31.27700
C  23.91700 1.36300 26.51100
C  28.71400 0.85300 27.26900
N  25.36500 1.54300 31.48500
C  26.30200 1.39500 32.49800
C  25.69100 1.57000 33.92800
C  24.19300 1.83400 33.52700
C  24.10100 1.73700 31.99700
C  23.10700 0.88600 34.18700
C  26.29000 2.75300 34.73600
C  25.46500 3.18200 35.94800
H  26.01200 3.00200 37.34600
N  23.75600 1.67100 28.97400
C  22.71100 1.84500 29.91200
C  21.48300 1.99700 29.13200
C  21.80500 1.86500 27.75900
C  23.22500 1.59800 27.74200
C  20.10200 2.12900 29.77000
C  20.87000 2.03600 26.55300
O  21.22800 2.10700 25.41500
C  19.34900 2.16200 26.76500
N  26.20300 1.09900 27.20800
C  25.25300 1.09500 26.32000
C  25.77800 0.88100 24.85600
C  27.35300 0.86500 25.00400
C  27.48700 0.99100 26.54800
C  25.10200 -0.42200 24.16400
C  28.10100 2.01000 24.18100
C  28.57500 1.60700 22.82600
N  27.85700 1.14500 29.56700
C  28.86700 0.89700 28.69900
C  30.09000 0.81000 29.46900
C  29.68100 0.81900 30.84600
C  28.29700 1.04800 30.85700
C  31.43300 0.63100 28.94600
C  30.10500 0.66000 32.21300
O  31.15300 0.31900 32.71500
C  28.90200 1.02500 33.14500
C  28.73600 -0.06200 34.11500
O  28.50200 -1.22400 33.79000
O  28.66800 0.39600 35.41800
C  28.85300 -0.55700 36.50400
H  22.13900 2.27900 31.93900
H  23.29900 1.17900 25.63000
H  29.62500 0.56400 26.74100
H  25.81400 0.69900 34.57200
H  23.96700 2.85600 33.83100
H  23.50800 0.27300 34.99400
H  22.90300 0.13400 33.42500
H  22.18700 1.42600 34.41200
H  26.43800 3.52300 33.97900
H  27.27400 2.47900 35.11500
H  24.53100 2.62900 35.85300
H  25.10600 4.19300 35.75400
H  19.31000 1.49400 29.37400
H  19.84000 3.14200 29.46400
H  20.10000 2.04700 30.85700
H  19.10000 1.15000 27.08600
H  18.88100 2.41200 25.81300
H  19.03400 2.94200 27.45800
H  25.55700 1.79400 24.30300
H  27.76200 -0.10000 24.70600
H  24.58900 -0.96100 24.96100
H  25.96600 -0.96900 23.78900
H  24.29300 -0.19900 23.46800
H  28.83100 2.51600 24.81300
H  27.28900 2.67400 23.88400
H  28.52600 0.52200 22.73000
H  29.65400 1.73200 22.73500
H  27.97500 2.05300 22.03300
H  31.49600 1.19400 28.01400
H  31.59600 -0.43000 28.75700
H  32.09800 1.05400 29.69800
H  29.12500 1.95600 33.66600
H  29.25100 0.03400 37.32900
H  29.40700 -1.46800 36.27600
H  27.80900 -0.82400 36.66800
Mg 29.80900 57.60800 40.66400
C  26.92500 55.89600 39.63200
C  31.75400 55.07700 39.19700
C  32.52900 59.57200 41.02000
C  27.78000 60.26400 41.70500
N  29.33800 55.77000 39.48100
C  28.12400 55.26600 39.22800
C  28.27400 53.94300 38.49200
C  29.77100 53.57500 38.65600
C  30.34600 54.84000 39.20700
C  29.95200 52.35700 39.67800
C  27.70500 53.91500 37.03800
C  27.74800 55.19000 36.23600
H  26.73400 55.34500 35.05300
N  31.86600 57.33200 40.20900
C  32.43300 56.23600 39.58600
C  33.87600 56.52500 39.43200
C  34.10900 57.81900 39.93800
C  32.83300 58.28300 40.51200
C  34.82900 55.57600 38.66700
C  35.52500 58.43400 40.07700
O  36.47100 57.78500 39.63400
C  35.88100 59.72700 40.80800
N  30.03700 59.64800 41.19900
C  31.28000 60.15300 41.29400
C  31.20900 61.66400 41.64200
C  29.67200 61.91000 42.02100
C  29.11000 60.54100 41.58600
C  32.17700 62.21300 42.66700
C  28.87500 63.12600 41.47300
C  28.31500 63.99300 42.51700
N  27.81400 58.00700 40.90800
C  27.12400 59.06600 41.38200
C  25.68600 58.85100 41.35900
C  25.55500 57.60000 40.78100
C  26.90300 57.08200 40.50800
C  24.55300 59.82200 41.68200
C  24.65000 56.68300 40.17200
O  23.44100 56.70200 40.00300
C  25.47000 55.51600 39.56300
C  25.17100 54.24600 40.31400
O  25.46700 54.01500 41.46700
O  24.34600 53.39200 39.58900
C  24.06400 52.06200 40.26700
H  32.40500 54.23200 38.96400
H  33.33000 60.29200 40.84300
H  27.19900 61.15000 41.97300
H  27.66600 53.15600 38.93900
H  30.24900 53.20800 37.74800
H  30.26100 51.47300 39.11900
H  29.04900 52.07200 40.21800
H  30.69800 52.64800 40.41700
H  26.74400 53.40800 36.95200
H  28.29900 53.18800 36.48500
H  28.73800 55.19900 35.78100
H  27.58300 56.10200 36.81000
H  34.26900 54.76400 38.20300
H  35.51800 55.10700 39.36900
H  35.44800 56.06900 37.91700
H  35.66400 60.52800 40.10000
H  36.95800 59.82400 40.94400
H  35.31700 59.78000 41.73900
H  31.45200 62.15400 40.69900
H  29.69600 61.96200 43.10900
H  31.66500 62.84000 43.39800
H  33.00100 62.71500 42.16000
H  32.48700 61.31400 43.20000
H  27.99900 62.83100 40.89500
H  29.38800 63.78500 40.77300
H  27.24000 63.87500 42.65300
H  28.65000 65.02300 42.39000
H  28.75200 63.86800 43.50800
H  24.69500 60.44000 42.56900
H  23.58100 59.34000 41.58200
H  24.69700 60.47300 40.81900
H  25.25000 55.38400 38.50400
H  23.70800 52.21800 41.28500
H  24.96400 51.45800 40.38300
H  23.30300 51.50200 39.72400

