158

Mg 1.53800 -0.78400 42.69000
C  4.98500 -0.63700 42.05700
C  1.06800 2.11700 41.06200
C  -1.74300 -1.46500 42.74100
C  2.13000 -4.15300 43.72300
N  2.94400 0.64600 41.70500
C  4.27300 0.43300 41.51700
C  4.77300 1.64100 40.70500
C  3.58500 2.63100 40.67300
C  2.41400 1.80700 41.17500
C  3.69800 3.93400 41.51200
C  5.44000 1.22400 39.33100
C  6.58700 2.18400 38.90300
H  6.54100 2.86100 37.60600
N  -0.12800 0.25100 42.12600
C  -0.12000 1.48600 41.50100
C  -1.48500 1.86500 41.25400
C  -2.30400 0.89400 41.87200
C  -1.42300 -0.19100 42.25700
C  -1.87600 3.21000 40.70100
C  -3.75300 1.05900 42.03100
O  -4.31800 2.10500 41.70600
C  -4.58700 0.10200 42.75400
N  0.34700 -2.59500 43.06400
C  -0.95300 -2.52900 43.10000
C  -1.54700 -3.85200 43.64400
C  -0.25900 -4.74000 44.00100
C  0.79800 -3.84400 43.45500
C  -2.71500 -4.03000 44.70400
C  -0.18500 -6.12300 43.28400
C  0.17300 -7.29400 44.22100
N  3.18600 -2.00900 43.20900
C  3.27600 -3.32100 43.55700
C  4.61400 -3.66200 43.88200
C  5.43000 -2.67200 43.24600
C  4.45800 -1.66300 42.84200
C  5.19600 -4.88100 44.53600
C  6.75000 -2.24700 42.88900
O  7.85800 -2.68400 43.09700
C  6.47900 -0.95200 42.02500
C  7.30000 0.20800 42.54800
O  7.45600 0.52600 43.73600
O  7.90500 0.79700 41.50100
C  8.65200 2.01300 41.77700
H  1.03500 3.07500 40.53900
H  -2.77400 -1.81900 42.79800
H  2.41600 -5.06100 44.25700
H  5.48600 2.16700 41.34000
H  3.47200 2.83100 39.60800
H  4.55000 3.94000 42.19200
H  2.83200 3.88700 42.17200
H  3.60200 4.84100 40.91400
H  4.70000 1.09000 38.54200
H  5.90400 0.26000 39.53900
H  7.53100 1.64000 38.89700
H  6.70000 2.94000 39.68000
H  -2.80200 3.30600 40.13400
H  -1.07600 3.63600 40.09700
H  -1.90900 3.78000 41.63000
H  -5.62200 0.43300 42.66600
H  -4.34800 -0.03600 43.80800
H  -4.32600 -0.77300 42.15900
H  -1.86900 -4.29500 42.70200
H  -0.24800 -4.84400 45.08500
H  -3.52100 -4.48400 44.12700
H  -3.10600 -3.05900 45.00800
H  -2.50300 -4.78000 45.46600
H  0.50500 -6.15100 42.44100
H  -1.16000 -6.40200 42.88400
H  0.29100 -6.99800 45.26400
H  1.05800 -7.81200 43.85400
H  -0.63700 -8.01900 44.14000
H  6.21500 -4.66800 44.86000
H  5.11400 -5.67000 43.78900
H  4.54200 -5.05500 45.39100
H  6.84000 -1.29400 41.05500
H  8.27300 2.65900 42.56900
H  8.77100 2.50700 40.81300
H  9.67400 1.72700 42.02200
Mg 30.39100 58.52100 39.09900
C  27.40700 56.66500 37.77000
C  32.22600 55.81100 37.93500
C  33.09900 60.33800 39.22000
C  28.35500 61.35400 39.23800
N  29.76500 56.36100 38.28300
C  28.59400 55.91000 37.82900
C  28.77300 54.52700 37.19000
C  30.26800 54.19900 37.50300
C  30.82000 55.49100 38.02000
C  30.48100 53.08600 38.52700
C  28.43300 54.50300 35.66800
C  27.62200 53.25000 35.21900
H  26.88300 53.39500 33.91800
N  32.38500 58.05300 38.75500
C  32.92600 56.90100 38.31600
C  34.41100 56.95800 38.25500
C  34.65100 58.37200 38.51800
C  33.35000 58.99700 38.85600
C  35.36600 55.87700 37.91900
C  36.01900 59.02500 38.57300
O  36.95500 58.35900 38.08100
C  36.35600 60.45700 39.02900
N  30.67500 60.50200 39.07100
C  31.87200 61.05000 39.26300
C  31.81000 62.51600 39.75700
C  30.32300 62.82900 39.65000
C  29.72500 61.47700 39.30500
C  32.35500 62.80200 41.16700
C  30.00100 63.98200 38.63700
C  28.89400 64.98100 39.00200
N  28.25500 58.91200 38.79200
C  27.69300 60.12700 38.83400
C  26.29900 59.99600 38.46000
C  26.11300 58.69000 37.93700
C  27.30100 58.00100 38.22100
C  25.37600 61.14800 38.39300
C  25.29300 57.73200 37.28000
O  24.16000 57.95600 36.79000
C  26.08600 56.37800 37.18600
C  25.45100 55.25500 37.99800
O  25.43900 55.07900 39.21200
O  25.03700 54.34100 37.04300
C  24.74600 53.03900 37.67600
H  32.71000 54.84400 37.78100
H  33.96100 60.97100 39.44200
H  27.71900 62.22800 39.39700
H  28.10500 53.82900 37.69500
H  30.83200 53.95200 36.60400
H  30.45300 52.10100 38.06200
H  29.73500 53.17200 39.31700
H  31.52000 53.18600 38.83900
H  29.39900 54.45300 35.16500
H  27.98600 55.45400 35.37900
H  26.78300 53.04100 35.88300
H  28.35800 52.45700 35.08200
H  35.37900 55.66000 36.85100
H  34.90900 54.96800 38.31100
H  36.39500 56.03300 38.24300
H  37.44000 60.56700 39.08100
H  35.90900 60.76100 39.97600
H  36.02800 61.18500 38.28800
H  32.34800 63.18300 39.08300
H  29.89700 63.07000 40.62400
H  32.52700 61.86000 41.68600
H  31.79100 63.57200 41.69300
H  33.32200 63.24800 40.93500
H  29.86800 63.54400 37.64800
H  30.87000 64.63600 38.55700
H  28.37700 64.45900 39.80700
H  28.38900 65.25700 38.07700
H  29.20300 65.96900 39.34300
H  25.28600 61.54000 37.38000
H  25.59200 62.00800 39.02700
H  24.35000 60.81600 38.55100
H  26.12100 56.13900 36.12300
H  24.30600 52.35300 36.95200
H  24.04700 53.10000 38.51000
H  25.61200 52.58100 38.15500

