158

Mg 9.29900 4.17800 28.02600
C  10.52300 2.28200 30.79200
C  7.47100 5.99200 30.16200
C  7.87500 5.48200 25.42900
C  10.57800 1.42800 26.02100
N  8.97300 3.95600 30.25200
C  9.66000 3.30100 31.19900
C  9.29800 3.82000 32.62200
C  8.12500 4.87200 32.34200
C  8.13900 4.95500 30.85200
C  6.81100 4.50000 33.05000
C  10.51900 4.38400 33.45700
C  10.68000 3.82200 34.89200
H  10.96800 4.82700 35.98800
N  7.88900 5.63400 27.79000
C  7.34200 6.34900 28.77700
C  6.56300 7.46200 28.20400
C  6.77300 7.31200 26.77900
C  7.60800 6.17200 26.62900
C  5.86900 8.46500 29.03600
C  6.19200 8.12100 25.72700
O  6.39300 7.89700 24.52800
C  5.24100 9.34700 26.00000
N  9.23100 3.47700 25.96000
C  8.53500 4.29400 25.06300
C  8.74500 3.81900 23.60700
C  9.54400 2.48400 23.80700
C  9.80800 2.41000 25.35500
C  7.40500 3.65400 22.87700
C  10.77000 2.29700 22.93400
C  10.96300 0.98700 22.23200
N  10.44300 2.33900 28.26500
C  10.98600 1.43700 27.37100
C  11.92900 0.53700 28.10200
C  11.77700 0.83600 29.42200
C  10.86000 1.87900 29.49400
C  12.88500 -0.42300 27.43200
C  12.23300 0.44800 30.73700
O  13.09800 -0.38400 31.10100
C  11.47800 1.45100 31.70000
C  10.76400 0.62400 32.72900
O  9.69600 0.07900 32.51500
O  11.48300 0.57000 33.90300
C  10.76100 0.02200 35.07000
H  6.92500 6.68600 30.80500
H  7.48300 5.88000 24.49100
H  11.04300 0.74500 25.30700
H  8.94200 2.90100 33.08700
H  8.38800 5.81900 32.81400
H  6.05000 4.23600 32.31600
H  6.65800 5.48100 33.50000
H  6.87800 3.69600 33.78400
H  10.56200 5.47300 33.46500
H  11.37600 4.12000 32.83800
H  11.38600 2.99100 34.91000
H  9.69900 3.37600 35.05700
H  6.19800 8.47800 30.07500
H  4.84200 8.10300 29.06500
H  6.01600 9.53100 28.86400
H  4.35400 8.88700 26.43600
H  4.77500 9.76900 25.11000
H  5.62300 10.08500 26.70600
H  9.39200 4.60200 23.21100
H  8.86200 1.67700 23.53900
H  6.63500 3.67700 23.64900
H  7.35600 2.69900 22.35400
H  7.07500 4.45200 22.21100
H  11.65400 2.49400 23.54100
H  10.61800 3.00300 22.11700
H  10.03400 0.46300 22.00700
H  11.38200 0.33500 22.99900
H  11.47500 1.07600 21.27400
H  13.21800 0.17500 26.58400
H  12.52800 -1.36200 27.00800
H  13.74800 -0.73000 28.02100
H  12.19500 2.02200 32.28900
H  9.98400 -0.70700 34.84100
H  10.42600 0.77300 35.78600
H  11.56800 -0.57400 35.49700
Mg 10.27400 47.67900 26.66100
C  8.11300 47.95900 29.49300
C  12.89700 48.61300 28.47900
C  12.01900 47.43600 23.88300
C  7.21900 47.19900 24.79500
N  10.40800 48.31600 28.66800
C  9.48000 48.31100 29.69200
C  10.14600 48.55300 31.03700
C  11.50300 49.22100 30.60900
C  11.62800 48.70800 29.17000
C  11.70700 50.76500 30.72400
C  10.32200 47.26800 31.85600
C  10.27000 47.47800 33.36700
H  10.20700 46.22500 34.31500
N  12.24500 47.96400 26.24600
C  13.22600 48.26100 27.16800
C  14.50900 48.08300 26.46800
C  14.22200 47.78200 25.13900
C  12.76300 47.72900 25.02200
C  15.77100 48.27500 27.10700
C  15.14600 47.55400 24.05400
O  14.73300 47.40700 22.88300
C  16.65600 47.63100 24.18200
N  9.64400 47.55700 24.55200
C  10.61000 47.32500 23.62500
C  9.95000 47.03100 22.32000
C  8.44300 46.86500 22.60600
C  8.37100 47.14000 24.09500
C  10.29100 48.01600 21.16000
C  7.81100 45.52300 22.26700
C  6.30800 45.64100 21.92400
N  8.05400 47.58300 26.98800
C  6.99900 47.33800 26.19100
C  5.71700 47.32600 26.97500
C  6.13300 47.59800 28.23700
C  7.57000 47.62100 28.22000
C  4.30900 47.02500 26.39500
C  5.67600 47.87600 29.62800
O  4.56900 47.92900 30.17700
C  6.99700 47.82900 30.44000
C  7.15000 46.50800 31.10800
O  7.59300 45.48800 30.58700
O  6.72300 46.63500 32.38700
C  6.63700 45.39400 32.97700
H  13.76500 48.87600 29.08700
H  12.60800 47.18000 23.00000
H  6.32000 47.25500 24.17700
H  9.63300 49.24800 31.70300
H  12.30500 48.92900 31.28700
H  11.58800 51.22100 29.74100
H  12.65400 50.91700 31.24400
H  10.88300 51.17100 31.31100
H  11.32800 46.88600 31.68100
H  9.63100 46.48300 31.54800
H  9.31600 47.97500 33.54700
H  11.15100 48.07200 33.60900
H  15.81800 48.24400 28.19600
H  15.98500 49.33000 26.93800
H  16.59100 47.61800 26.81700
H  17.07100 47.66500 23.17400
H  16.84400 46.70800 24.73100
H  16.86300 48.55600 24.71800
H  10.36500 46.05700 22.06100
H  7.99700 47.77100 22.19700
H  10.75400 48.92600 21.53900
H  9.36900 48.32500 20.66600
H  10.91300 47.43300 20.48100
H  7.84300 44.74700 23.03100
H  8.32900 45.08500 21.41400
H  6.00900 46.66300 22.15700
H  5.70300 44.92900 22.48500
H  6.15500 45.54500 20.84900
H  3.87200 47.95700 26.03500
H  3.73300 46.49000 27.15000
H  4.47400 46.34700 25.55800
H  6.85000 48.51400 31.27500
H  6.27600 45.57700 33.98800
H  7.58800 44.86100 32.98300
H  5.82300 44.88200 32.46300

