158

Mg 46.66400 34.70900 28.33300
C  45.16000 33.01000 30.94800
C  47.45000 37.12200 30.48400
C  47.56600 36.53600 25.65700
C  45.29200 32.34200 26.03600
N  46.30000 34.93700 30.49700
C  45.78500 34.15500 31.38600
C  46.02800 34.60100 32.88400
C  46.48300 35.97900 32.56500
C  46.84300 35.97900 31.09700
C  45.38800 37.15800 32.93800
C  47.00300 33.72300 33.62400
C  47.02300 33.65500 35.13300
H  46.38500 34.83400 35.82900
N  47.50300 36.51900 28.14900
C  47.70300 37.41400 29.14800
C  48.29600 38.53600 28.54100
C  48.41000 38.38400 27.11800
C  47.85800 37.04600 26.94500
C  49.06000 39.45100 29.54800
C  49.15500 39.13100 26.07000
O  49.33200 38.73000 24.91400
C  49.61300 40.57600 26.42000
N  46.53300 34.39900 26.13400
C  46.85600 35.42400 25.28100
C  46.33200 35.16500 23.85800
C  45.62600 33.75200 23.96500
C  45.93600 33.37300 25.47000
C  45.64300 36.41900 23.23700
C  45.96700 32.53100 23.00100
C  44.79400 31.68400 22.47200
N  45.48100 32.99600 28.42200
C  45.10400 32.09900 27.40900
C  44.43600 30.97300 28.04300
C  44.37300 31.35300 29.37800
C  45.08000 32.56100 29.59500
C  43.72100 29.74900 27.31700
C  43.76500 31.02300 30.68500
O  43.08900 30.07600 31.00300
C  44.11900 32.20600 31.61300
C  44.27700 31.83800 33.10400
O  45.06000 31.04200 33.61200
O  43.32100 32.52900 33.80900
C  43.09900 32.00900 35.19100
H  47.79300 37.82200 31.24800
H  47.61900 37.33100 24.91000
H  44.59600 31.70900 25.48100
H  45.09400 34.63100 33.44400
H  47.40700 36.21500 33.09200
H  45.30900 37.79400 32.05600
H  45.79300 37.62300 33.83700
H  44.40400 36.73200 33.13400
H  48.01200 34.08900 33.43300
H  46.97100 32.71800 33.20500
H  48.02100 33.51200 35.54600
H  46.24700 32.91100 35.31400
H  49.31100 40.29600 28.90700
H  49.93300 38.85100 29.80400
H  48.51700 39.64300 30.47300
H  48.83900 41.16800 26.90700
H  49.92300 41.03100 25.48000
H  50.50400 40.46500 27.04000
H  47.23200 35.04500 23.25500
H  44.55000 33.90900 23.89300
H  45.54000 37.18500 24.00600
H  44.63700 36.19400 22.88300
H  46.29400 36.78800 22.44500
H  46.79100 31.91900 23.36700
H  46.46800 33.07900 22.20300
H  44.55000 31.86600 21.42500
H  43.85800 31.83800 23.01000
H  45.06400 30.65200 22.69300
H  44.33100 29.06100 26.73300
H  42.98100 30.16600 26.63400
H  43.30500 29.13100 28.11300
H  43.13900 32.68300 31.58200
H  42.78000 30.96700 35.14100
H  42.39700 32.72000 35.62500
H  43.99300 32.01300 35.81400
Mg -9.69100 17.56600 42.58300
C  -6.39700 16.71800 42.02300
C  -8.89900 20.71600 41.46400
C  -13.06400 18.14600 42.30700
C  -10.49900 14.21000 43.07500
N  -7.84900 18.61200 41.90500
C  -6.58400 18.09100 41.81500
C  -5.48100 19.04200 41.39200
C  -6.31400 20.31900 41.16100
C  -7.79100 19.86600 41.51600
C  -5.82100 21.64000 42.01300
C  -4.63400 18.72800 40.14400
C  -5.41300 17.90500 38.99900
H  -5.40200 18.60300 37.62400
N  -10.80800 19.21000 42.21500
C  -10.30000 20.41600 41.73400
C  -11.41900 21.38000 41.61100
C  -12.61900 20.62600 41.89500
C  -12.19500 19.26900 42.14600
C  -11.24700 22.80800 41.16500
C  -13.95300 21.29400 41.96300
O  -14.18800 22.34700 41.36700
C  -15.13400 20.59900 42.63400
N  -11.54300 16.33500 42.61700
C  -12.75500 16.87100 42.66000
C  -13.81500 15.90000 43.15400
C  -12.99600 14.60900 43.48300
C  -11.54700 15.11000 43.01400
C  -14.63200 16.44400 44.41000
C  -13.43400 13.39000 42.61900
C  -13.84000 12.20100 43.48200
N  -8.69600 15.80400 42.68800
C  -9.10600 14.50500 42.88300
C  -7.96900 13.61100 42.94300
C  -6.89200 14.47700 42.61200
C  -7.37400 15.73700 42.38400
C  -7.88900 12.13700 43.40100
C  -5.46400 14.52100 42.42100
O  -4.75400 13.60200 42.51200
C  -5.03300 16.01300 41.99500
C  -4.19800 16.42600 43.16100
O  -3.01200 16.84300 43.11600
O  -4.91800 16.31600 44.30900
C  -4.33100 16.51100 45.59700
H  -8.69100 21.70000 41.03900
H  -14.14100 18.32100 42.34800
H  -10.72400 13.15800 43.26300
H  -4.83100 19.11400 42.26400
H  -6.44200 20.60100 40.11600
H  -5.54200 22.40100 41.28500
H  -4.94900 21.39500 42.61800
H  -6.55300 22.09400 42.68200
H  -3.78700 18.21100 40.59300
H  -4.30000 19.69100 39.75700
H  -6.43800 17.71200 39.31600
H  -4.99600 16.91500 38.81600
H  -10.33400 23.34600 41.42300
H  -11.97400 23.50400 41.58400
H  -11.33900 22.83400 40.07900
H  -14.83000 20.03600 43.51600
H  -15.62700 19.87300 41.98800
H  -15.92000 21.33400 42.80800
H  -14.45000 15.81700 42.27200
H  -13.02600 14.42500 44.55700
H  -15.71600 16.36900 44.32200
H  -14.43500 17.48400 44.66800
H  -14.35600 15.77600 45.22600
H  -12.57100 13.14600 42.00000
H  -14.29800 13.61900 41.99600
H  -14.92800 12.22500 43.54500
H  -13.40000 12.32100 44.47200
H  -13.59200 11.23000 43.05300
H  -7.16600 11.66400 42.73700
H  -8.87100 11.66400 43.36400
H  -7.60300 12.11700 44.45300
H  -4.47200 15.94200 41.06300
H  -4.93700 15.95500 46.31200
H  -4.31000 17.57600 45.82600
H  -3.28900 16.19000 45.62100

