158

Mg 35.58800 2.15800 29.90600
C  33.25300 3.08100 32.29700
C  37.95700 2.03600 32.41700
C  37.98000 1.43100 27.57300
C  33.25000 2.62400 27.43900
N  35.63000 2.67800 32.01600
C  34.48800 2.84700 32.86000
C  34.86900 2.69400 34.36500
C  36.42100 2.63700 34.33700
C  36.71000 2.43200 32.83000
C  37.18500 3.80900 34.97800
C  34.16500 1.44500 35.06500
C  33.63900 1.71700 36.46000
H  34.31900 2.73300 37.34000
N  37.71800 1.76300 29.98900
C  38.47800 1.79400 31.06500
C  39.88000 1.42700 30.70800
C  39.87700 1.19600 29.30500
C  38.46200 1.45500 28.87200
C  40.97800 1.49100 31.73400
C  41.14300 0.92000 28.34900
O  41.05500 0.69700 27.13900
C  42.48200 0.80300 28.94000
N  35.63100 2.08000 27.83100
C  36.76000 1.77600 27.04400
C  36.36600 1.80600 25.57300
C  34.88200 2.11200 25.57100
C  34.50800 2.22600 27.03800
C  37.22100 2.75300 24.79800
C  33.96100 1.04100 24.85300
C  33.35200 -0.22200 25.61700
N  33.60000 2.67700 29.86100
C  32.78300 2.78000 28.78500
C  31.51400 3.13200 29.27300
C  31.60600 3.24600 30.67700
C  32.91700 3.00200 30.93000
C  30.37900 3.65000 28.49000
C  30.93800 3.64000 31.81800
O  29.76500 3.91500 32.04600
C  32.00000 3.43800 32.97300
C  32.15300 4.78300 33.68900
O  32.39800 5.82700 33.18400
O  31.95900 4.70500 35.02100
C  32.19000 6.01500 35.71500
H  38.79100 2.03900 33.12200
H  38.74400 1.17300 26.83700
H  32.46000 2.81300 26.70900
H  34.53100 3.57700 34.90700
H  36.78300 1.74300 34.84500
H  37.94700 3.51100 35.69800
H  36.51900 4.40200 35.60500
H  37.60400 4.43600 34.19000
H  34.81200 0.57600 35.18400
H  33.33700 1.07800 34.45800
H  33.60300 0.80800 37.06000
H  32.61500 2.04900 36.29300
H  41.74300 0.71600 31.67600
H  40.62400 1.48400 32.76500
H  41.44200 2.47400 31.65400
H  42.58400 1.80200 29.36400
H  43.22400 0.66400 28.15400
H  42.57000 -0.01700 29.65400
H  36.69600 0.85100 25.16400
H  34.61400 3.07100 25.12800
H  36.73400 3.26800 23.97000
H  38.10200 2.21500 24.44700
H  37.57900 3.53500 25.46700
H  34.40800 0.80600 23.88700
H  33.02500 1.55800 24.64400
H  33.87000 -0.30900 26.57200
H  33.56900 -1.15600 25.09700
H  32.26500 -0.15800 25.65400
H  30.54000 3.68000 27.41200
H  30.17500 4.69000 28.74300
H  29.46800 3.05600 28.56500
H  31.60600 2.77100 33.73900
H  31.38600 6.74900 35.75900
H  33.07900 6.54900 35.38000
H  32.39700 5.85000 36.77200
Mg 30.48300 57.86300 40.26100
C  27.63400 56.11600 39.04000
C  32.38900 55.12800 39.30900
C  33.22600 59.77600 40.42500
C  28.45000 60.60700 40.87300
N  30.04100 55.86000 39.04500
C  28.78300 55.31000 38.90500
C  28.86000 53.83800 38.52500
C  30.36400 53.44200 39.02000
C  30.98200 54.90100 39.15400
C  30.51500 52.52600 40.25600
C  28.67100 53.66100 37.02200
C  28.90900 54.79000 36.02500
H  28.01000 54.93300 34.78000
N  32.52000 57.49600 39.93900
C  33.11700 56.29700 39.54900
C  34.51000 56.48500 39.31100
C  34.76300 57.91600 39.51400
C  33.44800 58.49400 39.93700
C  35.35900 55.31200 38.87600
C  36.02300 58.62300 39.29300
O  37.06800 58.00900 39.05700
C  36.20000 60.17700 39.28800
N  30.83000 59.94200 40.61000
C  32.02900 60.47200 40.74100
C  31.91200 62.02800 41.06800
C  30.35000 62.20500 41.26300
C  29.84100 60.86900 40.86400
C  32.82000 62.52700 42.21200
C  29.74800 63.32700 40.34000
C  28.71100 64.40300 40.87800
N  28.48200 58.27200 40.03300
C  27.78800 59.41200 40.41200
C  26.37300 59.26100 40.11900
C  26.25800 57.97800 39.56500
C  27.55100 57.46100 39.53300
C  25.32000 60.29300 40.31200
C  25.33600 57.02200 39.03100
O  24.13800 57.09800 39.01700
C  26.20000 55.62000 38.81000
C  25.72300 54.66200 39.84300
O  25.61400 55.02100 40.98800
O  25.31300 53.48900 39.32100
C  24.57800 52.49600 40.14100
H  32.91600 54.19300 39.10900
H  34.06500 60.47100 40.50000
H  27.83800 61.49000 41.06600
H  28.09900 53.23600 39.02200
H  30.79500 52.80100 38.25000
H  31.00300 51.56000 40.12500
H  29.54900 52.32900 40.72100
H  31.11300 53.02500 41.01900
H  27.66800 53.30100 36.79600
H  29.35200 52.84300 36.78400
H  29.84600 54.51700 35.54000
H  28.83700 55.78100 36.47400
H  36.30200 55.62800 38.43000
H  34.91500 54.55400 38.23100
H  35.64300 54.79000 39.79000
H  36.14600 60.57200 40.30200
H  35.44400 60.71200 38.71300
H  37.08800 60.54900 38.77800
H  32.26300 62.53900 40.17100
H  30.09300 62.35700 42.31100
H  33.35200 61.68000 42.64400
H  32.22600 62.91200 43.04100
H  33.46700 63.33400 41.87000
H  29.38700 62.83300 39.43800
H  30.60800 63.87100 39.94900
H  29.24800 65.34000 41.02400
H  28.40300 64.12700 41.88700
H  27.79400 64.53300 40.30300
H  24.75900 60.05300 41.21600
H  24.63800 60.43500 39.47400
H  25.77300 61.26100 40.52600
H  25.96600 55.15100 37.85400
H  24.92200 52.41900 41.17200
H  24.54400 51.52100 39.65500
H  23.56000 52.88500 40.11900

