158

Mg 5.66200 54.83300 39.74500
C  3.44600 52.19400 40.28500
C  7.99800 52.51400 38.58400
C  7.74000 57.40900 38.87700
C  3.09700 57.07000 40.33100
N  5.60900 52.67300 39.27700
C  4.63600 51.79400 39.62600
C  4.93700 50.33500 39.10300
C  6.50200 50.48400 38.82300
C  6.74900 52.03100 38.91500
C  7.41200 49.61500 39.75900
C  4.15800 50.04600 37.75200
C  4.14200 48.59800 37.24500
H  4.79200 48.45000 35.83400
N  7.62800 54.96800 38.99500
C  8.40000 53.90500 38.61200
C  9.72400 54.40100 38.42600
C  9.75900 55.82300 38.41400
C  8.32300 56.13500 38.79200
C  10.84400 53.41500 38.18300
C  10.93900 56.74600 38.13500
O  12.02400 56.18700 37.98500
C  10.77900 58.22400 38.01900
N  5.44900 56.88300 39.51300
C  6.42200 57.77400 39.16100
C  5.86300 59.21800 39.07600
C  4.39100 59.07200 39.54700
C  4.30100 57.55600 39.78600
C  6.71900 60.36400 39.67500
C  3.43200 59.78600 38.59700
C  2.92600 61.18000 39.05400
N  3.62300 54.72600 40.24400
C  2.73600 55.76200 40.56900
C  1.43200 55.14200 40.93900
C  1.72300 53.78400 40.98600
C  2.98800 53.55700 40.47500
C  0.12100 55.86900 41.17000
C  1.16400 52.50000 41.27800
O  0.03800 52.15600 41.67300
C  2.23000 51.45300 40.83200
C  1.59100 50.53800 40.02900
O  1.00300 50.81300 39.01300
O  1.71700 49.27300 40.49300
C  1.21200 48.23100 39.65400
H  8.71400 51.72200 38.35600
H  8.36700 58.29500 38.75400
H  2.39400 57.85200 40.62600
H  4.65400 49.68000 39.92700
H  6.78500 50.13600 37.83000
H  7.62100 50.26600 40.60800
H  8.27400 49.33300 39.15400
H  6.92600 48.69900 40.09500
H  4.32800 50.86000 37.04700
H  3.13700 50.18900 38.10700
H  3.13200 48.21400 37.10200
H  4.58900 47.87800 37.93100
H  10.45800 52.48600 37.76200
H  11.35500 53.14700 39.10800
H  11.47300 53.87100 37.41900
H  10.19400 58.41100 37.11800
H  11.80000 58.54200 37.81100
H  10.50500 58.76200 38.92600
H  5.80900 59.39900 38.00300
H  4.27700 59.52700 40.53100
H  7.51900 59.86600 40.22300
H  6.13700 60.93900 40.39400
H  7.09400 61.00800 38.87900
H  2.55800 59.18700 38.34200
H  3.94300 59.95100 37.64900
H  2.66900 61.80100 38.19600
H  3.75600 61.66700 39.56500
H  2.04300 61.08200 39.68500
H  0.18300 56.95000 41.28900
H  -0.31700 55.43000 42.06600
H  -0.60700 55.61700 40.40000
H  2.57900 50.86500 41.68200
H  1.21200 48.34100 38.57000
H  0.14000 48.17000 39.84000
H  1.68300 47.30200 39.97600
Mg 1.95500 41.82100 25.55300
C  3.06200 41.82800 28.92500
C  -1.00000 40.08500 26.74800
C  1.03000 41.00200 22.35700
C  5.04800 42.89300 24.50300
N  1.03200 41.26800 27.61600
C  1.71200 41.34000 28.81300
C  0.73700 41.07700 29.96700
C  -0.44300 40.38200 29.27800
C  -0.11600 40.48400 27.77900
C  -0.86500 38.98100 29.76400
C  0.38600 42.38100 30.87900
C  -0.21600 42.05600 32.29300
H  -1.53300 41.28900 32.28600
N  0.24800 40.66800 24.63600
C  -0.80600 40.12500 25.38800
C  -1.76400 39.61200 24.36100
C  -1.24100 39.91500 23.07700
C  0.04900 40.52800 23.29200
C  -3.11200 38.89300 24.67800
C  -1.75800 39.67100 21.66200
O  -1.12100 39.83000 20.63300
C  -3.08000 39.15500 21.42500
N  2.95200 41.74600 23.73000
C  2.32000 41.52700 22.54600
C  3.20000 41.99600 21.37200
C  4.28600 42.82800 22.01400
C  4.15300 42.42800 23.51200
C  3.63800 40.83500 20.35600
C  3.98900 44.34500 21.85000
C  3.94200 44.92300 20.48600
N  3.69300 42.33200 26.44100
C  4.89100 42.76000 25.92000
C  5.82500 43.15900 26.94400
C  5.14900 42.83400 28.13300
C  3.86400 42.24400 27.79700
C  7.09400 43.81500 26.66300
C  5.28000 42.86400 29.57500
O  6.13800 43.32300 30.33800
C  4.01400 42.06100 30.13400
C  4.43000 40.76200 30.84100
O  4.94400 39.71400 30.33600
O  4.41200 40.92100 32.19800
C  4.83000 39.73400 32.99200
H  -1.87200 39.46800 26.97300
H  0.83400 40.88000 21.29000
H  6.01800 43.32100 24.24500
H  1.24900 40.35300 30.60100
H  -1.32700 41.01900 29.30000
H  -1.90000 38.83100 30.07000
H  -0.25100 38.75200 30.63500
H  -0.66100 38.26400 28.96800
H  -0.28300 43.05500 30.34200
H  1.27300 42.98400 31.07100
H  -0.43400 43.08200 32.59000
H  0.64900 41.66800 32.83200
H  -3.39600 39.09400 25.71100
H  -3.13300 37.81600 24.51200
H  -3.98800 39.22900 24.12400
H  -2.97800 38.16800 21.87800
H  -3.36600 38.97800 20.38800
H  -3.87600 39.75800 21.86400
H  2.56000 42.66300 20.79400
H  5.28200 42.75000 21.57800
H  3.64400 39.87600 20.87400
H  4.68300 40.94000 20.06500
H  3.10400 40.86400 19.40600
H  4.81500 44.84300 22.35700
H  3.05600 44.61000 22.34800
H  4.27500 44.11800 19.83000
H  4.66200 45.74100 20.49000
H  2.92100 45.26600 20.32000
H  7.96700 43.18900 26.85000
H  7.05100 44.44500 27.55100
H  7.02500 44.41100 25.75300
H  3.50300 42.58200 30.94400
H  4.24200 39.93200 33.88900
H  5.91300 39.82800 33.06300
H  4.39900 38.82400 32.57300

