158

Mg 53.50800 25.78200 45.87300
C  50.75500 27.65600 44.76100
C  52.16800 23.08800 44.16200
C  56.51200 24.15800 46.13100
C  54.96200 28.68600 46.92500
N  51.87100 25.52600 44.27700
C  50.83100 26.39000 44.16300
C  49.70400 25.75000 43.23000
C  49.96200 24.27700 43.58300
C  51.43900 24.27400 44.03500
C  49.01700 23.67900 44.66700
C  49.87100 26.05000 41.72400
C  48.66500 25.92500 40.75600
H  48.83800 25.27900 39.33000
N  54.20700 23.82600 45.35700
C  53.47400 22.87600 44.72100
C  54.21200 21.65800 44.70100
C  55.42600 21.95400 45.29900
C  55.41800 23.36600 45.67200
C  53.60300 20.36900 44.09600
C  56.58400 21.00400 45.37400
O  56.44900 19.91200 44.84200
C  57.90200 21.25800 46.03500
N  55.48000 26.31300 46.22800
C  56.49900 25.52500 46.33700
C  57.78800 26.20200 46.89100
C  57.31400 27.67700 46.96200
C  55.78300 27.60100 46.64300
C  58.52800 25.64000 48.18700
C  58.14300 28.65100 46.08400
C  58.38400 30.03400 46.64800
N  52.93700 27.80700 45.92100
C  53.55500 28.83800 46.55100
C  52.73900 29.95300 46.58300
C  51.57600 29.56400 45.91700
C  51.78200 28.22500 45.47500
C  53.02000 31.32500 47.20800
C  50.25200 29.99800 45.45800
O  49.62700 31.04500 45.62100
C  49.73900 28.78500 44.63400
C  49.66500 29.32900 43.27400
O  50.43300 30.04500 42.71600
O  48.40500 29.03400 42.77300
C  48.06200 29.62200 41.50700
H  51.57800 22.23800 43.81400
H  57.50000 23.69100 46.12500
H  55.42300 29.55000 47.40800
H  48.75200 26.05600 43.66500
H  49.80300 23.73700 42.65000
H  49.57400 22.95400 45.26100
H  48.18800 23.12000 44.23200
H  48.56000 24.42200 45.32100
H  50.66800 25.38900 41.38300
H  50.33800 27.01400 41.52300
H  48.27100 26.91300 40.51800
H  47.86000 25.35300 41.21800
H  53.94000 20.08100 43.10000
H  52.52900 20.41500 43.91500
H  53.68100 19.60000 44.86500
H  58.44300 20.34300 46.27600
H  57.73900 21.86700 46.92400
H  58.52100 21.80600 45.32500
H  58.41000 26.02200 46.01400
H  57.41900 28.02700 47.98900
H  58.30500 24.58500 48.34700
H  58.30000 26.20300 49.09200
H  59.60100 25.80700 48.08700
H  57.55600 28.71800 45.16800
H  59.05800 28.18200 45.72300
H  59.43300 30.32600 46.68600
H  58.01800 30.08800 47.67400
H  57.72400 30.68400 46.07400
H  52.11000 31.56400 47.75800
H  53.35400 32.08500 46.50200
H  53.78900 31.19600 47.97000
H  48.75700 28.49400 45.00800
H  47.08200 29.30400 41.15300
H  48.78400 29.61000 40.69000
H  47.74600 30.62900 41.77900
Mg 48.42900 35.78600 28.83400
C  46.22100 34.07900 31.00200
C  48.39800 38.33900 31.03600
C  50.05800 37.62800 26.59500
C  47.76300 33.34100 26.40600
N  47.40600 36.10200 30.76300
C  46.60400 35.26600 31.48600
C  46.31200 35.85000 32.85400
C  46.62200 37.36200 32.65400
C  47.59300 37.27000 31.42400
C  45.49300 38.27500 32.24900
C  46.92100 35.05800 34.03500
C  48.15400 35.54600 34.75900
H  48.00800 36.46300 35.94200
N  49.23000 37.69200 28.86600
C  49.19600 38.56900 29.95100
C  49.99700 39.68900 29.58500
C  50.52000 39.49600 28.27600
C  49.92900 38.26800 27.79200
C  50.37400 40.74000 30.64300
C  51.41200 40.38300 27.40400
O  51.69900 40.09600 26.27300
C  51.97400 41.67900 28.00900
N  48.54800 35.56600 26.64000
C  49.42200 36.43200 26.09200
C  49.89200 35.93400 24.77400
C  49.33600 34.45700 24.73200
C  48.58200 34.41400 26.04300
C  49.45900 36.84900 23.58800
C  50.46400 33.31300 24.76500
C  50.79600 32.68100 23.37500
N  47.37800 34.02700 28.71400
C  47.15500 33.13200 27.63600
C  46.34000 32.10000 28.04500
C  45.91200 32.39800 29.34800
C  46.58600 33.59300 29.72200
C  46.06400 30.88800 27.27500
C  45.07500 31.99700 30.42400
O  44.33800 31.02600 30.56600
C  45.09900 33.13400 31.46100
C  45.09900 32.48400 32.80200
O  45.71800 31.47400 33.18600
O  44.05700 33.09900 33.47700
C  43.83900 32.67900 34.92100
H  48.47300 39.19000 31.71600
H  50.71600 38.12800 25.88000
H  47.84500 32.51300 25.69900
H  45.24400 35.88100 33.06700
H  47.14100 37.77300 33.51900
H  44.58400 37.72500 32.00200
H  45.74300 38.82300 31.34000
H  45.29800 39.06700 32.97200
H  47.13600 34.01300 33.80800
H  46.11300 35.00900 34.76400
H  48.73800 36.07200 34.00300
H  48.75700 34.73800 35.17200
H  51.46400 40.78200 30.63800
H  49.91200 40.57800 31.61700
H  49.85800 41.66200 30.37600
H  52.27400 41.46700 29.03500
H  51.07200 42.28300 28.10600
H  52.78200 42.09800 27.41100
H  50.97600 35.86800 24.67700
H  48.66200 34.39100 23.87800
H  49.05800 36.31700 22.72500
H  50.31200 37.39100 23.17900
H  48.62000 37.47200 23.90000
H  50.15200 32.53800 25.46400
H  51.42800 33.76500 24.99700
H  50.38000 33.18400 22.50200
H  50.33900 31.69200 23.32500
H  51.83400 32.64100 23.04400
H  45.29000 30.25800 27.71200
H  47.00400 30.35200 27.14500
H  45.85200 31.20300 26.25300
H  44.14300 33.63100 31.29500
H  42.75800 32.60700 35.03500
H  44.31200 33.45300 35.52500
H  44.29800 31.69900 35.05800

