158

Mg 44.60100 2.89200 47.26600
C  42.70400 5.69500 46.69300
C  41.92000 0.82000 46.53500
C  46.64800 0.19000 46.82400
C  47.49300 4.92100 47.13700
N  42.66600 3.30200 46.60000
C  41.96800 4.48700 46.60600
C  40.47100 4.33900 46.36800
C  40.28000 2.78400 46.50300
C  41.70300 2.22200 46.52800
C  39.53400 2.42200 47.92800
C  39.96400 4.93600 45.01200
C  40.53700 4.28000 43.70500
H  41.44900 5.12700 42.75700
N  44.35000 0.78000 46.88000
C  43.11600 0.16100 46.58600
C  43.33200 -1.27500 46.33900
C  44.70500 -1.53900 46.39100
C  45.35000 -0.16800 46.69800
C  42.22100 -2.32000 46.00700
C  45.38800 -2.82400 46.19500
O  44.84200 -3.90600 46.07300
C  46.88600 -3.02600 46.22500
N  46.77900 2.59700 47.07300
C  47.27900 1.41100 46.93500
C  48.75700 1.48900 47.18900
C  49.08300 2.93500 46.97500
C  47.72000 3.52000 47.07900
C  49.30800 0.95600 48.49800
C  49.89800 3.35300 45.71800
C  51.38200 3.68000 45.91600
N  45.02200 4.94300 47.15400
C  46.24700 5.60700 47.03600
C  46.00700 7.02200 46.95800
C  44.59700 7.15600 46.78200
C  44.07000 5.82100 46.87000
C  47.01300 8.17000 46.93100
C  43.47200 8.00100 46.49000
O  43.38100 9.25400 46.48100
C  42.21400 7.05900 46.60600
C  41.24800 7.46800 47.64800
O  41.23300 7.02800 48.82300
O  40.30600 8.30800 47.11000
C  39.02800 8.62100 47.81400
H  41.03100 0.18600 46.50300
H  47.27400 -0.68500 46.63800
H  48.35700 5.58500 47.20300
H  40.03400 4.95900 47.15100
H  39.72000 2.25200 45.73400
H  39.17900 3.29700 48.47300
H  40.14600 2.00000 48.72500
H  38.69700 1.77600 47.66200
H  40.14300 6.01000 44.95900
H  38.88800 4.77300 44.95900
H  39.74000 4.24200 42.96200
H  40.91300 3.27000 43.86900
H  41.29500 -1.85500 45.67000
H  41.91700 -2.88700 46.88600
H  42.32400 -3.03500 45.19100
H  47.47300 -2.46100 45.50100
H  47.15100 -4.06500 46.03300
H  47.14700 -2.70700 47.23400
H  49.17700 0.86400 46.40100
H  49.64800 3.23600 47.85800
H  48.43400 0.80500 49.13200
H  50.00700 1.52300 49.11300
H  49.69200 -0.02600 48.22100
H  49.40300 4.27500 45.41200
H  49.98700 2.48500 45.06400
H  51.60300 3.70900 46.98300
H  51.66100 4.64700 45.49600
H  52.07800 2.98800 45.44100
H  47.24300 8.33900 47.98300
H  46.57900 9.07800 46.51300
H  47.95100 7.86300 46.46900
H  41.61100 7.15800 45.70300
H  38.27700 8.14500 47.18300
H  38.76600 9.67900 47.81000
H  38.99500 8.30100 48.85600
Mg 6.33100 54.20700 40.86300
C  5.77200 50.59600 41.07100
C  9.59100 53.33400 39.95100
C  6.64400 57.25500 39.77500
C  3.06300 54.57600 41.77800
N  7.40500 52.24800 40.35500
C  7.00000 50.96800 40.40400
C  8.07800 49.95600 40.10300
C  9.41900 50.81400 40.37100
C  8.81200 52.25500 40.27000
C  10.23300 50.53100 41.66600
C  8.03300 49.25000 38.66000
C  7.17600 49.97500 37.60900
H  6.57800 49.19200 36.45900
N  7.96400 55.23900 40.01700
C  9.23300 54.72600 39.80300
C  10.01100 55.81500 39.46700
C  9.21400 56.92500 39.33400
C  7.85400 56.49500 39.64600
C  11.50300 55.73300 39.11400
C  9.76400 58.23900 38.88100
O  10.94000 58.52800 38.62400
C  8.83000 59.33600 38.75400
N  4.93900 55.68900 40.50100
C  5.33100 56.91300 40.19200
C  4.12600 57.90500 40.37500
C  2.93000 56.95200 40.78900
C  3.64600 55.64800 41.07200
C  4.32500 59.07400 41.35100
C  1.85100 56.79900 39.69400
C  0.54800 57.45900 39.87100
N  4.72700 53.00300 41.56600
C  3.51000 53.28500 41.99400
C  2.93300 52.08800 42.60000
C  3.69800 51.00600 42.15900
C  4.81400 51.61600 41.50400
C  1.62600 52.14700 43.34000
C  3.79200 49.57100 42.06400
O  3.05300 48.67400 42.47100
C  5.24000 49.22500 41.42000
C  4.92400 48.18700 40.44000
O  4.45000 48.46300 39.32100
O  5.30200 46.87600 40.77400
C  5.03400 45.78600 39.92000
H  10.64100 53.19800 39.68000
H  6.63600 58.30400 39.47300
H  2.07500 54.85300 42.15000
H  7.98600 49.14600 40.82600
H  10.15400 50.67700 39.57800
H  10.38100 51.52100 42.09700
H  11.15800 50.10500 41.27600
H  9.74300 49.94100 42.44000
H  7.75500 48.21000 38.83400
H  9.03600 49.05700 38.28000
H  7.77800 50.79900 37.22500
H  6.34800 50.54200 38.03400
H  11.44400 55.84100 38.03100
H  11.98700 54.76000 39.19300
H  12.02900 56.49800 39.68500
H  8.54200 59.65200 39.75600
H  8.00400 58.93300 38.16600
H  9.24300 60.16300 38.17500
H  3.87600 58.29600 39.38800
H  2.37100 57.22500 41.68400
H  5.38200 59.27900 41.52300
H  3.68900 58.86000 42.21000
H  3.94000 59.95100 40.83100
H  1.76000 55.75000 39.41200
H  2.26400 57.32200 38.83200
H  -0.24800 56.96600 39.31300
H  0.56400 58.41400 39.34700
H  0.24400 57.61600 40.90600
H  0.99800 51.25600 43.36700
H  1.04500 53.00300 43.00000
H  1.89900 52.42300 44.35900
H  5.88500 48.81800 42.19900
H  4.16600 45.22400 40.26600
H  5.85200 45.06700 39.97800
H  4.94100 46.07400 38.87300

