158

Mg 1.39400 -0.30500 44.31100
C  4.78000 0.15700 43.65600
C  0.80100 2.52800 42.55800
C  -1.80100 -1.20900 44.31800
C  2.17900 -3.45000 45.69300
N  2.71300 1.13400 43.18100
C  4.02200 1.17500 43.11300
C  4.49600 2.52200 42.41700
C  3.17300 3.38500 42.41400
C  2.16600 2.28600 42.71400
C  3.16800 4.54800 43.40400
C  4.98400 2.19000 40.90900
C  6.44100 2.62400 40.57000
H  6.47600 3.53200 39.30200
N  -0.28800 0.49800 43.44000
C  -0.37300 1.73500 42.82300
C  -1.77700 2.00500 42.57200
C  -2.47400 0.79800 42.87700
C  -1.48900 -0.10700 43.56100
C  -2.30900 3.29800 42.05000
C  -3.89000 0.48500 42.48800
O  -4.65500 1.34100 42.04500
C  -4.33000 -0.92200 42.42700
N  0.29600 -1.99800 45.21200
C  -1.04200 -2.13600 45.04100
C  -1.59600 -3.53000 45.53000
C  -0.22400 -4.22200 45.92000
C  0.82800 -3.14600 45.67500
C  -2.66600 -3.35600 46.64900
C  0.13100 -5.60400 45.15100
C  0.34600 -6.75200 46.16600
N  3.11600 -1.37400 44.76800
C  3.30600 -2.66900 45.22700
C  4.72400 -2.99200 45.26400
C  5.34200 -1.87300 44.71600
C  4.32500 -0.97500 44.33800
C  5.22900 -4.28500 45.84500
C  6.65000 -1.38500 44.38200
O  7.80500 -1.85400 44.49200
C  6.32000 0.05600 43.79900
C  6.93800 1.12100 44.63600
O  6.32100 1.83100 45.41500
O  8.32200 1.14600 44.43000
C  8.98300 2.24900 45.16600
H  0.69900 3.54100 42.16400
H  -2.83600 -1.52400 44.47000
H  2.39100 -4.47500 46.00400
H  5.35200 2.94800 42.94000
H  2.94700 3.81800 41.44000
H  2.93400 5.45600 42.84900
H  4.13100 4.70600 43.89000
H  2.54500 4.53200 44.29800
H  4.33800 2.68900 40.18700
H  4.98200 1.13300 40.64500
H  7.03300 1.71800 40.43700
H  7.01300 3.15200 41.33400
H  -1.56100 4.05800 42.27500
H  -3.20100 3.50200 42.64300
H  -2.48400 3.23500 40.97600
H  -5.25400 -0.93300 41.84900
H  -4.50400 -1.17300 43.47400
H  -3.52200 -1.51400 41.99800
H  -2.17900 -4.03700 44.76100
H  -0.11500 -4.37800 46.99300
H  -2.34800 -3.91800 47.52700
H  -3.67400 -3.72200 46.45200
H  -2.78300 -2.36400 47.08500
H  1.04200 -5.64000 44.55400
H  -0.64400 -5.85200 44.42600
H  -0.34500 -6.60600 46.99600
H  1.39100 -6.84400 46.46200
H  -0.09200 -7.67700 45.79100
H  6.31400 -4.29700 45.94100
H  4.78400 -5.06600 45.22800
H  4.85800 -4.26400 46.87000
H  6.80700 0.12800 42.82600
H  8.85200 2.13100 46.24100
H  8.67100 3.23400 44.81700
H  10.04600 2.05900 45.01600
Mg -4.29600 24.69100 26.59200
C  -3.21000 26.77500 29.13900
C  -5.65200 22.59800 28.91300
C  -5.51000 22.80100 24.15200
C  -3.17200 27.03200 24.26300
N  -4.40900 24.75800 28.81100
C  -3.93300 25.66700 29.66600
C  -4.37400 25.25200 31.12500
C  -4.87200 23.78400 31.08300
C  -5.08100 23.69500 29.52300
C  -3.77300 22.76800 31.54800
C  -5.52100 26.22600 31.64100
C  -5.57400 26.58800 33.10500
H  -4.95200 25.54000 34.00700
N  -5.35600 22.89700 26.58000
C  -5.78200 22.19900 27.57400
C  -6.49600 20.95800 27.14300
C  -6.46700 21.01600 25.70800
C  -5.78300 22.27100 25.42900
C  -7.18000 20.03000 28.14000
C  -6.97600 20.02100 24.66900
O  -6.79200 20.06200 23.43400
C  -7.84600 18.88100 25.24600
N  -4.19200 24.89200 24.46300
C  -4.73400 23.90700 23.72200
C  -4.71400 24.25400 22.19400
C  -4.10700 25.72000 22.16200
C  -3.88600 25.94600 23.66000
C  -3.98800 23.21900 21.32500
C  -5.02800 26.78700 21.63000
C  -4.92700 26.95000 20.09500
N  -3.38400 26.51200 26.61500
C  -2.94200 27.36900 25.59500
C  -2.20700 28.47600 26.13600
C  -2.25000 28.28400 27.56000
C  -3.01900 27.12100 27.79000
C  -1.47400 29.44500 25.41300
C  -1.81000 28.73200 28.86600
O  -1.06400 29.65300 29.16200
C  -2.49600 27.81300 29.91800
C  -1.40200 27.42700 30.82000
O  -0.61700 26.50500 30.60900
O  -1.60600 27.90000 32.08800
C  -0.84100 27.24300 33.14300
H  -5.90100 21.87700 29.69400
H  -5.99100 22.28700 23.31700
H  -2.81200 27.83900 23.62200
H  -3.53600 25.37400 31.81100
H  -5.83400 23.59800 31.56100
H  -3.74400 21.95100 30.82600
H  -4.06000 22.30000 32.48900
H  -2.74500 23.12800 31.49600
H  -6.54500 25.92900 31.41300
H  -5.46700 27.14000 31.04900
H  -6.57700 26.63200 33.52900
H  -5.05100 27.54200 33.16400
H  -6.83500 20.11100 29.17100
H  -6.98400 18.99100 27.87500
H  -8.23600 20.27600 28.02700
H  -8.13300 18.29500 24.37300
H  -8.76600 19.38200 25.54900
H  -7.42100 18.27300 26.04500
H  -5.75000 24.33600 21.86500
H  -3.19400 25.63500 21.57300
H  -4.73100 22.73700 20.68900
H  -3.40700 22.57800 21.98800
H  -3.25000 23.66900 20.66100
H  -4.82200 27.71700 22.16000
H  -6.05800 26.55400 21.90000
H  -4.29100 26.18800 19.64500
H  -4.51400 27.92500 19.83500
H  -5.90100 26.87700 19.61300
H  -1.02700 29.10400 24.48000
H  -0.70600 29.87900 26.05300
H  -2.05900 30.32800 25.15200
H  -3.22500 28.30300 30.56400
H  0.19800 27.56700 33.19600
H  -0.86600 26.15400 33.18900
H  -1.34600 27.55300 34.05700

