158

Mg 26.44000 50.23000 26.34300
C  24.24900 51.24100 28.83900
C  28.79100 49.24300 28.86300
C  28.66300 49.55200 23.91700
C  24.21500 51.52100 24.01700
N  26.50500 50.26100 28.53500
C  25.39900 50.59100 29.35300
C  25.68100 50.28900 30.85400
C  27.22900 49.91500 30.84000
C  27.52700 49.71400 29.29500
C  28.17900 50.97700 31.43900
C  24.77400 49.12700 31.48500
C  24.22400 49.27600 32.89000
H  24.84000 50.15200 33.97100
N  28.39300 49.48800 26.39800
C  29.22600 49.14800 27.52300
C  30.52600 48.78200 27.00300
C  30.53500 49.07700 25.60000
C  29.16600 49.42400 25.25900
C  31.68300 48.35400 27.83300
C  31.65400 49.04000 24.47500
O  31.48600 49.22800 23.28700
C  32.97700 48.71200 24.98800
N  26.48900 50.59300 24.25700
C  27.40700 49.95800 23.45300
C  26.97400 49.95200 21.93800
C  25.45800 50.47200 22.06000
C  25.40300 50.94600 23.52900
C  27.87000 50.78600 20.94500
C  24.33200 49.46900 21.79400
C  23.30600 49.96600 20.75000
N  24.62900 51.20500 26.34500
C  23.77800 51.66500 25.36100
C  22.60800 52.21300 25.92700
C  22.71200 52.00800 27.28900
C  23.97500 51.45700 27.52600
C  21.51500 53.05900 25.30300
C  22.06000 52.25400 28.58200
O  21.06300 52.79900 28.81800
C  22.99700 51.66200 29.64300
C  23.33700 52.76700 30.69400
O  24.16800 53.61200 30.52600
O  22.41800 52.71200 31.72600
C  22.57400 53.71000 32.76700
H  29.44800 48.95800 29.68800
H  29.20600 49.15500 23.05700
H  23.45800 51.87600 23.31400
H  25.43700 51.14300 31.48500
H  27.32000 49.03300 31.47300
H  29.13700 50.62000 31.81600
H  27.58400 51.29700 32.29400
H  28.24300 51.76300 30.68600
H  25.35100 48.20500 31.42500
H  23.93600 48.95700 30.80900
H  24.13100 48.23400 33.19500
H  23.18200 49.59200 32.83900
H  32.04300 47.43900 27.36300
H  31.49600 48.12500 28.88200
H  32.41600 49.16100 27.80700
H  33.62700 49.00600 24.16400
H  33.24900 47.66000 25.08200
H  33.23800 49.28100 25.88000
H  26.90000 48.91100 21.62500
H  25.38500 51.35300 21.42200
H  28.59300 51.50300 21.33500
H  27.17500 51.24500 20.24200
H  28.49000 50.01700 20.48300
H  23.84100 49.18100 22.72400
H  24.84800 48.61400 21.35900
H  23.40700 49.27600 19.91300
H  23.49000 50.98100 20.39600
H  22.25300 49.88800 21.02100
H  21.79300 53.22400 24.26200
H  21.44400 54.02100 25.81000
H  20.52600 52.62500 25.44800
H  22.58100 50.89600 30.29700
H  23.57300 53.58100 33.18400
H  21.74800 53.72600 33.47700
H  22.71300 54.67700 32.28300
Mg 0.66600 41.93800 25.48600
C  2.23400 42.42800 28.69300
C  -2.19400 41.01700 27.08600
C  -0.54500 40.96400 22.54700
C  3.83300 42.37100 24.09600
N  0.11600 41.73100 27.66600
C  0.78200 42.20700 28.71900
C  -0.05200 41.94800 29.99500
C  -1.45100 41.56800 29.48600
C  -1.18700 41.44200 27.96800
C  -2.13900 40.24500 30.14300
C  0.06300 43.26200 30.93900
C  0.34700 43.08800 32.36400
H  -0.60500 43.64900 33.42700
N  -1.13500 41.16000 24.92400
C  -2.19500 40.88000 25.69200
C  -3.22100 40.34200 24.88500
C  -2.68000 40.13400 23.56400
C  -1.36800 40.69000 23.63400
C  -4.58900 40.04500 25.51100
C  -3.28100 39.42900 22.27800
O  -2.59100 39.34400 21.23000
C  -4.65000 38.74400 22.37200
N  1.56100 41.58800 23.60100
C  0.86800 41.34000 22.51100
C  1.78000 41.26900 21.27900
C  3.07900 41.98400 21.79600
C  2.84700 41.91100 23.29100
C  1.85900 39.79300 20.83600
C  3.31700 43.42800 21.29200
C  2.31100 44.50300 21.78100
N  2.64200 42.52800 26.13200
C  3.80500 42.61500 25.47500
C  4.88800 42.86300 26.40700
C  4.31400 42.68200 27.64800
C  2.89800 42.55200 27.44200
C  6.40000 43.11700 26.09300
C  4.64900 42.63600 29.09900
O  5.68700 42.61400 29.69300
C  3.25800 42.65100 29.81800
C  3.29600 41.49900 30.76200
O  3.09900 40.34100 30.46100
O  3.55600 41.84200 32.03300
C  3.45300 40.72200 32.97300
H  -3.04900 40.81000 27.73200
H  -1.02500 40.81200 21.57800
H  4.85800 42.60400 23.80000
H  0.41300 41.12600 30.53900
H  -2.17700 42.36700 29.63700
H  -1.56600 39.89100 31.00000
H  -2.02700 39.46100 29.39500
H  -3.16200 40.51500 30.40500
H  -0.90400 43.74000 30.78400
H  0.78100 43.96200 30.51100
H  1.21200 43.74400 32.46700
H  0.70600 42.07300 32.53100
H  -5.39200 40.10200 24.77500
H  -4.71800 40.77500 26.31000
H  -4.49400 39.05200 25.95100
H  -4.75200 38.14500 21.46700
H  -5.42600 39.50900 22.34300
H  -4.61000 38.02600 23.19100
H  1.23000 41.80600 20.50600
H  3.85100 41.22900 21.65000
H  1.56000 39.19200 21.69400
H  2.77200 39.59100 20.27500
H  1.17100 39.71000 19.99500
H  3.34000 43.51500 20.20600
H  4.31500 43.69300 21.64100
H  2.80000 45.03800 22.59500
H  1.40300 44.03100 22.15500
H  2.12100 45.15700 20.93000
H  6.53800 43.09900 25.01200
H  7.10200 42.33600 26.38500
H  6.70300 44.08400 26.49300
H  3.12400 43.62700 30.28400
H  2.54300 40.15500 32.77500
H  3.47200 41.03200 34.01800
H  4.20400 39.98100 32.69900

