158

Mg 44.03700 3.31300 47.56600
C  42.15800 6.28900 47.43400
C  41.03600 1.55300 47.62900
C  45.85300 0.56800 47.32800
C  46.92500 5.30300 47.00000
N  41.89100 3.90400 47.35700
C  41.34200 5.16000 47.49100
C  39.78100 5.11300 47.46900
C  39.53200 3.55000 47.63600
C  40.92600 2.96400 47.70600
C  38.63300 3.08100 48.77000
C  39.05900 5.69300 46.31200
C  39.62100 5.14200 44.98400
H  40.05000 6.32200 43.99800
N  43.49400 1.27500 47.45800
C  42.19200 0.75600 47.63100
C  42.31000 -0.67300 47.49300
C  43.65900 -1.02500 47.25500
C  44.42500 0.25100 47.33300
C  41.13000 -1.55300 47.67200
C  44.17700 -2.42000 46.98600
O  43.39300 -3.40600 47.01700
C  45.62200 -2.60600 46.65900
N  46.03800 3.02200 47.33900
C  46.56900 1.76000 47.27300
C  48.13700 1.70300 47.07300
C  48.41400 3.21100 46.90700
C  47.01600 3.91400 47.11600
C  48.83700 0.96300 48.23100
C  49.12600 3.49300 45.48100
C  50.63300 3.77000 45.51000
N  44.51000 5.33600 47.37400
C  45.70100 5.98300 47.11500
C  45.47700 7.38600 47.17100
C  44.12300 7.54200 47.28400
C  43.53800 6.28500 47.37200
C  46.53800 8.41900 46.96100
C  43.04000 8.54800 47.31000
O  43.06400 9.77900 47.34300
C  41.72100 7.74200 47.52800
C  41.11700 8.15300 48.87700
O  41.62900 8.00600 49.99800
O  39.79500 8.54200 48.66000
C  39.01100 8.69000 49.85600
H  40.10500 0.98800 47.71400
H  46.49600 -0.31200 47.28200
H  47.87200 5.80700 46.79800
H  39.36000 5.54600 48.37700
H  39.03300 3.14500 46.75600
H  39.36700 2.93800 49.56300
H  38.10200 2.13300 48.69300
H  37.98700 3.89900 49.08700
H  39.20000 6.77300 46.35600
H  38.00300 5.49000 46.49400
H  38.95500 4.42000 44.51200
H  40.48600 4.48200 45.06400
H  40.97600 -2.14500 46.77000
H  40.16700 -1.05400 47.77900
H  41.26100 -2.28100 48.47300
H  46.21400 -2.44200 47.55900
H  45.77700 -1.82300 45.91700
H  45.74000 -3.58600 46.19800
H  48.34000 1.21400 46.12100
H  49.14700 3.60100 47.61400
H  49.70700 1.54200 48.54100
H  49.15200 -0.04400 47.95700
H  48.14900 0.82100 49.06500
H  48.65000 4.39700 45.10100
H  48.96500 2.67900 44.77400
H  51.05300 3.30300 46.40100
H  50.85500 4.83700 45.46800
H  51.02100 3.22600 44.64900
H  47.38800 8.25800 47.62400
H  45.99500 9.29400 47.31800
H  46.91100 8.48200 45.93900
H  41.05700 7.99000 46.70100
H  37.98000 8.96400 49.63200
H  39.33500 9.40700 50.61000
H  38.99200 7.72500 50.36100
Mg 40.45700 40.66500 27.14600
C  39.80200 43.03300 29.59300
C  41.79300 38.65600 29.54900
C  41.52400 38.68800 24.63700
C  39.82400 43.18700 24.69800
N  40.79800 40.84900 29.35300
C  40.36300 41.87700 30.10100
C  40.63900 41.64100 31.62500
C  41.20300 40.13700 31.61200
C  41.36700 39.85500 30.08700
C  42.47300 40.06900 32.45000
C  39.40000 41.64100 32.49700
C  39.28800 42.71000 33.61700
H  38.41300 42.37900 34.82600
N  41.44300 38.85500 27.09800
C  41.94600 38.17600 28.13400
C  42.47200 36.88500 27.74400
C  42.45000 36.91300 26.30900
C  41.79200 38.20900 25.91200
C  43.14800 36.01400 28.73800
C  42.94400 35.80900 25.31700
O  42.81900 35.84000 24.10400
C  43.37700 34.48900 25.87800
N  40.74700 41.01200 24.97700
C  40.91500 39.82400 24.23200
C  40.46200 40.10200 22.79000
C  39.79200 41.51300 22.82300
C  40.13800 41.98100 24.25200
C  41.67800 40.14800 21.82000
C  38.26700 41.66000 22.44300
C  37.26000 40.83500 23.22100
N  39.77200 42.62200 27.09200
C  39.68100 43.59100 26.04100
C  39.26900 44.84500 26.52000
C  39.25700 44.65200 27.90400
C  39.62100 43.31100 28.22500
C  38.82400 45.99600 25.68000
C  38.86700 45.32000 29.12600
O  38.30200 46.39300 29.36400
C  39.27800 44.25300 30.30000
C  40.30200 44.99200 31.14200
O  41.50000 45.04500 30.88500
O  39.69800 45.53400 32.20500
C  40.61000 46.50300 32.97000
H  42.06200 37.88900 30.27800
H  41.78100 37.96700 23.85900
H  39.46500 43.78000 23.85500
H  41.34000 42.36600 32.03900
H  40.54200 39.35200 31.97800
H  42.35600 39.03500 32.77700
H  42.50900 40.82300 33.23600
H  43.33300 40.20900 31.79600
H  39.25800 40.70500 33.03700
H  38.49700 41.86300 31.92700
H  38.68300 43.43800 33.07600
H  40.29300 43.03900 33.88000
H  42.72400 35.01100 28.68100
H  43.18400 36.28700 29.79300
H  44.17300 35.77000 28.45900
H  44.11800 34.56100 26.67400
H  43.75100 33.86900 25.06300
H  42.50400 33.90900 26.17900
H  39.76500 39.27200 22.67600
H  40.33500 42.22100 22.19700
H  41.75300 39.26500 21.18500
H  42.54100 40.09700 22.48400
H  41.90500 41.06700 21.28100
H  38.20000 41.35000 21.40000
H  38.02000 42.72100 22.46800
H  37.71400 40.21300 23.99300
H  36.73500 40.13300 22.57300
H  36.51100 41.47700 23.68400
H  38.31400 45.69300 24.76500
H  39.68300 46.62400 25.44300
H  38.18600 46.60100 26.32300
H  38.33300 43.96300 30.75900
H  40.19700 46.82600 33.92500
H  40.68500 47.30600 32.23600
H  41.55700 46.04700 33.25900

