158

Mg 26.90600 50.93300 26.43000
C  24.93500 51.63900 29.10900
C  29.46900 49.89400 28.64300
C  29.00200 50.25300 23.86900
C  24.58400 52.32200 24.36600
N  27.11500 50.68200 28.49200
C  26.06700 50.89800 29.39700
C  26.49600 50.57800 30.82800
C  28.04600 50.46400 30.71100
C  28.28300 50.38200 29.18400
C  28.80900 51.55700 31.41100
C  25.70400 49.44300 31.40800
C  25.18800 49.46600 32.87800
H  26.18300 49.93500 33.94000
N  28.94100 50.27200 26.24600
C  29.79200 49.88300 27.27600
C  31.04000 49.38800 26.73900
C  30.89300 49.39000 25.27200
C  29.56000 49.95900 25.01600
C  32.12500 48.82600 27.64500
C  31.93700 48.82000 24.28400
O  31.79200 49.00800 23.05100
C  33.13200 48.21300 24.78900
N  26.84000 51.29700 24.44200
C  27.76600 50.90700 23.51700
C  27.18400 50.88100 22.07400
C  25.72500 51.48500 22.29900
C  25.69100 51.67100 23.85100
C  28.04400 51.30800 20.84100
C  24.50100 50.66000 21.79900
C  23.56900 51.24200 20.69600
N  25.03900 51.72400 26.56800
C  24.27400 52.36900 25.70400
C  23.07100 52.79600 26.40900
C  23.26500 52.62500 27.76100
C  24.52700 51.99000 27.81100
C  21.73000 53.38200 25.83300
C  22.79300 52.73700 29.11900
O  21.71000 53.17200 29.48500
C  23.85100 52.08600 30.09900
C  24.31000 53.15100 31.02100
O  24.87800 54.21800 30.76700
O  23.85500 52.75200 32.29400
C  23.91300 53.82000 33.31800
H  30.13700 49.53100 29.42700
H  29.53200 49.89000 22.98600
H  23.72800 52.37200 23.68900
H  26.22300 51.50300 31.33600
H  28.41500 49.56100 31.19700
H  29.35300 50.94000 32.12700
H  28.24200 52.33900 31.91700
H  29.47700 52.11300 30.75300
H  26.14900 48.44800 31.37400
H  24.80400 49.43900 30.79300
H  24.82400 48.45100 33.03800
H  24.31600 50.12100 32.87100
H  32.11700 47.73900 27.72800
H  32.16100 49.28000 28.63500
H  33.13200 49.00600 27.26900
H  32.88700 47.39800 25.47000
H  33.75300 48.99600 25.22500
H  33.56900 47.66500 23.95400
H  26.95700 49.81800 21.99800
H  25.76700 52.50600 21.91900
H  28.42700 50.36100 20.46100
H  28.87900 51.91100 21.19500
H  27.51800 51.99000 20.17300
H  23.86000 50.45100 22.65600
H  24.87900 49.73100 21.37500
H  23.71700 50.71800 19.75200
H  23.71300 52.32100 20.64100
H  22.60200 50.99600 21.13600
H  22.00800 54.41500 25.62300
H  21.00100 53.23000 26.62900
H  21.43900 52.81400 24.95000
H  23.43000 51.22300 30.61400
H  23.83800 54.85700 32.99100
H  24.79600 53.70300 33.94500
H  22.97900 53.73300 33.87400
Mg -11.04600 38.55500 41.49500
C  -9.04500 35.67400 40.91900
C  -8.50500 40.31900 39.57000
C  -13.21300 41.07900 40.93500
C  -13.63400 36.45500 42.44000
N  -9.06800 38.07900 40.38800
C  -8.50300 36.82600 40.23100
C  -7.17500 36.87200 39.53800
C  -6.91900 38.41400 39.32500
C  -8.15900 39.03100 39.93200
C  -5.64500 38.99200 39.99700
C  -7.16200 36.04000 38.21900
C  -5.89600 35.08000 38.17300
H  -4.78300 35.52800 37.14100
N  -10.82600 40.51400 40.56800
C  -9.75300 40.96800 39.83100
C  -10.04800 42.34000 39.46200
C  -11.31100 42.70200 40.03800
C  -11.85300 41.39800 40.57900
C  -9.08000 43.19500 38.69000
C  -12.04900 44.03200 39.96700
O  -11.54300 45.02700 39.43300
C  -13.43100 44.29800 40.81200
N  -13.03500 38.76400 41.60400
C  -13.70300 39.93700 41.49200
C  -15.22100 39.88400 41.86100
C  -15.43900 38.40400 42.21600
C  -13.93100 37.83800 42.12600
C  -15.57800 40.95900 42.97500
C  -16.54600 37.53500 41.50400
C  -17.40700 36.59800 42.45700
N  -11.26700 36.48000 42.00900
C  -12.36100 35.85900 42.41100
C  -12.02500 34.43000 42.61400
C  -10.66000 34.36800 42.07500
C  -10.30200 35.58900 41.59600
C  -12.86800 33.43400 43.28900
C  -9.45800 33.48600 41.79600
O  -9.18900 32.37200 42.17300
C  -8.57800 34.25800 40.82500
C  -7.14400 33.97300 41.18800
O  -6.57300 32.93600 40.89300
O  -6.66400 34.95200 41.99100
C  -5.27900 34.92800 42.48300
H  -7.75200 40.75300 38.90900
H  -13.91000 41.90000 40.75800
H  -14.53300 35.84000 42.52200
H  -6.41100 36.45500 40.19400
H  -7.02300 38.72800 38.28600
H  -5.91200 39.18400 41.03600
H  -5.33700 39.85400 39.40600
H  -4.76200 38.35400 39.96600
H  -6.95900 36.69700 37.37300
H  -8.07600 35.46000 38.08600
H  -6.26800 34.12400 37.80600
H  -5.42600 35.00300 39.15400
H  -9.52200 44.13700 38.36600
H  -8.88300 42.64000 37.77200
H  -8.28100 43.55700 39.33600
H  -13.31700 43.85800 41.80300
H  -14.21700 43.87600 40.18500
H  -13.54500 45.38000 40.87800
H  -15.87700 40.13900 41.02900
H  -15.70100 38.42400 43.27300
H  -14.67800 41.12100 43.56800
H  -16.36400 40.64100 43.65900
H  -15.96300 41.77100 42.35700
H  -15.99200 36.89300 40.82000
H  -17.16700 38.19100 40.89400
H  -17.62500 37.07000 43.41500
H  -16.89500 35.64000 42.54500
H  -18.28700 36.45500 41.83000
H  -13.88300 33.82900 43.33700
H  -12.48200 33.24500 44.29000
H  -12.68900 32.54900 42.67900
H  -8.64000 33.96900 39.77600
H  -5.15400 35.43100 43.44200
H  -4.52100 35.24500 41.76700
H  -5.08400 33.87300 42.67800

