158

Mg -11.39500 38.89600 42.09200
C  -9.55300 36.16500 40.91900
C  -9.46400 40.93200 40.07200
C  -13.72000 41.28700 42.41300
C  -13.73500 36.53400 43.38700
N  -9.74200 38.56400 40.50300
C  -9.12200 37.35500 40.29300
C  -7.99200 37.56800 39.33000
C  -7.89600 39.13800 39.21300
C  -9.05200 39.56700 40.01900
C  -6.55600 39.71300 39.63800
C  -8.38100 36.94400 37.91600
C  -7.37100 36.00700 37.27700
H  -6.52400 36.70300 36.19100
N  -11.47100 40.86000 41.46600
C  -10.54400 41.55300 40.73200
C  -11.01900 42.95900 40.67400
C  -12.23800 43.09600 41.44500
C  -12.52400 41.68800 41.83100
C  -10.10700 43.97700 40.06500
C  -13.04600 44.34600 41.66400
O  -12.57000 45.38100 41.16700
C  -14.22800 44.49500 42.57900
N  -13.42800 38.95800 42.99100
C  -14.20900 40.08900 42.94400
C  -15.62300 39.80400 43.34700
C  -15.64000 38.23600 43.71700
C  -14.17600 37.88000 43.38100
C  -15.91400 40.71300 44.56000
C  -16.73100 37.43900 42.91400
C  -17.65700 36.62200 43.84200
N  -11.53600 36.84400 42.28000
C  -12.52500 36.04200 42.87500
C  -11.98400 34.69800 43.03600
C  -10.77500 34.71600 42.28700
C  -10.63900 35.98000 41.77700
C  -12.72300 33.57400 43.78800
C  -9.72100 33.90500 41.78600
O  -9.39800 32.76000 41.98300
C  -8.81600 34.80700 40.88500
C  -7.47300 34.82700 41.41800
O  -6.55800 34.03800 41.15000
O  -7.18400 35.91900 42.15700
C  -5.85900 35.82300 42.79800
H  -8.94800 41.65800 39.44100
H  -14.55200 41.99500 42.42900
H  -14.41700 35.78700 43.79800
H  -7.04300 37.12900 39.63800
H  -8.07000 39.51700 38.20500
H  -6.37100 40.56700 38.98700
H  -5.72600 39.05000 39.39700
H  -6.52300 39.89900 40.71200
H  -8.74300 37.70600 37.22700
H  -9.29700 36.37600 38.07900
H  -7.93600 35.23100 36.76200
H  -6.81700 35.48300 38.05600
H  -10.65700 44.62100 39.38000
H  -9.27300 43.55600 39.50500
H  -9.75700 44.46900 40.97300
H  -14.14800 45.51200 42.96400
H  -14.14100 43.94400 43.51500
H  -15.16800 44.31000 42.05900
H  -16.25900 40.12000 42.52100
H  -15.71100 38.12700 44.79900
H  -15.01600 40.79500 45.17100
H  -16.67000 40.25900 45.20100
H  -16.40400 41.65000 44.29500
H  -16.23500 36.85200 42.14100
H  -17.40800 38.13200 42.41600
H  -17.47300 35.58800 43.54900
H  -18.67500 36.91200 43.58600
H  -17.68400 36.70200 44.92900
H  -12.26500 32.58800 43.72300
H  -13.72600 33.51200 43.36600
H  -12.77300 33.87200 44.83500
H  -8.82800 34.48600 39.84400
H  -5.86300 36.37900 43.73500
H  -5.13700 36.36100 42.18300
H  -5.40200 34.86900 43.06200
Mg 0.36700 43.54100 25.89600
C  2.20900 43.43600 28.92700
C  -2.45900 42.78000 27.73800
C  -1.10100 42.80400 23.05500
C  3.36700 44.07100 24.29900
N  -0.10900 43.21200 28.13000
C  0.82000 43.31700 29.19000
C  0.06100 43.32900 30.54600
C  -1.44100 42.99200 30.10800
C  -1.40000 43.13000 28.53600
C  -1.76000 41.53800 30.45600
C  0.23500 44.71400 31.31700
C  0.93400 44.62700 32.66900
H  0.48800 43.45000 33.55200
N  -1.56200 42.98100 25.44900
C  -2.58500 42.70200 26.32900
C  -3.74400 42.51000 25.61000
C  -3.43100 42.44000 24.19100
C  -1.98800 42.75400 24.15300
C  -5.15800 42.37500 26.27700
C  -4.23500 42.05800 22.96800
O  -3.75800 41.94900 21.84000
C  -5.71000 41.83400 23.10900
N  1.12100 43.40700 23.93600
C  0.30900 43.07600 22.94100
C  1.03400 43.23600 21.61100
C  2.38400 43.95500 22.00600
C  2.31000 43.72300 23.48500
C  1.19500 41.99200 20.86500
C  2.39400 45.46100 21.70900
C  3.81000 46.11300 21.83100
N  2.38200 43.59100 26.40800
C  3.50000 43.92200 25.64100
C  4.68900 44.21100 26.49800
C  4.25600 43.88300 27.80600
C  2.82600 43.60600 27.68100
C  6.15400 44.62800 26.10900
C  4.71000 43.81500 29.15800
O  5.86100 43.93900 29.56800
C  3.36700 43.54100 30.00400
C  3.59300 42.39400 30.89200
O  3.31400 41.22900 30.63500
O  4.25500 42.81800 32.03200
C  4.53400 41.84800 33.14000
H  -3.42300 42.62700 28.22700
H  -1.44100 42.53800 22.05200
H  4.29100 44.34500 23.78400
H  0.50800 42.47200 31.05000
H  -2.15200 43.69600 30.54100
H  -0.86300 40.96400 30.68900
H  -2.35400 40.96900 29.74100
H  -2.24600 41.68600 31.42100
H  -0.75200 45.15400 31.45900
H  0.79000 45.42200 30.70200
H  0.53900 45.57800 33.02700
H  2.00500 44.70800 32.48300
H  -5.57200 43.33200 26.59600
H  -5.15400 41.75700 27.17400
H  -5.81900 41.95800 25.51700
H  -6.07000 42.79400 23.47900
H  -6.00500 40.98600 23.72700
H  -6.22700 41.70800 22.15700
H  0.51600 43.91000 20.92800
H  3.32900 43.48400 21.73400
H  2.06700 41.92400 20.21500
H  0.31500 41.99900 20.22200
H  1.19500 41.16000 21.56800
H  1.72700 46.03000 22.35700
H  2.05600 45.49400 20.67300
H  4.67100 45.47100 22.01600
H  3.75900 46.95100 22.52700
H  3.97400 46.54900 20.84500
H  6.09900 45.30200 25.25300
H  6.86300 43.83600 25.86800
H  6.51200 45.14900 26.99700
H  3.14000 44.43400 30.58600
H  5.57700 42.01600 33.40700
H  4.34200 40.80000 32.90800
H  3.90600 42.16800 33.97100

