158

Mg 29.01800 56.96000 40.27600
C  26.80300 54.17000 39.68000
C  31.67700 54.89900 39.43400
C  30.89000 59.68200 39.86100
C  26.12000 58.96500 40.37000
N  29.19300 54.82800 39.30100
C  28.13900 53.89300 39.38600
C  28.79000 52.48000 39.07900
C  30.33000 52.66700 39.26700
C  30.41200 54.23000 39.35600
C  30.89300 51.98300 40.53900
C  28.46300 52.06900 37.62300
C  29.09100 52.74400 36.37000
H  28.13800 53.30600 35.27100
N  31.02400 57.28600 39.90400
C  31.94800 56.31100 39.71400
C  33.22600 56.87000 39.72600
C  33.06700 58.29300 39.73800
C  31.63100 58.53400 39.89500
C  34.46900 56.03700 39.51800
C  34.12300 59.30800 39.50200
O  35.29700 58.97100 39.26500
C  33.83600 60.74900 39.48600
N  28.60200 59.08200 40.36000
C  29.54400 59.97400 40.02400
C  28.83700 61.39700 40.06500
C  27.36000 61.11400 39.99200
C  27.33800 59.61400 40.32600
C  29.19300 62.16000 41.34900
C  26.71600 61.19800 38.55600
C  25.94600 62.49000 38.49900
N  26.82900 56.67000 40.18500
C  25.82800 57.58400 40.40400
C  24.60300 56.88700 40.54700
C  24.91500 55.54700 40.24000
C  26.29800 55.50600 40.02200
C  23.17500 57.44600 40.77000
C  24.38900 54.24400 39.96600
O  23.25200 53.80600 39.90200
C  25.53700 53.25700 39.69500
C  25.55300 52.34700 40.82600
O  25.89300 52.68200 41.92200
O  25.12800 51.02600 40.54400
C  24.93200 50.20600 41.71800
H  32.48500 54.16600 39.38800
H  31.49700 60.56100 39.63200
H  25.23500 59.60000 40.44500
H  28.42400 51.77300 39.82300
H  30.82000 52.38900 38.33300
H  31.87300 51.57300 40.29600
H  30.32000 51.15400 40.95500
H  31.21200 52.66800 41.32400
H  27.37700 52.11400 37.55200
H  28.75900 51.02000 37.67200
H  29.66400 51.91700 35.95100
H  29.79200 53.47100 36.78000
H  34.50600 55.54500 38.54600
H  34.50400 55.24800 40.27000
H  35.24400 56.74600 39.80600
H  33.31100 61.08900 38.59300
H  34.84600 61.13100 39.63700
H  33.42400 61.05700 40.44600
H  29.07800 61.95100 39.15800
H  26.67100 61.57400 40.70000
H  30.26200 62.37000 41.36100
H  29.06200 61.51600 42.21900
H  28.77000 63.15800 41.46500
H  26.15800 60.33800 38.18400
H  27.50700 61.39200 37.83100
H  26.62900 63.28300 38.80400
H  24.96600 62.38000 38.96300
H  25.82300 62.57200 37.41900
H  22.80400 57.84300 39.82500
H  23.29600 58.26100 41.48400
H  22.48700 56.70400 41.17600
H  25.32800 52.75600 38.74900
H  23.99800 49.66100 41.58000
H  24.67300 50.66100 42.67400
H  25.73900 49.48600 41.85500
Mg 36.57700 49.41600 24.59800
C  36.97000 47.81600 27.76400
C  35.23800 52.09200 26.36300
C  35.86900 50.74400 21.71800
C  37.84700 46.41700 23.07300
N  36.22400 49.83900 26.85100
C  36.48000 49.05400 27.92100
C  36.31600 49.78800 29.22300
C  35.66800 51.12900 28.73900
C  35.69500 51.03200 27.23400
C  34.27900 51.47600 29.24100
C  37.65900 50.02500 29.99900
C  37.77300 49.76900 31.55500
H  36.52300 49.69500 32.47200
N  35.69500 51.16000 24.08400
C  35.21700 52.09800 24.90600
C  34.63100 53.10700 24.08900
C  34.78100 52.78800 22.68300
C  35.47700 51.50100 22.79700
C  33.88300 54.31700 24.65900
C  34.37000 53.56600 21.37100
O  34.73400 53.14900 20.25400
C  33.54000 54.80200 21.43100
N  36.66300 48.56400 22.63400
C  36.37800 49.40800 21.63300
C  36.83800 48.76900 20.27400
C  37.45900 47.37000 20.71800
C  37.35900 47.41900 22.23100
C  35.68500 48.56400 19.22500
C  38.90300 47.19400 20.27200
C  40.03600 48.12100 20.84300
N  37.31800 47.49100 25.23800
C  37.81000 46.42500 24.50500
C  38.24300 45.35300 25.37300
C  37.91300 45.84800 26.66600
C  37.37400 47.19700 26.53100
C  38.95900 44.05300 25.02300
C  37.84700 45.49400 28.05100
O  38.20900 44.52200 28.67400
C  37.31000 46.76100 28.81800
C  36.07000 46.38600 29.66300
O  35.04400 46.02200 29.20800
O  36.31000 46.38200 31.02900
C  35.24300 45.83100 31.93400
H  34.91500 53.00900 26.86000
H  35.75300 51.22300 20.74400
H  38.33200 45.50000 22.73400
H  35.55900 49.27400 29.81400
H  36.27700 51.95600 29.10300
H  33.92200 51.03600 30.17200
H  33.57600 51.11700 28.48900
H  34.27000 52.56200 29.33300
H  38.02100 51.04200 29.84900
H  38.37000 49.36800 29.49800
H  38.48500 50.46700 31.99700
H  38.23900 48.78400 31.53900
H  34.55900 55.17100 24.60400
H  33.59100 54.08700 25.68400
H  32.86800 54.48200 24.29700
H  32.76400 54.45400 22.11300
H  33.17100 54.92900 20.41300
H  34.00500 55.69200 21.85500
H  37.59400 49.41500 19.82600
H  36.81300 46.56100 20.37500
H  35.76400 49.44700 18.59100
H  34.70300 48.67100 19.68400
H  35.70100 47.63000 18.66200
H  38.95100 47.40300 19.20300
H  39.21200 46.15000 20.33500
H  39.55500 48.81100 21.53700
H  40.62100 48.55500 20.03200
H  40.78600 47.60300 21.44000
H  39.43000 43.92500 24.04800
H  38.29100 43.22500 25.25700
H  39.70700 44.16200 25.80800
H  38.06100 47.10900 29.52700
H  34.85300 44.88800 31.55000
H  34.39500 46.51400 31.97200
H  35.57000 45.64800 32.95700

