158

Mg 48.04600 15.73000 27.84600
C  46.08700 15.60800 30.74800
C  50.33200 17.67400 29.67000
C  49.64000 16.46300 24.94300
C  45.46000 14.30100 26.02800
N  48.08000 16.58500 29.96100
C  47.24100 16.33400 30.96400
C  47.86800 16.77900 32.31700
C  49.04300 17.69800 31.89700
C  49.11700 17.36800 30.37600
C  48.75900 19.19000 32.16000
C  48.39200 15.62800 33.24000
C  48.37800 16.02600 34.73100
H  47.62100 17.28100 35.23600
N  49.85100 16.69600 27.37500
C  50.63800 17.41200 28.31100
C  51.90700 17.83600 27.60300
C  51.76500 17.43900 26.17400
C  50.40000 16.79900 26.13400
C  52.98400 18.62500 28.31500
C  52.72900 17.58600 25.05500
O  52.38000 17.28900 23.94000
C  54.15400 18.15400 25.36800
N  47.49400 15.68500 25.82800
C  48.35300 15.96200 24.79700
C  47.63200 15.77900 23.41400
C  46.48400 14.82800 23.81300
C  46.53000 14.89400 25.36100
C  47.10700 17.20100 22.94000
C  46.42800 13.32200 23.16800
C  46.99500 12.12600 24.07800
N  46.15500 14.98300 28.22200
C  45.22200 14.43300 27.43400
C  44.14900 13.91100 28.26700
C  44.40800 14.39500 29.50200
C  45.67800 15.05700 29.49100
C  43.09700 13.01200 27.84900
C  43.89100 14.53600 30.84600
O  42.82100 14.14400 31.31800
C  44.99400 15.25400 31.72200
C  44.41200 16.21700 32.65100
O  44.27700 17.39000 32.26300
O  43.98600 15.73400 33.87400
C  43.34600 16.53200 34.91400
H  51.03000 18.23000 30.30000
H  50.08100 16.68000 23.96800
H  44.71900 13.74700 25.44800
H  47.00100 17.25100 32.77900
H  49.96500 17.47900 32.43500
H  47.70600 19.36400 32.37700
H  48.80100 19.70000 31.19700
H  49.34600 19.80700 32.84000
H  49.41800 15.34600 33.00700
H  47.75700 14.77200 33.01400
H  49.37200 15.82400 35.13200
H  47.76800 15.22000 35.13800
H  53.93400 18.11200 28.16600
H  52.75900 18.79800 29.36700
H  53.17500 19.59900 27.86400
H  54.03100 19.10500 25.88600
H  54.61100 18.32700 24.39400
H  54.88000 17.48700 25.83500
H  48.41600 15.34100 22.79600
H  45.52900 15.26800 23.52600
H  46.05100 17.42500 23.08700
H  47.41100 17.21900 21.89300
H  47.68300 18.01300 23.38500
H  46.95100 13.40200 22.21500
H  45.37500 13.13500 22.95800
H  46.16600 11.42200 24.15500
H  47.29600 12.38000 25.09400
H  47.86900 11.66200 23.62300
H  43.35400 12.28600 27.07800
H  42.39200 13.77100 27.50900
H  42.80800 12.25000 28.57200
H  45.31200 14.36300 32.26400
H  42.25900 16.57900 34.85000
H  43.63100 17.58000 34.81700
H  43.68800 16.08500 35.84700
Mg -5.50100 25.77500 25.65600
C  -4.10100 27.38900 28.39200
C  -7.15800 23.70800 27.69200
C  -6.43500 24.02500 22.96700
C  -3.55800 27.82800 23.63800
N  -5.57900 25.58600 27.81200
C  -5.00700 26.36300 28.79300
C  -5.55900 26.08800 30.21400
C  -6.37800 24.81800 29.92700
C  -6.29800 24.68600 28.37600
C  -6.03100 23.61800 30.76700
C  -6.34200 27.32100 30.83700
C  -5.89600 27.72800 32.19800
H  -5.32800 26.64800 33.09400
N  -6.68400 24.12900 25.35100
C  -7.36900 23.41500 26.36000
C  -8.13100 22.31600 25.90500
C  -7.89700 22.40100 24.43500
C  -6.88100 23.53400 24.19300
C  -8.87400 21.25400 26.73900
C  -8.56800 21.53800 23.34100
O  -8.33500 21.70800 22.17600
C  -9.70600 20.74400 23.74000
N  -5.15600 26.06100 23.48100
C  -5.60900 25.09700 22.58300
C  -5.05100 25.42800 21.14200
C  -4.14800 26.68700 21.39200
C  -4.25300 26.86700 22.93000
C  -4.32300 24.14100 20.66400
C  -4.56500 27.94800 20.54700
C  -4.66900 27.73900 18.98600
N  -4.16600 27.39400 25.85300
C  -3.51500 28.15100 25.01100
C  -2.69500 29.13300 25.71900
C  -2.90600 28.90800 27.07200
C  -3.82300 27.84200 27.12000
C  -1.75500 30.13900 25.11500
C  -2.47700 29.31500 28.42300
O  -1.74600 30.17400 28.85900
C  -3.28000 28.28000 29.28000
C  -2.30400 27.42700 30.10400
O  -1.74200 26.39300 29.67500
O  -2.23500 27.85500 31.42300
C  -1.22900 27.08600 32.28200
H  -7.75900 23.18000 28.43500
H  -6.65000 23.40200 22.09600
H  -2.97000 28.38900 22.90800
H  -4.69400 25.77900 30.80000
H  -7.42800 24.98700 30.16500
H  -6.90200 23.44500 31.39900
H  -5.11700 23.67200 31.35800
H  -5.93600 22.82800 30.02200
H  -7.38700 27.10900 31.06200
H  -6.23700 28.22800 30.24100
H  -6.81400 28.08900 32.66000
H  -5.19700 28.55400 32.06700
H  -8.57800 21.38600 27.78000
H  -8.69600 20.23600 26.39200
H  -9.95200 21.41500 26.73100
H  -10.37400 21.28700 24.40900
H  -9.28200 19.82700 24.14900
H  -10.32000 20.54700 22.86100
H  -5.97600 25.63900 20.60600
H  -3.09700 26.55200 21.13700
H  -4.77300 23.25800 21.11900
H  -3.24400 24.06000 20.80000
H  -4.53000 24.12700 19.59400
H  -3.79100 28.69700 20.71300
H  -5.55500 28.25900 20.88100
H  -4.25300 26.75700 18.76000
H  -4.04800 28.44200 18.43000
H  -5.66500 27.87500 18.56400
H  -1.56200 30.05900 24.04500
H  -0.77900 30.11400 25.60000
H  -2.11400 31.16300 25.22100
H  -3.90200 28.81400 29.99900
H  -0.27700 27.27700 31.78700
H  -1.45700 26.02200 32.34400
H  -1.15600 27.45500 33.30500

