158

Mg 49.68100 45.82300 41.31500
C  46.38300 45.90300 40.19800
C  49.89600 42.57600 40.32400
C  53.05200 46.04100 41.48000
C  49.47500 49.30200 41.87200
N  48.32800 44.50800 40.06500
C  47.04800 44.71700 39.87100
C  46.33700 43.48000 39.23800
C  47.42200 42.32200 39.62700
C  48.64500 43.15500 40.06900
C  46.98400 41.22800 40.67500
C  46.04600 43.70400 37.72200
C  44.64600 43.34100 37.23000
H  44.20200 43.92000 35.86300
N  51.21800 44.41000 41.26000
C  51.13600 43.08200 40.83500
C  52.40200 42.49900 40.83800
C  53.31700 43.58000 41.06200
C  52.52100 44.76400 41.28200
C  52.50400 40.96000 40.66000
C  54.86800 43.30900 41.11200
O  55.36600 42.23200 40.83100
C  55.82400 44.40700 41.48100
N  51.03800 47.43400 41.79800
C  52.37000 47.26200 41.79000
C  53.10700 48.56600 42.15300
C  51.93400 49.51900 42.57700
C  50.75300 48.73900 42.01700
C  54.29000 48.40500 43.07100
C  51.99500 50.95100 41.95400
C  52.54700 52.10300 42.83600
N  48.20500 47.32500 41.13900
C  48.31300 48.63600 41.41600
C  47.03500 49.24300 41.02000
C  46.19300 48.24000 40.63800
C  47.00400 47.08400 40.63800
C  46.68300 50.72700 41.30500
C  44.94000 47.92600 40.03800
O  44.01900 48.60400 39.72900
C  44.94500 46.35500 39.87400
C  43.99200 45.84600 40.84700
O  44.37800 45.40000 41.94000
O  42.66400 46.03200 40.47200
C  41.66200 45.45100 41.35900
H  49.84400 41.51900 40.05200
H  54.13500 46.17600 41.52500
H  49.34500 50.36600 42.08400
H  45.37400 43.31300 39.72200
H  47.60100 41.74800 38.71800
H  47.71200 40.95100 41.43800
H  46.72200 40.34600 40.09200
H  46.07800 41.49200 41.22000
H  46.71800 43.00700 37.22200
H  46.29100 44.71300 37.39000
H  43.93700 43.64900 37.99900
H  44.56000 42.25500 37.19800
H  53.29200 40.54200 41.28600
H  52.77000 40.72800 39.62900
H  51.63700 40.41600 41.03500
H  56.03200 45.12600 40.68900
H  56.77000 43.86900 41.54100
H  55.43100 44.83100 42.40500
H  53.55700 48.92400 41.22700
H  51.91800 49.45200 43.66500
H  54.17600 49.05600 43.93800
H  55.25000 48.67500 42.63100
H  54.39500 47.37900 43.42200
H  51.04400 51.24400 41.51000
H  52.71100 50.82500 41.14200
H  52.79400 51.62800 43.78500
H  51.86300 52.94400 42.95900
H  53.36400 52.55100 42.27100
H  46.88600 50.83900 42.36900
H  45.67900 50.98800 40.97000
H  47.42000 51.33900 40.78500
H  44.71800 46.06200 38.84900
H  41.00700 44.84000 40.73700
H  41.22100 46.32700 41.83500
H  42.05000 44.83700 42.17200
Mg 29.94900 57.45900 39.43600
C  27.09200 55.59800 38.40900
C  31.91900 55.17000 37.76100
C  32.47000 59.67900 39.68200
C  27.62800 60.07500 40.05700
N  29.49600 55.61800 38.23000
C  28.30900 55.03600 37.99000
C  28.50900 53.82900 37.10600
C  30.00800 53.58400 37.07400
C  30.51200 54.87600 37.72700
C  30.62500 52.23700 37.61200
C  27.86300 53.90100 35.58300
C  27.75700 55.38600 35.03700
H  27.44200 55.47700 33.56300
N  31.92000 57.35900 39.02400
C  32.56700 56.32800 38.32200
C  33.95600 56.54100 38.28600
C  34.13100 57.89600 38.73100
C  32.81200 58.38500 39.19800
C  34.94000 55.57600 37.71900
C  35.42800 58.58600 38.50900
O  36.41100 58.01800 38.10000
C  35.51200 60.00600 38.83300
N  30.03200 59.58100 39.93400
C  31.22300 60.15500 40.11200
C  31.07900 61.63300 40.52500
C  29.55400 61.71200 40.63800
C  28.96400 60.38900 40.22700
C  31.79100 62.16400 41.77300
C  28.81900 62.99800 40.05900
C  27.76600 63.58600 41.00200
N  27.78400 57.82000 39.35300
C  27.05100 58.88200 39.67700
C  25.63000 58.59200 39.52600
C  25.60000 57.25200 39.04400
C  26.92200 56.84900 38.97300
C  24.39000 59.47700 39.96300
C  24.71500 56.15100 38.59100
O  23.52700 56.13700 38.49100
C  25.73900 55.01800 38.19100
C  25.46600 53.82100 39.05800
O  26.13600 53.37200 39.96200
O  24.35500 53.21400 38.57400
C  23.84200 52.02000 39.22400
H  32.53000 54.37200 37.33400
H  33.35100 60.32400 39.71300
H  26.93200 60.88100 40.30000
H  27.97200 53.00200 37.57100
H  30.37300 53.49500 36.05100
H  31.57000 52.47900 38.09800
H  30.66600 51.53100 36.78200
H  30.05300 51.75400 38.40400
H  26.88300 53.42500 35.54000
H  28.47900 53.30200 34.91200
H  28.61800 55.95400 35.39000
H  26.86900 55.77400 35.53600
H  35.16600 55.71600 36.66200
H  34.54700 54.57600 37.90200
H  35.96000 55.67700 38.08900
H  36.42600 60.43400 38.41900
H  35.59500 60.10900 39.91500
H  34.75900 60.60500 38.32100
H  31.41400 62.22900 39.67600
H  29.26800 61.63900 41.68700
H  32.53000 61.42000 42.07200
H  31.11000 62.34600 42.60400
H  32.39100 63.03700 41.51500
H  28.22600 62.63700 39.21800
H  29.53800 63.77700 39.80400
H  28.15200 64.57100 41.26600
H  27.52500 63.13600 41.96500
H  26.86400 63.57700 40.39000
H  24.65900 60.07500 40.83400
H  23.49100 58.87400 40.08800
H  24.06800 60.10600 39.13400
H  25.58100 54.78000 37.13900
H  24.50400 51.16100 39.33100
H  22.85600 51.78700 38.82200
H  23.76300 52.28800 40.27800

