158

Mg 1.60000 -1.60300 43.94000
C  5.08400 -1.09000 43.76800
C  1.14900 1.37600 42.20300
C  -1.62500 -2.39100 43.51100
C  2.24600 -4.79500 45.15500
N  2.93300 0.05200 43.24300
C  4.33100 0.05200 43.20700
C  4.89200 1.29500 42.58100
C  3.54000 2.11200 42.32600
C  2.43200 1.06700 42.58300
C  3.38300 3.40700 43.11400
C  5.77400 0.88600 41.39700
C  5.24400 0.04300 40.27200
H  5.67800 0.36000 38.85800
N  -0.05600 -0.61600 42.99900
C  -0.00900 0.59400 42.26700
C  -1.38000 0.88900 41.81200
C  -2.19400 -0.13100 42.28000
C  -1.29500 -1.15600 42.95400
C  -1.77100 2.24100 41.14000
C  -3.74500 -0.00600 42.25300
O  -4.25400 1.04700 41.81700
C  -4.67000 -1.01700 42.93300
N  0.49100 -3.38800 44.20200
C  -0.82900 -3.33200 44.09000
C  -1.50600 -4.66200 44.56500
C  -0.25700 -5.39300 45.19800
C  0.92200 -4.48300 44.83100
C  -2.73300 -4.44000 45.61800
C  -0.01500 -6.91200 44.80600
C  0.03300 -7.76900 46.12000
N  3.29800 -2.72500 44.53300
C  3.41900 -4.02300 44.95600
C  4.77100 -4.27900 45.36600
C  5.49600 -3.15200 44.89400
C  4.53600 -2.28200 44.31200
C  5.32700 -5.50000 46.00400
C  6.76400 -2.54800 44.80900
O  7.86300 -2.99600 45.15100
C  6.53600 -1.19600 44.08400
C  7.01600 -0.11300 44.96000
O  6.58300 0.18200 46.04000
O  8.04100 0.55000 44.25400
C  8.39600 1.87600 44.72900
H  1.13000 2.31700 41.65000
H  -2.66000 -2.73700 43.52800
H  2.57500 -5.79200 45.45500
H  5.50900 1.82800 43.30400
H  3.56800 2.31500 41.25500
H  4.31800 3.91200 43.35700
H  2.83900 3.16800 44.02800
H  2.79000 4.12200 42.54400
H  6.73600 0.53400 41.77100
H  5.98600 1.82700 40.88900
H  4.15800 0.10200 40.34900
H  5.60400 -0.94600 40.55400
H  -2.13600 2.98500 41.84700
H  -2.49700 2.14200 40.33300
H  -0.85800 2.64600 40.70200
H  -5.64400 -0.81800 42.48600
H  -4.64200 -0.75500 43.99000
H  -4.29000 -2.02900 42.79100
H  -1.83700 -5.23000 43.69500
H  -0.27900 -5.31700 46.28600
H  -2.56300 -5.02300 46.52300
H  -3.72500 -4.62800 45.20800
H  -2.73300 -3.37700 45.86100
H  0.89700 -7.06600 44.22900
H  -0.85200 -7.25200 44.19600
H  -0.79400 -8.47800 46.10700
H  -0.05000 -7.14700 47.01100
H  0.96500 -8.33000 46.05400
H  4.53000 -6.17400 46.31500
H  5.89500 -5.33800 46.92100
H  6.01600 -5.94800 45.28800
H  7.22200 -1.30500 43.24400
H  9.08300 1.98200 45.56800
H  7.51200 2.47100 44.95800
H  8.98000 2.45100 44.01000
Mg 34.92500 3.19700 29.95300
C  32.78100 4.29800 32.51100
C  37.58400 3.45000 32.04700
C  36.91100 2.52900 27.32400
C  32.19900 3.45800 27.72400
N  35.17000 4.05300 31.92700
C  34.14500 4.21400 32.85000
C  34.66900 4.12600 34.28200
C  36.24400 4.17600 34.02700
C  36.35000 3.83800 32.58400
C  37.00000 5.46800 34.30700
C  34.19000 2.92200 35.10600
C  33.95200 3.04000 36.64100
H  34.66300 4.23500 37.28600
N  36.94400 2.92400 29.70400
C  37.88000 3.05100 30.70600
C  39.22600 2.62500 30.22100
C  39.03800 2.47300 28.80800
C  37.60400 2.69900 28.57300
C  40.44800 2.57400 31.15300
C  40.09900 2.08600 27.73700
O  39.83200 2.01300 26.51800
C  41.51500 1.81200 28.19300
N  34.61300 2.96300 27.85300
C  35.58000 2.58600 27.04600
C  35.09700 2.58800 25.57500
C  33.55100 2.52800 25.75100
C  33.43500 3.11800 27.21000
C  35.67800 3.94000 24.88600
C  32.86600 1.13800 25.50700
C  31.45100 1.10900 24.88300
N  32.83400 3.76400 30.03900
C  31.88700 3.75800 29.06400
C  30.57100 4.10300 29.68000
C  30.87600 4.28700 31.04600
C  32.31700 4.13900 31.20700
C  29.27500 4.15600 28.96300
C  30.31700 4.50600 32.34100
O  29.17200 4.69900 32.62500
C  31.51900 4.54900 33.38600
C  31.46700 5.85600 34.10000
O  31.22900 6.98200 33.57400
O  31.65500 5.65900 35.45100
C  31.40800 6.88900 36.24600
H  38.40800 3.46800 32.76400
H  37.57400 2.32500 26.48200
H  31.52100 3.52100 26.87100
H  34.38800 5.04600 34.79500
H  36.75300 3.35100 34.52600
H  37.58500 5.78300 33.44300
H  37.75700 5.45000 35.09100
H  36.20200 6.17100 34.54600
H  35.00400 2.21400 34.95500
H  33.27100 2.70800 34.56100
H  34.22000 2.13100 37.17900
H  32.90300 3.15400 36.91400
H  40.90000 1.58800 31.04800
H  40.14700 2.63600 32.19900
H  41.07000 3.37800 30.75800
H  42.06800 2.63800 28.64000
H  42.07600 1.44800 27.33200
H  41.45500 0.98400 28.89900
H  35.45400 1.72400 25.01400
H  33.07500 3.21100 25.04800
H  34.81400 4.53500 24.58800
H  36.22300 3.63400 23.99400
H  36.38600 4.46200 25.53000
H  33.01100 0.49400 26.37400
H  33.48100 0.67300 24.73700
H  31.60500 0.88800 23.82600
H  31.10300 2.14200 24.85800
H  30.72100 0.46000 25.36700
H  28.55200 4.58700 29.65500
H  28.92000 3.14500 28.76000
H  29.43700 4.75600 28.06700
H  31.41200 3.73600 34.10500
H  30.40200 7.22900 35.99700
H  32.27000 7.53300 36.07000
H  31.49100 6.72800 37.32100

