158

Mg 53.27500 24.95900 45.46100
C  50.91100 27.34300 44.25800
C  51.64100 22.57700 43.64200
C  56.13300 23.09000 45.17000
C  55.35000 27.77400 46.02500
N  51.40600 24.97600 44.24400
C  50.59300 26.04000 43.81800
C  49.49800 25.50200 42.88600
C  49.59200 23.96800 43.12100
C  50.97500 23.80300 43.61900
C  48.58900 23.20100 44.03000
C  49.65300 25.94400 41.33300
C  51.01900 26.34900 40.76600
H  51.68000 25.29000 39.88700
N  53.72200 23.02400 44.89700
C  52.87400 22.17100 44.16300
C  53.52600 20.88400 43.96000
C  54.81500 20.97000 44.50600
C  54.99600 22.42500 44.84900
C  52.67500 19.62000 43.52100
C  55.75300 19.88400 44.64700
O  55.43300 18.71800 44.26700
C  57.11700 20.09400 45.20900
N  55.39900 25.35600 45.47300
C  56.40600 24.41700 45.39100
C  57.89000 25.07200 45.74000
C  57.50700 26.50500 46.15900
C  56.00300 26.52600 45.83300
C  58.81900 24.27300 46.71300
C  58.35200 27.53200 45.40300
C  59.06500 28.65700 46.17600
N  53.11100 27.06800 45.49200
C  54.02600 28.04800 45.77600
C  53.29500 29.28500 46.03000
C  52.10600 29.03200 45.43600
C  52.03600 27.67000 45.02200
C  53.77600 30.57600 46.54300
C  50.93000 29.70300 44.91900
O  50.55900 30.88400 44.98200
C  50.14100 28.59900 44.17100
C  49.87000 29.07800 42.79900
O  50.72900 29.53800 41.96700
O  48.55700 28.94400 42.57500
C  47.97500 29.44400 41.32100
H  51.13100 21.84900 43.00700
H  57.05500 22.50500 45.16500
H  56.01700 28.58200 46.33400
H  48.62500 25.98800 43.32100
H  49.59100 23.50200 42.13600
H  47.80900 23.94200 44.20300
H  48.93200 22.91200 45.02400
H  48.13000 22.35300 43.52100
H  48.99600 26.77900 41.09300
H  49.30000 25.10000 40.73900
H  51.67000 26.77900 41.52700
H  50.79800 27.23800 40.17500
H  52.43900 19.08000 44.43800
H  53.11700 18.92000 42.81100
H  51.68800 19.87000 43.13300
H  57.48700 19.12400 45.54000
H  56.95900 20.68900 46.10800
H  57.82100 20.53500 44.50300
H  58.34300 25.16100 44.75200
H  57.40000 26.67800 47.23000
H  58.56500 23.22400 46.86500
H  58.80800 24.72400 47.70600
H  59.82900 24.24800 46.30200
H  57.76700 28.05500 44.64700
H  59.18900 27.05300 44.89400
H  58.87400 28.45000 47.22900
H  58.58000 29.61200 45.96900
H  60.14000 28.69400 46.00100
H  54.86200 30.66700 46.56700
H  53.20700 30.76600 47.45300
H  53.44400 31.27800 45.77800
H  49.26300 28.53000 44.81400
H  46.90300 29.26600 41.23800
H  48.28300 28.92300 40.41500
H  48.08500 30.52100 41.19100
Mg 36.01100 50.06700 25.40300
C  36.36400 48.32600 28.40100
C  34.70400 52.75300 27.10900
C  35.72500 51.65700 22.50200
C  37.46000 47.36900 23.75400
N  35.58500 50.50300 27.50900
C  35.81700 49.63700 28.56100
C  35.41900 50.24700 29.93600
C  34.70500 51.58900 29.51300
C  35.00100 51.62700 27.93100
C  33.19200 51.57500 29.82000
C  36.66500 50.46600 30.92100
C  36.39700 50.25000 32.38700
H  34.96600 50.09100 32.96600
N  35.18600 51.85400 24.83200
C  34.83300 52.84700 25.72600
C  34.55900 54.08400 24.98400
C  34.81800 53.78500 23.57400
C  35.26200 52.39600 23.56900
C  34.07700 55.33800 25.63800
C  34.80200 54.69000 22.30100
O  35.04700 54.17200 21.19800
C  34.48800 56.18300 22.41000
N  36.57400 49.56400 23.36200
C  36.34000 50.41300 22.33800
C  36.78900 49.79700 20.98300
C  37.66400 48.61100 21.55900
C  37.17300 48.43900 22.98000
C  35.59800 49.30600 20.16500
C  39.24500 48.98100 21.60700
C  40.18300 48.16100 20.62300
N  36.66800 48.21600 25.97200
C  37.26200 47.25400 25.18300
C  37.71900 46.12900 25.99900
C  37.31900 46.44600 27.31400
C  36.66700 47.73600 27.19500
C  38.50000 44.87700 25.58600
C  37.40500 46.02900 28.70800
O  37.88800 45.03100 29.21600
C  36.81700 47.33900 29.49000
C  35.75500 46.64700 30.37800
O  34.82300 46.01300 29.95800
O  36.15000 46.61200 31.74000
C  35.34100 45.63400 32.51000
H  34.27700 53.62500 27.60900
H  35.52600 52.11700 21.53100
H  38.23800 46.72200 23.34300
H  34.76200 49.53300 30.43300
H  35.18300 52.45600 29.96800
H  32.97300 50.69600 30.42700
H  32.54600 51.52200 28.94400
H  32.95700 52.49900 30.34800
H  37.14500 51.42100 30.70900
H  37.33900 49.66900 30.60500
H  36.82100 51.12500 32.87900
H  37.05300 49.42400 32.65900
H  34.10600 56.22300 25.00200
H  34.76000 55.52900 26.46600
H  33.11100 55.28000 26.13900
H  35.20300 56.71300 23.03900
H  33.45800 56.33200 22.73700
H  34.63300 56.54000 21.39100
H  37.42500 50.50400 20.45000
H  37.47500 47.65500 21.07100
H  35.79400 49.73700 19.18300
H  34.66100 49.65700 20.59700
H  35.61400 48.23100 19.98100
H  39.70000 48.72800 22.56500
H  39.40700 50.03400 21.38100
H  39.53000 47.95500 19.77500
H  40.59200 47.25400 21.06800
H  40.94700 48.88300 20.33500
H  39.26300 44.59500 26.31200
H  38.94400 45.12300 24.62200
H  37.86400 44.02200 25.36200
H  37.60000 47.70900 30.15300
H  35.34200 44.68900 31.96600
H  34.34400 45.97300 32.79000
H  35.75700 45.47900 33.50600

