158

Mg 35.95400 49.05400 25.45800
C  36.18600 47.16900 28.50700
C  34.27700 51.50400 27.09300
C  35.82900 50.75600 22.57200
C  37.51300 46.41700 23.84500
N  35.31000 49.22300 27.51200
C  35.62200 48.47800 28.60000
C  35.40500 49.21000 29.87500
C  34.61000 50.48800 29.43400
C  34.63100 50.41800 27.86000
C  33.17100 50.53500 30.03000
C  36.77600 49.45700 30.68300
C  36.90800 49.12200 32.23800
H  35.60300 49.39600 33.02200
N  35.08500 50.86500 24.87300
C  34.43900 51.77200 25.69100
C  33.82400 52.77100 24.91600
C  34.22600 52.53800 23.57300
C  35.07700 51.35600 23.59800
C  32.88700 53.88100 25.49100
C  33.96300 53.25600 22.25700
O  34.56500 53.04600 21.20900
C  32.96500 54.32600 22.27800
N  36.60200 48.69800 23.50300
C  36.38900 49.46200 22.46200
C  37.00600 48.95300 21.15500
C  37.62800 47.61700 21.63900
C  37.21400 47.57700 23.12600
C  35.96600 48.82400 19.99300
C  39.23800 47.48600 21.50600
C  39.76600 46.16000 21.13500
N  36.77500 47.17900 25.97500
C  37.33600 46.21100 25.17400
C  37.62100 44.99700 25.95400
C  37.29400 45.34500 27.29300
C  36.74700 46.65300 27.25200
C  38.00800 43.64600 25.45600
C  37.22500 44.90200 28.68400
O  37.57400 43.88300 29.20200
C  36.68200 46.08900 29.54800
C  35.56200 45.72200 30.43100
O  34.42300 45.47800 30.14000
O  36.08000 45.60600 31.74500
C  35.00700 45.31100 32.71600
H  33.92400 52.35600 27.67800
H  35.80500 51.30900 21.63100
H  38.11400 45.67900 23.31000
H  34.80200 48.51400 30.45800
H  35.16900 51.39100 29.67900
H  32.37400 50.67200 29.29900
H  33.13800 51.36600 30.73400
H  32.84900 49.67700 30.62100
H  37.01000 50.51600 30.57900
H  37.57600 48.99500 30.10600
H  37.74100 49.69300 32.64700
H  37.13300 48.05900 32.33000
H  33.43500 54.74200 25.87300
H  32.43900 53.36200 26.33800
H  32.11100 54.01800 24.73800
H  32.90500 54.61800 21.23000
H  33.25900 55.24600 22.78300
H  31.93200 54.08600 22.52900
H  37.73200 49.67100 20.77400
H  37.19500 46.75500 21.13100
H  36.07500 47.85100 19.51300
H  36.22700 49.61400 19.28900
H  34.94600 48.94800 20.35700
H  39.68300 47.81600 22.44500
H  39.43500 48.22400 20.72900
H  40.18600 46.14400 20.13000
H  39.10200 45.31100 21.30000
H  40.54000 45.91000 21.86000
H  38.45500 43.67900 24.46300
H  37.10900 43.04600 25.31800
H  38.64800 43.07300 26.12800
H  37.44100 46.61200 30.12900
H  34.79300 44.24400 32.77200
H  34.13100 45.92900 32.52000
H  35.28300 45.57400 33.73800
Mg 16.97300 51.19800 26.31100
C  18.80800 50.40500 29.16800
C  14.44500 52.30100 28.35600
C  14.97300 51.82900 23.64500
C  19.31900 49.93800 24.36000
N  16.62800 51.16300 28.50500
C  17.60500 51.02600 29.48000
C  17.12500 51.39900 30.87100
C  15.66300 51.80200 30.60000
C  15.54600 51.77300 29.03800
C  14.59300 51.00600 31.32200
C  18.02200 52.50200 31.54300
C  18.36000 52.12900 33.04400
H  17.40100 51.23400 33.84300
N  14.92300 52.02000 26.03300
C  14.09300 52.40300 27.02200
C  12.83500 52.81300 26.49500
C  13.02500 52.72900 25.03800
C  14.35000 52.16700 24.83800
C  11.59100 53.13600 27.32500
C  12.01800 53.15100 23.92400
O  12.33200 53.01500 22.78500
C  10.64800 53.66200 24.30600
N  17.15700 51.02100 24.23100
C  16.22900 51.28300 23.30300
C  16.63600 50.85000 21.94100
C  18.11400 50.38700 22.09000
C  18.29000 50.49300 23.67000
C  15.62800 49.89100 21.26900
C  19.28900 51.16400 21.35800
C  20.07900 50.44200 20.29800
N  18.75000 50.31600 26.62200
C  19.61500 49.86400 25.71200
C  20.70900 49.32500 26.41200
C  20.50500 49.58400 27.76800
C  19.24600 50.17800 27.88200
C  21.91900 48.67800 25.74200
C  21.01100 49.35400 29.12000
O  21.95700 48.66700 29.51400
C  19.92100 49.93300 30.10800
C  19.56300 48.76600 31.08000
O  18.60300 48.04200 31.04200
O  20.32600 48.85500 32.15400
C  20.16400 47.86200 33.24600
H  13.72600 52.56700 29.13400
H  14.38100 52.08000 22.76200
H  20.07600 49.44900 23.74300
H  17.25000 50.46600 31.42000
H  15.52600 52.84900 30.87000
H  13.99200 51.72600 31.87800
H  15.07200 50.20000 31.87700
H  13.79900 50.61300 30.68800
H  17.42100 53.40900 31.60000
H  18.92400 52.72200 30.97300
H  18.26200 53.09200 33.54300
H  19.38400 51.76200 33.12100
H  11.38200 54.19300 27.15700
H  11.79400 53.05300 28.39300
H  10.77600 52.48600 27.00900
H  10.05100 53.77100 23.40100
H  10.84500 54.51900 24.95000
H  10.09200 52.88500 24.83100
H  16.56300 51.73200 21.30600
H  18.10600 49.32200 21.85600
H  16.07400 48.95800 20.92300
H  15.08800 50.40000 20.47000
H  14.90900 49.60700 22.03700
H  19.97700 51.48600 22.14000
H  18.81200 52.05000 20.94100
H  19.69700 49.43500 20.13000
H  21.10000 50.34700 20.67000
H  20.08700 51.06300 19.40300
H  21.87300 48.64000 24.65400
H  22.22400 47.76500 26.25300
H  22.75800 49.36400 25.86000
H  20.33100 50.84000 30.55100
H  20.93100 48.04600 33.99800
H  20.44200 46.86500 32.90700
H  19.18100 48.07000 33.66900

