158

Mg 0.70200 44.02000 26.15700
C  2.11400 43.92200 29.24000
C  -2.42500 43.16600 27.47800
C  -0.63300 44.13200 23.05300
C  3.89200 44.64000 24.75100
N  0.00800 43.43200 28.06400
C  0.81000 43.55200 29.25100
C  -0.04000 43.57900 30.57200
C  -1.45800 43.17300 30.00200
C  -1.34700 43.28900 28.40200
C  -2.03300 41.85700 30.54900
C  -0.03400 44.95100 31.34800
C  -0.16600 44.84500 32.86200
H  -0.38400 43.51400 33.68400
N  -1.22200 43.63800 25.39200
C  -2.34800 43.28800 26.17500
C  -3.50700 43.22900 25.29700
C  -3.06200 43.63900 23.99000
C  -1.58900 43.82700 24.08800
C  -4.94100 42.86100 25.86000
C  -3.85300 43.98900 22.71800
O  -3.34300 44.38800 21.71300
C  -5.37100 44.00900 22.71300
N  1.51000 44.18300 24.16500
C  0.78300 44.23600 23.02900
C  1.55300 44.67700 21.79600
C  2.95100 45.09000 22.42600
C  2.82000 44.60000 23.86800
C  1.65000 43.62800 20.77800
C  3.14700 46.62400 22.34500
C  2.88400 47.47900 21.09200
N  2.62100 44.30800 26.78800
C  3.84500 44.44200 26.11900
C  4.86700 44.47500 27.12800
C  4.24300 44.27200 28.33800
C  2.92300 44.12700 28.05000
C  6.38200 44.65600 26.89000
C  4.54600 44.08000 29.69500
O  5.56000 44.21200 30.38900
C  3.12000 43.85000 30.38300
C  3.16400 42.59600 31.16200
O  2.85100 41.45600 30.77400
O  3.68400 42.80100 32.48700
C  3.92800 41.62300 33.31700
H  -3.39000 43.10500 27.98700
H  -1.05800 44.26100 22.05500
H  4.91900 44.75800 24.40000
H  0.31700 42.87100 31.32000
H  -2.20600 43.92400 30.25500
H  -1.12700 41.30800 30.80600
H  -2.51200 41.25600 29.77600
H  -2.77700 42.12900 31.29800
H  -0.93500 45.50800 31.09000
H  0.74900 45.65200 31.05800
H  -0.95500 45.50800 33.21800
H  0.67600 45.36800 33.31600
H  -4.82400 41.98900 26.50300
H  -5.54400 42.66700 24.97200
H  -5.26700 43.68300 26.49700
H  -5.79400 43.03700 22.46000
H  -5.58000 44.62600 21.83900
H  -5.82400 44.39100 23.62800
H  1.13000 45.52500 21.25700
H  3.80000 44.61700 21.93200
H  1.10200 42.72200 21.03600
H  2.68400 43.44100 20.48800
H  1.21700 44.05000 19.87200
H  4.21900 46.77900 22.47400
H  2.66500 47.06900 23.21600
H  3.83800 47.95100 20.85900
H  2.08100 48.18100 21.31500
H  2.57900 46.79200 20.30200
H  6.89000 43.75300 26.55100
H  6.61800 45.10700 27.85300
H  6.54100 45.42700 26.13600
H  2.93000 44.64600 31.10200
H  3.06700 40.96200 33.22500
H  3.98000 42.00600 34.33600
H  4.88000 41.18300 33.01700
Mg -10.73100 16.75200 40.65000
C  -7.39300 16.09900 41.14800
C  -10.00800 19.98300 39.84700
C  -13.86700 17.06600 39.45900
C  -11.24900 13.19700 40.71600
N  -8.86600 17.84500 40.53600
C  -7.62600 17.42700 40.74100
C  -6.61400 18.55100 40.53100
C  -7.54300 19.85000 40.57100
C  -8.90300 19.21600 40.36700
C  -7.64300 20.64000 41.94800
C  -5.95500 18.41600 39.08700
C  -4.48500 17.94300 39.07000
H  -4.19300 16.69200 38.27300
N  -11.86300 18.28200 39.90200
C  -11.34700 19.52900 39.60900
C  -12.40900 20.31900 38.96500
C  -13.60800 19.58700 38.97800
C  -13.12300 18.26000 39.46400
C  -12.15100 21.59000 38.38700
C  -15.00400 20.00200 38.59900
O  -15.17700 21.16900 38.34300
C  -16.17300 19.09800 38.78000
N  -12.24900 15.28900 39.94500
C  -13.51300 15.71700 39.77300
C  -14.50600 14.59700 39.90300
C  -13.61700 13.30200 39.96800
C  -12.28700 13.94400 40.25500
C  -15.59200 14.79300 41.10200
C  -13.69100 12.33500 38.76300
C  -13.79800 10.85000 39.08200
N  -9.54100 14.92500 40.88600
C  -9.99000 13.65100 41.01900
C  -8.75800 12.85700 41.38600
C  -7.70600 13.74900 41.48200
C  -8.29300 14.99000 41.15400
C  -8.73500 11.45100 41.78800
C  -6.30000 13.93600 41.75300
O  -5.38800 13.09600 41.96700
C  -6.07600 15.47400 41.63100
C  -5.73800 15.98100 42.95400
O  -6.45400 16.10700 43.94200
O  -4.36100 16.20000 43.02800
C  -3.82100 16.54200 44.35700
H  -9.62400 20.97500 39.60000
H  -14.89100 17.10500 39.08300
H  -11.37800 12.12000 40.84900
H  -5.89900 18.49900 41.35200
H  -7.33000 20.61900 39.82900
H  -7.68300 21.69900 41.69400
H  -6.75300 20.38600 42.52400
H  -8.53400 20.40700 42.53000
H  -6.04300 19.43100 38.70200
H  -6.60200 17.75300 38.51300
H  -4.25100 17.76200 40.11900
H  -3.88100 18.74800 38.65200
H  -12.00500 21.48500 37.31200
H  -11.24100 22.04400 38.78000
H  -12.87200 22.39800 38.51400
H  -16.94200 19.86000 38.90900
H  -16.07300 18.45800 39.65700
H  -16.41600 18.52300 37.88700
H  -15.12600 14.48700 39.01200
H  -13.77000 12.72200 40.87800
H  -16.04700 15.72600 40.76900
H  -15.24000 15.07400 42.09500
H  -16.33100 14.02700 41.33600
H  -12.82300 12.44700 38.11400
H  -14.51300 12.60900 38.10100
H  -13.38400 10.56700 40.05000
H  -13.22900 10.26700 38.35800
H  -14.81500 10.50400 38.89700
H  -7.97300 11.22100 42.53200
H  -8.49500 10.88700 40.88600
H  -9.72600 11.12100 42.09900
H  -5.15700 15.65300 41.07200
H  -2.78200 16.84900 44.24100
H  -3.89200 15.77100 45.12400
H  -4.32400 17.42000 44.76400

