158

Mg 29.85100 58.95100 38.58300
C  26.77900 57.26100 37.79400
C  31.50800 56.07000 38.05700
C  32.56600 60.89400 38.52500
C  27.94100 62.00600 38.61900
N  29.25400 57.02100 37.87500
C  28.00800 56.48100 37.63400
C  28.09000 55.03900 36.97500
C  29.47400 54.62800 37.58200
C  30.15100 55.97400 37.81000
C  29.39600 53.78700 38.86700
C  27.97600 55.03100 35.42900
C  26.64800 54.55600 34.78700
H  25.80000 55.43900 33.88600
N  31.83600 58.52200 38.48600
C  32.32800 57.24500 38.26200
C  33.71900 57.37100 38.13900
C  34.13200 58.74600 38.40900
C  32.80800 59.48800 38.54400
C  34.56600 56.13000 37.91000
C  35.50600 59.27200 38.45200
O  36.44100 58.63200 38.09300
C  35.75600 60.73800 38.96500
N  30.18600 61.21500 38.42900
C  31.41900 61.68200 38.49900
C  31.43200 63.24200 38.34800
C  29.87700 63.57500 38.28500
C  29.30500 62.20400 38.43500
C  32.18900 63.96400 39.50400
C  29.47100 64.27800 36.97300
C  29.83700 65.72200 36.86800
N  27.77600 59.54800 38.42100
C  27.19600 60.81500 38.55400
C  25.72400 60.58700 38.61000
C  25.50300 59.22800 38.33100
C  26.78000 58.65200 38.23800
C  24.68200 61.74100 38.69500
C  24.52400 58.26700 38.05300
O  23.31800 58.40400 38.08200
C  25.23100 56.96500 37.56000
C  24.76900 55.88400 38.57300
O  24.51600 56.08300 39.78400
O  24.30300 54.80600 37.80500
C  23.16000 54.18400 38.31400
H  32.06000 55.13500 37.94200
H  33.48300 61.47100 38.39200
H  27.32500 62.90500 38.69200
H  27.27400 54.46600 37.41500
H  30.06500 54.06100 36.86200
H  28.51100 53.17800 39.05100
H  29.59900 54.52900 39.64000
H  30.21100 53.06300 38.86100
H  28.64300 54.31600 34.94600
H  28.31200 56.02000 35.11800
H  25.91400 54.12600 35.46900
H  27.00700 53.77700 34.11400
H  35.62900 56.32000 38.06100
H  34.35200 55.68000 36.94100
H  34.25200 55.39500 38.65100
H  36.81400 60.93300 39.13900
H  35.18300 61.01200 39.85100
H  35.53100 61.47400 38.19300
H  31.92300 63.43900 37.39500
H  29.46700 64.12200 39.13500
H  31.49800 64.71600 39.88500
H  33.10300 64.47700 39.20600
H  32.28500 63.33900 40.39200
H  28.40500 64.17500 36.76800
H  29.97300 63.79400 36.13600
H  29.01600 66.41600 36.68800
H  30.58200 65.75500 36.07300
H  30.49400 66.05800 37.67000
H  25.05600 62.58400 38.11500
H  24.51400 62.11000 39.70700
H  23.68900 61.56400 38.28400
H  24.89400 56.73000 36.55000
H  22.45500 53.99400 37.50400
H  22.52400 54.84800 38.89900
H  23.32000 53.19300 38.73800
Mg 16.32400 52.28900 24.83200
C  17.89500 51.28600 27.76900
C  13.46300 52.86100 26.66700
C  14.54400 52.74700 22.03200
C  19.04200 50.94600 23.06700
N  15.72000 52.03000 27.04200
C  16.57100 51.77100 28.02700
C  15.83700 52.06100 29.41200
C  14.42400 52.47400 28.99900
C  14.50300 52.38100 27.45700
C  13.33900 51.49800 29.59200
C  16.56300 53.26700 30.03900
C  16.83500 53.28900 31.53100
H  16.00100 52.36400 32.45100
N  14.25800 52.81500 24.33000
C  13.30000 53.10500 25.23200
C  12.05200 53.50700 24.55600
C  12.35900 53.48100 23.23300
C  13.79100 52.94200 23.11900
C  10.86000 53.87200 25.41800
C  11.47600 53.79700 22.10700
O  11.92100 53.77300 20.92300
C  10.02200 54.17300 22.23800
N  16.72700 51.80600 22.76100
C  15.85200 52.14800 21.76400
C  16.40300 51.88800 20.34700
C  17.81000 51.50400 20.68100
C  17.91200 51.37900 22.27500
C  15.64000 50.80800 19.57200
C  18.88600 52.44900 20.03500
C  19.21300 53.69800 20.88500
N  18.27900 51.36700 25.29900
C  19.17900 50.81100 24.43500
C  20.25000 50.29400 25.23300
C  19.80800 50.46500 26.52100
C  18.53900 51.02700 26.54200
C  21.54200 49.75900 24.81900
C  20.12800 50.37200 27.95300
O  21.10100 49.85400 28.48600
C  18.93700 50.98000 28.80800
C  18.46800 49.88500 29.65900
O  17.59400 49.03200 29.38500
O  19.16600 49.90000 30.79900
C  18.87300 48.84800 31.79300
H  12.58700 53.02200 27.29900
H  14.06700 53.19400 21.15700
H  19.74800 50.48900 22.37000
H  15.89000 51.13400 29.98300
H  14.20300 53.49400 29.31500
H  13.78200 50.54700 29.88700
H  12.53800 51.27600 28.88600
H  12.96000 51.96100 30.50300
H  16.24900 54.25600 29.70600
H  17.55100 53.23500 29.57900
H  16.56100 54.30400 31.82300
H  17.87500 53.06300 31.76500
H  10.11800 53.07500 25.37700
H  10.27400 54.72300 25.07100
H  11.03800 54.12000 26.46400
H  9.82300 55.20000 22.54700
H  9.45800 53.55000 22.93200
H  9.49000 54.25200 21.28900
H  16.41400 52.89700 19.93600
H  18.04300 50.52100 20.27100
H  15.16000 51.25600 18.70300
H  14.79600 50.47900 20.17900
H  16.18700 50.00500 19.07700
H  18.67900 52.74100 19.00500
H  19.85200 51.96100 19.90200
H  18.40400 53.85900 21.59700
H  19.18600 54.47400 20.11900
H  20.17100 53.66200 21.40400
H  21.97200 50.58500 24.25200
H  21.26900 48.87400 24.24600
H  22.16000 49.60400 25.70400
H  19.36200 51.74800 29.45600
H  17.80300 48.87000 32.00100
H  19.29500 49.06000 32.77500
H  19.27200 47.90800 31.41100

