158

Mg 41.36400 41.60100 26.48700
C  40.76300 43.74200 29.18300
C  42.90200 39.39600 28.75400
C  42.04500 39.48900 23.98900
C  40.67600 44.05200 24.24400
N  41.70700 41.54500 28.72000
C  41.31600 42.48400 29.55500
C  41.48800 42.03600 31.03600
C  42.57300 40.76700 30.89700
C  42.43500 40.53900 29.39000
C  43.99000 41.03500 31.40800
C  40.18500 41.88200 31.90100
C  40.07200 42.72000 33.18900
H  39.83800 41.90700 34.48300
N  42.31500 39.70400 26.41500
C  42.86000 38.98800 27.41000
C  43.37200 37.75200 26.94600
C  43.17800 37.71200 25.54800
C  42.47700 39.02400 25.25400
C  44.08500 36.62800 27.79400
C  43.57200 36.62500 24.52100
O  43.45500 36.80700 23.34200
C  44.13000 35.34000 25.03400
N  41.41400 41.76100 24.39400
C  41.71200 40.70000 23.51900
C  41.31700 41.05100 22.04800
C  41.00600 42.63200 22.18200
C  40.97800 42.83600 23.64700
C  42.33900 40.66700 21.03200
C  39.66900 43.06100 21.49900
C  39.85300 44.29000 20.60200
N  40.80000 43.50400 26.62000
C  40.60700 44.39100 25.58500
C  40.22000 45.61600 26.15100
C  40.23800 45.44500 27.56600
C  40.60600 44.12900 27.81600
C  39.95300 46.82200 25.37000
C  39.96700 46.04800 28.90500
O  39.53200 47.19100 29.19800
C  40.29400 44.99900 29.90300
C  41.41300 45.51800 30.78000
O  42.55500 45.14900 30.74100
O  40.92100 46.41200 31.72900
C  41.81900 46.80600 32.78900
H  43.29900 38.72600 29.52000
H  42.22500 38.80900 23.15300
H  40.32200 44.80000 23.53200
H  42.10400 42.82600 31.46700
H  42.16000 39.90600 31.42100
H  44.18800 42.09700 31.26100
H  44.66800 40.32200 30.93800
H  44.00500 40.88600 32.48800
H  40.09400 40.83100 32.17700
H  39.36800 42.11400 31.21800
H  39.26100 43.43700 33.05700
H  41.00300 43.26600 33.34100
H  45.08200 36.56800 27.35600
H  43.48400 35.71900 27.79500
H  44.08700 36.97900 28.82600
H  43.43700 34.80100 25.68000
H  45.06900 35.51400 25.56000
H  44.47700 34.69000 24.23100
H  40.38100 40.58600 21.73900
H  41.85000 43.21600 21.81400
H  42.81200 41.53600 20.57600
H  41.79600 40.15300 20.23800
H  43.05000 40.14200 21.67000
H  38.93300 43.26700 22.27600
H  39.19900 42.26900 20.91600
H  40.15500 45.12800 21.23000
H  38.94800 44.61500 20.08800
H  40.54800 44.12500 19.77800
H  40.81500 46.82400 24.70300
H  39.99800 47.76700 25.91100
H  39.03600 46.67200 24.80000
H  39.45400 44.73700 30.54700
H  42.24500 47.80000 32.65100
H  42.60400 46.10200 33.06500
H  41.11600 46.99900 33.60000
Mg -12.96500 16.41300 42.33500
C  -9.85400 14.81900 41.72300
C  -11.95200 19.10000 40.51300
C  -16.13800 17.41200 42.30900
C  -14.08400 13.21500 43.61000
N  -11.07100 16.95500 41.37800
C  -9.91400 16.19000 41.23900
C  -8.83600 17.00700 40.50100
C  -9.53000 18.38600 40.31700
C  -10.93200 18.14800 40.70800
C  -8.90600 19.43900 41.33300
C  -8.48200 16.40000 39.10800
C  -6.94100 16.30000 38.87100
H  -6.39000 15.09600 38.16300
N  -13.91000 18.09200 41.59500
C  -13.27500 19.09200 40.89600
C  -14.29100 20.12800 40.56800
C  -15.50700 19.76400 41.18400
C  -15.22700 18.35500 41.70300
C  -13.97700 21.41100 39.81100
C  -16.80900 20.57600 41.21800
O  -16.85400 21.70800 40.69900
C  -18.00500 20.02400 41.90500
N  -14.80600 15.44900 42.75400
C  -16.05300 16.09800 42.79800
C  -17.23500 15.16600 43.12000
C  -16.51600 13.95900 43.69300
C  -15.02700 14.13500 43.19300
C  -18.29200 15.84500 44.13300
C  -17.07500 12.53000 43.34500
C  -16.95400 11.44700 44.36800
N  -12.20300 14.37700 42.63700
C  -12.74300 13.22600 43.23300
C  -11.68300 12.25100 43.41900
C  -10.53600 12.88600 42.86500
C  -10.96600 14.12700 42.37800
C  -11.90700 10.98100 44.13400
C  -9.08300 12.77900 42.66700
O  -8.31500 11.88400 42.97200
C  -8.57500 14.08100 41.91700
C  -7.53900 14.66200 42.81000
O  -7.75800 15.03400 43.95100
O  -6.35800 14.96700 42.18100
C  -5.39600 15.86200 42.81800
H  -11.79200 19.99900 39.91400
H  -17.16500 17.77600 42.23600
H  -14.29600 12.22400 44.01600
H  -7.88900 17.00100 41.04000
H  -9.38800 18.82600 39.33000
H  -9.70100 19.93500 41.88900
H  -8.51200 20.24600 40.71600
H  -8.17300 18.98600 42.00000
H  -8.83800 16.97700 38.25400
H  -8.86400 15.38700 38.98300
H  -6.36300 16.39500 39.79000
H  -6.70600 17.22800 38.34900
H  -14.81300 21.68300 39.16700
H  -13.21500 21.20800 39.05800
H  -13.66800 22.21300 40.48100
H  -18.37400 19.20300 41.29100
H  -18.80100 20.76300 41.81400
H  -17.89600 19.75300 42.95500
H  -17.73700 14.93200 42.18100
H  -16.48800 14.06000 44.77800
H  -19.25800 15.36800 43.96700
H  -18.32600 16.91900 43.95100
H  -17.95400 15.66500 45.15300
H  -16.37600 12.29200 42.54300
H  -18.07800 12.77900 43.00000
H  -17.92600 10.99800 44.57200
H  -16.56100 11.95800 45.24700
H  -16.22300 10.68100 44.11000
H  -10.90400 10.61100 44.34600
H  -12.47800 10.29600 43.50600
H  -12.42600 11.09400 45.08500
H  -8.12700 13.60500 41.04500
H  -4.83000 15.36700 43.60600
H  -5.88900 16.77400 43.15400
H  -4.57000 16.18000 42.18200

