158

Mg -3.01000 16.49000 26.37800
C  -3.39400 14.28500 29.04100
C  -4.36200 18.91300 28.31100
C  -3.25300 18.50200 23.55800
C  -2.77100 13.71900 24.20800
N  -3.66200 16.52900 28.40800
C  -3.56700 15.56800 29.37900
C  -3.89600 16.10600 30.84700
C  -4.54800 17.47500 30.41700
C  -4.09300 17.68100 28.93700
C  -6.07200 17.42000 30.64800
C  -2.63600 16.28700 31.76100
C  -2.56400 15.38600 32.94700
H  -3.17900 16.01800 34.16600
N  -3.43500 18.43200 26.00900
C  -3.98500 19.28000 26.97200
C  -3.89000 20.64800 26.43900
C  -3.35600 20.58900 25.11700
C  -3.34200 19.10800 24.83100
C  -4.37700 21.85300 27.30100
C  -2.97000 21.69000 24.13500
O  -2.58600 21.41000 22.99900
C  -3.07700 23.09600 24.54800
N  -3.18300 16.16300 24.15200
C  -3.13000 17.15300 23.24100
C  -2.98800 16.63300 21.79800
C  -2.41600 15.17900 22.13500
C  -2.80600 15.00400 23.61100
C  -4.35400 16.58500 20.95600
C  -0.87300 15.05700 21.75000
C  0.09000 15.64100 22.79100
N  -3.00200 14.41700 26.47900
C  -2.94100 13.41300 25.51500
C  -3.04600 12.15100 26.09700
C  -3.15000 12.42200 27.44300
C  -3.20100 13.81600 27.63300
C  -3.13200 10.79500 25.43400
C  -3.24900 11.79200 28.70400
O  -3.07100 10.60500 29.06800
C  -3.53700 12.94000 29.78200
C  -2.51900 12.66200 30.82600
O  -1.37800 13.06600 30.87100
O  -3.04300 11.87800 31.83300
C  -2.11200 11.55100 32.87300
H  -4.72200 19.66000 29.02100
H  -3.11600 19.07100 22.63500
H  -2.59000 12.92200 23.48300
H  -4.64100 15.40500 31.22300
H  -4.21400 18.33500 30.99600
H  -6.34600 17.05300 31.63700
H  -6.68400 17.02600 29.83600
H  -6.35800 18.47100 30.60800
H  -2.63500 17.34500 32.02200
H  -1.74800 16.25900 31.13000
H  -1.50000 15.15800 33.01900
H  -3.10300 14.46500 32.72700
H  -5.14700 21.54700 28.00800
H  -4.88300 22.55800 26.64200
H  -3.58200 22.49400 27.68100
H  -2.51500 23.16800 25.47900
H  -4.10000 23.44300 24.69000
H  -2.69300 23.76400 23.77700
H  -2.34900 17.31200 21.23300
H  -3.09900 14.55700 21.55700
H  -5.09900 16.80600 21.72000
H  -4.77500 15.73600 20.41700
H  -4.37000 17.35900 20.18900
H  -0.73500 15.66500 20.85600
H  -0.62600 14.00400 21.60800
H  -0.45300 16.30100 23.46700
H  0.81600 16.29000 22.30200
H  0.49900 14.77100 23.30400
H  -2.97200 10.96300 24.36900
H  -4.15200 10.48500 25.66200
H  -2.37600 10.14000 25.86800
H  -4.52600 12.78900 30.21500
H  -2.64100 11.62600 33.82300
H  -1.23300 12.15800 33.08900
H  -1.73500 10.54200 32.70700
Mg 35.19000 2.13100 28.86100
C  33.08500 3.19300 31.52500
C  37.80500 2.15600 31.23900
C  37.24200 1.49100 26.54200
C  32.53800 2.52300 26.67800
N  35.39800 2.63100 31.07300
C  34.39600 2.92500 31.92300
C  34.93900 3.00700 33.39700
C  36.45200 2.96500 33.26700
C  36.60900 2.65300 31.73500
C  37.13100 4.31100 33.65800
C  34.30000 1.82300 34.22700
C  34.09700 1.97500 35.75000
H  34.80100 3.04600 36.55500
N  37.20700 1.86400 28.85900
C  38.14900 1.84000 29.88300
C  39.42400 1.39600 29.42900
C  39.29600 1.30300 27.99900
C  37.85600 1.53500 27.75700
C  40.65500 1.04800 30.31200
C  40.38000 1.13000 26.98500
O  40.09400 1.19400 25.80200
C  41.82500 1.18700 27.48400
N  34.92000 2.07800 26.86900
C  35.93600 1.72300 26.12700
C  35.51100 1.44200 24.58700
C  33.94400 1.64500 24.67400
C  33.78900 2.14900 26.13500
C  36.22300 2.28200 23.54300
C  33.04200 0.41400 24.36000
C  32.91300 -0.81500 25.34200
N  33.18000 2.58600 29.00100
C  32.18400 2.72900 28.01200
C  30.94200 3.07400 28.59200
C  31.22700 3.28200 29.92700
C  32.61300 3.00500 30.15500
C  29.63800 3.22300 27.74500
C  30.68300 3.69900 31.25200
O  29.59600 4.04900 31.64900
C  31.82100 3.44900 32.31600
C  31.78500 4.57600 33.18400
O  32.36400 5.63800 32.95200
O  31.14000 4.18000 34.38900
C  31.29800 5.25100 35.35500
H  38.60400 2.15400 31.98400
H  37.72200 1.15300 25.62200
H  31.77900 2.60600 25.89700
H  34.47500 3.90800 33.79900
H  36.90200 2.24900 33.95400
H  38.00500 4.50600 33.03700
H  37.43100 4.29300 34.70500
H  36.28300 4.99500 33.61900
H  34.82900 0.87100 34.18600
H  33.27300 1.62400 33.92100
H  34.09500 0.96300 36.15500
H  33.07700 2.35700 35.76500
H  40.86700 0.00100 30.09600
H  40.49400 1.06700 31.39000
H  41.51600 1.68200 30.09600
H  42.50200 1.40900 26.66000
H  42.13000 0.33100 28.08700
H  41.82100 2.09900 28.08100
H  35.65900 0.38700 24.35800
H  33.58500 2.38600 23.95900
H  36.58100 1.62000 22.75500
H  37.07700 2.86500 23.88700
H  35.57700 3.02100 23.06800
H  33.45900 -0.01300 23.44800
H  32.07100 0.86800 24.16000
H  33.50000 -0.61200 26.23800
H  33.37300 -1.60400 24.74700
H  31.86500 -1.04700 25.52800
H  28.93500 2.45300 28.06400
H  29.88200 3.00900 26.70400
H  29.38200 4.25500 27.98400
H  31.39000 2.66800 32.94300
H  31.06600 6.26000 35.01300
H  32.30400 5.19900 35.77000
H  30.61900 5.14300 36.20100

