158

Mg 17.26700 -1.29400 27.76900
C  16.12100 0.66500 30.46400
C  19.42200 -2.75000 29.82700
C  18.66600 -2.71100 24.98000
C  15.20600 0.70400 25.66600
N  17.75300 -1.01100 29.93500
C  17.04000 -0.27300 30.86400
C  17.38200 -0.73000 32.27200
C  18.55400 -1.71300 32.01600
C  18.59700 -1.83900 30.47800
C  19.91700 -1.34000 32.75900
C  16.15300 -1.34100 33.09200
C  16.14300 -0.73100 34.54600
H  17.45700 -0.28600 35.26400
N  18.88300 -2.65800 27.47400
C  19.57600 -3.21300 28.51300
C  20.32700 -4.33300 27.94800
C  20.17000 -4.31400 26.56300
C  19.20100 -3.17300 26.28500
C  21.16200 -5.24900 28.88700
C  20.78000 -5.22400 25.50300
O  20.52800 -5.12800 24.29600
C  21.76200 -6.29200 25.86000
N  16.96500 -1.07400 25.67800
C  17.66200 -1.77100 24.69700
C  17.24300 -1.29700 23.29600
C  16.14700 -0.30300 23.53300
C  15.99100 -0.26400 25.05900
C  18.54000 -0.94600 22.45100
C  14.75300 -0.45200 22.81300
C  14.68400 0.26600 21.46000
N  15.87700 0.31200 27.93100
C  15.14900 0.98900 27.03500
C  14.28700 1.92800 27.69600
C  14.66100 1.86200 29.00600
C  15.66100 0.88800 29.14300
C  13.29000 2.83200 27.01400
C  14.41700 2.38400 30.33500
O  13.61500 3.20300 30.71000
C  15.31300 1.57700 31.33900
C  16.18400 2.55000 32.17300
O  17.15300 3.14800 31.84900
O  15.61400 2.56900 33.41600
C  16.27300 3.38300 34.40300
H  20.11400 -3.35400 30.41700
H  19.18900 -3.09500 24.10200
H  14.59200 1.29500 24.98400
H  17.72500 0.11700 32.86600
H  18.27900 -2.73000 32.29500
H  20.12000 -2.19800 33.39900
H  19.93200 -0.45600 33.39600
H  20.69200 -1.14000 32.01900
H  16.30100 -2.42000 33.03900
H  15.25500 -0.96600 32.60100
H  15.61100 -1.49600 35.11100
H  15.41400 0.07700 34.48600
H  20.90100 -6.27700 28.63400
H  21.03200 -5.14500 29.96400
H  22.24400 -5.14900 28.79700
H  21.26900 -7.07600 26.43500
H  22.39200 -5.81900 26.61200
H  22.26000 -6.56500 24.92900
H  16.85000 -2.12700 22.70900
H  16.58700 0.67100 23.32000
H  19.47400 -1.14400 22.97600
H  18.40900 0.11700 22.24400
H  18.64300 -1.47500 21.50400
H  13.98100 -0.18100 23.53300
H  14.65000 -1.52500 22.65500
H  15.67300 0.70700 21.33900
H  13.99300 1.10900 21.45100
H  14.49500 -0.59600 20.82000
H  12.35700 2.28400 26.88300
H  13.65400 3.10100 26.02200
H  13.18600 3.84800 27.39400
H  14.63800 1.00700 31.97800
H  15.99600 4.39300 34.10100
H  17.32100 3.10300 34.29700
H  15.84900 3.00300 35.33300
Mg 44.83900 4.30200 46.35400
C  43.06200 7.25700 46.27000
C  41.90000 2.55100 45.72600
C  46.69500 1.53000 45.76900
C  47.86600 6.15300 46.52900
N  42.78500 4.84900 45.84900
C  42.24700 6.17000 45.83600
C  40.73100 6.13500 45.74200
C  40.32300 4.61800 45.76000
C  41.71300 3.98200 45.78900
C  39.31100 4.17500 46.89800
C  40.19900 6.80300 44.39800
C  40.93400 6.60800 43.06600
H  40.08700 6.46900 41.78300
N  44.34800 2.31700 45.79000
C  43.09700 1.76700 45.71900
C  43.19100 0.36200 45.54700
C  44.55600 0.02800 45.62600
C  45.29700 1.32800 45.72200
C  41.96100 -0.53200 45.35300
C  45.12000 -1.38700 45.65200
O  44.32100 -2.29100 45.65800
C  46.52900 -1.80800 45.84500
N  46.91600 3.89300 46.00500
C  47.46600 2.66400 45.88200
C  49.00700 2.62100 46.10000
C  49.25400 4.06600 46.52800
C  47.91800 4.76800 46.25600
C  49.60900 1.59200 47.08300
C  50.49600 4.71700 45.87400
C  51.60300 4.97500 46.90700
N  45.41700 6.36800 46.62000
C  46.65500 6.94400 46.63800
C  46.42900 8.38000 46.70900
C  45.01100 8.55000 46.69500
C  44.46200 7.28100 46.51500
C  47.52600 9.35800 46.70900
C  43.99200 9.51800 46.76800
O  44.01200 10.72900 47.00500
C  42.61600 8.73600 46.49100
C  41.74000 8.91200 47.67300
O  41.65000 8.09800 48.56900
O  40.82100 9.94200 47.52600
C  39.68900 9.98600 48.45400
H  40.97300 1.98400 45.62300
H  47.38400 0.68300 45.79000
H  48.82700 6.63200 46.72900
H  40.31800 6.73900 46.55000
H  39.83600 4.42700 44.80300
H  39.54600 3.25800 47.43700
H  38.40400 3.97100 46.32900
H  39.20800 5.01800 47.58100
H  40.26700 7.87200 44.60200
H  39.13300 6.60000 44.29800
H  41.55000 5.72600 43.24400
H  41.59400 7.47300 43.00800
H  42.10800 -1.08100 44.42300
H  40.95400 -0.12200 45.26800
H  42.05000 -1.40200 46.00200
H  47.17600 -1.49100 45.02600
H  46.59100 -2.89200 45.75600
H  46.77400 -1.31600 46.78600
H  49.53100 2.53800 45.14900
H  49.26800 3.99600 47.61600
H  50.13700 0.83200 46.50700
H  48.82600 1.13900 47.69100
H  50.38200 2.01200 47.72800
H  50.34600 5.66100 45.35100
H  50.93300 4.05100 45.13000
H  52.58700 4.79000 46.47500
H  51.41900 4.47000 47.85600
H  51.50600 6.02500 47.18100
H  48.30700 9.27600 47.46600
H  47.17600 10.36400 46.94100
H  47.99800 9.38400 45.72700
H  42.02500 9.22700 45.71800
H  40.01900 10.05200 49.49000
H  39.17700 9.02400 48.42200
H  38.96700 10.75900 48.19200

