158

Mg 29.71200 58.66300 40.59600
C  26.96900 56.62200 39.72900
C  31.79200 56.16700 39.30200
C  32.26500 60.83800 40.55200
C  27.45200 61.39400 41.01000
N  29.38200 56.49200 39.87900
C  28.19300 55.94700 39.53600
C  28.40300 54.65400 38.61800
C  29.93700 54.40500 38.72000
C  30.45300 55.72700 39.43200
C  30.36200 53.09900 39.42200
C  28.00300 54.82300 37.15100
C  27.16600 53.80200 36.37400
H  27.18100 53.74200 34.79400
N  31.79200 58.45900 40.11400
C  32.44000 57.37900 39.58500
C  33.90500 57.70300 39.45200
C  34.04300 58.99200 39.99200
C  32.66500 59.47900 40.28600
C  35.00000 56.73300 39.12600
C  35.37200 59.76300 40.12100
O  36.42700 59.23000 39.87900
C  35.43700 61.24400 40.51500
N  29.86100 60.80800 40.70700
C  31.05400 61.42200 40.71700
C  30.91000 62.95600 40.96600
C  29.35400 63.15200 41.18000
C  28.81800 61.67200 41.00200
C  31.72200 63.59700 42.07400
C  28.83200 64.29600 40.21800
C  27.56700 64.99900 40.81900
N  27.63800 58.90900 40.65300
C  26.89900 60.08200 40.72600
C  25.47700 59.74300 40.72300
C  25.47700 58.43600 40.19500
C  26.79300 57.96700 40.27600
C  24.34700 60.71300 41.02300
C  24.63900 57.37600 39.58300
O  23.44500 57.40600 39.29800
C  25.54000 56.13100 39.29300
C  25.01500 54.92700 39.99900
O  25.30100 54.61500 41.18300
O  24.16300 54.27200 39.07500
C  23.68600 52.90200 39.49900
H  32.42700 55.52900 38.68400
H  32.99200 61.64600 40.45000
H  26.80500 62.25500 41.18800
H  27.89300 53.89600 39.21200
H  30.48900 54.40300 37.78000
H  31.06200 53.43100 40.18800
H  30.90500 52.32800 38.87500
H  29.58200 52.65400 40.04000
H  28.89900 55.13700 36.61700
H  27.37900 55.71400 37.21600
H  26.13300 53.89500 36.71000
H  27.52400 52.82400 36.69700
H  35.32200 56.34700 40.09400
H  35.87100 57.19900 38.66700
H  34.71400 55.97300 38.39900
H  35.08300 61.37700 41.53700
H  34.87200 61.70300 39.70400
H  36.49600 61.50100 40.48600
H  31.12800 63.45700 40.02300
H  29.14900 63.46600 42.20400
H  32.53100 64.21800 41.69100
H  32.16100 62.79200 42.66300
H  31.19100 64.26200 42.75600
H  28.56400 63.84200 39.26400
H  29.58600 65.06000 40.03300
H  27.75400 66.05300 40.61400
H  27.44400 64.85400 41.89300
H  26.69900 64.57400 40.31600
H  24.21900 61.34100 40.14100
H  24.54200 61.32400 41.90500
H  23.38900 60.26800 41.29300
H  25.53800 55.92400 38.22300
H  22.60400 52.76500 39.49000
H  24.20700 52.60100 40.40700
H  24.02500 52.42200 38.58100
Mg -12.06000 15.58200 41.58400
C  -8.97000 14.00900 41.01900
C  -10.71400 18.51500 40.25000
C  -15.15300 16.65400 41.13400
C  -13.26700 12.40400 42.56100
N  -10.21300 16.05500 40.42800
C  -9.02700 15.25500 40.40200
C  -7.84800 16.01200 39.81600
C  -8.36500 17.48500 39.70800
C  -9.89500 17.35300 40.19600
C  -7.68300 18.58700 40.48100
C  -7.25200 15.36700 38.48100
C  -5.66300 15.28000 38.47100
H  -4.91000 15.55400 37.20600
N  -12.88900 17.35700 40.85300
C  -12.15000 18.40900 40.32200
C  -13.06500 19.48100 40.06100
C  -14.36600 19.08500 40.39300
C  -14.20800 17.69100 40.80000
C  -12.53400 20.81800 39.47700
C  -15.63400 19.95100 40.41400
O  -15.62400 21.13000 40.03400
C  -16.98300 19.43500 40.90300
N  -13.95700 14.70600 41.98000
C  -15.08800 15.36100 41.58800
C  -16.30200 14.50500 41.71300
C  -15.70000 13.16100 42.14100
C  -14.22600 13.43900 42.23300
C  -17.32000 15.14300 42.68800
C  -16.00400 11.95000 41.22200
C  -16.15400 10.60300 41.92300
N  -11.29600 13.56800 41.92300
C  -11.85600 12.46500 42.40100
C  -10.91000 11.47300 42.54200
C  -9.61700 11.97800 42.16800
C  -9.97800 13.29800 41.68200
C  -11.25900 10.06900 42.95500
C  -8.19700 11.79400 41.93200
O  -7.46800 10.86800 42.15100
C  -7.78600 13.10600 41.11600
C  -6.67500 13.72800 41.90200
O  -6.86900 14.30500 42.96200
O  -5.40300 13.51100 41.32700
C  -4.24400 13.98800 42.04400
H  -10.25300 19.47000 39.98800
H  -16.16700 16.87300 40.79300
H  -13.70100 11.42300 42.76100
H  -7.12400 16.11800 40.62400
H  -8.41900 17.80300 38.66700
H  -7.26100 19.31200 39.78500
H  -6.92400 18.15200 41.13200
H  -8.40400 19.18900 41.03300
H  -7.52800 15.99900 37.63700
H  -7.68800 14.37900 38.33200
H  -5.40300 14.24500 38.69300
H  -5.22100 15.92200 39.23300
H  -13.39600 21.40800 39.16700
H  -11.75900 20.73500 38.71600
H  -12.17400 21.41400 40.31600
H  -17.83000 20.12100 40.91000
H  -16.91600 18.77500 41.76900
H  -17.08900 18.76300 40.05100
H  -16.69600 14.33200 40.71200
H  -15.74900 12.99000 43.21600
H  -16.84100 15.49200 43.60300
H  -18.03500 14.37400 42.98000
H  -17.79900 16.02000 42.25400
H  -15.22700 11.92800 40.45800
H  -16.95700 12.07800 40.70900
H  -16.44100 10.84600 42.94600
H  -15.16000 10.16400 42.00500
H  -16.90800 9.98400 41.43600
H  -10.35100 9.49000 42.79200
H  -12.12700 9.63900 42.45300
H  -11.43600 10.13400 44.02800
H  -7.28600 12.76400 40.20900
H  -4.28400 15.06200 42.22800
H  -3.42400 13.66900 41.40100
H  -4.21500 13.47700 43.00600

