158

Mg 9.44100 47.19900 26.41100
C  7.65400 47.36600 29.42400
C  12.08800 48.57000 28.09300
C  11.05400 47.48700 23.44800
C  6.40600 46.83000 24.72000
N  9.76600 47.97600 28.59200
C  8.94000 47.83900 29.61600
C  9.63300 48.30600 30.92800
C  10.85300 49.08500 30.37400
C  10.90600 48.55600 28.94000
C  10.66200 50.62000 30.41400
C  10.00500 47.02700 31.74900
C  10.05100 47.28800 33.31300
H  9.98300 46.09700 34.27700
N  11.38900 47.75500 25.86200
C  12.35700 48.30400 26.71000
C  13.67800 48.25600 26.00800
C  13.39200 47.95900 24.60000
C  11.86400 47.69100 24.54400
C  14.99000 48.72800 26.67300
C  14.31100 47.94300 23.43000
O  13.90200 47.74400 22.31600
C  15.76100 48.19400 23.62900
N  8.78200 47.19800 24.42600
C  9.65200 47.31300 23.36500
C  8.92500 47.10900 22.01500
C  7.44100 46.93400 22.43800
C  7.51000 47.02800 23.91900
C  9.21400 48.29900 21.11400
C  6.69300 45.64600 22.00400
C  7.60600 44.32500 22.10800
N  7.43300 46.93900 26.92900
C  6.30600 46.83700 26.15900
C  5.09700 46.73800 27.10400
C  5.64100 46.88100 28.38100
C  6.99300 47.01900 28.22100
C  3.66700 46.42800 26.78400
C  5.22800 46.90900 29.74800
O  4.11600 46.89300 30.30700
C  6.59100 47.20100 30.52300
C  6.77400 46.07400 31.50000
O  6.94800 44.91500 31.06300
O  6.71900 46.46600 32.77900
C  6.90200 45.28300 33.69700
H  12.87600 49.06000 28.66900
H  11.52700 47.61700 22.47200
H  5.48300 46.66600 24.16000
H  8.96500 49.03500 31.38600
H  11.70300 48.69200 30.93200
H  9.82800 50.92900 31.04400
H  10.53200 50.87900 29.36300
H  11.58000 51.07900 30.78000
H  10.97500 46.69700 31.37900
H  9.31600 46.20700 31.54200
H  9.28200 47.96100 33.69300
H  10.96700 47.84300 33.51700
H  15.72500 47.92600 26.74000
H  14.86600 48.94000 27.73400
H  15.33500 49.64900 26.20400
H  16.36700 48.29400 22.72900
H  15.96200 47.22900 24.09500
H  16.01100 49.03600 24.27600
H  9.47300 46.33600 21.47600
H  6.99900 47.82900 22.00000
H  9.76600 49.08800 21.62600
H  8.26300 48.66000 20.72200
H  9.81200 48.02800 20.24400
H  6.53800 45.89500 20.95400
H  5.70700 45.42600 22.41400
H  7.88000 44.04900 21.09000
H  6.99500 43.57400 22.61000
H  8.56100 44.41200 22.62500
H  3.53200 46.19400 25.72800
H  3.01800 47.25600 27.06600
H  3.48000 45.52500 27.36500
H  6.39100 48.09500 31.11400
H  7.72700 44.63700 33.39700
H  6.03100 44.62800 33.70000
H  7.10400 45.62600 34.71200
Mg -11.58700 38.02400 42.85700
C  -8.99600 35.58000 42.17000
C  -9.29600 40.43400 41.89300
C  -14.18100 40.10200 42.68400
C  -13.72900 35.28800 43.70300
N  -9.40600 37.93900 41.99900
C  -8.50600 36.91800 41.88800
C  -7.05100 37.37100 41.47100
C  -7.20100 38.93600 41.77300
C  -8.72400 39.10500 41.90900
C  -6.54000 39.57900 42.99400
C  -6.72300 36.93700 39.99600
C  -5.63500 35.88400 39.74300
H  -6.07300 34.82600 38.81000
N  -11.69200 40.04500 42.37000
C  -10.64200 40.84900 42.01200
C  -11.06900 42.22500 42.04000
C  -12.50800 42.20300 42.26600
C  -12.89400 40.75400 42.49900
C  -10.26600 43.42300 41.88000
C  -13.46200 43.35300 42.20700
O  -13.17300 44.50300 41.87600
C  -14.81400 43.17500 42.68700
N  -13.67700 37.69500 43.08200
C  -14.51800 38.77700 43.07700
C  -15.87700 38.34800 43.58500
C  -15.75900 36.82100 43.72300
C  -14.28300 36.57500 43.57800
C  -16.16400 39.11200 44.95000
C  -16.71900 36.12900 42.72600
C  -16.07000 35.81400 41.36500
N  -11.42300 35.85600 43.02600
C  -12.34600 34.87600 43.47400
C  -11.69000 33.58700 43.50600
C  -10.42900 33.81600 43.02100
C  -10.29000 35.22700 42.69400
C  -12.18800 32.26600 43.99300
C  -9.20500 33.21700 42.78600
O  -8.76300 32.07200 43.04200
C  -8.17800 34.33200 42.25000
C  -7.15300 34.32500 43.27600
O  -7.05900 34.90300 44.34200
O  -6.18500 33.49300 42.79600
C  -4.95500 33.36300 43.60000
H  -8.58000 41.23900 41.71400
H  -15.07200 40.73200 42.64100
H  -14.44600 34.55400 44.07700
H  -6.30300 36.88800 42.09900
H  -7.02300 39.52700 40.87500
H  -6.01400 38.79200 43.53400
H  -7.26900 39.94200 43.71900
H  -5.74000 40.23500 42.65200
H  -6.31200 37.88400 39.64700
H  -7.59700 36.78600 39.36300
H  -5.38300 35.37600 40.67400
H  -4.71700 36.34400 39.37700
H  -9.95800 43.66400 40.86200
H  -9.34300 43.14800 42.39100
H  -10.63300 44.26000 42.47300
H  -15.39800 42.72400 41.88400
H  -15.22100 44.14200 42.98300
H  -14.83100 42.44600 43.49600
H  -16.58700 38.61700 42.80300
H  -16.14300 36.47100 44.68100
H  -15.95700 38.41500 45.76200
H  -17.14500 39.58200 45.00900
H  -15.53400 39.99300 45.07400
H  -17.61000 36.74700 42.61800
H  -17.17100 35.25900 43.20300
H  -16.79900 36.03200 40.58400
H  -15.79000 34.76400 41.44100
H  -15.19500 36.44300 41.20500
H  -12.45200 32.31500 45.04900
H  -11.47300 31.45700 43.84700
H  -13.03500 31.94500 43.38700
H  -7.67400 34.09900 41.31200
H  -4.37700 34.25700 43.36500
H  -4.43700 32.42100 43.42000
H  -5.19900 33.42300 44.66100

