158

Mg 29.29900 58.30300 40.20600
C  27.59700 55.30900 39.44800
C  32.24800 56.69600 39.51300
C  30.76700 61.17400 40.60900
C  26.07500 59.90300 40.22200
N  29.81600 56.30400 39.41800
C  28.94000 55.20100 39.24300
C  29.72300 54.00000 38.58400
C  31.18700 54.47900 38.77900
C  31.10100 55.92400 39.29400
C  32.14300 53.53500 39.55400
C  29.19700 53.72400 37.08900
C  29.14300 54.94000 36.11100
H  27.82100 55.50800 35.64500
N  31.27100 58.90700 40.18700
C  32.31700 58.09100 39.92700
C  33.50000 58.92700 39.93600
C  33.14900 60.25600 40.19000
C  31.66700 60.17200 40.34800
C  34.90000 58.42600 39.58400
C  34.10600 61.49800 40.21200
O  35.27400 61.34700 40.06500
C  33.63400 62.91200 40.39200
N  28.55500 60.21000 40.18800
C  29.40000 61.17300 40.55900
C  28.66100 62.46300 40.91800
C  27.24700 62.18600 40.30400
C  27.27500 60.63300 40.28300
C  28.73000 62.90200 42.46300
C  26.92900 62.76800 38.86600
C  25.48700 63.25600 38.61000
N  27.14800 57.74200 39.85700
C  25.99700 58.48700 40.03500
C  24.85100 57.57900 40.00500
C  25.39100 56.28500 39.86300
C  26.80300 56.45400 39.71400
C  23.41600 57.88100 40.34500
C  25.12900 54.89600 39.74400
O  24.11100 54.24200 39.81400
C  26.54100 54.16000 39.47700
C  26.89200 53.24600 40.59600
O  27.09000 52.07900 40.48100
O  27.05900 53.96500 41.72500
C  27.66700 53.27000 42.85300
H  33.22200 56.20500 39.44400
H  31.21600 62.13100 40.88100
H  25.15700 60.49500 40.21900
H  29.56000 53.11400 39.19800
H  31.58800 54.46300 37.76500
H  31.73400 52.52500 39.58600
H  32.17400 53.99600 40.54100
H  33.19300 53.55500 39.26100
H  28.25400 53.18000 37.03600
H  29.88900 52.93500 36.79400
H  29.77300 54.73700 35.24500
H  29.59300 55.83700 36.53900
H  35.27600 59.03000 38.75800
H  34.97900 57.34600 39.46000
H  35.50400 58.78000 40.42000
H  33.37600 62.99100 41.44800
H  32.90600 63.05200 39.59300
H  34.44500 63.61800 40.21100
H  29.14000 63.23500 40.31600
H  26.45200 62.44600 41.00200
H  27.72000 63.15500 42.78400
H  29.28800 63.82700 42.60400
H  28.94500 62.04300 43.10000
H  27.31800 62.00500 38.19200
H  27.56000 63.65000 38.75800
H  25.06400 62.62800 37.82600
H  25.51200 64.25500 38.17400
H  24.85000 63.30500 39.49300
H  22.76900 57.67500 39.49200
H  23.18500 58.86700 40.74800
H  23.15300 57.23300 41.18100
H  26.38300 53.55900 38.58200
H  27.41000 52.23700 43.08900
H  27.46100 53.70500 43.83100
H  28.74600 53.25800 42.69800
Mg -5.89900 25.17400 26.38400
C  -4.61100 26.64500 29.38700
C  -7.66500 23.08200 28.55800
C  -6.60700 23.49400 23.65400
C  -3.93400 27.42300 24.55800
N  -6.14000 24.96200 28.75800
C  -5.53200 25.69500 29.71400
C  -6.02500 25.28200 31.12000
C  -6.70200 23.94300 30.77100
C  -6.97800 24.00400 29.31600
C  -5.85900 22.65000 31.14300
C  -6.88900 26.40200 31.68600
C  -7.27700 26.51300 33.17600
H  -6.81000 25.52700 34.26400
N  -7.16200 23.62100 26.08700
C  -7.78900 22.86400 27.06100
C  -8.73200 21.95000 26.33200
C  -8.34700 21.96000 25.02900
C  -7.31600 23.04900 24.87400
C  -9.78200 21.00200 27.06200
C  -8.86200 21.12500 23.89900
O  -8.45500 21.33400 22.78900
C  -9.94000 20.07500 24.03700
N  -5.20100 25.30400 24.45600
C  -5.67800 24.47100 23.45900
C  -5.05000 24.89300 22.08700
C  -4.50300 26.26200 22.37600
C  -4.51300 26.32900 23.92400
C  -4.27700 23.72000 21.39300
C  -5.46100 27.37800 21.76200
C  -5.21100 27.81800 20.27600
N  -4.50300 26.75700 26.86400
C  -3.79100 27.56100 25.98200
C  -2.89000 28.45300 26.72700
C  -3.20400 28.17800 28.08200
C  -4.17100 27.11300 28.09300
C  -1.82500 29.44300 26.15500
C  -2.81700 28.48100 29.46800
O  -1.91300 29.20300 29.93800
C  -3.82400 27.64100 30.37500
C  -3.00900 26.97400 31.39900
O  -2.16400 26.09100 31.26700
O  -3.42400 27.42100 32.62100
C  -2.96700 26.78800 33.78700
H  -8.19000 22.28700 29.09200
H  -6.73000 22.84900 22.78200
H  -3.38700 28.19600 24.01500
H  -5.13400 25.14300 31.73200
H  -7.64400 23.82700 31.30600
H  -5.65000 22.13800 30.20400
H  -6.48300 22.13700 31.87500
H  -4.91800 22.87400 31.64400
H  -7.76200 26.33800 31.03700
H  -6.38100 27.34700 31.49200
H  -8.36100 26.45100 33.27000
H  -6.97000 27.51900 33.46200
H  -10.80100 21.29600 26.81000
H  -9.74500 21.08900 28.14800
H  -9.69800 19.94300 26.81900
H  -9.47300 19.37000 24.72500
H  -10.13700 19.52400 23.11800
H  -10.81500 20.59300 24.43100
H  -5.91400 24.99200 21.43000
H  -3.49700 26.36600 21.97000
H  -3.21300 23.95700 21.40300
H  -4.68800 23.45300 20.42000
H  -4.37800 22.85000 22.04100
H  -5.41000 28.31700 22.31300
H  -6.50000 27.05800 21.84900
H  -4.67400 27.01400 19.77200
H  -4.49700 28.63200 20.39500
H  -6.10400 28.03400 19.68900
H  -1.43600 28.86200 25.31900
H  -1.01800 29.63000 26.86400
H  -2.25000 30.39600 25.83900
H  -4.43700 28.40400 30.85400
H  -1.90400 27.02700 33.79300
H  -3.08400 25.70800 33.69500
H  -3.38300 27.18000 34.71500

