158

Mg 46.26500 25.76500 28.26300
C  47.37800 27.90600 30.88000
C  44.89200 23.72700 30.59900
C  45.38500 23.88900 25.79400
C  47.62500 28.12400 26.03800
N  46.17600 25.82200 30.51800
C  46.70500 26.79300 31.34600
C  46.20400 26.53600 32.76200
C  45.76600 25.02500 32.78700
C  45.52900 24.84500 31.17900
C  47.05600 24.17400 33.17400
C  45.12200 27.59000 33.18300
C  45.54100 28.29000 34.49700
H  44.60400 28.44300 35.71900
N  45.41300 23.93900 28.19900
C  44.88500 23.26800 29.24200
C  44.25200 22.02900 28.79600
C  44.41900 21.99200 27.34400
C  45.05400 23.33500 27.03800
C  43.70300 20.92600 29.74200
C  43.97500 20.96000 26.33400
O  44.16400 21.14300 25.15600
C  43.22800 19.84800 26.73700
N  46.39800 26.08100 26.20200
C  45.97900 25.11800 25.39700
C  46.68400 25.28800 23.98900
C  47.15600 26.75700 23.94800
C  47.02000 27.03000 25.46200
C  47.75300 24.15800 23.63200
C  46.27400 27.77600 23.11400
C  47.13000 28.48500 22.02700
N  47.30900 27.53800 28.35200
C  47.79200 28.40200 27.37700
C  48.63600 29.45700 27.89300
C  48.39700 29.31900 29.24700
C  47.56300 28.15200 29.50900
C  49.32200 30.59900 27.15400
C  48.57100 30.05500 30.52900
O  49.13100 31.11500 30.78300
C  47.92400 29.13300 31.66100
C  49.04900 28.77700 32.55000
O  50.05100 28.23200 32.24400
O  48.65700 28.95500 33.86200
C  49.57900 28.48400 34.91900
H  44.54400 23.03100 31.36500
H  45.28300 23.15000 24.99600
H  48.00200 28.88400 25.35000
H  46.98800 26.58900 33.51800
H  44.86700 24.85100 33.38000
H  46.76700 23.40400 33.89000
H  47.91100 24.62800 33.67600
H  47.38800 23.66100 32.27200
H  44.10900 27.23200 33.37100
H  45.16300 28.38000 32.43300
H  45.63800 29.33100 34.19100
H  46.52900 27.96200 34.82100
H  42.80000 20.43200 29.38600
H  43.38800 21.23000 30.74100
H  44.45500 20.15500 29.91100
H  43.75400 19.22800 27.46300
H  42.84300 19.22700 25.92800
H  42.30600 20.27300 27.13400
H  45.85400 25.22400 23.28600
H  48.22600 26.83200 23.75400
H  47.80800 23.50100 24.50000
H  48.72000 24.55500 23.32400
H  47.34900 23.63900 22.76200
H  45.85800 28.51400 23.79900
H  45.50500 27.26000 22.53900
H  46.75200 29.50700 22.04100
H  46.87300 28.08800 21.04500
H  48.21500 28.43900 22.12200
H  48.99800 30.60000 26.11400
H  50.38400 30.36300 27.22400
H  49.28000 31.53800 27.70600
H  47.18700 29.86400 31.99500
H  50.29000 29.26800 35.18000
H  50.06700 27.52300 34.75100
H  48.95100 28.32900 35.79600
Mg 7.07100 54.05700 39.62300
C  6.40000 50.60900 39.53800
C  10.27600 53.42800 38.55200
C  7.63800 57.36700 39.42600
C  3.68200 54.61200 40.02300
N  8.10500 52.21100 39.08700
C  7.71300 50.89500 39.14100
C  8.82100 49.87500 38.81700
C  10.13500 50.86800 38.81100
C  9.47300 52.23300 38.80700
C  10.94300 50.74300 40.06600
C  8.72800 49.15800 37.39400
C  8.35700 50.02400 36.19400
H  7.20400 49.52000 35.26500
N  8.72300 55.25800 38.95200
C  10.00800 54.80700 38.64000
C  10.92400 55.90900 38.44400
C  10.20900 57.05900 38.83400
C  8.79500 56.63100 39.03600
C  12.37100 55.73700 38.08000
C  10.71500 58.43700 39.03000
O  11.92200 58.73100 38.87500
C  9.80600 59.58400 39.21900
N  5.70400 55.74800 39.53300
C  6.23400 57.03100 39.50900
C  5.14100 58.05600 39.73700
C  3.79600 57.16700 39.95800
C  4.39000 55.77000 39.77900
C  5.39100 59.14200 40.79900
C  2.60400 57.44500 38.99900
C  1.52900 58.33100 39.66100
N  5.36300 52.85300 39.80900
C  4.07100 53.23600 40.00900
C  3.23500 52.06300 40.23000
C  4.14600 51.04400 40.14600
C  5.43000 51.55000 39.85500
C  1.68800 52.06700 40.44200
C  4.21700 49.56600 40.22400
O  3.37400 48.75000 40.65500
C  5.69500 49.21500 39.83100
C  5.72300 48.32700 38.65800
O  5.10700 48.46800 37.58700
O  6.36700 47.23200 39.04300
C  6.25900 46.07400 38.10700
H  11.32200 53.16000 38.39100
H  7.75200 58.44400 39.56500
H  2.62500 54.72500 40.27400
H  8.74500 49.18700 39.65900
H  10.64500 50.71600 37.86000
H  11.18800 51.73600 40.44200
H  11.86400 50.22200 39.80500
H  10.41000 50.18500 40.83500
H  8.13900 48.24300 37.32800
H  9.77300 48.86800 37.28900
H  9.18100 50.19400 35.50100
H  7.94300 50.96200 36.56500
H  12.91600 56.19400 38.90600
H  12.65700 56.22200 37.14700
H  12.68600 54.69600 38.15000
H  10.43600 60.46300 39.08000
H  9.47400 59.55500 40.25700
H  9.09500 59.56100 38.39400
H  5.15200 58.57400 38.77800
H  3.43600 57.14500 40.98600
H  6.42000 59.16100 41.15700
H  4.70700 59.13700 41.64800
H  5.26200 60.08200 40.26400
H  2.14800 56.48800 38.74400
H  2.98200 58.10100 38.21600
H  0.55800 57.83500 39.68900
H  1.34000 59.09800 38.91000
H  1.87400 58.81500 40.57400
H  1.29000 53.05900 40.65600
H  1.47900 51.46800 41.32900
H  1.24100 51.68100 39.52600
H  5.99000 48.73700 40.76600
H  6.96600 46.18600 37.28400
H  5.23400 45.89900 37.77900
H  6.57400 45.20400 38.68400

