158

Mg 54.10100 24.08000 44.90600
C  51.43400 26.18800 43.85700
C  52.66200 21.59600 42.81000
C  57.04800 22.46500 44.77600
C  55.60800 26.72400 46.54000
N  52.30800 23.93400 43.42100
C  51.34500 24.89300 43.20500
C  50.05500 24.34400 42.59500
C  50.36300 22.82700 42.58400
C  51.87600 22.74000 42.94500
C  49.44700 21.86600 43.43400
C  49.70300 24.84300 41.18800
C  50.96300 25.07000 40.24400
H  50.68500 25.81200 38.95200
N  54.73200 22.21000 44.02700
C  53.98900 21.33500 43.19300
C  54.82600 20.20400 42.80400
C  56.07100 20.47100 43.36800
C  56.01900 21.72200 44.15400
C  54.28100 19.05300 41.96500
C  57.31700 19.59400 43.05600
O  57.25700 18.68700 42.28400
C  58.58400 19.66200 43.85500
N  56.10400 24.45200 45.61400
C  57.11100 23.65200 45.43500
C  58.37100 24.21300 46.18100
C  57.94700 25.68100 46.47300
C  56.45200 25.66300 46.17200
C  58.95400 23.28700 47.30300
C  58.64400 26.92300 45.74200
C  58.86900 28.17200 46.61700
N  53.60000 25.91900 45.28400
C  54.26600 26.87300 45.98000
C  53.42600 28.10700 46.11300
C  52.34500 27.87100 45.27300
C  52.46900 26.55300 44.74200
C  53.60800 29.35100 46.93900
C  51.07900 28.42100 44.76300
O  50.56700 29.50800 44.97500
C  50.36400 27.34300 43.93500
C  49.94900 27.84000 42.61600
O  50.65500 28.14100 41.69700
O  48.59600 28.01400 42.61600
C  47.96100 28.55100 41.38200
H  52.17200 20.83000 42.20600
H  58.03400 22.00900 44.67100
H  56.08700 27.56000 47.05400
H  49.41000 24.56800 43.44400
H  50.27800 22.39900 41.58500
H  48.84000 22.41400 44.15400
H  50.01600 21.18900 44.07100
H  48.81400 21.22200 42.82300
H  49.14600 25.77700 41.11300
H  49.12000 23.99700 40.82200
H  51.39500 24.08400 40.07200
H  51.67200 25.69700 40.78500
H  53.22800 18.85400 42.16600
H  54.76200 18.10600 42.21100
H  54.53500 19.26800 40.92700
H  59.16700 18.74400 43.77400
H  58.28000 19.83600 44.88700
H  59.13300 20.53200 43.49300
H  59.23400 24.06300 45.53200
H  57.97000 25.98300 47.52000
H  59.98200 23.00600 47.07100
H  58.37600 22.36300 47.31500
H  59.03300 23.77200 48.27500
H  58.00600 27.19100 44.90000
H  59.64800 26.70500 45.37700
H  59.88500 28.55800 46.53400
H  58.59200 27.99200 47.65500
H  58.25000 28.95200 46.17300
H  54.50900 29.26500 47.54700
H  52.74600 29.49400 47.59100
H  53.61200 30.24800 46.32100
H  49.51900 27.08700 44.57400
H  48.19600 27.90900 40.53200
H  48.17900 29.60100 41.18700
H  46.90300 28.45400 41.62600
Mg 49.39500 45.03600 43.50600
C  45.96100 45.80600 42.72400
C  48.86800 41.91900 42.23300
C  52.55200 44.87100 43.17300
C  49.60900 48.58600 44.33400
N  47.58300 44.04100 42.62200
C  46.23200 44.43200 42.50600
C  45.32300 43.31900 41.87400
C  46.32700 42.09300 41.96200
C  47.72000 42.72000 42.29200
C  45.91900 41.06700 43.03700
C  44.83200 43.63700 40.43700
C  45.89600 44.25400 39.49900
H  45.43900 44.19900 38.00300
N  50.56100 43.52900 42.84300
C  50.21200 42.27700 42.41000
C  51.46600 41.49900 42.29200
C  52.55700 42.41100 42.37100
C  51.88400 43.66700 42.86100
C  51.47600 40.13500 41.83000
C  54.00700 42.14300 42.09800
O  54.41900 41.07700 41.61200
C  55.09100 43.14400 42.38400
N  50.83200 46.55300 43.66100
C  52.10800 46.15700 43.56300
C  53.08300 47.30300 43.77200
C  52.16500 48.42100 44.42800
C  50.81300 47.90400 44.05200
C  54.30600 47.04300 44.64300
C  52.53800 49.80000 43.84800
C  53.34900 50.77000 44.77300
N  48.08500 46.82700 43.72000
C  48.34100 48.14700 44.00000
C  47.19200 48.95300 43.84700
C  46.24300 48.09400 43.33800
C  46.83800 46.79700 43.28000
C  47.10400 50.39700 44.11200
C  44.89400 48.09600 42.79800
O  44.02000 48.92200 42.63200
C  44.63800 46.62900 42.42100
C  43.47100 46.13700 43.18300
O  42.41200 45.86400 42.62900
O  43.64400 45.96700 44.50900
C  42.36400 45.61200 45.27000
H  48.67400 40.85200 42.10900
H  53.63400 44.96400 43.05500
H  49.72600 49.57100 44.79000
H  44.36000 43.24000 42.37700
H  46.36600 41.62100 40.98000
H  45.11700 41.46900 43.65500
H  46.75100 40.93500 43.72900
H  45.73800 40.11100 42.54400
H  43.98200 44.29200 40.62700
H  44.38000 42.74700 39.99900
H  46.77900 43.62700 39.62500
H  45.97200 45.31300 39.74400
H  51.65600 40.07600 40.75700
H  50.49400 39.70600 42.02900
H  52.24600 39.59700 42.38300
H  54.85500 43.93000 41.66700
H  56.05800 42.74100 42.08400
H  55.07900 43.56100 43.39100
H  53.41600 47.57600 42.77100
H  52.27100 48.38000 45.51200
H  54.13800 45.99500 44.89200
H  54.30800 47.62400 45.56500
H  55.22800 47.01400 44.06200
H  51.69500 50.45600 43.63300
H  53.03800 49.67300 42.88800
H  52.83500 51.72800 44.83900
H  54.37300 51.01100 44.48500
H  53.69300 50.42500 45.74800
H  46.08000 50.76700 44.17500
H  47.46000 50.86100 43.19300
H  47.57900 50.69900 45.04500
H  44.40600 46.42500 41.37600
H  42.10200 44.62400 44.89300
H  41.60800 46.31500 44.91800
H  42.45200 45.54900 46.35400

