158

Mg -1.68100 17.35600 26.86300
C  -2.34500 15.38100 29.63200
C  -2.36600 20.05800 28.76500
C  -1.46100 19.31700 24.08600
C  -1.65000 14.48000 24.89800
N  -2.14300 17.72300 29.00400
C  -2.27700 16.74700 30.02300
C  -2.56100 17.42700 31.42700
C  -2.79900 18.89000 31.04800
C  -2.41100 18.86900 29.48800
C  -4.29800 19.49300 31.29600
C  -1.41000 17.25900 32.46600
C  -1.84600 16.78600 33.88300
H  -0.87000 16.80300 35.06300
N  -1.75400 19.42700 26.50300
C  -2.04100 20.34300 27.43700
C  -2.01500 21.62300 26.87300
C  -1.64600 21.50900 25.47000
C  -1.52900 20.06300 25.29300
C  -2.11000 22.88400 27.74100
C  -1.35400 22.58700 24.43500
O  -1.05200 22.24700 23.27000
C  -1.74900 23.98600 24.65400
N  -1.45600 16.96900 24.83000
C  -1.37900 17.96900 23.86600
C  -1.12100 17.32300 22.53700
C  -0.98700 15.81000 22.86700
C  -1.47300 15.71700 24.27300
C  -2.21600 17.55000 21.48500
C  0.48100 15.25500 22.63700
C  1.61800 15.66100 23.61900
N  -1.93500 15.33900 27.15000
C  -1.87400 14.30200 26.26400
C  -2.11300 13.07200 26.90500
C  -2.21000 13.41700 28.22700
C  -2.18600 14.82400 28.33500
C  -2.22400 11.68500 26.35300
C  -2.49600 12.90700 29.59500
O  -2.72000 11.76800 29.96600
C  -2.66100 14.15600 30.49500
C  -1.65300 13.78600 31.64000
O  -0.48200 13.99400 31.53900
O  -2.32100 13.25300 32.74200
C  -1.51300 12.95900 33.95800
H  -2.62000 20.94100 29.35500
H  -1.60800 19.93700 23.19900
H  -1.74200 13.60600 24.25000
H  -3.47000 17.04500 31.89200
H  -2.17600 19.55200 31.64900
H  -5.01500 18.77700 31.69700
H  -4.72700 19.96800 30.41400
H  -4.12100 20.27500 32.03500
H  -0.87700 18.20200 32.58500
H  -0.65400 16.65900 31.96000
H  -2.17400 15.75400 33.75700
H  -2.68000 17.42300 34.17600
H  -3.12700 23.27500 27.76400
H  -1.49800 23.71300 27.38600
H  -1.73200 22.82400 28.76100
H  -1.79800 24.63900 23.78300
H  -1.07000 24.41100 25.39300
H  -2.72400 24.00700 25.14100
H  -0.13600 17.66600 22.22000
H  -1.73700 15.23800 22.32000
H  -1.79700 17.47600 20.48100
H  -2.52900 18.59200 21.55500
H  -3.03800 16.87400 21.71700
H  0.75100 15.42100 21.59400
H  0.36800 14.17600 22.73800
H  1.27000 16.37600 24.36400
H  2.26100 16.30700 23.02100
H  2.19500 14.78700 23.92100
H  -1.76200 11.65200 25.36600
H  -3.31200 11.64100 26.30600
H  -1.83500 10.86600 26.95900
H  -3.63200 14.22400 30.98500
H  -1.30700 13.87100 34.51900
H  -0.49000 12.62800 33.78000
H  -1.91000 12.14900 34.57000
Mg -4.91100 25.63500 25.82400
C  -3.59800 26.94600 28.82600
C  -6.64300 23.35000 27.70500
C  -5.66200 23.95100 22.98100
C  -2.75800 27.67500 24.06900
N  -5.00300 25.18400 27.99300
C  -4.43700 25.88900 29.04300
C  -5.06900 25.48400 30.38000
C  -5.86000 24.14900 29.95600
C  -5.80900 24.20500 28.41300
C  -5.38300 22.80100 30.45800
C  -5.91100 26.58800 31.01100
C  -5.66100 26.81100 32.50700
H  -5.18200 25.59200 33.40600
N  -6.17600 24.02300 25.37100
C  -6.83200 23.20600 26.28600
C  -7.82800 22.39600 25.61700
C  -7.59400 22.63300 24.20800
C  -6.39000 23.49100 24.07800
C  -8.76700 21.42800 26.35700
C  -8.30100 21.94600 23.01100
O  -8.03600 22.27600 21.85900
C  -9.32700 20.92600 23.23900
N  -4.46100 25.91000 23.74500
C  -4.84500 25.01400 22.73800
C  -4.13000 25.37900 21.44800
C  -3.36600 26.75600 21.71800
C  -3.55600 26.77900 23.27000
C  -3.21300 24.27000 20.94300
C  -4.10900 27.88700 21.00600
C  -3.19400 29.12200 20.63200
N  -3.47700 27.02800 26.26500
C  -2.66700 27.79200 25.43100
C  -1.75300 28.63800 26.30300
C  -2.14800 28.34700 27.61600
C  -3.13100 27.33000 27.55300
C  -0.73400 29.65000 25.95500
C  -1.86600 28.67700 28.94900
O  -1.08800 29.49800 29.42100
C  -2.86300 27.83700 29.82400
C  -2.15100 27.22700 30.90600
O  -1.75400 26.06100 30.85600
O  -2.07200 28.02700 31.95800
C  -1.36700 27.46600 33.09600
H  -7.29400 22.78700 28.37800
H  -5.90700 23.34900 22.10300
H  -2.08800 28.35000 23.53200
H  -4.24500 25.09300 30.97800
H  -6.90800 24.28300 30.22600
H  -4.50800 22.92300 31.09700
H  -4.99800 22.22000 29.62100
H  -6.12500 22.23800 31.02400
H  -6.95300 26.27500 31.08100
H  -5.87500 27.55100 30.50100
H  -6.61100 27.07600 32.97200
H  -4.94900 27.61400 32.69600
H  -8.56100 20.38400 26.11900
H  -9.76100 21.77200 26.07300
H  -8.70500 21.52900 27.44100
H  -8.92400 20.06800 23.77600
H  -9.63000 20.38800 22.34100
H  -10.19800 21.40200 23.68900
H  -4.98900 25.46600 20.78300
H  -2.31000 26.74500 21.44600
H  -2.17600 24.52000 20.72100
H  -3.62600 23.75600 20.07500
H  -3.06100 23.46600 21.66200
H  -4.84300 28.24300 21.72800
H  -4.59700 27.56600 20.08500
H  -3.52400 29.93100 21.28400
H  -3.46600 29.39200 19.61200
H  -2.14100 28.89000 20.79300
H  -0.52900 29.67500 24.88400
H  0.20200 29.54800 26.50400
H  -1.15300 30.59600 26.29800
H  -3.65000 28.52600 30.13100
H  -1.97600 27.86600 33.90600
H  -0.36100 27.87800 33.17800
H  -1.20800 26.39200 33.19500

