158

Mg -1.30600 33.88900 25.99000
C  -3.18700 32.15900 28.61300
C  0.01400 35.99500 28.24900
C  -0.08600 35.48300 23.50600
C  -3.12600 31.86600 23.74300
N  -1.69800 34.06500 28.10200
C  -2.40600 33.27100 29.00700
C  -2.06800 33.71300 30.43600
C  -1.16900 35.01000 30.24000
C  -0.86800 34.99700 28.79700
C  -1.92900 36.30700 30.79700
C  -1.36700 32.54100 31.26300
C  -2.01400 32.29800 32.70700
H  -1.10900 32.25300 33.99800
N  -0.16600 35.54300 25.83500
C  0.29300 36.33400 26.85100
C  1.21800 37.28300 26.39400
C  1.21300 37.12500 25.02100
C  0.29400 36.07000 24.72600
C  2.07400 38.16300 27.32000
C  2.14100 37.89200 24.03200
O  2.11900 37.76600 22.78400
C  3.13000 38.88900 24.51400
N  -1.81300 33.91800 23.80600
C  -1.00800 34.57100 22.99900
C  -1.05600 34.08300 21.57400
C  -1.67100 32.67700 21.73600
C  -2.27400 32.79500 23.17000
C  -1.66100 34.87000 20.48000
C  -0.60500 31.52100 21.62500
C  -1.15800 30.35000 20.80100
N  -2.82300 32.32900 26.09500
C  -3.47100 31.62300 25.07600
C  -4.42100 30.67000 25.60600
C  -4.21100 30.79500 26.99700
C  -3.35800 31.85100 27.23100
C  -5.32300 29.76400 24.84300
C  -4.67000 30.25300 28.25600
O  -5.39300 29.28300 28.44400
C  -4.03600 31.13500 29.32200
C  -5.20600 31.73800 30.02400
O  -5.74600 32.78100 29.75200
O  -5.38700 31.08200 31.21200
C  -6.20300 31.80600 32.19300
H  0.54600 36.59700 28.98900
H  0.28900 36.04800 22.65000
H  -3.68700 31.23100 23.05400
H  -3.07100 33.75600 30.86000
H  -0.25700 34.91300 30.83000
H  -1.40700 36.84400 31.58900
H  -2.87000 35.87300 31.13500
H  -2.14700 36.93900 29.93700
H  -0.35000 32.78700 31.56700
H  -1.45900 31.70300 30.57200
H  -2.64900 31.41300 32.76000
H  -2.74600 33.10200 32.78400
H  1.86300 38.09100 28.38700
H  2.04300 39.22200 27.06800
H  3.12200 37.90000 27.17800
H  2.57200 39.63600 25.07800
H  3.80200 39.38300 23.81100
H  3.84400 38.47100 25.22400
H  0.00900 34.04800 21.34500
H  -2.49900 32.43800 21.06900
H  -2.63100 34.52400 20.12300
H  -0.96000 34.97000 19.65100
H  -1.83900 35.83000 20.96400
H  -0.31500 31.17000 22.61500
H  0.26400 32.00800 21.18100
H  -0.47700 30.36200 19.95000
H  -2.13900 30.39200 20.32700
H  -1.12700 29.36500 21.26800
H  -6.20600 29.51200 25.43100
H  -4.78200 28.89000 24.48000
H  -5.62400 30.40000 24.01000
H  -3.52400 30.49300 30.03800
H  -5.55500 32.41000 32.83000
H  -6.75100 31.15600 32.87500
H  -6.78800 32.58200 31.70000
Mg -11.44700 16.48200 41.16800
C  -8.37700 14.62600 40.84300
C  -9.91900 19.11200 39.62200
C  -14.49500 17.64900 40.37100
C  -12.91100 13.48800 42.41000
N  -9.39300 16.76400 40.38300
C  -8.34100 15.89400 40.19300
C  -7.14600 16.57900 39.51800
C  -7.61600 18.09300 39.44400
C  -9.05800 18.03100 39.84700
C  -6.90700 19.20700 40.26700
C  -6.73200 15.80400 38.22000
C  -5.21700 15.71900 38.05200
H  -4.79700 16.30500 36.66700
N  -12.15700 18.25800 40.30100
C  -11.33200 19.21100 39.77000
C  -12.18600 20.31400 39.21000
C  -13.50100 19.90300 39.47700
C  -13.45800 18.56500 40.00600
C  -11.51300 21.58500 38.57100
C  -14.70800 20.68100 39.03400
O  -14.61200 21.75500 38.43700
C  -16.09400 20.26600 39.39900
N  -13.39200 15.58500 41.18000
C  -14.52500 16.37900 40.95800
C  -15.85000 15.62000 41.20100
C  -15.38800 14.41400 42.02600
C  -13.77200 14.58200 41.99300
C  -17.05200 16.37200 41.76100
C  -15.88500 13.05500 41.47800
C  -16.47700 12.18300 42.56000
N  -10.76700 14.48900 41.76300
C  -11.50200 13.38300 42.19200
C  -10.56600 12.26500 42.29100
C  -9.34400 12.72100 41.82100
C  -9.54900 14.04700 41.42200
C  -10.93300 10.88400 42.75900
C  -7.99500 12.34800 41.65600
O  -7.47600 11.23800 41.86200
C  -7.28200 13.51500 40.89700
C  -6.11300 13.88000 41.61700
O  -6.07100 14.33900 42.74200
O  -4.98600 13.63600 40.81200
C  -3.67400 14.23800 41.34100
H  -9.44000 19.97500 39.15500
H  -15.48200 18.00600 40.07000
H  -13.41700 12.57800 42.74000
H  -6.34600 16.54100 40.25800
H  -7.53300 18.36200 38.39100
H  -7.56400 19.62700 41.02800
H  -6.59400 20.05000 39.65100
H  -6.09500 18.65900 40.74400
H  -7.10200 16.24500 37.29400
H  -7.13900 14.79500 38.16800
H  -4.87600 14.70700 38.27000
H  -4.74000 16.37200 38.78300
H  -10.56400 21.38500 38.07300
H  -11.29100 22.28600 39.37700
H  -12.16800 21.95700 37.78300
H  -16.68700 21.17500 39.29800
H  -16.15200 19.88000 40.41700
H  -16.45100 19.53100 38.67600
H  -16.08200 15.27300 40.19400
H  -15.76800 14.43900 43.04700
H  -17.92400 16.14900 41.14600
H  -16.85800 17.44300 41.81700
H  -17.13300 15.99100 42.77900
H  -15.07500 12.56400 40.93800
H  -16.75700 13.04300 40.82400
H  -17.55200 12.02900 42.47000
H  -16.31600 12.44800 43.60500
H  -15.99500 11.22700 42.35500
H  -11.78700 10.47000 42.22300
H  -11.09300 10.82400 43.83600
H  -10.10300 10.21400 42.53700
H  -7.07000 13.11800 39.90400
H  -2.79700 13.82300 40.84400
H  -3.53200 13.95700 42.38500
H  -3.75200 15.32300 41.26700

