158

Mg 3.06900 -0.90600 44.25200
C  6.34300 -0.27100 43.22800
C  2.05100 1.64600 42.24800
C  -0.01600 -2.25500 44.19800
C  4.26800 -3.79800 45.80700
N  4.09500 0.39300 42.75500
C  5.44100 0.53700 42.57300
C  5.76700 1.79800 41.79500
C  4.38800 2.51500 41.67300
C  3.40100 1.50100 42.32400
C  4.36200 3.88000 42.42900
C  6.41300 1.51700 40.45400
C  7.16400 2.74400 39.83400
H  6.89200 3.23500 38.44900
N  1.12600 -0.21300 43.56500
C  0.97600 0.84100 42.68400
C  -0.37400 1.00400 42.39600
C  -1.06200 -0.06900 43.06200
C  0.00900 -0.92200 43.70500
C  -0.98300 1.99200 41.46500
C  -2.51200 -0.30200 43.07900
O  -3.22300 0.30000 42.31200
C  -3.08300 -1.06500 44.26000
N  2.30300 -2.74000 44.81400
C  1.00800 -3.06600 44.69900
C  0.69700 -4.50300 45.35800
C  1.98700 -4.86100 46.01400
C  2.89900 -3.70600 45.52900
C  -0.47400 -4.64100 46.33300
C  2.50400 -6.28500 45.63600
C  2.77800 -7.28900 46.75000
N  4.93000 -1.76700 44.66800
C  5.27400 -2.97000 45.34300
C  6.75600 -3.07100 45.43600
C  7.21300 -1.97600 44.67100
C  6.03000 -1.35800 44.11900
C  7.49500 -4.03500 46.28900
C  8.33900 -1.27300 44.15600
O  9.53300 -1.44800 44.33800
C  7.86500 -0.29300 43.12600
C  8.40400 0.96000 43.46500
O  8.33700 1.49500 44.55700
O  9.00900 1.55900 42.40800
C  9.68800 2.88100 42.54700
H  1.63600 2.42800 41.60900
H  -1.02600 -2.66900 44.22600
H  4.62500 -4.69600 46.31700
H  6.50600 2.36900 42.35700
H  4.07500 2.77200 40.66100
H  5.33400 4.16600 42.83100
H  3.76900 3.84600 43.34300
H  4.09000 4.69200 41.75400
H  5.67500 1.30300 39.68100
H  7.12400 0.69300 40.51700
H  8.22600 2.50400 39.79200
H  6.98000 3.56400 40.52800
H  -1.30000 1.56000 40.51600
H  -0.37400 2.86500 41.23000
H  -1.81900 2.48400 41.96300
H  -3.21700 -2.10300 43.95600
H  -4.02100 -0.51800 44.34900
H  -2.52900 -1.10700 45.19800
H  0.41900 -5.22000 44.58600
H  1.89500 -4.66400 47.08200
H  -0.08900 -4.98000 47.29500
H  -1.23700 -5.26600 45.87000
H  -0.93800 -3.65500 46.35800
H  3.43700 -6.11200 45.10000
H  1.91800 -6.83400 44.89900
H  3.85300 -7.45000 46.83800
H  2.33600 -8.26000 46.52600
H  2.31300 -6.95700 47.67800
H  8.56400 -3.99600 46.08400
H  7.09700 -4.98700 45.93700
H  7.33400 -3.80400 47.34200
H  8.08800 -0.62400 42.11200
H  8.93800 3.65500 42.38700
H  10.39400 2.95000 41.72000
H  10.12700 3.02500 43.53400
Mg 46.28300 24.27300 28.58400
C  46.68200 26.89200 30.93200
C  45.46600 22.11800 31.10300
C  46.19000 21.91600 26.39300
C  47.95700 26.42100 26.19000
N  46.23100 24.53400 30.68300
C  46.32700 25.69200 31.45600
C  46.03600 25.41700 32.91500
C  46.00400 23.82900 33.01200
C  45.84000 23.44000 31.52100
C  47.09700 23.15200 33.87300
C  44.74000 26.10800 33.41400
C  44.92400 26.86200 34.85700
H  44.09300 26.60000 36.07700
N  45.75100 22.29600 28.69500
C  45.43500 21.57500 29.82600
C  45.09000 20.23200 29.43800
C  45.26400 20.20300 28.07700
C  45.74900 21.48800 27.62100
C  44.68200 19.11000 30.39900
C  44.95100 19.09400 27.15100
O  45.23400 19.10000 25.92400
C  44.12200 17.88900 27.62900
N  47.10700 24.19900 26.61300
C  46.83900 23.05800 25.90300
C  47.39800 23.10700 24.50300
C  47.80600 24.54500 24.33700
C  47.67700 25.11600 25.80900
C  48.45800 22.01700 24.14000
C  47.00200 25.34300 23.28100
C  45.60700 25.94600 23.54500
N  47.00400 26.34300 28.43400
C  47.69800 27.03300 27.42900
C  47.80200 28.41700 27.90600
C  47.59200 28.40300 29.30500
C  47.12000 27.11000 29.59500
C  48.27300 29.61300 27.07100
C  47.68700 29.10700 30.59700
O  47.94900 30.25800 30.69200
C  47.22400 28.08700 31.72100
C  48.43900 27.81600 32.49000
O  49.52400 27.40400 32.00200
O  48.25400 28.02700 33.84600
C  49.39800 27.79300 34.71000
H  45.32600 21.48100 31.97900
H  46.29200 21.10300 25.67100
H  48.48200 27.11800 25.53300
H  46.97500 25.72200 33.37800
H  45.09800 23.51700 33.53200
H  47.37700 22.21200 33.39700
H  46.57800 22.90900 34.80100
H  47.90700 23.85200 34.07600
H  43.92800 25.41900 33.64700
H  44.32600 26.83900 32.71900
H  44.80300 27.90700 34.57200
H  45.89900 26.60300 35.26800
H  43.66900 18.80400 30.13700
H  44.82500 19.34800 31.45400
H  45.24900 18.22800 30.10100
H  44.57300 17.41900 28.50300
H  44.04900 17.19100 26.79500
H  43.06300 18.12600 27.73400
H  46.52200 22.91800 23.88200
H  48.86300 24.58800 24.07400
H  48.69900 21.39700 25.00300
H  49.45500 22.39800 23.92300
H  48.06000 21.41700 23.32200
H  46.82400 24.61000 22.49400
H  47.62400 26.14200 22.87800
H  45.02600 25.33100 24.23200
H  44.98200 25.90200 22.65300
H  45.55000 26.99600 23.83400
H  48.03000 30.59500 27.47700
H  48.00600 29.54600 26.01600
H  49.35200 29.53400 27.20500
H  46.47300 28.59200 32.32800
H  50.25400 27.32000 34.23000
H  49.04100 27.25100 35.58600
H  49.70200 28.76800 35.09300

