158

Mg 25.42400 1.05400 29.32800
C  27.46500 1.00600 32.17000
C  22.68700 1.91700 31.30800
C  23.40100 1.31200 26.57200
C  28.06700 0.12600 27.31100
N  25.10700 1.32400 31.50500
C  26.12200 1.35300 32.48100
C  25.60000 1.67700 33.90200
C  24.03900 1.84700 33.61200
C  23.87100 1.64000 32.06600
C  23.11900 0.83200 34.39400
C  26.16800 2.93600 34.67300
C  26.76600 2.74300 36.08000
H  26.61200 3.84000 37.11200
N  23.32000 1.48000 28.94100
C  22.39000 1.84200 29.88500
C  21.10800 2.17600 29.33000
C  21.36000 1.99600 27.88600
C  22.74400 1.57600 27.72400
C  19.79700 2.43600 30.12600
C  20.24500 2.08000 26.70800
O  20.59700 1.88900 25.59700
C  18.91100 2.50500 26.96900
N  25.62500 0.62600 27.24200
C  24.68800 0.85500 26.31400
C  25.31100 0.87200 24.85000
C  26.75900 0.42700 25.11400
C  26.83700 0.38600 26.65000
C  24.45200 0.08600 23.87400
C  27.85200 1.40900 24.57600
C  29.00800 0.73300 23.86700
N  27.41300 0.61900 29.62000
C  28.39100 0.26100 28.70800
C  29.66600 0.05000 29.43500
C  29.34600 0.37300 30.79500
C  27.96100 0.67400 30.89500
C  30.90400 -0.45500 28.95300
C  29.86800 0.39600 32.15300
O  30.97200 0.16200 32.60400
C  28.63500 0.87200 33.07400
C  28.50300 -0.17600 34.15100
O  28.36600 -1.35400 33.88900
O  28.71500 0.34500 35.45200
C  29.02300 -0.65100 36.55300
H  21.89500 2.17000 32.01500
H  22.80800 1.43700 25.66300
H  28.81900 -0.34700 26.67500
H  25.80000 0.83000 34.55800
H  23.65300 2.85800 33.74200
H  22.62200 0.13000 33.72400
H  22.44300 1.36700 35.06100
H  23.65300 0.20600 35.10900
H  25.39100 3.69900 34.72900
H  26.98400 3.41200 34.12900
H  27.83400 2.74800 35.86400
H  26.67200 1.76600 36.55400
H  19.94500 2.52900 31.20200
H  19.06600 1.67200 29.86000
H  19.26000 3.34400 29.85100
H  18.35100 2.73800 26.06300
H  18.82200 3.47800 27.45200
H  18.33100 1.79200 27.55500
H  25.35600 1.94300 24.65200
H  26.98200 -0.60100 24.82900
H  23.61100 -0.44600 24.31800
H  25.23600 -0.55800 23.47800
H  24.09800 0.78600 23.11700
H  28.32000 1.96500 25.38800
H  27.24800 2.09700 23.98600
H  29.99700 1.16500 24.02100
H  28.73900 0.78300 22.81200
H  29.15800 -0.30900 24.14700
H  30.86400 -1.53500 28.80700
H  31.59900 -0.09100 29.71000
H  31.02700 0.03400 27.98700
H  28.72400 1.68400 33.79500
H  28.23300 -0.58200 37.30100
H  29.97600 -0.42100 37.03000
H  29.07500 -1.64000 36.09700
Mg 50.21800 45.22800 41.49300
C  46.88000 45.85100 40.34800
C  50.14200 42.31300 39.64300
C  53.46900 45.22700 41.65000
C  50.34800 48.74700 42.24700
N  48.79400 44.30800 40.04700
C  47.45900 44.70900 39.84600
C  46.82900 43.77400 38.76200
C  47.71100 42.50600 38.81200
C  48.99400 43.04100 39.52700
C  47.06500 41.24000 39.42600
C  46.77600 44.41600 37.33500
C  45.40700 44.46100 36.58200
H  45.33600 44.37800 34.99700
N  51.56100 43.81000 40.91100
C  51.37900 42.66200 40.20000
C  52.58300 41.85400 40.27200
C  53.57600 42.56500 41.03900
C  52.86800 44.00300 41.20700
C  52.60500 40.47900 39.64900
C  54.94500 42.09300 41.48100
O  55.33400 40.97200 41.14400
C  55.79400 42.94800 42.31400
N  51.68500 46.77700 41.76200
C  52.99100 46.46300 41.86600
C  53.89400 47.61100 42.27300
C  52.83600 48.71300 42.67600
C  51.53200 48.03900 42.19400
C  54.97300 47.34400 43.33700
C  53.08200 50.01300 41.88600
C  52.64800 50.02800 40.38800
N  48.89000 46.90700 41.63700
C  49.06700 48.24900 41.92100
C  47.81400 48.93900 41.83000
C  46.94200 48.01600 41.29900
C  47.59500 46.82000 41.11100
C  47.50300 50.31300 42.21300
C  45.56000 47.84900 40.89000
O  44.63100 48.62000 40.81900
C  45.45000 46.44200 40.22100
C  44.56000 45.52300 40.94900
O  43.96000 44.60500 40.43200
O  44.30800 45.88900 42.25800
C  42.97500 45.47300 42.78200
H  49.98400 41.35700 39.13900
H  54.54100 45.02500 41.60100
H  50.44600 49.74100 42.68700
H  45.88100 43.41900 39.16700
H  48.00500 42.15600 37.82300
H  47.77500 40.62200 39.97600
H  46.70400 40.67400 38.56700
H  46.25000 41.48800 40.10500
H  47.34100 43.80100 36.63500
H  47.17900 45.42800 37.35500
H  44.96100 45.39900 36.91400
H  44.72500 43.68400 36.92800
H  51.57200 40.16000 39.78400
H  53.33200 39.72900 39.96000
H  52.80000 40.60700 38.58400
H  55.19000 43.49900 43.03500
H  56.41100 43.51500 41.61700
H  56.44500 42.28200 42.88000
H  54.44400 47.91200 41.38200
H  52.81200 48.88300 43.75200
H  55.06000 48.12200 44.09600
H  55.89800 47.38400 42.76200
H  54.90500 46.34300 43.76400
H  54.15600 50.19500 41.92200
H  52.58600 50.85200 42.37400
H  53.45200 50.51400 39.83500
H  51.70200 50.55300 40.26200
H  52.56800 48.99500 40.05000
H  47.39800 50.99900 41.37200
H  48.28000 50.62200 42.91100
H  46.51900 50.38800 42.67600
H  45.15100 46.53000 39.17700
H  43.19200 45.06900 43.77100
H  42.32700 44.77300 42.25400
H  42.50100 46.41600 43.05200

