158

Mg 31.03600 58.33200 39.75400
C  28.31400 56.49800 38.71800
C  33.07800 55.53100 39.08700
C  33.67700 60.25400 40.13400
C  28.95700 61.23000 39.92800
N  30.70400 56.25600 38.82800
C  29.50200 55.74800 38.61500
C  29.68900 54.20400 38.29000
C  31.15500 53.90400 38.46700
C  31.69300 55.30400 38.81900
C  31.53500 52.87200 39.47100
C  29.25500 53.75600 36.92200
C  29.78300 54.51800 35.69800
H  28.67100 55.17700 34.79900
N  33.18200 57.95800 39.46900
C  33.78800 56.77300 39.19300
C  35.23000 56.96900 39.27100
C  35.41000 58.29400 39.70700
C  34.09200 58.91800 39.76700
C  36.28300 55.89900 38.96200
C  36.66800 58.93100 39.97900
O  37.66800 58.22400 40.00500
C  36.87000 60.49000 40.25700
N  31.30700 60.46900 39.87100
C  32.46200 60.95600 40.21500
C  32.47600 62.48400 40.52900
C  30.96400 62.72500 40.70300
C  30.33200 61.51600 40.04700
C  33.41900 63.08700 41.60800
C  30.42300 64.07800 40.01200
C  29.61600 64.96600 41.00100
N  29.02200 58.87200 39.43800
C  28.32200 60.02000 39.59300
C  26.92500 59.76200 39.38700
C  26.83200 58.38100 39.01900
C  28.10100 57.87300 39.08600
C  25.78400 60.80900 39.44300
C  25.94200 57.30100 38.66100
O  24.72400 57.36900 38.45100
C  26.82700 56.03300 38.56700
C  26.32600 55.03100 39.54400
O  26.76600 54.81100 40.67100
O  25.42400 54.18400 38.93000
C  25.11100 52.96200 39.67500
H  33.68300 54.63600 38.92600
H  34.45600 60.94400 40.46300
H  28.22800 61.98400 40.23100
H  29.17700 53.58200 39.02500
H  31.62700 53.51900 37.56300
H  31.64700 51.88600 39.02000
H  30.88900 52.76300 40.34200
H  32.47400 53.13500 39.95700
H  28.17100 53.70200 36.81900
H  29.60900 52.73200 36.80800
H  30.35300 53.87300 35.02900
H  30.35500 55.39400 36.00300
H  36.59900 56.08400 37.93500
H  35.82700 54.90900 38.95600
H  37.03600 55.88600 39.74900
H  36.62700 60.73600 41.29000
H  36.35200 61.13100 39.54400
H  37.93000 60.74000 40.21600
H  32.71200 62.84300 39.52700
H  30.72200 62.64500 41.76300
H  32.80500 63.55400 42.37800
H  34.18100 63.69800 41.12400
H  34.04000 62.38200 42.16100
H  29.82400 63.88200 39.12200
H  31.20900 64.71200 39.60100
H  28.60600 64.91500 40.59500
H  29.98500 65.99100 40.95900
H  29.77300 64.57000 42.00400
H  25.69900 61.25200 38.45100
H  25.83900 61.59500 40.19600
H  24.90600 60.17700 39.58000
H  26.75700 55.50800 37.61500
H  24.68100 52.21200 39.01100
H  24.27800 53.15400 40.35200
H  25.86600 52.37200 40.19400
Mg 9.82700 48.57200 24.98000
C  7.81800 48.79600 27.85100
C  12.45500 49.76100 26.81000
C  11.64700 48.01800 22.39100
C  6.82200 48.14100 23.14700
N  10.02300 49.12700 27.04700
C  9.15000 49.03500 28.09300
C  9.76700 49.54700 29.37400
C  11.03100 50.35800 28.88400
C  11.20200 49.80800 27.48700
C  10.85300 51.89700 28.87600
C  10.12500 48.35200 30.41300
C  9.56600 48.41500 31.84400
H  9.59100 47.26500 32.84300
N  11.79700 48.92700 24.65300
C  12.72000 49.33700 25.51600
C  14.04800 49.27000 24.86100
C  13.86800 48.69600 23.61900
C  12.37200 48.51500 23.49200
C  15.29500 49.70900 25.65000
C  14.84800 48.29600 22.54300
O  14.54000 47.85200 21.46600
C  16.34000 48.54000 22.67900
N  9.27100 48.13600 23.05000
C  10.24700 47.88800 22.15300
C  9.57300 47.63500 20.69700
C  8.03200 47.52000 21.03500
C  8.00700 47.88700 22.48200
C  9.85600 48.73100 19.60900
C  7.31600 46.14700 20.78100
C  7.74900 44.96700 21.61900
N  7.66200 48.58700 25.37600
C  6.61400 48.38600 24.54100
C  5.44300 48.29300 25.36100
C  5.83600 48.49600 26.66600
C  7.21200 48.59600 26.59400
C  4.01200 47.97500 24.86600
C  5.42000 48.63700 28.01800
O  4.30200 48.69100 28.54500
C  6.71200 48.81700 28.87100
C  6.86800 47.59400 29.75500
O  7.43000 46.60300 29.49100
O  6.19500 47.84600 30.93200
C  6.16500 46.80700 31.85200
H  13.25800 50.18300 27.41900
H  12.14700 47.88000 21.43000
H  5.93600 47.94400 22.54000
H  9.14500 50.24200 29.93900
H  11.92800 50.02200 29.40300
H  10.02600 52.10100 29.55500
H  10.52600 52.23200 27.89200
H  11.74500 52.45000 29.17200
H  11.21300 48.30100 30.41800
H  9.98300 47.35600 29.99300
H  8.55200 48.80700 31.91000
H  10.21200 49.20600 32.22500
H  15.47700 49.08600 26.52600
H  15.04100 50.69600 26.03700
H  16.22400 49.79500 25.08700
H  16.56300 49.59000 22.86800
H  16.83800 48.20800 21.76800
H  16.74200 47.92600 23.48500
H  9.92800 46.63700 20.43800
H  7.54900 48.40400 20.62000
H  8.96700 49.00400 19.04100
H  10.63100 48.40300 18.91600
H  10.07800 49.68800 20.08000
H  7.59200 45.85500 19.76800
H  6.25900 46.40300 20.84500
H  6.86200 44.49800 22.04400
H  8.37800 45.30800 22.44100
H  8.36700 44.28200 21.03800
H  3.53500 47.29300 25.57000
H  4.00800 47.35400 23.97000
H  3.42500 48.89200 24.81800
H  6.70800 49.63500 29.59200
H  6.59800 47.04600 32.82400
H  6.69200 45.92100 31.49600
H  5.13900 46.54400 32.10900

