158

Mg 41.32400 8.15000 29.59900
C  43.08000 9.70000 32.29600
C  39.25600 6.70500 31.78300
C  39.81800 6.49100 26.96500
C  43.99400 9.01000 27.48100
N  41.21600 8.14500 31.80500
C  41.92700 8.98800 32.74600
C  41.23200 9.00200 34.05700
C  40.06800 8.00500 33.88700
C  40.22300 7.52700 32.39900
C  40.19100 6.87200 34.92800
C  40.72300 10.40400 34.56400
C  40.12600 10.45900 36.06300
H  40.78200 11.43800 36.98600
N  39.69700 6.91600 29.38600
C  39.02000 6.37800 30.42300
C  37.95500 5.61200 29.94400
C  37.94600 5.69900 28.50200
C  39.16700 6.43800 28.19400
C  37.04200 4.78600 30.93700
C  36.86200 5.35700 27.53800
O  37.07900 5.55900 26.36600
C  35.59000 4.68300 28.04700
N  41.86400 7.72900 27.56500
C  41.07300 7.13600 26.63400
C  41.61800 7.25000 25.15100
C  42.90600 8.15400 25.41000
C  42.91900 8.30300 26.90300
C  41.89100 5.93900 24.52400
C  42.94800 9.45100 24.59700
C  42.03000 10.52200 25.08600
N  43.22600 9.02800 29.80400
C  44.12300 9.44700 28.85000
C  45.19000 10.24400 29.43700
C  44.78500 10.35400 30.81900
C  43.61500 9.63600 30.95400
C  46.33900 10.68200 28.72100
C  45.15100 10.95000 32.06300
O  46.04000 11.71400 32.42000
C  43.98700 10.57500 33.08000
C  44.66700 9.66900 34.11100
O  45.59300 8.91900 33.86400
O  44.10900 9.90700 35.35100
C  44.81600 9.21800 36.44000
H  38.61300 6.26900 32.55100
H  39.44800 6.03900 26.04200
H  44.76900 9.35700 26.79400
H  41.97000 8.53900 34.71300
H  39.13400 8.56500 33.82000
H  40.80400 7.05000 35.81200
H  40.65100 6.08300 34.33300
H  39.22100 6.46800 35.21600
H  40.05500 10.96100 33.90600
H  41.60000 11.05200 34.53900
H  39.94200 9.52300 36.59100
H  39.14400 10.88200 35.85100
H  36.73900 3.86300 30.44300
H  36.27500 5.47400 31.29300
H  37.60300 4.46300 31.81400
H  35.72500 3.68600 28.46400
H  34.72300 4.65900 27.38600
H  35.28000 5.28000 28.90500
H  40.86300 7.72600 24.52500
H  43.80900 7.57300 25.22200
H  41.80000 5.20400 25.32400
H  42.93800 5.88400 24.22500
H  41.33800 5.64200 23.63300
H  42.63400 9.17800 23.58900
H  43.95500 9.86400 24.55000
H  41.72000 10.24700 26.09400
H  41.17900 10.83200 24.47900
H  42.57600 11.45800 25.20400
H  46.02300 11.64600 28.32400
H  46.67200 9.92100 28.01500
H  47.11600 10.78600 29.47800
H  43.67600 11.52800 33.50800
H  45.90000 9.29900 36.36500
H  44.45300 8.19200 36.38300
H  44.61000 9.71600 37.38700
Mg 29.74900 58.17300 38.51200
C  26.75500 56.46200 37.95900
C  31.50300 55.40000 37.40000
C  32.48100 60.15800 38.25800
C  27.77300 61.08900 39.09800
N  29.17400 56.19400 37.56800
C  27.87500 55.65800 37.62900
C  27.98600 54.15700 37.11000
C  29.48200 53.82000 37.35600
C  30.10000 55.21100 37.42000
C  29.93300 52.90000 38.48600
C  27.60200 54.24700 35.59300
C  26.12300 53.74600 35.28400
H  25.47000 54.37200 34.08300
N  31.73900 57.78100 38.00600
C  32.27800 56.59900 37.63800
C  33.76100 56.75400 37.47100
C  34.10500 58.09400 37.59800
C  32.75700 58.77500 37.96800
C  34.54400 55.52700 37.22400
C  35.51800 58.66700 37.46400
O  36.55000 58.04800 37.09500
C  35.81000 60.04200 37.91800
N  30.06900 60.40300 38.47400
C  31.30100 60.86800 38.65700
C  31.33100 62.40500 38.89700
C  29.86000 62.65900 39.31800
C  29.16900 61.30200 38.95100
C  32.48700 62.91000 39.80800
C  29.16100 63.96600 38.72100
C  28.40900 64.81700 39.77400
N  27.70400 58.73300 38.47300
C  27.04000 59.91800 38.74900
C  25.61600 59.74400 38.64000
C  25.44000 58.38300 38.39100
C  26.75700 57.79400 38.26900
C  24.54200 60.86400 38.68400
C  24.45800 57.36100 38.19500
O  23.22600 57.38900 38.21500
C  25.27500 56.05200 37.95200
C  24.93800 54.96800 38.91200
O  25.63900 54.55700 39.87500
O  23.76800 54.33000 38.45000
C  23.50500 53.09400 39.21900
H  32.06900 54.52100 37.08500
H  33.33000 60.84200 38.19600
H  27.10200 61.86700 39.46800
H  27.33100 53.37900 37.50200
H  29.98800 53.36100 36.50700
H  29.31700 53.11300 39.36000
H  31.01300 52.90600 38.63100
H  29.62800 51.86500 38.33300
H  28.35000 53.65900 35.06000
H  27.64000 55.28700 35.26700
H  25.51400 53.95900 36.16200
H  26.25900 52.67600 35.12000
H  34.38000 55.17900 36.20500
H  34.13500 54.69800 37.80300
H  35.61200 55.56900 37.44100
H  36.89200 60.14600 37.99600
H  35.35100 60.24500 38.88500
H  35.50400 60.82100 37.21900
H  31.46900 62.94000 37.95700
H  29.81300 62.75600 40.40300
H  32.15400 63.23100 40.79500
H  32.91200 63.80100 39.34500
H  33.25200 62.15600 39.99700
H  28.43400 63.55600 38.02000
H  29.82500 64.68100 38.23600
H  28.81100 64.60300 40.76500
H  27.33000 64.67000 39.81100
H  28.63900 65.84100 39.48000
H  24.34300 61.21500 39.69600
H  23.59800 60.45300 38.32600
H  24.85200 61.67900 38.03000
H  24.87600 55.72400 36.99200
H  22.73000 52.49500 38.74200
H  23.22400 53.41400 40.22300
H  24.43400 52.52800 39.28800

