158

Mg 47.63300 16.00000 28.80700
C  45.41600 15.69600 31.39900
C  49.75800 17.66900 31.02300
C  49.59700 16.92900 26.23800
C  45.27100 14.65500 26.66100
N  47.53400 16.65200 30.84900
C  46.59700 16.21900 31.82600
C  47.00200 16.66000 33.24300
C  48.22600 17.62900 33.02400
C  48.52100 17.30800 31.54600
C  48.00400 19.11000 33.24700
C  47.29000 15.48100 34.23100
C  46.89200 15.67400 35.65000
H  46.51500 17.11300 36.06500
N  49.48800 17.09900 28.65900
C  50.18100 17.69800 29.65500
C  51.50000 18.09300 29.21400
C  51.50500 17.83300 27.76000
C  50.18800 17.25500 27.45400
C  52.57700 18.77400 30.04900
C  52.58800 18.12500 26.81700
O  52.43900 17.75500 25.69400
C  53.80800 18.86600 27.07200
N  47.43300 15.73700 26.75800
C  48.40200 16.20900 25.87700
C  47.86500 16.14200 24.44900
C  46.64100 15.20000 24.56100
C  46.42300 15.19000 26.06600
C  47.63900 17.55600 23.82400
C  46.83500 13.79600 23.92000
C  45.93300 13.52100 22.71100
N  45.74800 15.35100 28.91100
C  44.90700 14.80000 28.01100
C  43.70900 14.37400 28.64100
C  43.79400 14.75500 29.95400
C  45.05200 15.38600 30.05100
C  42.59900 13.62900 27.94400
C  43.12700 14.70600 31.27500
O  42.13500 14.10700 31.65900
C  44.18400 15.38900 32.21800
C  43.53800 16.56000 32.77000
O  43.27300 17.58600 32.15600
O  43.00100 16.27400 33.96700
C  42.12700 17.28200 34.58400
H  50.39200 18.04900 31.82700
H  50.13300 17.26400 25.34800
H  44.57300 14.27300 25.91300
H  46.16300 17.24800 33.61500
H  49.11800 17.24100 33.51600
H  46.98200 19.26300 33.59300
H  48.04600 19.54700 32.24900
H  48.69300 19.54500 33.97100
H  48.37500 15.41600 34.15100
H  46.90700 14.57800 33.75600
H  47.63400 15.27500 36.34100
H  46.06300 14.98900 35.83000
H  52.22600 18.76100 31.08000
H  52.73400 19.79200 29.69100
H  53.48900 18.18700 29.93700
H  53.70400 19.56500 27.90200
H  54.13500 19.29000 26.12300
H  54.57300 18.11600 27.27400
H  48.69700 15.76700 23.85200
H  45.82300 15.76400 24.11400
H  47.90200 18.28400 24.59100
H  46.59300 17.65900 23.53500
H  48.23200 17.72600 22.92500
H  46.63100 13.09700 24.73100
H  47.88600 13.59000 23.71700
H  46.54000 13.12300 21.89800
H  45.43000 14.42000 22.35600
H  45.09500 12.85000 22.90000
H  42.78500 12.56700 27.78400
H  42.43300 14.19600 27.02800
H  41.64800 13.66500 28.47500
H  44.51900 14.83300 33.09300
H  41.50900 17.91600 33.94800
H  42.71500 17.95600 35.20700
H  41.41100 16.86400 35.29200
Mg 6.48900 53.22800 42.28400
C  6.37100 49.71800 42.07400
C  9.46600 53.11800 40.71500
C  6.09800 56.47100 41.70200
C  3.09500 53.05100 43.24000
N  7.64300 51.57700 41.30500
C  7.44800 50.21700 41.37900
C  8.59900 49.40500 40.65800
C  9.61800 50.58800 40.55300
C  8.86800 51.84300 40.84000
C  10.91800 50.31100 41.44700
C  8.27600 48.77000 39.25500
C  7.21300 49.45200 38.28500
H  7.62900 49.73800 36.81300
N  7.58800 54.64800 41.38500
C  8.88400 54.39800 40.98900
C  9.52200 55.67500 40.70200
C  8.55700 56.68700 40.94300
C  7.31400 55.96600 41.31500
C  10.98500 55.79800 40.37200
C  8.82900 58.15600 41.02600
O  9.94900 58.55200 40.75300
C  7.83300 59.09700 41.45700
N  4.83100 54.57000 42.56200
C  4.98500 55.90100 42.32100
C  3.64100 56.71900 42.62100
C  2.65800 55.53900 42.92700
C  3.58000 54.29500 43.01400
C  3.80600 57.65500 43.84800
C  1.67700 55.25300 41.76100
C  0.77400 56.38000 41.35400
N  5.05100 51.80500 42.80800
C  3.77400 51.88000 43.24000
C  3.18200 50.58500 43.48100
C  4.18400 49.70400 43.12900
C  5.32400 50.45200 42.70000
C  1.75500 50.14600 43.91800
C  4.49400 48.30800 43.09800
O  3.95900 47.30500 43.51800
C  5.94000 48.22900 42.32400
C  5.64800 47.52800 41.05800
O  4.77600 47.91100 40.21000
O  6.34200 46.36300 40.92700
C  5.89300 45.43900 39.85000
H  10.46400 53.11000 40.27200
H  5.91700 57.54200 41.59100
H  2.06600 52.94500 43.58900
H  8.86800 48.65900 41.40600
H  9.86100 50.71900 39.49800
H  11.17900 51.24900 41.93700
H  11.78500 50.24800 40.78900
H  10.85400 49.44800 42.11000
H  7.95300 47.77800 39.57000
H  9.26700 48.78400 38.80200
H  6.97400 50.41600 38.73500
H  6.29500 48.88200 38.42900
H  11.34000 56.81400 40.53900
H  11.14200 55.49200 39.33800
H  11.50500 55.14000 41.06900
H  7.06100 59.20000 40.69500
H  8.33600 60.06200 41.52500
H  7.49300 58.70700 42.41700
H  3.39200 57.32600 41.75100
H  2.19200 55.59600 43.91100
H  3.59300 58.68600 43.56400
H  4.80200 57.71800 44.28700
H  3.15900 57.36800 44.67700
H  1.01600 54.48900 42.17100
H  2.14500 54.78700 40.89300
H  0.68000 57.14600 42.12300
H  -0.25600 56.08900 41.15000
H  1.13700 56.79400 40.41200
H  1.37900 50.80600 44.70000
H  1.81900 49.11500 44.26700
H  1.04900 50.16400 43.08700
H  6.65000 47.61400 42.87600
H  5.96000 46.00600 38.92100
H  4.86800 45.07400 39.92100
H  6.56600 44.58100 39.83300

