158

Mg 0.68000 7.43600 26.84500
C  0.84400 9.75600 29.33300
C  0.57500 4.95800 29.22600
C  -0.12800 5.20600 24.39400
C  1.03200 9.83600 24.45200
N  0.73100 7.36200 29.01700
C  0.72800 8.46900 29.83500
C  0.57900 8.05600 31.30400
C  0.80600 6.44500 31.31100
C  0.74900 6.24800 29.73800
C  2.11900 5.96400 31.92600
C  -0.83400 8.39200 31.83900
C  -0.96700 8.48200 33.37500
H  0.29300 7.99500 34.22700
N  0.27300 5.36800 26.82300
C  0.37300 4.49200 27.92200
C  0.04500 3.17700 27.50300
C  -0.32500 3.24400 26.07900
C  -0.12600 4.64700 25.70500
C  0.06900 1.99100 28.46700
C  -0.89500 2.18300 25.11800
O  -1.20700 2.40300 23.97500
C  -1.07200 0.80500 25.59500
N  0.34600 7.62400 24.64900
C  0.02500 6.54600 23.92500
C  0.16000 6.88200 22.46100
C  0.64300 8.40000 22.40400
C  0.73500 8.64200 23.89800
C  0.91800 5.90900 21.57400
C  -0.34200 9.31500 21.64300
C  -1.56500 10.05000 22.30600
N  1.09900 9.31700 26.85500
C  1.17800 10.22100 25.81200
C  1.32700 11.50000 26.30100
C  1.29200 11.42200 27.70200
C  1.09900 10.08600 27.97600
C  1.41300 12.86600 25.48400
C  1.41700 12.12500 28.92700
O  1.59100 13.31400 29.14700
C  1.12900 11.11600 30.07700
C  2.31000 10.98500 30.91400
O  3.28900 10.27100 30.57100
O  2.12500 11.61900 32.16600
C  3.35600 11.54300 33.03000
H  0.53800 4.08300 29.87700
H  -0.45600 4.65200 23.51200
H  1.24900 10.62900 23.73300
H  1.44100 8.45900 31.83600
H  -0.03300 5.99400 31.84200
H  2.34700 6.34700 32.92100
H  2.90500 6.22200 31.21600
H  2.06100 4.87500 31.94800
H  -1.44800 7.59300 31.42300
H  -1.14000 9.31500 31.34600
H  -1.80600 7.86100 33.68700
H  -1.21000 9.50500 33.66500
H  -0.65100 2.16700 29.26600
H  1.05500 1.95400 28.92900
H  -0.16100 1.13100 27.83700
H  -1.78500 0.87600 26.41700
H  -0.09400 0.38100 25.82100
H  -1.40200 0.05600 24.87600
H  -0.83000 6.79000 22.01500
H  1.68100 8.47700 22.08200
H  1.71300 5.39700 22.11700
H  1.37200 6.24100 20.64100
H  0.22900 5.10800 21.30500
H  -0.71300 8.79300 20.76100
H  0.25900 10.09300 21.17200
H  -1.64600 9.57900 23.28500
H  -2.46200 9.84200 21.72400
H  -1.48600 11.13400 22.38500
H  1.20400 13.70600 26.14600
H  0.75400 12.73300 24.62500
H  2.41900 13.02400 25.09400
H  0.22400 11.50500 30.54300
H  3.87700 12.47500 32.81000
H  4.03800 10.74000 32.75200
H  3.27200 11.49100 34.11600
Mg 27.02200 50.29500 25.93500
C  24.81900 51.13300 28.60100
C  29.04600 48.73200 28.29300
C  29.19000 49.74600 23.47100
C  24.81000 51.71800 23.73200
N  26.92100 49.99800 28.15000
C  25.94500 50.38100 29.02700
C  26.26100 49.97000 30.48300
C  27.71500 49.49900 30.31200
C  27.93700 49.38200 28.79300
C  28.96200 50.20800 31.09600
C  25.15500 49.02100 31.05800
C  24.52100 49.47600 32.39100
H  25.36900 50.06600 33.57900
N  28.86500 49.37500 25.86400
C  29.52000 48.72800 26.93500
C  30.79900 48.17500 26.37900
C  30.86000 48.57300 25.00500
C  29.61700 49.18900 24.71200
C  31.66800 47.29400 27.16000
C  32.02600 48.34800 23.94700
O  32.04600 48.51700 22.73600
C  33.32000 47.81400 24.59600
N  26.98200 50.66000 23.92000
C  28.02000 50.34700 23.11100
C  27.63400 50.63100 21.63100
C  26.22700 51.25100 21.74400
C  25.96400 51.16000 23.20900
C  28.62600 51.43600 20.75000
C  25.15000 50.62000 20.81000
C  24.07600 51.52600 20.22000
N  25.18900 51.29900 26.08600
C  24.43600 51.78100 25.11500
C  23.29000 52.49400 25.63900
C  23.40400 52.25400 27.01700
C  24.61100 51.55600 27.24900
C  22.33900 53.31800 24.81400
C  22.75000 52.52100 28.30700
O  21.79000 53.16500 28.66100
C  23.74000 51.84800 29.41400
C  24.25000 52.93400 30.23700
O  25.29300 53.52800 29.99900
O  23.48700 53.13100 31.33000
C  23.96900 54.06000 32.31400
H  29.79000 48.34900 28.99500
H  29.86400 49.59300 22.62600
H  24.06100 52.08100 23.02500
H  26.17800 50.93000 30.99100
H  27.74100 48.47300 30.67900
H  29.52800 50.83000 30.40200
H  29.57900 49.43300 31.55100
H  28.58300 50.87700 31.86900
H  25.57900 48.02000 31.13100
H  24.36400 48.90400 30.31800
H  24.03600 48.59400 32.81100
H  23.61200 50.07300 32.31700
H  31.76500 46.28500 26.75800
H  31.28500 47.25400 28.18000
H  32.64900 47.76400 27.23100
H  34.11000 48.05300 23.88400
H  33.20800 46.75900 24.84600
H  33.43300 48.51100 25.42600
H  27.62100 49.63000 21.19900
H  26.28700 52.32300 21.55400
H  29.17500 52.07000 21.44600
H  28.04800 52.10800 20.11500
H  29.34800 50.84800 20.18400
H  24.57100 49.86600 21.34200
H  25.42500 50.01000 19.94900
H  23.94000 51.14700 19.20600
H  24.53100 52.50700 20.08700
H  23.22700 51.49000 20.90200
H  22.91200 53.72900 23.98300
H  21.88900 54.02600 25.51100
H  21.61500 52.74900 24.23100
H  23.27000 51.11400 30.06800
H  24.35700 54.95100 31.82100
H  24.81000 53.52400 32.75100
H  23.27400 54.23400 33.13600

