158

Mg -2.77500 17.25200 25.95300
C  -2.87500 15.10200 28.71700
C  -3.67600 19.86400 28.02400
C  -2.96700 19.26600 23.31300
C  -2.60800 14.51500 23.89500
N  -3.21600 17.46100 28.13600
C  -3.16400 16.45200 29.05500
C  -3.65400 16.94100 30.38600
C  -4.19200 18.38200 30.07100
C  -3.79700 18.60300 28.59000
C  -5.72200 18.52300 30.16500
C  -2.55500 16.93400 31.51400
C  -3.16900 16.78100 32.90400
H  -2.79000 15.64500 33.92200
N  -2.97600 19.34000 25.75600
C  -3.33700 20.24000 26.71400
C  -3.37800 21.54100 26.15900
C  -3.02100 21.40700 24.72700
C  -3.02000 19.95900 24.51100
C  -3.61800 22.83500 26.92400
C  -2.80100 22.52600 23.66300
O  -2.56800 22.40200 22.49900
C  -2.67300 23.89700 24.10600
N  -2.93100 16.95700 23.82900
C  -2.86800 17.94100 22.91000
C  -2.99600 17.37400 21.48900
C  -2.69200 15.83300 21.75300
C  -2.70600 15.77300 23.24800
C  -4.33000 17.77900 20.80400
C  -1.37500 15.36000 21.13900
C  -0.13100 15.48400 21.95500
N  -2.82500 15.20100 26.14000
C  -2.69800 14.18600 25.26800
C  -2.62000 12.87000 25.96000
C  -2.70800 13.19300 27.35800
C  -2.86400 14.62300 27.40700
C  -2.60400 11.55400 25.25300
C  -2.72800 12.61300 28.67200
O  -2.53600 11.53100 29.18300
C  -2.77400 13.84300 29.64900
C  -1.42700 13.70900 30.31600
O  -0.32900 13.92800 29.83600
O  -1.57300 13.29200 31.63500
C  -0.34900 13.09800 32.41400
H  -3.83800 20.63900 28.77600
H  -3.05600 19.82300 22.37800
H  -2.50700 13.71800 23.15500
H  -4.46700 16.23200 30.54400
H  -3.68200 19.22300 30.54100
H  -6.29800 18.49300 29.24000
H  -5.94500 19.51800 30.55000
H  -6.05400 17.78700 30.89700
H  -1.98700 17.86400 31.50200
H  -1.85700 16.14700 31.23000
H  -4.25600 16.81000 32.82400
H  -2.87400 17.69100 33.42700
H  -4.20800 22.59800 27.80900
H  -4.32000 23.46700 26.38000
H  -2.66800 23.36600 26.98400
H  -2.02600 24.00800 24.97600
H  -3.65300 24.08900 24.54100
H  -2.43000 24.57700 23.28900
H  -2.09400 17.86100 21.11800
H  -3.44600 15.09500 21.47800
H  -5.06500 18.05200 21.56100
H  -4.81000 16.97400 20.24600
H  -4.10000 18.69200 20.25500
H  -1.27800 15.98300 20.25000
H  -1.47300 14.38000 20.67200
H  -0.17800 15.35200 23.03600
H  0.44800 16.40000 21.83500
H  0.49000 14.63400 21.67300
H  -3.08700 11.75700 24.29600
H  -3.24400 10.80000 25.71000
H  -1.63900 11.04800 25.22200
H  -3.55600 13.85700 30.40800
H  -0.10500 12.03700 32.35100
H  -0.51900 13.51500 33.40600
H  0.57000 13.47600 31.96700
Mg -5.82500 25.36000 26.51600
C  -3.90400 26.95700 28.89800
C  -6.73500 22.99600 28.95400
C  -7.42200 23.57200 24.13500
C  -4.21300 27.20800 23.96000
N  -5.35500 25.02700 28.66600
C  -4.77700 26.00500 29.44700
C  -5.02200 25.68300 30.91100
C  -5.45100 24.18900 30.90900
C  -5.89200 24.03800 29.40000
C  -4.32400 23.24900 31.24800
C  -5.92400 26.78600 31.55800
C  -5.50200 27.15300 33.01700
H  -5.09800 25.99300 33.95500
N  -6.96200 23.59000 26.60800
C  -7.24600 22.77100 27.63700
C  -7.91100 21.49200 27.24800
C  -8.19200 21.74000 25.88700
C  -7.51600 22.99800 25.47500
C  -8.38400 20.41100 28.18200
C  -9.00700 20.89000 24.88400
O  -9.15200 21.19200 23.73100
C  -9.53800 19.56900 25.38800
N  -5.67600 25.34800 24.36500
C  -6.65300 24.63900 23.64100
C  -6.64000 24.97200 22.20400
C  -5.50700 26.06400 22.08800
C  -5.20400 26.33100 23.55300
C  -6.32900 23.73000 21.24800
C  -5.95600 27.33100 21.36200
C  -5.63500 27.33100 19.84900
N  -4.34100 26.81500 26.41600
C  -3.79800 27.43200 25.34500
C  -2.76400 28.36700 25.79900
C  -2.74900 28.27400 27.16000
C  -3.71700 27.19300 27.48600
C  -2.05700 29.32600 24.84400
C  -2.15400 28.67700 28.45000
O  -1.25200 29.46800 28.78400
C  -2.84600 27.75200 29.62200
C  -1.66000 26.95900 30.20900
O  -0.89700 26.34300 29.48800
O  -1.67800 26.94300 31.58200
C  -0.82600 25.93500 32.18700
H  -7.09800 22.32300 29.73400
H  -7.94900 23.06300 23.32500
H  -3.71800 27.79300 23.18200
H  -4.04800 25.77900 31.39100
H  -6.25200 24.21200 31.64800
H  -3.59700 23.65400 31.95200
H  -3.80800 23.04300 30.31100
H  -4.65600 22.35900 31.78200
H  -6.92000 26.37300 31.72000
H  -5.98200 27.72900 31.01400
H  -6.33500 27.62600 33.53700
H  -4.56900 27.70900 32.92800
H  -8.28500 20.77900 29.20300
H  -7.83100 19.50700 27.92900
H  -9.43400 20.19700 27.98200
H  -9.91800 18.93900 24.58400
H  -10.42500 19.80200 25.97700
H  -8.75100 19.00400 25.88700
H  -7.65600 25.31800 22.01700
H  -4.66500 25.57000 21.60500
H  -6.35400 22.78300 21.78800
H  -5.44600 23.71700 20.61000
H  -7.13000 23.55200 20.53100
H  -5.57000 28.21900 21.86300
H  -7.03700 27.44900 21.42900
H  -6.60200 27.51300 19.38000
H  -5.09200 26.47500 19.44800
H  -5.02600 28.21400 19.65700
H  -2.83400 29.66600 24.16000
H  -1.36200 28.67500 24.31400
H  -1.59700 30.19700 25.31100
H  -3.24400 28.38000 30.41900
H  0.19600 26.30400 32.09600
H  -0.96900 25.02000 31.61200
H  -0.99200 25.75200 33.24800

