158

Mg 34.89600 2.32000 29.59900
C  32.97500 3.51700 32.22500
C  37.60700 2.12100 31.81300
C  36.80700 1.21000 27.15000
C  32.22500 2.70900 27.44300
N  35.23400 2.71500 31.74300
C  34.24400 3.10300 32.60700
C  34.72500 2.91300 34.03800
C  36.25300 2.65700 33.90100
C  36.40900 2.44200 32.44500
C  37.13800 3.88800 34.51900
C  33.85700 1.78600 34.72000
C  33.44700 2.00500 36.20900
H  34.17400 3.13700 36.95800
N  36.93600 1.83500 29.52900
C  37.87800 1.89000 30.43600
C  39.22500 1.73700 29.92400
C  39.00300 1.17900 28.59200
C  37.51800 1.38900 28.39600
C  40.50000 1.77600 30.74000
C  39.97900 0.62300 27.54600
O  39.59800 0.02500 26.53900
C  41.40000 0.54200 27.91600
N  34.57200 1.99000 27.63800
C  35.51600 1.53300 26.84100
C  35.01100 1.29500 25.40400
C  33.52200 1.64200 25.53100
C  33.42200 2.21200 26.91900
C  35.72300 2.10800 24.32300
C  32.55400 0.51500 25.24100
C  32.53500 0.10100 23.71100
N  33.09900 3.12000 29.69100
C  32.00600 3.13600 28.76800
C  30.82300 3.64400 29.41900
C  31.17900 3.78200 30.80300
C  32.51300 3.52300 30.90800
C  29.43400 3.86300 28.82500
C  30.57500 4.13100 32.12200
O  29.43700 4.36600 32.42700
C  31.77900 3.88700 33.13600
C  31.87300 5.13400 33.99900
O  32.53900 6.14800 33.67300
O  31.09500 5.02000 35.13000
C  31.07400 6.17800 35.99300
H  38.45200 2.27500 32.48800
H  37.42500 1.03300 26.26800
H  31.34700 2.74000 26.79400
H  34.54100 3.90100 34.46100
H  36.54900 1.71900 34.37000
H  37.44700 4.58100 33.73600
H  37.98500 3.36500 34.96300
H  36.64900 4.37700 35.36100
H  34.45200 0.88100 34.84000
H  32.94700 1.45500 34.22100
H  33.61100 1.05600 36.72000
H  32.38000 2.15700 36.04400
H  41.29000 2.46200 30.43400
H  40.89800 0.77200 30.88500
H  40.13100 2.11700 31.70800
H  41.75400 -0.36200 28.41000
H  41.77300 1.36800 28.52200
H  41.99400 0.59600 27.00300
H  35.14100 0.22100 25.27400
H  33.23800 2.44100 24.84700
H  36.62800 1.56400 24.05400
H  35.87100 3.10000 24.75000
H  35.09100 2.34300 23.46600
H  31.52900 0.82600 25.44600
H  32.93000 -0.31300 25.84200
H  32.80200 -0.95500 23.68200
H  33.29600 0.61400 23.12300
H  31.60800 0.33900 23.18900
H  29.45300 4.22300 27.79600
H  28.87100 4.59200 29.40700
H  28.82000 2.96800 28.92700
H  31.50000 3.00300 33.70800
H  32.07800 6.51500 36.25100
H  30.44700 5.84900 36.82200
H  30.65300 7.04100 35.47800
Mg 35.29900 48.48900 24.80200
C  35.53100 46.86400 27.88700
C  33.57700 50.95100 26.33500
C  34.82800 49.82000 21.78300
C  36.34500 45.52300 23.19800
N  34.54700 48.83000 26.89600
C  34.96400 48.11500 28.00500
C  34.71600 48.94900 29.34200
C  33.92000 50.13800 28.83400
C  33.95600 49.98700 27.26000
C  32.48000 50.06600 29.32400
C  35.98400 49.38600 30.05400
C  36.02400 49.66600 31.55000
H  34.72600 49.47800 32.39700
N  34.43000 50.24300 24.13900
C  33.80000 51.11400 24.93300
C  33.35200 52.22000 24.11300
C  33.61200 51.84700 22.76400
C  34.38200 50.62500 22.84500
C  32.63800 53.46900 24.66200
C  33.03000 52.41600 21.45100
O  33.23200 51.85200 20.36700
C  32.25600 53.73700 21.47100
N  35.46700 47.70600 22.85000
C  35.28300 48.50800 21.74100
C  35.70200 47.85100 20.41800
C  36.57600 46.65400 20.98800
C  36.07900 46.55400 22.44000
C  34.56300 47.31500 19.54100
C  38.15700 46.78800 20.82200
C  38.76500 46.53100 19.42700
N  35.80400 46.51900 25.41100
C  36.27600 45.46200 24.68900
C  36.61500 44.41600 25.58700
C  36.38500 44.92100 26.85200
C  35.81600 46.17100 26.71800
C  37.12800 43.07400 25.23800
C  36.49700 44.59100 28.28600
O  36.85700 43.57500 28.80500
C  35.92100 45.93200 29.00400
C  34.70500 45.40500 29.81300
O  33.74800 44.88300 29.28800
O  34.89400 45.54500 31.21300
C  34.04100 44.96500 32.13500
H  32.89400 51.72300 26.69600
H  34.83600 50.37000 20.83900
H  36.83500 44.67900 22.70900
H  34.16400 48.50400 30.16900
H  34.36300 51.09300 29.11500
H  32.34200 50.69400 30.20400
H  32.09300 49.11800 29.69900
H  31.81400 50.43200 28.54300
H  36.41600 50.19000 29.45800
H  36.58800 48.49400 29.88200
H  36.32600 50.70900 31.64300
H  36.73500 48.92800 31.92200
H  31.55400 53.35300 24.63300
H  32.98100 54.39400 24.19700
H  32.93700 53.59000 25.70300
H  32.90500 54.53400 21.83700
H  31.33100 53.78200 22.04600
H  32.16800 54.01300 20.42000
H  36.30900 48.60700 19.91900
H  36.17400 45.79400 20.45100
H  34.44400 47.96700 18.67500
H  33.59800 47.46800 20.02500
H  34.73700 46.30700 19.16300
H  38.50100 45.93000 21.40000
H  38.55100 47.67400 21.31900
H  37.99300 46.40600 18.66700
H  39.38300 45.63300 19.44300
H  39.49000 47.32200 19.23500
H  37.94200 42.91200 25.94400
H  37.50600 42.96500 24.22100
H  36.43100 42.27600 25.49300
H  36.71900 46.30100 29.64900
H  33.17500 44.49600 31.66800
H  33.70000 45.77500 32.78000
H  34.56500 44.25300 32.77200

