158

Mg 1.88000 -1.68600 44.13400
C  5.45000 -0.96400 43.97700
C  1.40200 1.23700 42.37600
C  -1.25600 -2.68300 43.92200
C  2.85900 -4.95800 45.35800
N  3.29300 -0.11100 43.29500
C  4.66700 0.04500 43.38800
C  5.08800 1.24600 42.58600
C  3.81800 1.96400 42.23700
C  2.75800 0.95200 42.65300
C  3.67900 3.30900 43.04100
C  5.84000 0.86700 41.25500
C  7.25600 1.54000 41.14000
H  8.19200 0.89600 40.02700
N  0.25400 -0.82400 43.31700
C  0.24200 0.41400 42.62100
C  -1.15500 0.72100 42.33300
C  -1.89900 -0.45000 42.69900
C  -0.97100 -1.35300 43.39900
C  -1.59300 2.13100 41.89300
C  -3.36700 -0.64100 42.55800
O  -3.97200 0.34900 42.15800
C  -4.23500 -1.89700 42.69000
N  0.96800 -3.60500 44.48100
C  -0.38000 -3.65300 44.46400
C  -0.82800 -5.13900 44.79600
C  0.45700 -5.80600 45.22400
C  1.54900 -4.73300 44.99000
C  -2.07700 -5.20000 45.81300
C  0.91400 -7.11500 44.42400
C  1.28900 -8.25600 45.43100
N  3.74100 -2.81000 44.66300
C  3.97300 -4.10200 45.08100
C  5.43200 -4.27400 45.39000
C  5.99200 -3.01700 44.98000
C  4.96500 -2.18800 44.45100
C  6.09400 -5.52700 45.96200
C  7.30100 -2.24600 44.87000
O  8.45100 -2.63500 45.13700
C  6.94200 -0.89500 44.25300
C  7.16400 0.27400 45.19600
O  6.41900 0.72400 46.01400
O  8.37600 0.81500 44.89000
C  8.64300 2.18000 45.44100
H  1.30800 2.19800 41.86600
H  -2.32400 -2.89500 44.01100
H  3.16500 -5.92100 45.77100
H  5.82000 1.77100 43.20000
H  3.69000 2.17300 41.17500
H  4.63900 3.81900 43.11500
H  3.25600 3.11300 44.02600
H  3.00900 3.98500 42.51000
H  5.20000 1.04700 40.39100
H  5.97800 -0.21400 41.25800
H  7.69800 1.77000 42.11000
H  6.99300 2.52600 40.75800
H  -0.89300 2.79700 42.39700
H  -2.54300 2.31600 42.39400
H  -1.73100 2.24600 40.81800
H  -3.68700 -2.65400 42.12900
H  -5.27800 -1.79700 42.39100
H  -4.27500 -2.12500 43.75500
H  -1.08200 -5.47700 43.79200
H  0.47600 -5.95300 46.30300
H  -1.92200 -5.95500 46.58400
H  -2.99800 -5.47400 45.29900
H  -2.19200 -4.28200 46.38800
H  1.78200 -6.89800 43.80200
H  0.21600 -7.44500 43.65400
H  0.90000 -9.22100 45.10700
H  1.09700 -8.02900 46.48000
H  2.36900 -8.40600 45.40500
H  6.77000 -5.32600 46.79300
H  6.65100 -5.84800 45.08200
H  5.41200 -6.25000 46.40900
H  7.56300 -0.77100 43.36600
H  8.07400 3.03600 45.07900
H  9.68400 2.45600 45.27000
H  8.63900 2.20100 46.53100
Mg 10.01200 47.64300 26.26000
C  7.96500 47.95500 29.08900
C  12.60600 49.10600 28.11200
C  11.91800 47.44800 23.57000
C  7.08100 47.05000 24.35400
N  10.19300 48.42100 28.40900
C  9.28700 48.30700 29.38600
C  9.75100 48.91500 30.72500
C  11.21800 49.39400 30.31800
C  11.39900 48.98000 28.82300
C  11.52200 50.96100 30.56200
C  9.61500 48.12500 32.07500
C  10.35000 48.63200 33.34100
H  10.85800 47.49200 34.29300
N  11.98300 48.13900 25.84800
C  12.91400 48.63400 26.78300
C  14.21000 48.62100 26.14500
C  14.02900 48.07600 24.82700
C  12.65800 47.84500 24.66600
C  15.41300 49.11900 26.89300
C  15.09700 47.83000 23.80100
O  14.84700 47.32300 22.69800
C  16.47600 48.07400 24.19800
N  9.49100 47.40000 24.24200
C  10.47900 47.32700 23.31500
C  9.91100 46.66400 22.05300
C  8.41200 46.33500 22.44300
C  8.31800 46.95000 23.74000
C  10.08600 47.59900 20.85200
C  8.06100 44.82400 22.41500
C  8.69600 43.97600 23.55100
N  7.97400 47.49300 26.54000
C  6.86900 47.30200 25.70600
C  5.60500 47.26600 26.50400
C  6.07100 47.44200 27.82200
C  7.43200 47.60200 27.80200
C  4.16200 47.04000 26.15900
C  5.59700 47.40500 29.20800
O  4.41400 47.20400 29.57800
C  6.80600 47.66500 30.10200
C  7.01000 46.43500 30.91100
O  7.70300 45.47600 30.68300
O  6.26800 46.59000 32.05300
C  6.42400 45.60800 33.06400
H  13.40100 49.69200 28.57900
H  12.43600 47.25600 22.62800
H  6.15300 46.67100 23.92100
H  9.13100 49.80800 30.81000
H  12.01200 48.90100 30.88000
H  11.91200 51.42900 29.65800
H  12.27000 50.96400 31.35500
H  10.63400 51.48200 30.91900
H  9.85700 47.07900 31.88500
H  8.56300 48.17800 32.35500
H  9.66300 49.24000 33.93000
H  11.22900 49.12200 32.92200
H  15.23600 49.17300 27.96700
H  15.74800 50.07700 26.49600
H  16.18800 48.35200 26.90600
H  17.17800 47.83800 23.39800
H  16.62600 47.37900 25.02400
H  16.58900 49.13400 24.42300
H  10.59600 45.83500 21.87200
H  7.65600 46.71300 21.75500
H  9.85500 47.14900 19.88600
H  11.16000 47.76800 20.92500
H  9.52500 48.52000 21.01200
H  8.51000 44.51600 21.47000
H  6.98600 44.64400 22.39500
H  7.90000 43.51700 24.13700
H  9.35500 44.55100 24.20100
H  9.29500 43.12300 23.23400
H  3.66200 46.28400 26.76400
H  4.07000 46.79900 25.10000
H  3.55700 47.93800 26.28700
H  6.55900 48.54600 30.69300
H  7.47400 45.64600 33.35300
H  6.14000 44.68600 32.55600
H  5.78500 45.70100 33.94200

