158

Mg 53.28000 23.38400 45.03300
C  50.91400 25.75500 44.26400
C  51.25600 21.00100 43.69800
C  55.85900 21.22400 45.00500
C  55.42400 25.99200 45.89900
N  51.34500 23.39600 43.92700
C  50.46500 24.48000 43.78900
C  49.05000 24.08300 43.20000
C  49.12400 22.52100 43.51100
C  50.69900 22.25500 43.67800
C  48.26500 21.90200 44.71200
C  48.82700 24.53000 41.68100
C  48.83700 23.49000 40.52800
H  48.77800 23.94100 39.12800
N  53.51400 21.36100 44.47100
C  52.54300 20.57400 43.93400
C  53.09900 19.19400 43.87700
C  54.36100 19.22800 44.39800
C  54.65100 20.65100 44.65100
C  52.26800 18.10000 43.50700
C  55.21600 17.93700 44.61200
O  54.79500 16.78700 44.38600
C  56.73300 18.09100 45.08800
N  55.33900 23.55000 45.43100
C  56.20700 22.51300 45.39700
C  57.69800 23.01000 45.63600
C  57.49000 24.46000 45.97000
C  55.99700 24.68000 45.71300
C  58.48500 22.14000 46.70500
C  58.41200 25.48700 45.35000
C  59.75000 25.80700 46.08900
N  53.23300 25.43100 45.19800
C  54.08200 26.33700 45.68900
C  53.42100 27.63800 45.84300
C  52.19800 27.47900 45.22300
C  52.11400 26.12000 44.87900
C  53.90500 28.90500 46.42000
C  50.93500 28.14600 44.97400
O  50.54500 29.29300 45.28400
C  50.02100 27.06700 44.23400
C  49.60400 27.54600 42.89600
O  50.43900 27.96200 42.08500
O  48.27000 27.57500 42.61300
C  47.91300 28.11100 41.32500
H  50.51500 20.20400 43.78800
H  56.71200 20.54600 44.92900
H  56.06700 26.83800 46.15100
H  48.25400 24.55200 43.77800
H  48.92200 21.94900 42.60600
H  48.82600 21.33000 45.45100
H  47.50500 21.20900 44.35100
H  47.75900 22.71000 45.24200
H  49.45800 25.37000 41.39100
H  47.84700 25.00700 41.65600
H  48.02300 22.76900 40.59700
H  49.70000 22.82900 40.61000
H  51.55200 17.82200 44.28100
H  52.70900 17.20500 43.06800
H  51.76200 18.60400 42.68400
H  57.39700 18.39000 44.27700
H  57.15100 17.16300 45.47900
H  56.76000 18.77200 45.93800
H  58.22400 22.92500 44.68500
H  57.58700 24.43400 47.05600
H  58.98500 22.71900 47.48100
H  59.29000 21.67300 46.13900
H  57.79300 21.38300 47.07700
H  57.94800 26.39400 44.96400
H  58.87900 24.91700 44.54700
H  60.59300 25.94200 45.41200
H  60.05200 24.94500 46.68400
H  59.53900 26.71100 46.66100
H  53.25300 29.71200 46.08700
H  54.92300 29.09600 46.07900
H  53.97000 28.92300 47.50800
H  49.06600 27.04300 44.75800
H  48.09300 27.47800 40.45600
H  48.28100 29.13300 41.24100
H  46.82400 28.08200 41.29300
Mg 47.43500 34.93100 28.26400
C  45.81400 32.87400 30.67100
C  47.37000 37.43900 30.46100
C  48.37000 36.87500 25.78500
C  46.55900 32.36500 25.93100
N  46.64400 35.07700 30.31700
C  46.16300 34.15600 31.16100
C  46.03900 34.62700 32.57900
C  46.12000 36.21200 32.38300
C  46.73800 36.29400 30.92100
C  44.83300 37.11000 32.49300
C  47.18000 34.08100 33.47600
C  46.66600 33.84600 34.94200
H  47.13100 34.84600 35.90000
N  47.94000 36.90800 28.22100
C  48.03500 37.74100 29.24800
C  48.85700 38.89400 28.94200
C  49.16500 38.76400 27.56700
C  48.44300 37.53900 27.09900
C  49.27900 39.86200 30.04800
C  49.95300 39.64400 26.65900
O  50.13700 39.27900 25.51300
C  50.46900 40.95600 27.23400
N  47.21800 34.71200 26.11100
C  47.84300 35.64500 25.30500
C  48.10200 35.16900 23.91100
C  47.49300 33.72300 23.99500
C  47.04500 33.54800 25.40100
C  47.53600 36.09400 22.83300
C  48.55600 32.69000 23.51400
C  49.46700 32.02200 24.56400
N  46.52000 32.96700 28.25600
C  46.23300 32.06200 27.28600
C  45.61200 30.88800 27.78300
C  45.41300 31.13600 29.16900
C  46.02600 32.40400 29.40800
C  45.06600 29.65300 27.01700
C  44.84200 30.73000 30.35300
O  44.28400 29.68700 30.61700
C  44.90500 31.83900 31.34700
C  45.37900 31.31700 32.69200
O  46.55200 30.95200 33.00600
O  44.34900 31.20900 33.56600
C  44.63100 30.62000 34.87300
H  47.37200 38.21300 31.23100
H  48.71700 37.45600 24.92700
H  46.35000 31.57800 25.20300
H  45.06600 34.22500 32.86000
H  46.77200 36.56800 33.18000
H  44.72500 37.58800 31.52000
H  44.78700 37.91100 33.23100
H  44.07200 36.37800 32.76400
H  48.01000 34.78400 33.40900
H  47.65200 33.13300 33.21600
H  47.12300 32.88700 35.18700
H  45.57700 33.80500 34.96300
H  48.98200 39.68600 31.08200
H  48.70100 40.77500 29.91100
H  50.35200 40.05300 30.06800
H  51.13400 41.31400 26.44900
H  51.15400 40.75700 28.05800
H  49.58700 41.59600 27.26700
H  49.18800 35.16000 23.81900
H  46.76500 33.57200 23.19800
H  48.29800 36.70600 22.35000
H  46.90300 36.79600 23.37700
H  47.02200 35.51700 22.06400
H  49.24800 33.13000 22.79700
H  48.06900 31.86500 22.99300
H  49.11000 32.30300 25.55400
H  50.47700 32.41200 24.43400
H  49.45400 30.93300 24.50600
H  44.50800 29.88300 26.10900
H  44.47500 29.17900 27.80000
H  45.91400 29.02700 26.74000
H  43.92000 32.30300 31.40800
H  44.70200 31.51300 35.49400
H  45.59700 30.11400 34.89300
H  43.81900 29.94100 35.13300

