158

Mg 46.25300 24.20200 28.73600
C  47.14000 26.28300 31.42200
C  45.25600 21.86800 30.97900
C  46.42200 21.84200 26.28000
C  47.84500 26.52000 26.60800
N  45.93500 24.25200 30.96200
C  46.36100 25.23300 31.86600
C  45.96000 24.83700 33.30600
C  45.55200 23.29400 33.15000
C  45.62200 23.06900 31.59500
C  46.44100 22.35200 33.95300
C  44.83500 25.76200 33.98000
C  45.13700 26.33000 35.40500
H  44.05200 26.26000 36.39700
N  45.76700 22.18700 28.60100
C  45.43100 21.43900 29.64900
C  45.06700 20.08700 29.19200
C  45.29800 20.10800 27.76900
C  45.84700 21.42300 27.48400
C  44.43300 19.02500 30.07400
C  45.01300 19.00500 26.73700
O  45.08000 19.20400 25.50700
C  44.59500 17.70900 27.30400
N  46.88000 24.30100 26.67900
C  46.85500 23.10500 25.94500
C  47.44900 23.35300 24.56000
C  47.79600 24.90100 24.59000
C  47.47200 25.32700 26.02600
C  48.53400 22.44400 24.04100
C  47.11500 25.75500 23.52000
C  47.79800 25.86600 22.11000
N  47.09100 26.04200 28.87400
C  47.66200 26.90300 27.94700
C  48.21200 28.10500 28.52700
C  48.05700 27.88300 29.89500
C  47.34300 26.62800 30.08400
C  48.83200 29.29500 27.79800
C  48.34500 28.44500 31.24200
O  48.88100 29.51900 31.59100
C  47.72600 27.39600 32.28300
C  48.74400 26.92700 33.22000
O  49.50600 26.00100 32.92600
O  48.60900 27.58300 34.42900
C  49.34000 27.07700 35.59400
H  45.01200 21.03800 31.64500
H  46.41300 21.12700 25.45500
H  48.30000 27.20800 25.89200
H  46.86700 24.99700 33.88900
H  44.50200 23.19700 33.42600
H  45.92800 22.31400 34.91400
H  47.49900 22.61400 33.96100
H  46.31400 21.36000 33.51800
H  43.87400 25.24900 34.00800
H  44.85300 26.66200 33.36500
H  45.36000 27.39700 35.40600
H  46.02100 25.81400 35.77900
H  43.41200 18.99900 29.69300
H  44.43200 19.29900 31.12900
H  45.02400 18.11000 30.06100
H  43.70300 17.83100 27.91800
H  45.46000 17.42600 27.90300
H  44.39000 17.04500 26.46400
H  46.64900 23.23000 23.83000
H  48.85600 25.01900 24.36200
H  49.47300 22.97200 23.87700
H  48.20300 21.99300 23.10500
H  48.64000 21.79000 24.90600
H  47.15900 26.77100 23.91200
H  46.09200 25.41200 23.36800
H  48.70000 25.26100 22.02200
H  48.10300 26.87800 21.84300
H  47.02500 25.44100 21.47000
H  48.41600 29.56900 26.82800
H  49.86800 28.99700 27.63800
H  48.81000 30.20400 28.39800
H  46.89100 27.89200 32.77800
H  50.27400 27.63700 35.60100
H  49.64800 26.03100 35.59300
H  48.74500 27.34000 36.46900
Mg -1.94000 34.15700 26.81600
C  -3.27500 32.55000 29.65200
C  -0.42200 36.46400 28.89100
C  -1.40600 36.21700 24.16000
C  -4.00400 32.15500 24.83900
N  -1.86300 34.44400 28.96400
C  -2.45600 33.64600 29.94700
C  -1.97200 33.98900 31.33100
C  -1.18200 35.35400 31.02500
C  -1.18900 35.47100 29.53500
C  -1.44800 36.66200 31.87000
C  -1.06600 32.88100 31.92900
C  -0.43400 33.33200 33.27500
H  -0.85200 32.40000 34.41600
N  -0.85800 35.99800 26.56000
C  -0.27300 36.72400 27.51300
C  0.43100 37.85700 26.85100
C  0.16300 37.77500 25.44300
C  -0.69600 36.58600 25.31100
C  1.04300 38.95200 27.64300
C  0.79800 38.56700 24.29000
O  0.65100 38.21400 23.13200
C  1.54300 39.84200 24.54200
N  -2.66800 34.22900 24.83300
C  -2.26500 35.09900 23.94900
C  -2.79200 34.77900 22.55700
C  -3.43500 33.39300 22.71800
C  -3.36500 33.20200 24.22900
C  -3.69400 35.96700 22.05600
C  -2.67700 32.22100 22.01600
C  -1.22700 31.82900 22.47100
N  -3.31200 32.60900 27.15400
C  -4.06900 31.91600 26.22700
C  -4.81100 30.84300 26.93000
C  -4.53000 31.07500 28.28800
C  -3.63900 32.14700 28.31900
C  -5.61600 29.75200 26.36900
C  -4.81100 30.59900 29.62800
O  -5.43900 29.58200 30.07900
C  -4.06800 31.63200 30.57600
C  -4.97400 32.36400 31.46300
O  -5.89400 33.13700 31.11500
O  -4.82200 31.80600 32.74700
C  -5.79500 32.31300 33.80200
H  0.13200 37.16700 29.51600
H  -1.17600 36.62200 23.17200
H  -4.63900 31.51200 24.22600
H  -2.77800 34.32000 31.98500
H  -0.11900 35.15600 31.16100
H  -2.05400 36.71400 32.77500
H  -1.64600 37.43200 31.12500
H  -0.44200 36.88800 32.22200
H  -0.30400 32.61400 31.19700
H  -1.56700 31.92500 32.07700
H  -0.65600 34.33700 33.63400
H  0.65000 33.26300 33.18900
H  0.44300 39.85100 27.50000
H  2.00200 39.17300 27.17400
H  1.06900 38.67900 28.69800
H  1.55500 40.36000 23.58400
H  2.50500 39.60100 24.99500
H  0.97800 40.38800 25.29800
H  -1.91700 34.64200 21.92200
H  -4.46200 33.51400 22.37400
H  -3.61600 36.79400 22.76000
H  -4.72900 35.68800 21.85900
H  -3.27300 36.28300 21.10100
H  -2.67300 32.44700 20.94900
H  -3.28000 31.31300 21.98400
H  -1.10300 30.77900 22.20300
H  -1.05200 32.03300 23.52700
H  -0.47600 32.36800 21.89400
H  -5.92200 29.07800 27.16900
H  -5.03900 29.21900 25.61400
H  -6.44200 30.33000 25.95400
H  -3.31100 31.11600 31.16600
H  -6.17000 31.40200 34.26800
H  -6.66200 32.86900 33.44500
H  -5.18600 32.88200 34.50500

