158

Mg 40.43800 9.91200 29.69800
C  42.35300 11.12900 32.26400
C  38.26300 8.52800 31.91200
C  38.73200 8.62200 27.06500
C  42.91200 11.00200 27.39500
N  40.51600 9.69300 31.88900
C  41.28900 10.40600 32.74600
C  40.73800 10.30800 34.19300
C  39.45000 9.32300 34.07200
C  39.33400 9.12600 32.50100
C  39.59200 7.93900 34.86600
C  40.48200 11.67800 34.96500
C  39.72300 11.53700 36.28900
H  40.39200 12.32800 37.49200
N  38.80500 8.62600 29.50800
C  38.04800 8.21700 30.55400
C  36.96800 7.43300 30.14500
C  36.96100 7.44600 28.69000
C  38.20400 8.24300 28.33700
C  36.07200 6.74000 31.14200
C  35.97100 6.88700 27.68700
O  36.16700 7.01000 26.45000
C  34.71300 6.27300 28.16800
N  40.70200 9.94500 27.48700
C  39.82700 9.36800 26.64500
C  40.21100 9.46100 25.19500
C  41.67400 10.16900 25.28500
C  41.80500 10.31400 26.79100
C  40.12600 8.08500 24.43100
C  41.92300 11.38100 24.24600
C  41.20800 12.63300 24.76500
N  42.25200 10.86200 29.78800
C  43.10100 11.32200 28.78700
C  44.25100 11.89300 29.41200
C  43.95000 11.95500 30.77100
C  42.74900 11.24600 30.92900
C  45.35700 12.29100 28.52000
C  44.37200 12.49100 32.05900
O  45.36900 13.09900 32.37300
C  43.29700 12.02900 33.08700
C  44.02900 11.44800 34.25600
O  44.34600 10.30200 34.35300
O  44.27800 12.38500 35.18300
C  45.00800 11.88000 36.38600
H  37.48600 8.25600 32.63000
H  38.23100 8.17500 26.20400
H  43.71700 11.25000 26.70000
H  41.48900 9.75700 34.75900
H  38.51700 9.84600 34.28300
H  40.40400 7.83800 35.58600
H  39.82800 7.16700 34.13300
H  38.60700 7.71500 35.27600
H  39.97300 12.31600 34.24200
H  41.42700 12.15000 35.23400
H  39.57500 10.49400 36.56900
H  38.72500 11.97400 36.28300
H  35.19500 7.31100 31.44500
H  36.59800 6.42200 32.04200
H  35.63500 5.84600 30.69600
H  34.08900 6.32500 27.27600
H  34.31800 6.81400 29.02800
H  35.05700 5.28500 28.47400
H  39.50600 10.13800 24.71300
H  42.43000 9.41300 25.07200
H  40.90900 7.97300 23.68000
H  39.21100 7.95500 23.85200
H  40.11400 7.32600 25.21300
H  41.45900 11.10600 23.29800
H  42.97900 11.50100 24.00300
H  40.32600 12.73400 24.13300
H  41.94400 13.43500 24.70400
H  40.78400 12.56400 25.76700
H  46.29200 12.35500 29.07800
H  45.18600 13.20700 27.95500
H  45.62300 11.58800 27.73000
H  42.84800 12.96600 33.41600
H  44.42200 11.02800 36.73000
H  45.01000 12.67700 37.13000
H  46.04300 11.70000 36.09400
Mg 26.94700 51.34800 26.36100
C  24.98800 52.09000 29.20100
C  29.32200 50.05400 28.70800
C  29.00600 50.67300 23.75000
C  24.64300 52.62100 24.27800
N  27.17700 51.05600 28.69300
C  26.17100 51.47600 29.57500
C  26.46700 50.98800 30.99700
C  28.03900 50.67800 30.87200
C  28.22900 50.58200 29.31000
C  29.01600 51.63500 31.57300
C  25.53700 49.87100 31.55400
C  25.02400 49.93700 32.99300
H  25.86400 50.64500 34.07800
N  28.91300 50.55300 26.21100
C  29.72300 50.03800 27.23600
C  30.91000 49.50400 26.71800
C  30.84700 49.81700 25.33100
C  29.57500 50.44000 25.03000
C  31.77800 48.64100 27.56800
C  31.90100 49.57500 24.35000
O  31.74300 49.91000 23.16500
C  33.12900 48.83900 24.64800
N  26.84300 51.56600 24.32800
C  27.76800 51.20900 23.39000
C  27.30200 51.34600 21.87300
C  25.81800 51.79400 22.07100
C  25.74400 52.08400 23.65400
C  28.18200 52.25800 21.05700
C  24.74500 50.75600 21.66400
C  23.49200 51.41600 21.01900
N  25.19100 52.24100 26.62000
C  24.36400 52.77200 25.66700
C  23.18600 53.33600 26.37300
C  23.44100 53.11500 27.75500
C  24.61000 52.42700 27.87200
C  21.99300 53.97600 25.62700
C  22.89000 53.41100 29.05700
O  21.91900 54.01000 29.41200
C  23.82300 52.57100 30.04300
C  24.23700 53.69000 30.97900
O  25.17600 54.33400 30.88900
O  23.32300 53.83900 31.95600
C  23.72100 54.73200 33.06700
H  29.93700 49.63800 29.50800
H  29.55500 50.47200 22.82700
H  23.81900 52.90000 23.61800
H  26.33500 51.89200 31.59200
H  28.17100 49.66100 31.24000
H  29.71300 51.86000 30.76600
H  29.38900 51.19300 32.49700
H  28.43100 52.50100 31.88500
H  26.15500 48.97300 31.55900
H  24.78200 49.83400 30.76800
H  24.79900 48.93600 33.36100
H  24.04800 50.40100 32.85100
H  32.68100 49.24900 27.52200
H  31.84100 47.67200 27.07100
H  31.49800 48.46000 28.60500
H  33.77200 48.75400 23.77200
H  32.72500 47.86000 24.90600
H  33.63200 49.34600 25.47200
H  27.33200 50.33700 21.46100
H  25.59700 52.77700 21.65500
H  28.71300 52.93700 21.72400
H  27.58300 52.68100 20.25100
H  28.95700 51.67200 20.56300
H  24.39000 50.22400 22.54700
H  25.14500 50.02100 20.96600
H  23.58700 51.60100 19.94900
H  23.42100 52.43900 21.38900
H  22.55000 50.97200 21.34100
H  21.73800 53.32600 24.79000
H  22.23200 54.97100 25.25400
H  21.22100 54.02400 26.39600
H  23.20400 51.98900 30.72600
H  23.85600 55.73200 32.65700
H  24.57500 54.35700 33.63200
H  22.86700 54.71300 33.74300

