158

Mg 24.56000 -4.64900 45.73800
C  26.81900 -2.56600 44.32200
C  22.10100 -3.66900 43.62700
C  22.74800 -7.45700 46.55300
C  27.24900 -6.08900 47.74700
N  24.56600 -3.44000 43.96800
C  25.55000 -2.54300 43.70100
C  25.08600 -1.57500 42.61400
C  23.51800 -1.79300 42.52200
C  23.37900 -3.05900 43.43300
C  22.59900 -0.57400 42.81600
C  25.77300 -1.73400 41.18900
C  25.67600 -0.43700 40.33700
H  25.08700 -0.55300 38.89100
N  22.64000 -5.40300 45.24200
C  21.76200 -4.83800 44.39400
C  20.55700 -5.65000 44.29200
C  20.74300 -6.71100 45.20400
C  22.06000 -6.56300 45.70100
C  19.32100 -5.28300 43.41300
C  19.75200 -7.83500 45.55900
O  18.64900 -7.74200 45.01400
C  19.92500 -9.03900 46.44100
N  24.95700 -6.51600 46.89400
C  24.05500 -7.50700 46.99300
C  24.71800 -8.79300 47.41100
C  26.04700 -8.28900 48.11200
C  26.08800 -6.87600 47.58600
C  23.86000 -9.64900 48.34400
C  27.29200 -9.20100 47.96200
C  28.18600 -9.41100 49.19400
N  26.63700 -4.31000 46.15500
C  27.56300 -4.93800 46.96800
C  28.88100 -4.15100 46.90500
C  28.59700 -3.15800 45.85300
C  27.25000 -3.39800 45.36000
C  30.08100 -4.44600 47.80700
C  29.04100 -1.99800 45.08900
O  30.03600 -1.34000 45.18700
C  27.98900 -1.63900 44.06000
C  27.62500 -0.18800 44.25900
O  27.28000 0.26100 45.31700
O  27.64400 0.44200 43.08000
C  27.45500 1.88600 43.16500
H  21.27700 -3.09100 43.20400
H  22.27800 -8.43500 46.67200
H  28.04300 -6.50800 48.36800
H  25.16700 -0.59400 43.08100
H  23.16500 -2.00500 41.51300
H  21.74700 -0.73900 42.15700
H  23.13000 0.26400 42.36200
H  22.39800 -0.46100 43.88100
H  25.17100 -2.51500 40.72400
H  26.79300 -2.12000 41.21200
H  26.69000 -0.11800 40.09800
H  25.26300 0.38500 40.92300
H  18.34200 -5.31000 43.89300
H  19.15800 -5.92400 42.54600
H  19.30400 -4.24200 43.09200
H  19.96900 -8.76900 47.49600
H  20.73200 -9.66800 46.06300
H  19.01100 -9.63000 46.49900
H  24.94500 -9.47600 46.59200
H  25.81700 -8.16400 49.17000
H  24.35200 -9.86600 49.29300
H  23.58400 -10.55300 47.80200
H  22.99900 -9.04400 48.63000
H  27.84300 -8.81600 47.10400
H  26.96100 -10.19700 47.66600
H  29.17400 -9.35400 48.73700
H  27.98200 -10.37500 49.65900
H  28.12600 -8.65200 49.97500
H  30.74100 -5.06700 47.20100
H  29.90400 -4.94400 48.76000
H  30.65600 -3.52400 47.89700
H  28.41200 -1.73300 43.06000
H  27.87900 2.21900 44.11200
H  26.37700 1.99600 43.04700
H  27.80900 2.42400 42.28600
Mg 48.98700 25.12800 28.22100
C  49.96400 27.30100 30.78700
C  48.05500 22.80800 30.59200
C  48.19300 22.93100 25.71200
C  50.54700 27.17200 25.94500
N  48.86900 25.13500 30.38800
C  49.22900 26.16900 31.27600
C  48.74600 25.85900 32.72200
C  48.56500 24.38300 32.59900
C  48.49000 24.02300 31.07500
C  49.40600 23.47000 33.56800
C  47.45300 26.73400 33.00700
C  47.70000 27.89000 33.96100
H  46.78200 27.92200 35.13000
N  48.21200 23.07800 28.20500
C  47.91600 22.33400 29.29200
C  47.41800 21.04700 28.88100
C  47.30700 21.08300 27.42300
C  47.92600 22.35800 27.05700
C  46.97100 19.85900 29.80300
C  46.61700 20.07600 26.49700
O  46.63000 20.17000 25.27300
C  45.70300 18.86400 27.01600
N  49.40600 25.03900 26.15200
C  48.80000 24.15100 25.32900
C  49.13600 24.50100 23.85800
C  49.82700 25.92700 23.93200
C  49.92800 26.10300 25.37400
C  50.10400 23.50300 23.03600
C  49.10400 27.00100 23.19900
C  49.82800 28.28400 22.65600
N  50.02000 26.86500 28.26800
C  50.59300 27.61800 27.27000
C  51.21800 28.81800 27.73700
C  51.04100 28.75900 29.13000
C  50.29500 27.54800 29.42000
C  52.05500 29.77300 26.95500
C  51.21800 29.45300 30.45600
O  51.71400 30.57500 30.71100
C  50.44000 28.53100 31.52600
C  51.38600 28.16700 32.61400
O  52.13900 27.22500 32.63400
O  51.36800 29.08000 33.61000
C  51.89800 28.75800 35.00000
H  47.84700 22.02800 31.32600
H  48.03600 22.30300 24.83300
H  51.09300 27.67700 25.14600
H  49.54300 26.17500 33.39600
H  47.57400 24.14000 32.98300
H  50.13400 24.10000 34.08000
H  49.95800 22.78700 32.92200
H  48.72500 23.08300 34.32600
H  46.62400 26.07700 33.27200
H  47.22700 27.12600 32.01500
H  47.81100 28.88800 33.53700
H  48.64400 27.78000 34.49500
H  45.92500 19.58100 29.67300
H  47.12000 20.18200 30.83300
H  47.68600 19.04000 29.73200
H  46.19700 18.17600 27.70200
H  45.31700 18.28100 26.18000
H  44.85600 19.20600 27.61100
H  48.24800 24.45200 23.22600
H  50.88000 25.78400 23.68700
H  49.51100 22.73500 22.53900
H  50.79700 22.94600 23.66600
H  50.73700 23.97900 22.28700
H  48.32400 27.36100 23.87000
H  48.53900 26.57000 22.37300
H  49.40100 29.06700 23.28200
H  49.48300 28.39800 21.62800
H  50.91700 28.31200 22.71100
H  52.58000 29.10900 26.26800
H  52.62100 30.32700 27.70400
H  51.40300 30.43100 26.38100
H  49.55500 29.07700 31.85400
H  52.96000 28.99200 34.92500
H  51.65800 27.70900 35.17500
H  51.40500 29.38700 35.74100

