158

Mg 44.16200 4.18900 48.22300
C  41.68500 6.53400 47.04800
C  41.65300 1.78700 47.95300
C  46.50100 1.76600 48.43200
C  46.57900 6.53400 47.97200
N  41.91900 4.21400 47.65500
C  41.18300 5.28000 47.18000
C  39.81100 4.85000 46.66300
C  39.76700 3.39600 47.20400
C  41.20700 3.08500 47.63200
C  38.61600 3.06400 48.27300
C  39.61300 5.01700 45.12000
C  38.13600 5.26900 44.71200
H  37.72300 4.46200 43.42300
N  44.09000 1.99700 48.28300
C  42.90700 1.27900 48.07600
C  43.32600 -0.10600 48.14300
C  44.71000 -0.17700 48.41900
C  45.20900 1.22700 48.32600
C  42.42100 -1.26900 47.85600
C  45.45700 -1.46000 48.60300
O  44.88100 -2.54200 48.62500
C  46.92900 -1.46000 48.83600
N  46.22500 4.15100 47.98500
C  46.93800 3.00400 48.30100
C  48.45600 3.28700 48.33000
C  48.51400 4.83600 48.41700
C  47.09700 5.24900 48.04100
C  49.31300 2.54000 49.46100
C  49.58300 5.44700 47.57500
C  50.37300 6.55900 48.23000
N  44.19700 6.20900 47.73500
C  45.24900 7.03200 47.74200
C  44.79300 8.36600 47.49700
C  43.40000 8.28100 47.17300
C  43.09100 6.89900 47.28400
C  45.78600 9.55600 47.45200
C  42.23700 8.90600 46.69600
O  42.08600 10.07800 46.31200
C  41.01700 7.84900 46.75800
C  39.92500 8.19200 47.68600
O  39.66900 7.74900 48.81000
O  39.20900 9.21400 47.17500
C  37.89100 9.52700 47.78400
H  40.84900 1.05200 47.87400
H  47.26000 0.98800 48.53600
H  47.41000 7.24200 48.01300
H  39.10300 5.51500 47.15700
H  39.59300 2.74900 46.34400
H  39.09400 2.73900 49.19700
H  37.98300 2.27900 47.85800
H  38.12300 4.01100 48.48900
H  39.97100 4.10400 44.64300
H  40.24500 5.85400 44.82200
H  38.09100 6.35700 44.65800
H  37.56000 4.98000 45.59100
H  42.73400 -1.78500 46.94900
H  41.43600 -0.83400 47.68800
H  42.43800 -1.97100 48.69000
H  47.46000 -1.15000 47.93600
H  47.19900 -2.50200 49.00900
H  47.25800 -0.98100 49.75900
H  48.83500 2.87600 47.39500
H  48.63600 5.03300 49.48200
H  49.67800 1.67200 48.91300
H  48.70800 2.22400 50.31100
H  50.04300 3.17900 49.95800
H  49.10400 5.80800 46.66500
H  50.20500 4.63200 47.20500
H  51.41700 6.33100 48.44300
H  49.85800 6.87800 49.13700
H  50.38000 7.40800 47.54700
H  45.12100 10.41800 47.50000
H  46.37300 9.61500 46.53500
H  46.52900 9.51700 48.24800
H  40.57100 7.83300 45.76300
H  37.68100 10.59200 47.68500
H  37.74200 9.30000 48.83900
H  37.17400 9.09200 47.08700
Mg 41.58000 40.64000 27.04000
C  40.74500 43.05800 29.38800
C  42.40800 38.47700 29.63900
C  42.47600 38.43000 24.73000
C  41.13800 43.10200 24.56800
N  41.70900 40.76200 29.36500
C  41.06900 41.81400 30.00000
C  40.97700 41.44500 31.54000
C  41.55700 39.99700 31.58400
C  41.95800 39.71700 30.11100
C  42.66700 39.80700 32.61100
C  39.59900 41.58800 32.25500
C  39.54400 42.48100 33.51500
H  39.12000 41.80600 34.81200
N  42.35600 38.74000 27.16400
C  42.62000 38.01900 28.32000
C  43.09000 36.67100 27.99500
C  43.08700 36.60400 26.56400
C  42.64300 37.94500 26.09000
C  43.72700 35.70100 28.99400
C  43.33800 35.47200 25.65400
O  43.48900 35.53400 24.46500
C  43.49000 34.11800 26.29800
N  41.73900 40.73600 24.99400
C  42.00800 39.62900 24.16700
C  41.87800 39.99000 22.65300
C  41.16600 41.43300 22.72500
C  41.42200 41.81600 24.17800
C  43.25900 39.91000 21.84500
C  39.59600 41.41000 22.45000
C  38.77300 40.35300 23.25700
N  41.02500 42.59800 26.90600
C  40.87000 43.51900 25.88100
C  40.43500 44.77000 26.39400
C  40.39200 44.61100 27.72300
C  40.80400 43.32000 27.99900
C  40.26000 46.02900 25.48400
C  40.11000 45.33000 28.96100
O  39.77500 46.48800 29.21000
C  40.33700 44.34000 30.03200
C  41.42200 44.85700 30.92600
O  42.61100 44.55600 30.82200
O  40.88500 45.49000 32.00100
C  41.84200 45.93900 32.95400
H  42.52600 37.75600 30.45100
H  42.49800 37.76300 23.86500
H  41.01100 43.86900 23.80100
H  41.64900 42.19000 31.96600
H  40.75700 39.30200 31.84200
H  42.75600 38.77800 32.96000
H  42.62800 40.46400 33.48000
H  43.60900 40.04000 32.11500
H  39.20200 40.63700 32.61000
H  38.84100 41.90500 31.53800
H  38.85100 43.31500 33.40200
H  40.49200 42.99300 33.67700
H  44.68700 35.41100 28.56700
H  43.15500 34.80500 29.23500
H  44.06400 36.31100 29.83300
H  42.60400 34.07800 26.93200
H  44.44900 34.21600 26.80600
H  43.55200 33.27700 25.60600
H  41.12400 39.32900 22.22500
H  41.74800 42.18500 22.19100
H  43.98300 39.55700 22.58000
H  43.59200 40.92000 21.60800
H  43.16000 39.33700 20.92300
H  39.46700 41.21800 21.38500
H  39.09500 42.33400 22.73600
H  37.99100 39.98200 22.59500
H  38.33400 40.82800 24.13400
H  39.31500 39.46400 23.58100
H  41.13300 46.22400 24.86100
H  40.15200 46.80600 26.24000
H  39.44500 45.87400 24.77800
H  39.47600 44.32400 30.70000
H  42.59400 46.49100 32.39100
H  42.27900 45.06400 33.43600
H  41.23900 46.65300 33.51500

