158

Mg 8.31700 3.35000 27.82800
C  9.75900 1.87900 30.44700
C  6.39900 5.32900 29.78500
C  6.87500 4.75900 24.97600
C  9.94300 1.10900 25.61000
N  7.96500 3.45600 29.89300
C  8.80100 2.93400 30.85100
C  8.57400 3.46900 32.28300
C  7.44600 4.50700 32.04700
C  7.19100 4.43000 30.47800
C  6.11800 4.34700 32.85900
C  9.88900 3.94400 32.94600
C  9.67900 4.90100 34.01900
H  10.65000 4.76100 35.23000
N  6.74700 4.71300 27.47100
C  6.07300 5.41100 28.40500
C  5.18000 6.29500 27.77600
C  5.33200 6.22900 26.34800
C  6.33100 5.19800 26.19900
C  4.33600 7.33800 28.54000
C  4.63300 6.92700 25.23700
O  4.91400 6.71800 24.04800
C  3.38700 7.70000 25.53100
N  8.46000 2.97500 25.58700
C  7.67500 3.65600 24.70000
C  7.89400 3.09900 23.25600
C  9.01600 2.00000 23.43900
C  9.16600 2.02000 24.91400
C  6.60100 2.53300 22.55300
C  10.43200 2.54800 22.93600
C  10.57800 2.08100 21.51200
N  9.49300 1.79500 27.94300
C  10.16200 0.97200 27.01700
C  10.95800 -0.04100 27.66300
C  10.85300 0.33500 29.03200
C  9.94800 1.43400 29.11400
C  11.58200 -1.25600 27.08500
C  11.31000 -0.00000 30.39000
O  12.07700 -0.85200 30.78600
C  10.68400 1.02300 31.29900
C  9.99300 0.37300 32.45400
O  8.95500 -0.22300 32.40900
O  10.69900 0.53700 33.60300
C  9.95300 0.08700 34.83200
H  6.00600 6.13400 30.41000
H  6.42000 5.09300 24.04100
H  10.53900 0.60200 24.84800
H  8.19300 2.66600 32.91400
H  7.82400 5.51000 32.24800
H  5.27500 4.09400 32.21500
H  5.85000 5.28000 33.35500
H  6.23600 3.63900 33.68000
H  10.53700 4.46000 32.23700
H  10.45700 3.12800 33.39400
H  8.64200 4.85000 34.34900
H  9.74700 5.95700 33.75600
H  4.43600 8.35000 28.14700
H  4.51600 7.42900 29.61100
H  3.35400 6.90900 28.34200
H  2.96200 7.95300 24.56000
H  3.72700 8.61100 26.02200
H  2.72700 7.08200 26.13900
H  8.23500 3.81400 22.50700
H  8.70900 0.99800 23.13800
H  6.72200 1.54400 22.11100
H  6.18200 3.14900 21.75800
H  5.81000 2.55600 23.30200
H  11.15800 1.97000 23.50900
H  10.71000 3.59900 23.01700
H  9.69200 1.48800 21.28600
H  11.41300 1.38100 21.51400
H  10.76200 2.95500 20.88700
H  11.36200 -2.07400 27.77100
H  12.62900 -0.99400 26.93000
H  11.14200 -1.36500 26.09400
H  11.42900 1.71400 31.69300
H  9.31800 -0.79700 34.76200
H  9.18900 0.84400 35.00800
H  10.65900 0.00700 35.65800
Mg 44.21900 2.93600 46.56700
C  43.36900 6.32300 45.74600
C  40.90300 2.13800 45.62900
C  45.00700 -0.25400 46.82700
C  47.45900 3.96900 46.96800
N  42.29100 4.09200 45.86700
C  42.23800 5.49600 45.58900
C  40.89900 5.87200 45.15400
C  40.01900 4.58400 45.37800
C  41.10700 3.51900 45.62100
C  38.90900 4.69900 46.40500
C  40.76500 6.49600 43.76200
C  40.10500 7.86600 43.55500
H  39.19500 7.84700 42.38800
N  43.13300 1.09100 46.16400
C  41.78800 0.99700 45.85000
C  41.42600 -0.41200 45.79500
C  42.63700 -1.12300 46.20800
C  43.67000 -0.10200 46.47000
C  40.05700 -0.90500 45.34500
C  42.76200 -2.62700 46.17600
O  41.85800 -3.30900 45.76100
C  44.05700 -3.36700 46.60000
N  45.97600 1.96300 46.72000
C  46.05600 0.65600 47.07100
C  47.42500 0.22700 47.55700
C  48.15500 1.61600 47.68300
C  47.15700 2.57900 47.04800
C  47.35500 -0.65800 48.82200
C  49.46000 1.68500 46.92700
C  50.56100 2.43600 47.58300
N  45.26500 4.80000 46.50300
C  46.64700 5.05600 46.60700
C  46.88400 6.46600 46.47500
C  45.62000 7.04400 46.14100
C  44.67600 5.97300 46.09000
C  48.23300 7.15500 46.83900
C  44.95900 8.24000 45.83700
O  45.34500 9.40100 45.83600
C  43.43100 7.87500 45.64000
C  42.67500 8.48900 46.70300
O  42.87800 8.36800 47.88100
O  41.64100 9.16800 46.19400
C  40.57700 9.51500 47.11700
H  39.89000 1.86000 45.33000
H  45.33100 -1.29200 46.93400
H  48.51000 4.24300 47.08100
H  40.51000 6.59300 45.87400
H  39.49300 4.32300 44.45900
H  38.94400 5.63300 46.96500
H  38.96000 3.90700 47.15100
H  37.94800 4.61800 45.89600
H  40.53200 5.68400 43.07500
H  41.81200 6.65400 43.50500
H  40.92200 8.55000 43.32700
H  39.49200 8.15400 44.40900
H  39.85900 -1.74400 46.01200
H  40.10300 -1.17700 44.29000
H  39.18300 -0.26100 45.44300
H  44.38400 -3.02100 47.58000
H  44.77100 -3.10700 45.81900
H  44.05700 -4.45100 46.48200
H  47.79200 -0.28900 46.67100
H  48.27800 1.83000 48.74500
H  47.33600 -1.65900 48.39000
H  46.39000 -0.53400 49.31200
H  48.19100 -0.35600 49.45400
H  49.22800 2.19200 45.99000
H  49.86500 0.69200 46.73200
H  51.44500 1.80200 47.64400
H  50.28800 2.84100 48.55700
H  50.90700 3.25100 46.94700
H  48.94500 6.51600 47.36000
H  48.04300 8.05500 47.42400
H  48.57000 7.54500 45.87800
H  43.01400 8.18000 44.68000
H  40.84900 10.39200 47.70600
H  40.24200 8.71600 47.77900
H  39.67100 9.72600 46.54900

