158

Mg 42.92900 4.16000 47.64200
C  40.89700 6.98400 47.40900
C  40.07700 2.21600 47.60800
C  44.90800 1.44200 47.06800
C  45.71900 6.24500 47.33500
N  40.72300 4.55500 47.46500
C  40.11500 5.77300 47.49100
C  38.53300 5.63300 47.77900
C  38.39800 4.11500 47.85000
C  39.80500 3.58000 47.69500
C  37.77900 3.51100 49.13500
C  37.58600 6.33300 46.69900
C  38.04400 5.95500 45.26600
H  38.41400 7.03700 44.29600
N  42.52100 2.09500 47.48500
C  41.28400 1.50500 47.40400
C  41.38800 0.09100 47.11900
C  42.79600 -0.13300 46.91200
C  43.48700 1.14800 47.20500
C  40.32300 -0.93800 47.12500
C  43.37500 -1.55700 46.54700
O  42.69700 -2.51500 46.35600
C  44.91100 -1.75700 46.32200
N  45.01100 3.89300 47.19600
C  45.63600 2.63600 47.17700
C  47.16100 2.75600 47.25400
C  47.41400 4.25800 47.38900
C  45.97400 4.87400 47.38300
C  47.83400 1.87000 48.39400
C  48.47100 4.82900 46.37600
C  49.94300 4.97800 46.88000
N  43.26500 6.21600 47.31700
C  44.41000 6.86600 47.26100
C  44.14100 8.29800 47.21100
C  42.73700 8.39000 47.22500
C  42.27600 7.09000 47.31000
C  45.15600 9.41500 47.14200
C  41.60100 9.29500 47.22800
O  41.52500 10.54500 47.20900
C  40.32100 8.42000 47.31500
C  39.47400 8.99600 48.42400
O  39.45200 8.68400 49.64600
O  38.56600 9.88600 47.85600
C  37.66800 10.49300 48.76800
H  39.12200 1.68800 47.64600
H  45.60200 0.59900 47.06500
H  46.61600 6.86600 47.29300
H  38.33700 6.24600 48.65900
H  38.01600 3.68600 46.92400
H  37.40100 4.32300 49.75600
H  38.55400 3.11600 49.79200
H  36.91700 2.86700 48.96400
H  37.68800 7.41300 46.80400
H  36.56500 6.08200 46.98700
H  37.16400 5.40300 44.93600
H  38.82000 5.18900 45.24900
H  40.59700 -1.83700 47.67800
H  40.27900 -1.17300 46.06200
H  39.35500 -0.56400 47.45700
H  45.50200 -1.90100 47.22600
H  45.26900 -0.94500 45.68900
H  44.97700 -2.78400 45.96300
H  47.60200 2.38700 46.32800
H  47.63900 4.50100 48.42800
H  48.55900 2.46100 48.95500
H  48.41900 1.06900 47.94200
H  47.19900 1.43800 49.16700
H  48.00100 5.71700 45.95400
H  48.54400 4.14600 45.52900
H  50.01400 4.57900 47.89100
H  50.25900 6.01900 46.95700
H  50.62200 4.41800 46.23700
H  44.57200 10.30900 46.92300
H  45.93400 9.26300 46.39400
H  45.56500 9.58600 48.13700
H  39.79400 8.64200 46.38700
H  37.04500 9.81900 49.35700
H  36.93800 11.12400 48.26100
H  38.19600 11.10300 49.50100
Mg 46.80000 15.92800 27.67500
C  44.84100 15.78400 30.59600
C  49.12400 17.67000 29.58500
C  48.58200 16.82400 24.88300
C  44.24700 14.77600 25.83600
N  46.89600 16.75300 29.81300
C  46.01100 16.45000 30.82800
C  46.49100 17.02700 32.16300
C  47.85800 17.75600 31.77000
C  47.95400 17.40400 30.27600
C  47.84300 19.32800 32.12600
C  46.77100 15.90000 33.18300
C  46.52500 16.16500 34.63200
H  46.09000 17.51900 35.14200
N  48.60400 16.97800 27.31400
C  49.41300 17.59100 28.20700
C  50.62300 18.07900 27.55400
C  50.58000 17.68100 26.25600
C  49.17200 17.16900 26.07300
C  51.61900 18.99500 28.21000
C  51.67100 17.87900 25.10600
O  51.50100 17.47900 23.99300
C  53.05200 18.62700 25.31000
N  46.37100 15.96900 25.68200
C  47.30900 16.26800 24.72400
C  46.71100 16.06500 23.32700
C  45.47800 15.17900 23.59600
C  45.34700 15.26800 25.10900
C  46.41800 17.46700 22.59700
C  45.64900 13.75100 23.09100
C  46.63500 12.92300 23.91400
N  44.94700 15.24600 28.11700
C  43.99400 14.79000 27.21500
C  42.85800 14.21800 27.91300
C  43.11900 14.61900 29.28800
C  44.38000 15.28800 29.31500
C  41.61200 13.61300 27.33800
C  42.57600 14.64700 30.60500
O  41.50600 14.23300 30.96600
C  43.64800 15.42200 31.48800
C  43.01400 16.58200 32.23200
O  42.35800 17.41300 31.59100
O  42.83900 16.28400 33.59600
C  41.79300 17.13200 34.24800
H  49.80200 18.28900 30.17500
H  49.21500 17.02500 24.01600
H  43.51900 14.31800 25.16300
H  45.81700 17.77400 32.58400
H  48.72300 17.22900 32.17300
H  47.82300 19.88200 31.18800
H  48.77700 19.53300 32.64900
H  47.11100 19.60200 32.88500
H  47.78600 15.51400 33.08900
H  46.08500 15.06900 33.02100
H  47.56300 16.04200 34.94000
H  45.91900 15.41000 35.13400
H  52.66700 18.69500 28.19800
H  51.21800 19.20000 29.20300
H  51.55800 19.95500 27.69800
H  53.06400 19.46700 26.00300
H  53.33200 18.86700 24.28400
H  53.82700 17.93800 25.64600
H  47.51600 15.60400 22.75400
H  44.56700 15.67300 23.25900
H  45.45600 17.83200 22.95400
H  46.26300 17.29300 21.53200
H  47.09400 18.30800 22.75200
H  46.13400 13.71400 22.11600
H  44.63600 13.34800 23.09400
H  47.05500 12.14900 23.27200
H  46.05500 12.29400 24.58900
H  47.32000 13.42300 24.59900
H  41.39300 14.27500 26.50000
H  40.85300 13.78200 28.10200
H  41.85200 12.58400 27.07100
H  43.97800 14.69000 32.22500
H  41.60300 16.73000 35.24300
H  40.88800 17.35400 33.68200
H  42.24600 18.12200 34.19100

