158

Mg 25.80400 51.76600 26.16400
C  23.67200 52.75900 28.66100
C  28.21000 50.96900 28.70000
C  28.15200 51.28200 23.82100
C  23.61000 52.88500 23.82300
N  25.95900 51.90700 28.37600
C  24.87300 52.27100 29.16500
C  25.22000 52.03300 30.61300
C  26.64200 51.51500 30.67100
C  26.96800 51.46000 29.17000
C  27.69800 52.35600 31.50200
C  24.12400 51.12200 31.35800
C  23.39300 51.69800 32.65000
H  23.17900 50.80100 33.85900
N  27.87100 51.14800 26.21700
C  28.71000 50.91600 27.38100
C  29.98600 50.44700 26.87700
C  29.97600 50.43100 25.46200
C  28.66900 51.01600 25.10600
C  31.16300 49.98800 27.78400
C  31.10700 50.05400 24.47400
O  30.94100 50.24500 23.29300
C  32.40000 49.57000 24.87200
N  25.83700 52.01000 24.08800
C  26.88000 51.72300 23.31100
C  26.59800 51.86600 21.82200
C  25.05500 52.23700 21.90300
C  24.80100 52.36900 23.36300
C  27.58200 52.84800 21.16900
C  24.16800 51.39400 21.04100
C  23.28600 52.11400 19.95800
N  24.01400 52.64500 26.16700
C  23.23000 53.09200 25.15100
C  22.08000 53.80500 25.60300
C  22.13100 53.63300 27.03900
C  23.37800 52.96700 27.30800
C  21.03400 54.31100 24.76100
C  21.41800 53.83700 28.30700
O  20.31800 54.33100 28.56600
C  22.36700 53.13000 29.39200
C  22.64900 54.16600 30.38100
O  23.62100 54.94400 30.33300
O  21.80500 54.01900 31.47100
C  22.20900 54.98600 32.53500
H  28.97200 50.68600 29.42900
H  28.86600 51.13900 23.00700
H  22.80200 53.09900 23.12000
H  25.27000 53.02500 31.06100
H  26.55300 50.49400 31.04100
H  27.07400 53.12700 31.95400
H  28.38400 52.78400 30.77200
H  28.16300 51.72500 32.26000
H  24.60100 50.17100 31.59500
H  23.38400 50.94200 30.57800
H  22.38200 51.94600 32.32500
H  23.76700 52.68400 32.92700
H  31.51300 48.96300 27.66500
H  30.91100 50.15600 28.83100
H  31.99000 50.62400 27.46800
H  32.12500 48.84300 25.63600
H  32.88300 50.41200 25.36800
H  32.83600 49.12800 23.97600
H  26.76900 50.92500 21.29900
H  24.98100 53.24800 21.50200
H  28.37000 53.20300 21.83400
H  27.07600 53.74200 20.80500
H  27.90600 52.40000 20.22900
H  23.50700 50.86200 21.72500
H  24.82100 50.68800 20.52700
H  22.45700 52.71100 20.33800
H  22.87800 51.37400 19.26900
H  23.84900 52.88900 19.43800
H  20.60900 55.23500 25.15100
H  20.32300 53.48800 24.68600
H  21.42300 54.48100 23.75700
H  21.86900 52.30400 29.90000
H  22.96300 54.51300 33.16300
H  21.35400 55.16000 33.18800
H  22.47400 55.96700 32.14000
Mg 6.49400 54.36100 41.35400
C  6.19800 50.93100 41.20600
C  10.00900 53.90400 40.53800
C  6.86400 57.71800 41.00600
C  3.16500 54.69700 41.74700
N  7.85400 52.60300 40.72900
C  7.47100 51.24900 40.83700
C  8.72300 50.33900 40.63900
C  9.93200 51.34100 40.69500
C  9.22200 52.68700 40.74500
C  10.91900 51.07500 41.88600
C  8.66400 49.61200 39.27800
C  8.45700 50.49500 38.10700
H  7.49200 49.96900 37.04400
N  8.15400 55.61900 40.83900
C  9.46900 55.24500 40.59200
C  10.27900 56.46100 40.32000
C  9.39800 57.53800 40.46800
C  8.04700 56.93900 40.77800
C  11.70100 56.39100 39.86400
C  9.76400 59.03300 40.20300
O  10.90700 59.34400 39.88300
C  8.79300 60.09500 40.17100
N  5.19500 56.00100 41.14700
C  5.53400 57.27600 41.14800
C  4.42700 58.22600 41.56600
C  3.24700 57.24400 41.55200
C  3.89300 55.85900 41.42700
C  4.63100 58.78500 42.99800
C  2.18800 57.51300 40.40500
C  0.78700 57.82500 40.85700
N  4.92600 53.11700 41.49300
C  3.60800 53.34600 41.80000
C  2.98100 52.12700 42.17900
C  3.98100 51.17300 41.99300
C  5.16700 51.80100 41.47300
C  1.63200 51.95300 42.73400
C  4.20700 49.79300 42.02800
O  3.44600 48.87600 42.36100
C  5.62900 49.58300 41.49500
C  5.43200 48.70500 40.35200
O  4.86500 49.04000 39.36400
O  5.78300 47.40100 40.60700
C  5.19800 46.33300 39.75400
H  11.09600 53.84600 40.44700
H  7.04200 58.79400 41.06300
H  2.12300 54.95400 41.94800
H  8.69800 49.59300 41.43400
H  10.47100 51.36100 39.74700
H  11.18200 51.94200 42.49200
H  11.84800 50.67900 41.47500
H  10.58600 50.21900 42.47300
H  8.01700 48.73900 39.20000
H  9.64600 49.17600 39.09000
H  9.41900 50.49700 37.59600
H  8.20400 51.54700 38.23100
H  11.82800 57.01400 38.97900
H  11.88100 55.39000 39.47200
H  12.44900 56.74400 40.57400
H  7.87200 59.76800 39.68900
H  9.22800 60.89400 39.57000
H  8.67400 60.52500 41.16600
H  4.36400 59.07600 40.88700
H  2.68200 57.18100 42.48200
H  3.92300 58.28900 43.66200
H  4.41400 59.85300 43.00400
H  5.63700 58.61600 43.38100
H  2.24200 56.81700 39.56700
H  2.61600 58.40000 39.93900
H  0.63100 58.86300 40.56400
H  0.55300 57.83600 41.92100
H  0.07700 57.31300 40.20700
H  1.04300 51.52100 41.92400
H  1.13300 52.77700 43.24300
H  1.86300 51.14600 43.42900
H  6.34100 49.27200 42.26000
H  4.21000 46.24900 40.20600
H  5.72200 45.37800 39.71400
H  5.10600 46.71800 38.73900

