158

Mg 24.73600 -8.42500 47.39100
C  27.17000 -6.16800 46.40600
C  22.78200 -7.42700 44.78600
C  22.68300 -11.02500 48.05000
C  27.19700 -9.81500 49.58000
N  24.89900 -6.89800 45.81500
C  26.02900 -6.15700 45.56400
C  25.82700 -5.19300 44.38700
C  24.28100 -5.38400 44.13000
C  23.97300 -6.65000 44.94800
C  23.45600 -4.07100 44.47500
C  26.66900 -5.66700 43.17700
C  27.48700 -4.59200 42.34300
H  26.99000 -4.32700 40.94400
N  22.88500 -9.05100 46.61000
C  22.25100 -8.50000 45.53000
C  21.02300 -9.20200 45.27000
C  20.99200 -10.28800 46.19500
C  22.20400 -10.15700 47.05900
C  20.06000 -8.79200 44.17500
C  19.92000 -11.35700 46.15300
O  19.01400 -11.41400 45.32300
C  19.75300 -12.26100 47.39100
N  24.96500 -10.23400 48.57300
C  23.87000 -10.97100 48.83100
C  24.27100 -12.12400 49.79400
C  25.63100 -11.65900 50.45000
C  26.00800 -10.52100 49.48800
C  23.18400 -12.67000 50.77100
C  26.69700 -12.75100 50.56500
C  27.45200 -12.85100 51.91300
N  26.76100 -8.10000 47.93600
C  27.58200 -8.72800 48.82900
C  28.90900 -8.04500 48.90500
C  28.77200 -6.99700 47.96200
C  27.44300 -7.09200 47.42600
C  30.02400 -8.37600 49.69600
C  29.43200 -5.95700 47.23600
O  30.62700 -5.66700 47.23300
C  28.45700 -5.32300 46.27300
C  28.12700 -3.90400 46.51700
O  27.50400 -3.57900 47.50600
O  28.68100 -3.10800 45.51700
C  28.12300 -1.77700 45.48700
H  22.17400 -7.01600 43.97700
H  21.99400 -11.84000 48.28100
H  27.93500 -10.25000 50.25600
H  26.05100 -4.19600 44.76500
H  24.10800 -5.56700 43.07000
H  22.82800 -4.28400 45.34000
H  22.87700 -3.75500 43.60800
H  24.03900 -3.21300 44.81000
H  26.08300 -6.13800 42.38700
H  27.34100 -6.48300 43.44400
H  28.54700 -4.79200 42.50100
H  27.27800 -3.72200 42.96500
H  19.18200 -9.40400 43.97000
H  20.56600 -8.68400 43.21600
H  19.73200 -7.80300 44.49200
H  20.39800 -13.13700 47.32500
H  18.70000 -12.53900 47.44500
H  19.98700 -11.67400 48.27900
H  24.50000 -12.97900 49.16000
H  25.43300 -11.20700 51.42200
H  22.20800 -12.32800 50.42700
H  23.41200 -12.05900 51.64500
H  23.25500 -13.71500 51.07400
H  27.36100 -12.75900 49.70100
H  26.17500 -13.70800 50.55100
H  28.51200 -12.99700 51.70500
H  27.06000 -13.66200 52.52600
H  27.28400 -11.93800 52.48300
H  30.64200 -9.17600 49.28900
H  29.74900 -8.65900 50.71300
H  30.58600 -7.44300 49.73400
H  28.94400 -5.38300 45.29900
H  27.14000 -1.88300 45.94500
H  28.12300 -1.34500 44.48600
H  28.65900 -1.05900 46.10800
Mg 41.07400 41.78500 27.50000
C  40.54300 44.14300 30.04000
C  41.92100 39.59700 29.92700
C  42.00900 39.58400 25.10500
C  40.73200 44.17400 25.14300
N  41.11900 41.88300 29.70700
C  40.79500 42.89300 30.57300
C  40.83900 42.46800 32.05300
C  41.48700 41.07400 31.90900
C  41.57400 40.84100 30.36800
C  42.94500 40.84500 32.61600
C  39.38800 42.41600 32.72000
C  39.31400 41.45000 33.95500
H  38.61700 42.03800 35.14900
N  41.71900 39.82200 27.47700
C  41.99200 39.07500 28.55800
C  42.27500 37.70800 28.17800
C  42.30300 37.67000 26.76300
C  42.02600 39.06200 26.39400
C  42.43200 36.65000 29.16800
C  42.52100 36.51600 25.83300
O  42.52300 36.64800 24.63100
C  42.75800 35.08400 26.28600
N  41.51700 41.84000 25.44900
C  41.77700 40.86600 24.65400
C  41.59000 41.15300 23.17800
C  40.98500 42.59500 23.17900
C  41.04600 42.88800 24.66800
C  42.94700 41.06600 22.41800
C  39.58800 42.58600 22.45200
C  38.43400 41.77000 23.09400
N  40.84100 43.73900 27.53900
C  40.72500 44.61600 26.46000
C  40.59800 46.03400 26.96100
C  40.46600 45.87500 28.40200
C  40.61800 44.46800 28.67700
C  40.56800 47.23700 26.07700
C  40.23300 46.59400 29.58900
O  40.03500 47.73400 29.84700
C  40.23600 45.48100 30.73700
C  41.27900 45.82600 31.65700
O  42.48800 45.82800 31.49000
O  40.72200 46.27600 32.78600
C  41.61600 46.84800 33.81900
H  42.19900 38.88700 30.70900
H  42.10800 38.82200 24.33000
H  40.62300 44.85900 24.30000
H  41.46900 43.18100 32.58400
H  40.82700 40.30100 32.30300
H  43.07400 41.74500 33.21700
H  43.66000 40.69400 31.80700
H  42.81600 39.97900 33.26600
H  38.60700 42.35300 31.96300
H  39.41600 43.43200 33.11400
H  40.27700 41.01500 34.22200
H  38.69300 40.60600 33.65500
H  41.83700 36.92900 30.03800
H  43.45700 36.48100 29.49900
H  42.20500 35.63800 28.83300
H  41.73900 34.85000 26.59500
H  43.47400 35.13400 27.10700
H  43.08900 34.33300 25.56800
H  40.86200 40.47400 22.73500
H  41.63000 43.34600 22.72300
H  43.48000 40.20900 22.82900
H  43.53200 41.98600 22.44100
H  42.66300 40.87300 21.38300
H  39.79100 42.04100 21.53000
H  39.26000 43.59800 22.21200
H  37.58600 42.45200 23.04000
H  38.73200 41.33600 24.04800
H  38.19400 40.95000 22.41600
H  41.40000 47.91300 26.27400
H  39.72500 47.82400 26.44000
H  40.51700 47.05900 25.00300
H  39.32600 45.30200 31.31000
H  42.39100 47.39500 33.28200
H  41.99400 46.07100 34.48400
H  41.14700 47.69800 34.31500

