158

Mg 0.05100 6.89300 26.79700
C  1.22200 9.35500 29.14800
C  0.05000 4.58100 29.31200
C  -0.60800 4.65400 24.49400
C  0.44300 9.35400 24.25400
N  0.65000 6.97500 28.95000
C  0.89400 8.09000 29.68000
C  0.88800 7.73100 31.15200
C  0.84100 6.15800 31.19300
C  0.49300 5.86100 29.72200
C  2.08200 5.45200 31.67800
C  -0.42300 8.38600 31.78500
C  -0.42800 8.29800 33.34000
H  0.81300 7.91000 34.16400
N  -0.36600 4.83600 26.89700
C  -0.27100 4.12300 28.01100
C  -0.63800 2.78300 27.73200
C  -0.86800 2.71700 26.28500
C  -0.53700 4.11000 25.81900
C  -0.70500 1.73400 28.78400
C  -1.21800 1.58000 25.44500
O  -1.21300 1.63700 24.17200
C  -1.52600 0.20600 26.03300
N  -0.02900 7.02600 24.65600
C  -0.44300 5.95800 23.98400
C  -0.58900 6.30200 22.52800
C  -0.35900 7.80600 22.36100
C  0.04600 8.13500 23.82200
C  0.26100 5.36200 21.63100
C  -1.64400 8.66100 21.94600
C  -1.33400 10.00400 21.28100
N  0.79300 8.83500 26.64300
C  0.88400 9.73500 25.54100
C  1.33400 11.05000 26.02000
C  1.41900 10.93600 27.39700
C  1.11000 9.58700 27.74200
C  1.49900 12.37300 25.20600
C  1.80800 11.64000 28.62400
O  2.27400 12.76900 28.79400
C  1.69200 10.59200 29.76000
C  2.92400 10.65600 30.56100
O  3.94800 10.03600 30.32900
O  2.74300 11.35300 31.79000
C  3.80300 11.36800 32.79700
H  0.06600 3.93300 30.19000
H  -0.90800 3.99200 23.67900
H  0.47400 10.10400 23.46100
H  1.81200 8.10700 31.59300
H  0.01500 5.80600 31.81000
H  1.89000 5.07200 32.68100
H  2.95000 6.11100 31.68600
H  2.20700 4.52400 31.12000
H  -1.26100 7.78000 31.43900
H  -0.65100 9.43200 31.58100
H  -1.20400 7.59900 33.65200
H  -0.76900 9.28300 33.65700
H  -1.68200 1.85800 29.25100
H  -0.01600 2.00100 29.58600
H  -0.45000 0.84200 28.21300
H  -1.85800 -0.44800 25.22700
H  -2.28100 0.22000 26.82000
H  -0.56400 -0.17000 26.38200
H  -1.61500 6.16500 22.18600
H  0.43700 7.99000 21.63900
H  0.80300 4.61300 22.20800
H  0.90600 6.03000 21.06000
H  -0.43300 4.86900 20.95000
H  -2.17900 8.89700 22.86600
H  -2.18700 7.99800 21.27300
H  -1.50100 10.84700 21.95200
H  -1.85800 10.07700 20.32800
H  -0.26600 9.99400 21.06200
H  1.45900 12.25700 24.12300
H  2.46900 12.77700 25.49600
H  0.77000 13.14500 25.45200
H  0.82900 10.97300 30.30700
H  4.48500 12.13900 32.43800
H  4.41300 10.49100 33.01400
H  3.38300 11.71800 33.74000
Mg 9.70000 48.40200 25.05700
C  7.30900 49.03900 27.74600
C  12.18600 49.43300 27.03900
C  11.58800 48.29100 22.33600
C  6.81200 48.13200 22.96100
N  9.70000 49.27300 27.14800
C  8.68300 49.34300 28.07100
C  9.32300 49.55800 29.48700
C  10.70100 50.26000 29.00400
C  10.91100 49.57500 27.65100
C  10.79400 51.78000 28.97700
C  9.50400 48.14200 30.24100
C  9.38100 48.25400 31.79900
H  9.23800 47.06500 32.80800
N  11.66400 48.62800 24.72200
C  12.51000 49.02700 25.67800
C  13.83100 48.97900 25.07800
C  13.76100 48.59500 23.66400
C  12.29900 48.55100 23.48400
C  15.06700 49.24600 25.87200
C  14.79200 48.37200 22.60500
O  14.50000 48.20200 21.45500
C  16.23100 48.31500 22.94600
N  9.24600 48.26100 23.01900
C  10.27600 48.10100 22.12400
C  9.78100 47.59400 20.75400
C  8.16100 47.66900 20.91000
C  8.06600 48.04500 22.37000
C  10.27600 48.40000 19.47200
C  7.44100 46.37500 20.63300
C  8.15300 45.07700 21.10200
N  7.53900 48.43600 25.22700
C  6.53300 48.33100 24.29400
C  5.25400 48.37600 24.90000
C  5.53800 48.55800 26.25200
C  6.93000 48.67000 26.41900
C  3.82900 48.26600 24.36100
C  4.90200 48.83900 27.55000
O  3.73600 48.95100 27.86200
C  6.10100 49.06700 28.59900
C  6.00900 48.02600 29.64700
O  6.39800 46.85800 29.41700
O  5.55700 48.44100 30.85400
C  5.61700 47.35800 31.86800
H  12.96800 49.93500 27.61400
H  12.13600 48.25300 21.39200
H  5.88900 47.91300 22.42000
H  8.63900 50.23800 29.99600
H  11.49900 49.96400 29.68500
H  9.82500 52.26600 28.86700
H  11.49500 52.01800 28.17600
H  11.30600 52.12700 29.87500
H  10.47300 47.69800 30.00900
H  8.71200 47.48400 29.88500
H  8.47200 48.80400 32.04100
H  10.25600 48.82500 32.11100
H  14.90200 49.83100 26.77700
H  15.79400 49.79500 25.27200
H  15.53900 48.27900 26.04400
H  16.65100 47.53500 22.31100
H  16.21400 48.05000 24.00300
H  16.74100 49.27800 22.93600
H  10.20000 46.58800 20.75600
H  7.73400 48.46100 20.29500
H  9.45800 49.00500 19.08000
H  10.63100 47.85900 18.59600
H  11.01100 49.14900 19.76600
H  7.23100 46.25800 19.56900
H  6.45000 46.36100 21.08800
H  7.30500 44.47200 21.42200
H  8.90200 45.19800 21.88500
H  8.55500 44.55800 20.23200
H  3.73200 48.59700 23.32700
H  3.12600 48.81900 24.98400
H  3.46000 47.24400 24.43800
H  5.93000 50.08000 28.96000
H  4.76400 46.68700 31.76900
H  5.62800 47.76300 32.88000
H  6.48900 46.71100 31.76800

