158

Mg -1.63600 17.13700 25.80800
C  -1.97900 14.81600 28.49100
C  -2.26900 19.60600 28.06500
C  -1.66100 19.48900 23.31200
C  -1.43200 14.67000 23.56200
N  -2.29200 17.15400 28.07100
C  -2.24500 16.11500 28.91300
C  -2.72500 16.53800 30.33300
C  -2.84700 18.13000 30.23300
C  -2.45400 18.36600 28.71600
C  -4.16500 18.72500 30.71700
C  -2.02800 15.97500 31.57500
C  -2.12600 16.70500 32.90000
H  -2.03200 15.99900 34.24100
N  -1.78000 19.18300 25.71800
C  -1.93000 20.02800 26.80900
C  -1.86700 21.41600 26.44400
C  -1.66500 21.38600 25.02100
C  -1.74300 19.94600 24.62500
C  -2.14200 22.60100 27.35200
C  -1.61800 22.59700 24.04100
O  -1.56600 22.61300 22.83700
C  -1.59000 23.94500 24.68700
N  -1.62800 17.03700 23.71300
C  -1.52100 18.13400 22.90600
C  -1.42800 17.68700 21.48100
C  -1.02600 16.12800 21.64400
C  -1.34700 15.95900 23.05000
C  -2.75300 17.96800 20.75500
C  0.44200 15.73300 21.21200
C  1.63200 16.36000 22.01000
N  -1.64200 15.19400 25.95500
C  -1.52700 14.21400 24.90400
C  -1.65800 12.89500 25.57400
C  -1.76200 13.09100 26.93500
C  -1.77000 14.49400 27.14200
C  -1.80800 11.59900 24.82900
C  -1.82600 12.38700 28.15600
O  -1.74100 11.19800 28.41900
C  -1.92100 13.50300 29.27500
C  -0.92000 13.39100 30.37700
O  0.25700 13.71000 30.36100
O  -1.54200 12.76100 31.44100
C  -0.75700 12.28400 32.52900
H  -2.22400 20.34400 28.86900
H  -1.50700 20.22600 22.52200
H  -1.35100 13.87000 22.82300
H  -3.75200 16.17500 30.35900
H  -2.06800 18.60100 30.83300
H  -4.65300 19.17100 29.85000
H  -3.92000 19.47200 31.47200
H  -4.75800 17.94600 31.19500
H  -0.98800 15.77900 31.31300
H  -2.55200 15.03500 31.74900
H  -2.91900 17.44800 32.98300
H  -1.24200 17.34100 32.85700
H  -2.98200 23.15400 26.93100
H  -1.23700 23.20500 27.41900
H  -2.49300 22.36300 28.35600
H  -2.54100 24.29800 25.08700
H  -1.37400 24.61700 23.85600
H  -0.89900 24.01500 25.52700
H  -0.55300 18.21300 21.09800
H  -1.69700 15.46900 21.09400
H  -3.30400 17.03300 20.64900
H  -2.57700 18.48800 19.81300
H  -3.36900 18.62600 21.36700
H  0.60000 15.96300 20.15800
H  0.62800 14.66300 21.29900
H  2.37900 15.65300 22.37000
H  1.21300 16.85800 22.88500
H  2.19000 17.09300 21.42700
H  -1.93400 11.92300 23.79600
H  -2.65400 11.02200 25.20200
H  -0.83200 11.12500 24.93100
H  -2.86900 13.53000 29.81100
H  -0.55800 13.14800 33.16200
H  0.16800 11.85600 32.14200
H  -1.28500 11.52100 33.10100
Mg 1.54500 7.71400 25.00900
C  2.00700 9.56900 27.83400
C  1.57200 4.81100 26.89100
C  1.30100 5.92900 22.14600
C  1.49100 10.63700 23.05300
N  1.72200 7.22900 27.13700
C  1.89500 8.19500 28.13100
C  1.93600 7.45000 29.49900
C  1.99000 5.96900 29.15000
C  1.64000 5.96100 27.68300
C  3.27600 5.09100 29.49000
C  0.82400 7.84100 30.50100
C  1.18100 7.60600 31.99600
H  2.39600 6.70500 32.38600
N  1.53100 5.56900 24.57200
C  1.44200 4.56200 25.44600
C  1.32400 3.26600 24.73400
C  1.27300 3.61500 23.36300
C  1.42700 5.12900 23.25600
C  1.28400 1.95900 25.43400
C  1.25500 2.61800 22.20400
O  1.09300 2.90700 20.97700
C  1.29100 1.11200 22.39900
N  1.20600 8.24600 22.91500
C  1.28500 7.31800 21.95700
C  1.00900 7.98600 20.58300
C  0.76200 9.46500 20.95000
C  1.18200 9.43500 22.34500
C  2.12000 7.80200 19.48300
C  -0.69400 10.06400 20.80100
C  -0.82000 11.57500 20.76200
N  1.68800 9.66400 25.29700
C  1.68100 10.75400 24.40400
C  1.85700 11.98600 25.19500
C  2.03000 11.52400 26.50800
C  1.93300 10.13500 26.53100
C  1.84700 13.38200 24.67700
C  2.24500 12.07100 27.86200
O  2.50700 13.21000 28.23400
C  2.16100 10.77000 28.78300
C  3.26600 10.67600 29.80300
O  4.31500 10.02500 29.61800
O  2.94200 11.39300 30.94500
C  3.94300 11.13400 32.01300
H  1.55700 3.85600 27.42000
H  1.18200 5.43400 21.18000
H  1.64000 11.50000 22.40100
H  2.85900 7.70800 30.01800
H  1.07900 5.58000 29.60500
H  2.90500 4.14800 29.89200
H  3.99800 5.58400 30.14100
H  3.94500 4.85300 28.66300
H  -0.09700 7.32800 30.22400
H  0.69800 8.89500 30.25000
H  0.42300 6.95000 32.42400
H  1.25400 8.56200 32.51400
H  1.94000 1.26400 24.91000
H  0.23700 1.65600 25.45600
H  1.63000 2.05200 26.46400
H  2.32700 0.90100 22.66400
H  1.22700 0.64800 21.41500
H  0.65800 0.70700 23.18900
H  0.05500 7.56400 20.26800
H  1.44900 10.08000 20.36900
H  1.53000 7.62600 18.58400
H  2.71400 6.92600 19.74300
H  2.78900 8.64800 19.32700
H  -1.30500 9.74700 21.64500
H  -1.17100 9.59700 19.94000
H  -0.96300 11.93000 19.74100
H  0.11300 11.95900 21.17400
H  -1.53000 11.88600 21.52800
H  2.80400 13.87300 24.85200
H  1.11300 13.94800 25.25100
H  1.50200 13.47500 23.64700
H  1.23400 10.92700 29.33500
H  4.93900 11.37300 31.64000
H  3.81100 10.22500 32.60000
H  3.88100 11.94800 32.73500

