158

Mg 56.45500 25.24400 45.07300
C  54.16700 27.64100 43.75900
C  54.88100 22.84100 43.64800
C  59.29500 23.42400 45.57900
C  58.32000 28.15300 46.18000
N  54.91900 25.32800 43.67000
C  54.06100 26.34700 43.28300
C  53.08600 25.80600 42.28500
C  53.04500 24.24200 42.58800
C  54.41600 24.12500 43.28800
C  51.84700 23.79200 43.49400
C  53.58200 26.02200 40.76900
C  52.55700 26.01100 39.64700
H  52.48000 24.83700 38.57700
N  56.94700 23.23500 44.81100
C  56.09800 22.36900 44.26600
C  56.73300 21.11200 44.08100
C  58.10300 21.32900 44.43900
C  58.19100 22.70100 44.97500
C  56.10300 19.89900 43.45400
C  59.27800 20.21800 44.25000
O  58.97100 19.10200 43.76600
C  60.68400 20.51000 44.60200
N  58.52600 25.75600 45.81100
C  59.47200 24.75600 45.88600
C  60.81200 25.21900 46.38300
C  60.46400 26.70400 46.63000
C  59.00300 26.93500 46.13800
C  61.32300 24.45200 47.61200
C  61.43900 27.67600 45.92100
C  61.86400 28.91200 46.71500
N  56.22900 27.48200 45.17000
C  57.01700 28.47500 45.70800
C  56.24300 29.77500 45.65600
C  55.14700 29.46800 44.89800
C  55.20400 28.10500 44.57900
C  56.64900 31.05700 46.24600
C  53.98000 30.02400 44.26600
O  53.58700 31.15400 44.23000
C  53.21400 28.81700 43.57400
C  53.06300 29.19000 42.08800
O  53.90100 29.77500 41.40000
O  51.78700 28.90800 41.75200
C  51.49300 29.15900 40.30400
H  54.39100 22.01500 43.12900
H  60.21300 22.84800 45.70800
H  58.96700 28.93400 46.58400
H  52.07700 26.20500 42.39300
H  52.94400 23.72900 41.63200
H  51.23300 24.60900 43.87500
H  52.25300 23.39200 44.42300
H  51.33200 23.07600 42.85400
H  54.42800 25.37400 40.54000
H  53.90200 27.06300 40.72600
H  52.74500 26.91400 39.06600
H  51.50300 26.07700 39.91800
H  56.23200 19.10900 44.19400
H  56.57900 19.51500 42.55100
H  55.03600 20.08200 43.32800
H  61.26200 19.73300 44.10200
H  60.69600 20.41000 45.68800
H  60.96200 21.50400 44.25400
H  61.42600 25.15400 45.48500
H  60.44800 26.91000 47.70000
H  61.89100 25.15700 48.22000
H  61.89500 23.63600 47.17100
H  60.50900 24.01500 48.19100
H  60.96700 27.92800 44.97200
H  62.35700 27.14600 45.66900
H  61.21500 29.77700 46.57300
H  62.89800 29.23600 46.59900
H  61.72900 28.73900 47.78300
H  57.37700 31.05400 47.05700
H  55.80900 31.45400 46.81600
H  56.99200 31.76500 45.49100
H  52.25300 28.56500 44.02200
H  52.30400 29.43100 39.62800
H  50.86200 30.04100 40.41100
H  50.89600 28.33100 39.92200
Mg 49.31700 34.55100 26.30900
C  47.30800 33.49500 28.83900
C  49.41200 37.76400 27.54600
C  51.24100 35.35300 23.69000
C  48.89100 31.23900 24.81700
N  48.43400 35.48700 27.94900
C  47.68800 34.85900 28.91500
C  47.37200 35.91700 29.98500
C  47.92800 37.23400 29.52500
C  48.58300 36.78200 28.21300
C  46.82500 38.33600 29.38300
C  47.91700 35.52900 31.44000
C  46.81200 35.43400 32.58400
H  47.04500 36.15300 33.91900
N  50.24900 36.34900 25.69000
C  50.22000 37.53500 26.41200
C  50.99500 38.46800 25.61700
C  51.50400 37.77700 24.44900
C  51.01600 36.42700 24.55900
C  51.24700 39.89400 26.02400
C  52.50200 38.29500 23.38400
O  53.07400 37.56900 22.60300
C  52.84700 39.77700 23.23500
N  49.80400 33.50600 24.39100
C  50.79800 34.06900 23.59600
C  51.06600 33.26700 22.34800
C  50.37800 31.89600 22.78400
C  49.55500 32.22700 24.06800
C  50.61700 33.90700 21.00000
C  51.29000 30.74300 22.98900
C  51.18700 29.62200 21.99300
N  48.26900 32.75900 26.66900
C  48.20800 31.50000 26.03000
C  47.30100 30.65700 26.74900
C  46.90300 31.36100 27.88900
C  47.54800 32.55900 27.83100
C  46.95900 29.19500 26.43100
C  46.08800 31.33400 29.08900
O  45.26300 30.39700 29.46800
C  46.42000 32.69000 29.86300
C  47.00100 32.16400 31.14600
O  48.15000 31.72900 31.35000
O  46.00900 32.18400 32.07300
C  46.20900 31.68700 33.44300
H  49.60300 38.74000 27.99600
H  51.77500 35.65700 22.78700
H  48.75400 30.28600 24.30400
H  46.29100 36.01700 30.08500
H  48.69500 37.52200 30.24400
H  46.29800 38.34200 30.33700
H  46.08800 38.05700 28.63000
H  47.22800 39.34100 29.25200
H  48.66200 36.21100 31.84800
H  48.37500 34.55500 31.26800
H  46.56900 34.37700 32.68800
H  45.89000 35.87900 32.21100
H  50.99300 40.10400 27.06300
H  50.83700 40.68600 25.39700
H  52.32300 40.01900 25.89900
H  53.40100 39.93800 22.31000
H  53.45000 39.97000 24.12300
H  51.95800 40.40600 23.18200
H  52.15000 33.20400 22.44200
H  49.63000 31.61100 22.04400
H  51.48600 34.43900 20.61300
H  49.83600 34.64700 21.16800
H  50.11300 33.20400 20.33700
H  51.23300 30.34000 24.00000
H  52.27500 31.20800 22.93700
H  52.14500 29.31900 21.56900
H  50.59300 29.88300 21.11800
H  50.81200 28.73500 22.50300
H  46.28500 29.14500 25.57600
H  46.38900 28.74600 27.24400
H  47.87400 28.65900 26.18300
H  45.57300 33.36800 29.96900
H  46.43000 32.47900 34.15900
H  47.05700 31.00500 33.49800
H  45.30100 31.20500 33.80700

