158

Mg 24.89000 -6.07900 46.62400
C  27.24100 -3.86900 45.45400
C  22.54200 -4.58200 44.65500
C  22.81200 -8.60400 47.41100
C  27.52500 -7.78600 48.26900
N  24.99900 -4.49800 45.16700
C  26.02600 -3.70400 44.86200
C  25.62200 -2.62800 43.89000
C  24.04000 -2.60000 44.05900
C  23.79000 -3.98800 44.66400
C  23.57900 -1.52500 45.10500
C  25.98700 -2.99100 42.41000
C  26.38500 -1.80000 41.50000
H  25.53000 -1.75800 40.24400
N  22.89900 -6.46300 46.19900
C  22.11200 -5.75700 45.29400
C  20.74000 -6.34200 45.20500
C  20.78000 -7.51800 46.04600
C  22.22100 -7.58700 46.60200
C  19.57300 -5.77600 44.44500
C  19.60600 -8.48700 46.22700
O  18.52700 -8.26500 45.70400
C  19.68500 -9.68200 47.02900
N  25.24000 -8.08400 47.52900
C  24.13700 -8.82200 47.84600
C  24.65800 -10.18000 48.40800
C  26.02700 -9.75500 48.96800
C  26.32300 -8.45300 48.24700
C  23.86500 -10.98800 49.48000
C  27.04700 -10.90700 48.78700
C  28.02900 -11.06100 49.92900
N  27.02300 -5.86400 46.85900
C  27.88800 -6.60900 47.57700
C  29.16800 -5.96700 47.54000
C  28.92100 -4.78000 46.78800
C  27.64600 -4.86900 46.35500
C  30.46300 -6.40600 48.11800
C  29.54100 -3.65500 46.17100
O  30.70200 -3.24900 46.12600
C  28.42900 -2.92600 45.35800
C  28.23200 -1.47400 45.85000
O  29.11100 -0.58800 45.84200
O  27.03000 -1.38300 46.55800
C  26.65300 -0.06700 47.12300
H  21.89600 -3.99700 43.99700
H  22.09000 -9.38600 47.65600
H  28.25500 -8.28500 48.91000
H  25.99500 -1.65200 44.20200
H  23.44900 -2.43400 43.15800
H  24.40200 -0.87900 45.41200
H  23.12000 -2.02300 45.95800
H  22.76700 -1.01100 44.58900
H  25.15200 -3.45200 41.88200
H  26.81600 -3.69500 42.32900
H  27.42600 -1.90800 41.19500
H  26.11500 -0.80700 41.86100
H  18.82000 -6.49900 44.13200
H  19.92600 -5.23500 43.56700
H  19.04100 -4.99800 44.99400
H  19.84100 -9.34800 48.05500
H  20.49700 -10.23700 46.55900
H  18.71700 -10.17700 46.96000
H  24.68600 -10.87500 47.56900
H  25.98600 -9.55400 50.03800
H  24.01800 -12.04000 49.24100
H  22.83200 -10.64400 49.42000
H  24.22100 -10.71800 50.47400
H  27.58900 -10.60900 47.88900
H  26.66000 -11.90400 48.58000
H  27.83400 -10.37700 50.75500
H  29.05600 -10.82500 49.65100
H  28.01800 -12.10100 50.25600
H  30.22800 -6.42100 49.18200
H  31.33300 -5.77800 47.92600
H  30.69400 -7.44000 47.86100
H  28.81300 -2.80300 44.34500
H  26.87000 -0.07800 48.19200
H  25.57800 0.08500 47.03400
H  27.06100 0.80700 46.61600
Mg 53.24800 23.54700 44.50700
C  50.67100 25.86000 43.66400
C  51.12900 20.95000 43.54100
C  55.99200 21.54700 44.39900
C  55.38300 26.30300 44.99900
N  51.19300 23.51100 43.44700
C  50.32500 24.50300 43.37600
C  48.98900 23.98500 42.84800
C  49.00100 22.47800 43.21800
C  50.57800 22.23200 43.43400
C  48.27100 21.99500 44.51500
C  48.58700 24.28400 41.33500
C  49.70300 24.00500 40.33500
H  49.43900 24.22000 38.82300
N  53.47800 21.44100 44.25700
C  52.49100 20.61600 43.85700
C  53.08500 19.25500 43.79600
C  54.48400 19.39100 44.06100
C  54.75500 20.81200 44.23500
C  52.13800 18.12200 43.54200
C  55.42200 18.18000 43.95500
O  55.05200 17.11200 43.37900
C  56.89800 18.37100 44.37600
N  55.43600 23.91800 44.55900
C  56.24100 22.87800 44.63900
C  57.72500 23.35300 44.93600
C  57.48600 24.86000 45.35700
C  56.06400 25.10000 44.87100
C  58.48400 22.50500 46.06200
C  58.49500 25.83400 44.65400
C  59.98500 25.49000 44.72500
N  53.13300 25.61100 44.33600
C  54.08700 26.63800 44.60200
C  53.46700 27.91600 44.50000
C  52.14200 27.68700 44.19100
C  51.95900 26.27700 44.04300
C  54.09900 29.19200 44.94100
C  50.91100 28.31600 43.88100
O  50.71000 29.51500 43.75700
C  49.81700 27.17800 43.52500
C  49.38300 27.41000 42.11000
O  50.12800 27.58300 41.16700
O  48.03400 27.49900 42.00400
C  47.45000 27.91000 40.70900
H  50.47800 20.12700 43.23600
H  56.87800 20.91000 44.37600
H  56.04200 27.14500 45.22000
H  48.28500 24.46500 43.52800
H  48.63400 21.83700 42.41700
H  48.91700 21.33800 45.09800
H  47.40300 21.42800 44.17900
H  48.11000 22.93200 45.04700
H  48.13100 25.26900 41.23200
H  47.73900 23.70800 40.96400
H  49.87700 22.92900 40.33800
H  50.66600 24.46300 40.55900
H  52.68100 17.21100 43.29200
H  51.39200 18.38000 42.79000
H  51.61500 17.93700 44.48100
H  57.41300 19.07900 43.72700
H  57.25800 17.34300 44.42600
H  56.88500 18.73500 45.40300
H  58.26000 23.23900 43.99300
H  57.61800 24.90600 46.43800
H  57.76700 21.71100 46.27000
H  58.80900 23.07500 46.93200
H  59.24000 21.94300 45.51200
H  58.27900 26.83500 45.02500
H  58.19100 25.70300 43.61500
H  60.19300 24.58800 45.30000
H  60.41400 26.38100 45.18500
H  60.48100 25.38600 43.76000
H  53.41300 30.03800 44.95800
H  54.95000 29.50600 44.33700
H  54.44400 29.09300 45.97000
H  49.00500 27.17300 44.25200
H  46.82100 28.77300 40.92900
H  46.90400 27.16500 40.13100
H  48.17500 28.20200 39.94900

