158

Mg -1.71800 16.74300 26.01100
C  -2.02100 14.57000 28.64400
C  -2.32500 19.48600 28.38900
C  -2.13500 18.88000 23.54000
C  -2.02500 14.02800 23.79200
N  -2.21900 16.94700 28.17700
C  -2.10600 15.89900 29.07900
C  -2.49500 16.38800 30.52200
C  -2.79400 17.84600 30.23200
C  -2.37000 18.13300 28.83600
C  -4.33600 18.17400 30.48200
C  -1.44900 16.07700 31.59100
C  -1.69400 16.90400 32.94200
H  -1.53300 16.33900 34.33800
N  -1.98100 18.86900 25.91600
C  -2.12800 19.83800 26.96100
C  -2.01100 21.11700 26.39900
C  -1.97300 20.97000 25.00400
C  -2.07200 19.50600 24.76800
C  -2.06400 22.37500 27.27700
C  -1.88100 22.07000 23.93300
O  -2.01700 21.83700 22.73700
C  -1.70200 23.45700 24.35400
N  -2.22500 16.47700 23.94900
C  -2.22400 17.53500 23.11100
C  -2.34900 17.05800 21.64000
C  -2.12400 15.56000 21.76400
C  -2.10600 15.36100 23.26800
C  -3.77500 17.39000 21.12800
C  -0.79600 15.10600 21.10000
C  0.47100 15.40400 21.91200
N  -1.89800 14.68800 26.09700
C  -1.98400 13.69800 25.13400
C  -1.87700 12.41900 25.75000
C  -1.83800 12.66800 27.12300
C  -1.87800 14.07700 27.28400
C  -1.76700 11.19800 25.05000
C  -1.79700 12.12700 28.44200
O  -1.59400 10.99100 28.80900
C  -1.98600 13.26500 29.48900
C  -0.89800 13.26000 30.42700
O  0.17400 13.77500 30.21300
O  -1.21500 12.55800 31.55500
C  -0.16200 12.50400 32.61600
H  -2.24000 20.33500 29.07000
H  -2.08700 19.55300 22.68100
H  -1.91800 13.18100 23.11200
H  -3.41000 15.85600 30.78300
H  -2.28600 18.54400 30.89800
H  -4.44900 19.00600 31.17700
H  -4.87700 17.49000 31.13500
H  -4.79800 18.35500 29.51100
H  -0.45200 16.26900 31.19300
H  -1.53600 15.06800 31.99300
H  -2.70800 17.29300 32.84600
H  -0.98100 17.72700 32.89200
H  -2.86600 23.06400 27.01300
H  -1.14100 22.94300 27.15600
H  -2.16900 22.17200 28.34200
H  -2.67900 23.88500 24.57700
H  -1.29400 23.96300 23.47900
H  -1.13000 23.66200 25.25900
H  -1.75600 17.63300 20.92800
H  -2.99200 15.00100 21.41600
H  -3.93600 18.34500 21.62800
H  -4.52500 16.73400 21.56900
H  -3.82200 17.44400 20.04100
H  -0.67700 15.38900 20.05400
H  -0.83200 14.01700 21.06400
H  0.22800 16.08700 22.72600
H  1.18800 15.94000 21.29100
H  0.94000 14.56000 22.41800
H  -0.81300 11.02100 24.55300
H  -2.60600 11.04200 24.37100
H  -1.77800 10.49400 25.88200
H  -2.95200 13.09800 29.96600
H  -0.42000 13.16100 33.44700
H  0.82100 12.71600 32.19600
H  -0.24900 11.47900 32.97600
Mg -10.10100 40.63600 42.89700
C  -9.43800 37.28300 41.87500
C  -7.12900 41.60800 41.51600
C  -11.16800 43.93200 42.95300
C  -13.36300 39.56100 43.69000
N  -8.52700 39.54400 41.77800
C  -8.47200 38.19500 41.45400
C  -7.12000 37.80300 40.76000
C  -6.36200 39.26000 40.89800
C  -7.36900 40.18400 41.45900
C  -5.02300 39.08500 41.67700
C  -7.31000 37.40400 39.22800
C  -6.65700 36.06000 38.94900
H  -5.73500 36.08200 37.72000
N  -9.30400 42.54300 42.33600
C  -7.99000 42.68700 41.82100
C  -7.74200 44.12700 41.66500
C  -8.92100 44.85300 42.07400
C  -9.87400 43.79000 42.46900
C  -6.41300 44.71500 41.14100
C  -9.11500 46.33500 42.03400
O  -8.20200 47.11600 41.70900
C  -10.43600 47.02900 42.51000
N  -11.99400 41.57000 43.25300
C  -12.09900 42.95500 43.29300
C  -13.60700 43.31400 43.71100
C  -14.16600 41.99300 44.24100
C  -13.14000 40.98000 43.68300
C  -13.76300 44.55500 44.62000
C  -15.63500 41.76300 43.61700
C  -15.74500 41.32900 42.13200
N  -11.22600 38.78800 42.94700
C  -12.49800 38.54100 43.27600
C  -12.72600 37.10300 43.40600
C  -11.50700 36.57300 42.85600
C  -10.66900 37.68100 42.52300
C  -13.96500 36.51000 43.77900
C  -10.89400 35.29800 42.43500
O  -11.22300 34.12200 42.48700
C  -9.59000 35.82300 41.75300
C  -8.56800 35.03400 42.44400
O  -8.03400 35.25400 43.49100
O  -8.23500 33.95600 41.65300
C  -7.26000 33.05600 42.28200
H  -6.09000 41.82200 41.25500
H  -11.66500 44.90100 42.86800
H  -14.29600 39.27800 44.18200
H  -6.55400 37.04200 41.29600
H  -6.06400 39.58300 39.90000
H  -4.73700 38.05800 41.90300
H  -5.07000 39.58900 42.64200
H  -4.18400 39.59800 41.20700
H  -6.98600 38.07500 38.43200
H  -8.38800 37.25200 39.18300
H  -7.43300 35.35600 38.65000
H  -6.02900 35.77900 39.79400
H  -6.44800 45.49500 40.38100
H  -5.97300 43.81900 40.70400
H  -5.63900 44.85200 41.89600
H  -10.31400 48.09000 42.29100
H  -10.72700 46.79600 43.53400
H  -11.18700 46.58700 41.85400
H  -14.13800 43.52200 42.78200
H  -14.30600 41.97300 45.32200
H  -12.76200 44.91600 44.85400
H  -14.28500 44.36700 45.55900
H  -14.32800 45.33900 44.11600
H  -16.10700 42.73900 43.50100
H  -16.19000 41.22400 44.38500
H  -14.74200 41.28300 41.70700
H  -16.29000 42.05500 41.53000
H  -16.17700 40.33000 42.19200
H  -13.81400 35.55100 44.27500
H  -14.75200 36.40600 43.03200
H  -14.51800 37.14400 44.47200
H  -9.62900 35.61500 40.68400
H  -7.59500 32.61100 43.21900
H  -6.36200 33.61700 42.54000
H  -6.94500 32.32800 41.53400

