158

Mg 35.18100 2.72700 30.27200
C  33.01200 3.93200 32.74300
C  37.78600 2.85900 32.37200
C  37.22700 1.47200 27.77800
C  32.70700 3.28600 27.92000
N  35.38900 3.29900 32.36100
C  34.28700 3.64400 33.20100
C  34.82900 3.75700 34.68300
C  36.36800 3.81700 34.44600
C  36.58100 3.27900 32.99500
C  37.00100 5.22400 34.76900
C  34.33400 2.48800 35.44200
C  33.68500 2.71700 36.79700
H  34.23900 3.85700 37.63900
N  37.15900 2.17600 30.15000
C  38.08800 2.42400 31.13300
C  39.35000 2.08400 30.69600
C  39.25000 1.58700 29.39500
C  37.86100 1.74400 29.00400
C  40.63100 2.00400 31.66700
C  40.29800 1.00300 28.46100
O  39.96300 0.64200 27.29400
C  41.71500 0.90500 28.81500
N  34.96600 2.37600 28.18100
C  35.88900 1.70200 27.41200
C  35.50100 1.79400 25.91700
C  33.97000 2.18900 25.98600
C  33.92700 2.77500 27.45500
C  36.41300 2.83500 25.22000
C  33.06800 0.96800 25.69800
C  32.73600 0.85100 24.25400
N  33.23800 3.44200 30.25800
C  32.34000 3.59700 29.23100
C  31.07200 4.04500 29.78300
C  31.26300 4.27000 31.12400
C  32.58000 3.83600 31.41400
C  29.76000 4.41500 29.00100
C  30.73800 4.82100 32.42000
O  29.66300 5.34900 32.72100
C  31.86100 4.45600 33.50900
C  32.12300 5.79900 34.11900
O  32.78600 6.68200 33.61500
O  31.51200 5.88000 35.25700
C  31.51600 7.12200 35.97600
H  38.59200 2.86200 33.10800
H  37.80400 1.26100 26.87500
H  32.00100 3.52300 27.12200
H  34.29600 4.58600 35.14900
H  36.91800 3.11200 35.07000
H  36.22300 5.89000 35.14200
H  37.68000 5.48900 33.95800
H  37.73600 5.08400 35.56200
H  35.17100 1.79100 35.47100
H  33.51400 1.98100 34.93300
H  33.79900 1.72900 37.24200
H  32.63500 2.98500 36.68800
H  40.49100 2.32400 32.70000
H  41.50900 2.58000 31.37200
H  40.89300 0.94900 31.59100
H  42.08300 1.90100 29.06200
H  42.34400 0.56500 27.99300
H  41.95900 0.19300 29.60300
H  35.62300 0.78400 25.52400
H  33.80000 2.99500 25.27100
H  35.84000 3.49200 24.56600
H  37.00600 2.19300 24.56900
H  36.98200 3.46300 25.90600
H  32.26700 1.03000 26.43500
H  33.46200 0.02300 26.07100
H  31.71000 1.13600 24.02300
H  32.91800 -0.17300 23.92900
H  33.39400 1.46300 23.63700
H  29.07700 5.07800 29.53200
H  29.34500 3.42300 28.82600
H  30.02800 4.81000 28.02100
H  31.37400 3.67200 34.08900
H  30.63200 7.73800 35.81300
H  32.40700 7.70700 35.75300
H  31.51300 6.88400 37.04000
Mg 55.82900 22.63100 44.87900
C  53.73200 25.15700 43.90500
C  53.61200 20.34600 43.78300
C  58.44400 20.34200 44.59400
C  58.30000 24.96500 45.47100
N  53.95500 22.77500 43.87500
C  53.20200 23.84900 43.61400
C  51.69700 23.47500 43.28800
C  51.63800 21.96400 43.60100
C  53.15900 21.69400 43.79000
C  50.75500 21.44300 44.81400
C  51.06700 23.89200 41.89000
C  49.77100 24.67300 42.07400
H  48.83200 24.57100 40.88100
N  56.00900 20.53400 44.45800
C  54.95200 19.80600 43.88400
C  55.41600 18.43800 43.77600
C  56.77100 18.38700 44.03200
C  57.12100 19.73900 44.43400
C  54.53100 17.35800 43.40700
C  57.71900 17.16800 43.91100
O  57.35400 16.08300 43.40500
C  59.18000 17.18600 44.34800
N  58.11500 22.66300 44.99600
C  58.89700 21.58100 44.91200
C  60.37000 21.90300 45.12500
C  60.27800 23.45700 45.23900
C  58.81200 23.71200 45.26500
C  61.03800 21.26200 46.40400
C  61.06100 24.20400 44.12200
C  62.16500 25.19600 44.64200
N  55.94800 24.64400 44.90200
C  57.01100 25.42500 45.20000
C  56.58400 26.79800 45.30900
C  55.23900 26.81800 44.79300
C  54.95600 25.40100 44.56200
C  57.35300 27.97300 45.82900
C  54.06400 27.55300 44.40300
O  53.78300 28.77500 44.51900
C  53.12000 26.53600 43.69100
C  53.11200 26.95800 42.26300
O  54.01500 26.68100 41.44000
O  51.88100 27.56200 41.95200
C  51.78700 27.75900 40.58100
H  52.83700 19.58500 43.67700
H  59.25000 19.60600 44.55100
H  58.95900 25.79600 45.73200
H  51.16700 24.00700 44.07800
H  51.18000 21.45100 42.75600
H  50.05900 22.22900 45.11100
H  51.34500 21.16600 45.68700
H  50.20500 20.64700 44.31300
H  50.92800 22.99900 41.28100
H  51.74600 24.55800 41.35700
H  50.05000 25.69400 42.33600
H  49.25000 24.23100 42.92200
H  54.73600 16.81100 42.48700
H  53.48600 17.62200 43.24400
H  54.54900 16.58700 44.17800
H  59.81100 17.65800 43.59500
H  59.44500 16.14500 44.53100
H  59.28500 17.68700 45.31000
H  60.92500 21.59200 44.24000
H  60.69500 23.78800 46.19000
H  61.91100 20.64800 46.18600
H  60.23300 20.63200 46.78200
H  61.35400 22.08700 47.04300
H  60.31000 24.70800 43.51400
H  61.46700 23.47600 43.42000
H  62.38600 25.07200 45.70200
H  61.91600 26.21600 44.35100
H  63.11100 24.97800 44.14600
H  56.68200 28.56900 46.44700
H  57.61200 28.64200 45.00900
H  58.24500 27.67000 46.37700
H  52.13600 26.70600 44.12800
H  50.92500 28.39000 40.36500
H  51.71700 26.84100 39.99700
H  52.65500 28.25200 40.14500

