158

Mg 41.13500 8.69000 29.86700
C  43.00600 9.73600 32.45200
C  39.06000 7.15300 31.96100
C  39.43800 7.50500 27.09200
C  43.77300 9.75000 27.67100
N  40.95800 8.62000 32.00600
C  41.92000 9.01800 32.87700
C  41.41700 8.80800 34.30500
C  40.21500 7.81800 34.10300
C  40.02700 7.86000 32.61200
C  40.48000 6.35400 34.64000
C  40.94300 10.19100 34.85500
C  40.58200 10.04100 36.33200
H  41.31500 11.03300 37.36700
N  39.33300 7.67100 29.62500
C  38.61900 6.98900 30.60900
C  37.43000 6.34000 29.99500
C  37.40900 6.70100 28.61200
C  38.80500 7.33700 28.38400
C  36.37200 5.54300 30.86300
C  36.23500 6.63300 27.51700
O  36.43300 7.00300 26.35600
C  34.87400 6.09800 27.92800
N  41.65200 8.54800 27.63100
C  40.70100 8.06100 26.73700
C  41.18600 8.26600 25.32500
C  42.52300 9.14700 25.48700
C  42.64700 9.18900 27.05100
C  41.50500 6.94700 24.50200
C  42.43000 10.62800 24.89800
C  41.64700 11.61700 25.79400
N  43.01600 9.59000 29.94800
C  43.96400 10.01400 29.02700
C  44.95800 10.77900 29.67700
C  44.64900 10.66500 31.00300
C  43.50600 9.92300 31.16000
C  46.05900 11.50000 28.96100
C  45.08600 11.06000 32.24100
O  45.96600 11.86300 32.48300
C  44.06800 10.46100 33.36300
C  44.71000 9.47400 34.28400
O  45.23600 8.42100 33.95900
O  44.60200 9.95500 35.60100
C  45.20400 9.24900 36.68200
H  38.38400 6.62000 32.63300
H  38.84700 7.17900 26.23300
H  44.38700 10.32500 26.97500
H  42.21900 8.43800 34.94300
H  39.33700 8.32000 34.51000
H  39.68700 6.16400 35.36400
H  41.48500 6.29800 35.05800
H  40.49600 5.63800 33.81800
H  40.04200 10.50900 34.33000
H  41.69600 10.97500 34.77700
H  40.80700 9.07000 36.77300
H  39.51000 10.09400 36.52300
H  36.47800 5.50800 31.94700
H  36.42100 4.50300 30.54100
H  35.39200 5.96900 30.64800
H  34.19600 6.00100 27.08000
H  34.51900 6.75500 28.72200
H  35.01800 5.15500 28.45500
H  40.44900 8.91100 24.84600
H  43.37200 8.60900 25.06400
H  41.42400 6.09100 25.17300
H  42.53400 7.00100 24.14700
H  40.67500 6.85900 23.80200
H  41.87200 10.68000 23.96300
H  43.45100 10.99400 24.78800
H  41.18800 11.22200 26.70000
H  40.83200 12.02900 25.19900
H  42.28100 12.48200 25.98700
H  45.71500 12.21100 28.20900
H  46.76200 10.77500 28.55100
H  46.44200 12.16400 29.73600
H  43.77600 11.37600 33.87800
H  44.63900 9.34000 37.60900
H  46.22400 9.60900 36.82300
H  45.22400 8.18400 36.45300
Mg -10.05200 39.22700 40.89700
C  -8.81300 35.96800 40.20900
C  -7.25000 40.44100 39.59900
C  -11.61100 42.10900 40.70700
C  -13.02800 37.59000 42.02000
N  -8.21200 38.28200 40.10900
C  -7.94900 36.96300 39.83000
C  -6.63800 36.83200 38.94700
C  -5.96400 38.15400 39.54100
C  -7.19800 39.05400 39.76000
C  -5.10600 38.02900 40.68400
C  -7.01000 36.92700 37.42200
C  -6.73400 35.61500 36.69000
H  -6.02000 36.01900 35.36200
N  -9.56600 41.05000 40.10700
C  -8.32700 41.37500 39.70200
C  -8.23600 42.78500 39.38300
C  -9.48100 43.36500 39.78400
C  -10.32500 42.13100 40.19500
C  -7.00400 43.42400 38.74100
C  -9.84500 44.71600 39.63500
O  -9.04700 45.57100 39.44800
C  -11.22500 45.19800 39.80500
N  -12.02700 39.71300 41.30100
C  -12.40400 41.07600 41.17500
C  -13.98500 41.24200 41.36200
C  -14.35700 39.76100 41.91000
C  -13.09300 38.94100 41.64300
C  -14.27700 42.34200 42.39800
C  -15.56000 39.11700 41.26900
C  -16.39800 38.25700 42.29400
N  -10.74500 37.15700 41.33700
C  -11.97400 36.71200 41.76600
C  -11.97300 35.31900 41.76700
C  -10.77900 34.93000 41.12600
C  -10.09600 36.05400 40.90900
C  -12.99700 34.46900 42.37600
C  -9.97500 33.80500 40.71100
O  -10.23000 32.63100 40.61800
C  -8.66800 34.46900 39.95700
C  -7.44500 33.80900 40.46300
O  -6.58800 33.19800 39.84700
O  -7.28700 34.13700 41.79900
C  -6.19100 33.49300 42.60300
H  -6.27900 40.77600 39.22700
H  -12.11300 43.07700 40.65700
H  -13.89100 37.07400 42.44700
H  -6.18200 35.87900 39.21700
H  -5.48500 38.54700 38.64300
H  -5.01500 37.04300 41.14000
H  -5.36300 38.82000 41.38800
H  -4.12200 38.17000 40.23600
H  -6.40400 37.71400 36.97200
H  -8.08500 37.08500 37.32800
H  -7.63900 35.01000 36.64300
H  -5.94300 35.05200 37.18500
H  -6.68600 42.90600 37.83600
H  -6.17900 43.64400 39.41900
H  -7.29500 44.43000 38.44000
H  -11.78300 44.57700 39.10300
H  -11.25900 46.23000 39.45500
H  -11.59300 45.17600 40.83000
H  -14.30200 41.43800 40.33800
H  -14.54500 39.81300 42.98300
H  -14.76500 41.84800 43.23800
H  -14.88500 43.19100 42.08700
H  -13.30100 42.68100 42.74700
H  -15.14500 38.51200 40.46400
H  -16.32300 39.81900 40.93300
H  -16.54900 37.26400 41.86800
H  -17.33600 38.80300 42.39700
H  -15.91800 38.18400 43.26900
H  -12.82300 33.46000 42.00200
H  -14.00900 34.83900 42.21400
H  -12.88000 34.56600 43.45600
H  -8.84600 34.33000 38.89100
H  -6.72400 33.11000 43.47300
H  -5.38500 34.12900 42.97100
H  -5.73400 32.62600 42.12600

