158

Mg 48.28100 44.83100 43.49000
C  44.82600 45.30200 42.36000
C  48.10600 41.69900 41.90300
C  51.64800 44.66800 43.60000
C  48.28700 48.24800 44.36400
N  46.54900 43.63000 42.19600
C  45.25700 44.02400 41.94300
C  44.60200 42.89400 41.13600
C  45.53300 41.65300 41.45200
C  46.80200 42.32500 41.94700
C  45.00500 40.46400 42.37900
C  44.31900 43.31300 39.63500
C  43.58400 42.34300 38.74400
H  44.28700 41.66300 37.57600
N  49.76800 43.35700 42.89600
C  49.44600 42.17700 42.22600
C  50.67200 41.46800 42.08200
C  51.70800 42.27000 42.56700
C  51.07700 43.47000 43.04500
C  50.70100 39.96400 41.44400
C  53.19300 41.97400 42.63100
O  53.57500 40.98200 42.14000
C  54.13500 42.89900 43.17800
N  49.80400 46.32600 43.81300
C  51.10800 45.97000 43.91400
C  51.93400 47.16000 44.41600
C  50.84900 48.24100 44.90300
C  49.53300 47.61900 44.25200
C  52.91300 46.79400 45.53800
C  51.19600 49.65100 44.50700
C  51.48200 50.71900 45.54500
N  46.85000 46.41000 43.49400
C  46.99400 47.67300 43.97800
C  45.73000 48.45900 43.82500
C  44.85300 47.57400 43.22600
C  45.59500 46.33200 43.02200
C  45.47700 49.91500 44.32400
C  43.49900 47.34700 42.74400
O  42.47900 48.07800 42.69700
C  43.44300 45.90300 42.06500
C  42.17900 45.13300 42.43200
O  41.20200 44.91100 41.70100
O  42.24900 44.93400 43.78600
C  41.06300 44.48200 44.51100
H  48.06900 40.63600 41.65400
H  52.72300 44.62600 43.78500
H  48.28400 49.27000 44.74800
H  43.66000 42.62600 41.61500
H  45.87000 41.28200 40.48400
H  43.95400 40.52000 42.66400
H  45.66600 40.38700 43.24200
H  45.25700 39.49700 41.94300
H  45.29500 43.58500 39.23600
H  43.76600 44.25100 39.68100
H  42.70600 42.80900 38.29500
H  43.12000 41.60300 39.39500
H  49.86400 39.65400 40.81900
H  50.91600 39.19200 42.18300
H  51.51900 39.75900 40.75300
H  55.13600 42.48100 43.06400
H  53.89300 42.95900 44.23900
H  54.19200 43.83000 42.61400
H  52.42800 47.59700 43.54800
H  50.68100 48.09600 45.97000
H  53.90500 46.48400 45.20900
H  52.51100 45.95600 46.10700
H  53.10300 47.56500 46.28500
H  50.35300 50.01000 43.91500
H  52.12300 49.64200 43.93400
H  51.45400 50.27500 46.54000
H  50.67900 51.45200 45.46900
H  52.44500 51.14600 45.26200
H  46.21500 50.27400 45.04200
H  44.47300 49.84600 44.74300
H  45.30800 50.57900 43.47600
H  43.30300 46.21200 41.03000
H  40.37100 45.28400 44.76800
H  41.36300 43.91600 45.39300
H  40.48700 43.77700 43.91200
Mg 26.71400 50.36600 26.19500
C  24.81100 51.51800 28.88500
C  29.10100 49.38800 28.56700
C  28.62100 49.48200 23.76200
C  24.36300 51.76400 24.03800
N  27.01300 50.63600 28.54200
C  25.94400 50.95400 29.29200
C  26.40500 50.66800 30.76100
C  27.81300 50.09800 30.74000
C  28.05900 50.02200 29.21700
C  29.02600 50.95300 31.31700
C  25.36200 49.89400 31.61800
C  24.81000 50.69600 32.86900
H  24.62500 49.89500 34.14100
N  28.58700 49.54300 26.19700
C  29.35800 49.11200 27.20700
C  30.51100 48.35400 26.71100
C  30.44200 48.40700 25.31500
C  29.20300 49.24300 25.05100
C  31.55200 47.78200 27.49200
C  31.46900 47.92600 24.24900
O  31.35800 48.12200 23.09700
C  32.71900 47.13700 24.66500
N  26.64300 50.84800 24.17400
C  27.44000 50.15600 23.38100
C  27.07000 50.21600 21.87900
C  25.66600 50.93200 22.01500
C  25.49700 51.13000 23.51000
C  27.98200 50.82900 20.91700
C  24.42800 50.18900 21.39700
C  23.75600 51.01800 20.31800
N  24.92700 51.39800 26.40400
C  24.07100 51.92700 25.39700
C  23.05600 52.70100 26.04200
C  23.34300 52.46400 27.41000
C  24.42800 51.75300 27.56900
C  21.99300 53.54000 25.40700
C  22.79000 52.78300 28.75000
O  21.78000 53.44900 29.03600
C  23.73600 52.16300 29.75700
C  24.23400 53.29600 30.56100
O  25.15400 54.01700 30.18200
O  23.45000 53.57500 31.65900
C  24.11300 54.48700 32.63400
H  29.73500 48.81900 29.25100
H  29.21300 49.00200 22.98000
H  23.62000 52.03400 23.28400
H  26.61400 51.65700 31.16800
H  27.74300 49.13500 31.24500
H  28.65100 51.92900 31.62500
H  29.70600 51.36900 30.57400
H  29.60300 50.39600 32.05500
H  25.78400 48.95400 31.97300
H  24.45900 49.59200 31.08700
H  23.84500 51.11400 32.58400
H  25.57200 51.44400 33.08600
H  31.46000 47.93300 28.56700
H  32.52300 48.20700 27.23700
H  31.54200 46.71500 27.27000
H  33.62400 47.68300 24.93300
H  32.93600 46.55900 23.76600
H  32.63600 46.42300 25.48400
H  26.91100 49.16800 21.62700
H  25.81500 51.91200 21.56000
H  28.78600 51.36800 21.41800
H  27.49500 51.48500 20.19600
H  28.34000 49.98700 20.32500
H  23.75700 49.86000 22.19000
H  24.78100 49.30100 20.87200
H  23.69800 50.47800 19.37300
H  24.30200 51.89100 19.96100
H  22.73600 51.27300 20.60700
H  21.99400 53.59800 24.31900
H  21.97200 54.54800 25.82300
H  21.07700 53.00400 25.65900
H  23.21400 51.38100 30.30800
H  23.99800 55.55900 32.47400
H  25.17800 54.27100 32.71600
H  23.74500 54.35300 33.65200

