158

Mg 41.15000 9.05100 30.30200
C  43.14300 10.24600 32.81900
C  39.09100 7.67500 32.60100
C  39.51000 7.34100 27.76500
C  43.52900 10.05500 27.95600
N  41.19700 8.91500 32.55400
C  41.97600 9.63200 33.36000
C  41.52800 9.50100 34.78300
C  40.27100 8.55900 34.70000
C  40.16700 8.36500 33.17600
C  40.41100 7.19800 35.44600
C  41.27500 10.87700 35.41200
C  40.33800 10.95900 36.58800
H  40.78200 11.64300 37.88100
N  39.50300 7.80500 30.16400
C  38.71200 7.43300 31.26200
C  37.52700 6.76500 30.78500
C  37.58400 6.76800 29.39100
C  38.92000 7.28200 29.04600
C  36.55700 6.03200 31.70800
C  36.56600 6.23400 28.37800
O  36.76100 6.18800 27.20300
C  35.18800 5.94300 28.92900
N  41.42200 8.79300 28.15000
C  40.59500 8.08400 27.37700
C  41.09800 8.00400 25.97100
C  42.22100 9.10800 25.93900
C  42.41900 9.39100 27.47400
C  41.49700 6.59700 25.45800
C  41.93000 10.46600 25.15600
C  41.14800 11.56000 25.82500
N  43.01900 9.94300 30.36400
C  43.84900 10.33500 29.33000
C  45.03800 10.96800 29.82800
C  44.75000 11.01700 31.21600
C  43.60900 10.34100 31.45700
C  46.19800 11.49500 29.11500
C  45.28300 11.44900 32.48800
O  46.21300 12.16600 32.72200
C  44.32300 11.04600 33.54300
C  45.02100 10.23200 34.61800
O  45.65300 9.22200 34.41100
O  44.94300 10.89300 35.78100
C  45.80200 10.43300 36.87900
H  38.41500 7.25400 33.34800
H  38.96100 6.97100 26.89600
H  44.17700 10.47200 27.18100
H  42.39100 9.02600 35.24900
H  39.45200 9.17600 35.07000
H  39.78500 7.20000 36.33800
H  41.38400 7.09700 35.92600
H  40.32900 6.30400 34.82800
H  40.75800 11.54900 34.72700
H  42.27400 11.18800 35.71900
H  40.13000 9.94000 36.91500
H  39.43900 11.48400 36.26400
H  35.58700 6.51000 31.84900
H  36.90900 5.91200 32.73300
H  36.47600 5.01000 31.33700
H  34.83000 6.81600 29.47500
H  35.12200 5.08300 29.59600
H  34.50200 5.71900 28.11100
H  40.35000 8.37700 25.27200
H  43.19300 8.73700 25.61300
H  42.48100 6.51100 24.99600
H  40.74600 6.38300 24.69800
H  41.39100 5.84200 26.23600
H  41.35500 10.28400 24.24800
H  42.80000 10.91000 24.67300
H  40.96000 11.40100 26.88700
H  40.24000 11.76000 25.25700
H  41.79100 12.42900 25.68400
H  45.98200 12.56400 29.09400
H  46.35100 11.03000 28.14200
H  47.16500 11.19400 29.51800
H  43.83500 11.88900 34.03200
H  45.23100 10.40900 37.80800
H  46.61100 11.11800 37.13100
H  46.24200 9.44800 36.72700
Mg 54.61900 23.94300 45.03400
C  52.11100 26.26500 44.20900
C  52.67700 21.45000 43.80600
C  57.48800 22.01800 45.08800
C  56.64400 26.80000 46.09400
N  52.72300 23.95500 43.96500
C  51.82700 24.91800 43.75400
C  50.58900 24.46400 42.94500
C  50.71500 22.94100 43.37500
C  52.13800 22.74700 43.74700
C  49.83700 22.60900 44.61800
C  50.64200 24.81100 41.44400
C  49.27300 25.26800 40.88900
H  48.94500 24.70500 39.48100
N  55.00100 22.00100 44.55800
C  54.02100 21.13300 44.10400
C  54.71100 19.79400 43.91600
C  56.08200 19.94400 44.31700
C  56.29600 21.37300 44.69800
C  54.05500 18.53800 43.36900
C  57.12600 18.87200 44.11100
O  56.82800 17.75100 43.65100
C  58.58100 19.02100 44.58700
N  56.77400 24.32200 45.68700
C  57.70700 23.34500 45.54200
C  59.09100 23.94500 45.75800
C  58.86400 25.36100 46.33700
C  57.36300 25.57800 45.98400
C  60.02000 23.14700 46.69600
C  59.94500 26.40600 45.98300
C  60.90500 26.97400 47.01900
N  54.35800 26.09900 45.24400
C  55.24500 27.09200 45.71000
C  54.59500 28.35900 45.71000
C  53.36100 28.08700 45.10300
C  53.28900 26.70000 44.83000
C  55.08100 29.62100 46.27100
C  52.10200 28.67900 44.71600
O  51.71900 29.85100 44.83100
C  51.35300 27.56300 43.97600
C  51.49100 27.90400 42.49900
O  52.60900 27.91200 41.95500
O  50.31100 28.38000 41.98700
C  50.36300 29.17500 40.81400
H  52.03400 20.60900 43.53600
H  58.38000 21.41900 44.89100
H  57.20900 27.64300 46.49500
H  49.75400 25.02900 43.35800
H  50.43700 22.22600 42.59900
H  49.14500 23.39200 44.92900
H  50.58500 22.49600 45.40300
H  49.39500 21.62800 44.44500
H  51.03100 23.92200 40.94900
H  51.40500 25.58700 41.38700
H  49.20900 26.35500 40.84100
H  48.49400 24.98500 41.59700
H  54.20800 17.80600 44.16200
H  54.52400 17.94800 42.58200
H  52.98200 18.64400 43.21100
H  59.18700 19.65300 43.93800
H  59.02800 18.02700 44.61100
H  58.75100 19.42700 45.58400
H  59.46400 23.94400 44.73400
H  58.72800 25.37300 47.41800
H  60.54200 23.85300 47.34200
H  60.69000 22.44200 46.20400
H  59.40600 22.54400 47.36600
H  59.54800 27.26900 45.44700
H  60.66300 25.95300 45.29900
H  61.83000 26.48500 47.32400
H  60.23500 27.06300 47.87500
H  61.24700 27.96800 46.73100
H  54.19300 30.24800 46.34900
H  55.81800 30.14300 45.66100
H  55.64800 29.66400 47.20100
H  50.35400 27.56200 44.41300
H  51.36500 29.58400 40.68800
H  49.78700 30.06700 41.05800
H  49.89800 28.62500 39.99600

