158

Mg 1.23500 8.23000 25.30700
C  1.65900 10.30200 28.15600
C  1.17300 5.46800 27.55200
C  0.90200 6.25100 22.69400
C  1.11200 10.96700 23.37100
N  1.53900 7.91300 27.63200
C  1.55900 8.93500 28.58600
C  1.51000 8.37300 29.99900
C  1.58200 6.80100 29.75400
C  1.43800 6.72400 28.21300
C  2.80600 6.12600 30.36300
C  0.23100 8.86700 30.87000
C  0.50200 9.50100 32.26200
H  1.66700 8.88700 33.05000
N  1.16200 6.18100 25.10000
C  1.13900 5.19500 26.14000
C  0.99600 3.90000 25.57200
C  0.98000 4.12100 24.13900
C  0.97000 5.60200 23.92900
C  0.97300 2.52700 26.43700
C  0.98800 3.05400 23.08800
O  0.91300 3.30500 21.89400
C  1.00800 1.67000 23.44600
N  0.94500 8.58200 23.34200
C  0.85400 7.61000 22.36100
C  0.69700 8.25900 20.88700
C  0.70500 9.71200 21.24300
C  0.93200 9.78200 22.72300
C  1.79800 7.71500 19.89000
C  -0.62400 10.45700 20.77700
C  -0.52400 11.27800 19.55800
N  1.52100 10.19900 25.67500
C  1.32200 11.22200 24.75000
C  1.45700 12.50200 25.40100
C  1.73800 12.18000 26.70800
C  1.56600 10.77200 26.87500
C  1.28300 13.86000 24.74500
C  2.01100 12.69800 28.03600
O  2.23100 13.87900 28.43900
C  1.96400 11.47900 29.06200
C  3.19900 11.43100 29.90400
O  4.30600 11.02300 29.66600
O  2.93000 12.12300 31.03200
C  3.91300 12.16400 32.06600
H  1.18700 4.68900 28.31700
H  0.82000 5.58100 21.83600
H  1.03400 11.77000 22.63600
H  2.44600 8.81500 30.34000
H  0.67500 6.27600 30.05100
H  3.40300 5.70200 29.55600
H  2.59200 5.37800 31.12600
H  3.28700 7.00000 30.80400
H  -0.56000 8.11700 30.87700
H  -0.17900 9.67500 30.26500
H  -0.36700 9.67200 32.89900
H  0.83700 10.48600 31.93700
H  1.99900 2.16900 26.34400
H  0.26200 1.84800 25.96600
H  0.75800 2.63300 27.50000
H  -0.04300 1.44400 23.62500
H  1.61400 1.46200 24.32800
H  1.33600 1.03800 22.62000
H  -0.28100 8.00400 20.48000
H  1.56700 10.14700 20.73700
H  2.48200 7.02000 20.37700
H  2.36100 8.52400 19.42400
H  1.30200 7.19300 19.07300
H  -1.01200 11.21000 21.46300
H  -1.41600 9.74900 20.53300
H  -1.33700 10.93300 18.92000
H  0.47800 11.27000 19.12900
H  -0.74200 12.33100 19.73600
H  0.73000 14.53900 25.39400
H  0.85400 13.66500 23.76200
H  2.24400 14.33800 24.55100
H  1.09000 11.65100 29.69000
H  3.49900 12.07200 33.07000
H  4.20900 13.20800 31.96900
H  4.71500 11.43000 31.98400
Mg 54.14500 23.79800 44.07400
C  51.32900 25.56400 43.14300
C  52.81600 20.98400 42.45100
C  57.16300 22.23200 44.18600
C  55.56600 26.76200 45.06400
N  52.25000 23.35400 42.91100
C  51.30200 24.24100 42.61800
C  50.15400 23.59500 41.74900
C  50.43400 22.06200 41.93700
C  51.91100 22.10500 42.42100
C  49.36900 21.38000 42.94000
C  50.39100 24.03300 40.33700
C  49.19300 24.54800 39.41500
H  48.74900 23.69700 38.24400
N  54.87500 21.87300 43.59000
C  54.12600 20.81100 43.02300
C  54.90400 19.65200 42.96500
C  56.04700 19.97800 43.72800
C  56.10300 21.44400 43.88800
C  54.39500 18.33700 42.38400
C  57.13000 19.04200 44.28800
O  57.07400 17.87000 43.94500
C  58.24400 19.42800 45.20700
N  56.19800 24.49900 44.25600
C  57.26000 23.61000 44.40400
C  58.53800 24.33600 44.98000
C  57.98100 25.78400 45.10800
C  56.52900 25.68000 44.80000
C  59.07700 23.75700 46.30600
C  58.78700 26.85400 44.25800
C  59.13000 28.15900 45.01200
N  53.51400 25.78000 44.38400
C  54.13400 26.87500 44.83800
C  53.19600 28.01700 45.03800
C  52.04600 27.53700 44.35600
C  52.29800 26.18400 43.96500
C  53.54300 29.42200 45.53600
C  50.70600 27.89600 43.80900
O  50.19300 29.02000 43.86400
C  50.23300 26.62000 43.09600
C  49.75700 27.00200 41.76400
O  50.47300 27.17100 40.76000
O  48.36100 27.16900 41.80700
C  47.57900 27.65400 40.63500
H  52.40000 19.99800 42.23400
H  58.16100 21.79800 44.27600
H  56.08800 27.57200 45.57800
H  49.13700 23.89200 42.00500
H  50.35400 21.46100 41.03100
H  48.90600 22.05100 43.66400
H  49.82100 20.46700 43.32700
H  48.54900 21.04300 42.30700
H  50.94600 23.29000 39.76400
H  51.06400 24.89000 40.34500
H  49.42700 25.52200 38.98400
H  48.32900 24.83000 40.01600
H  54.12400 18.66100 41.38000
H  53.53900 17.88100 42.88100
H  55.13000 17.53300 42.34600
H  59.09800 19.91800 44.74000
H  58.54000 18.48900 45.67500
H  57.92000 20.12400 45.98000
H  59.33800 24.27500 44.24300
H  58.23500 25.98900 46.14800
H  59.02500 22.67300 46.20900
H  58.39300 24.08600 47.08800
H  60.08900 24.12500 46.47800
H  58.11000 27.25800 43.50600
H  59.63800 26.31500 43.84100
H  60.15400 28.14500 45.38700
H  58.44500 28.40900 45.82200
H  59.18400 28.95000 44.26300
H  54.34700 29.87800 44.95900
H  53.80700 29.32000 46.58900
H  52.75100 30.16800 45.46700
H  49.42200 26.21000 43.69700
H  47.81300 28.68900 40.38500
H  46.51400 27.65800 40.86900
H  47.63600 27.10400 39.69600

