158

Mg 54.50900 24.59500 44.69200
C  51.91200 26.80900 43.84000
C  52.32400 21.98300 43.85900
C  57.01200 22.39100 45.17400
C  56.64000 27.24300 45.50000
N  52.42100 24.44300 43.72700
C  51.47100 25.49300 43.61800
C  49.98500 25.00800 43.37700
C  50.26500 23.44800 43.76900
C  51.80100 23.27200 43.82600
C  49.43000 22.80400 44.94400
C  49.50400 25.17200 41.88800
C  48.20800 24.53000 41.44600
H  48.27500 23.68700 40.21900
N  54.71100 22.46500 44.43200
C  53.64500 21.61900 44.15800
C  54.15900 20.28100 44.15200
C  55.55900 20.34800 44.48300
C  55.83200 21.79700 44.74800
C  53.24100 19.09000 43.92600
C  56.52200 19.10400 44.63800
O  56.09600 17.94600 44.42600
C  57.99200 19.24500 44.97000
N  56.60500 24.77900 45.22400
C  57.41900 23.72600 45.40400
C  58.75300 24.11000 45.94200
C  58.66500 25.64900 46.07500
C  57.21600 25.92900 45.58100
C  59.29100 23.48200 47.31500
C  59.58000 26.54500 45.12600
C  60.08300 27.77900 45.90000
N  54.33400 26.59200 44.55400
C  55.26800 27.56100 45.09200
C  54.60800 28.88300 45.06800
C  53.30200 28.58000 44.66000
C  53.14500 27.24000 44.33000
C  55.18000 30.19400 45.42400
C  51.93700 29.15900 44.42700
O  51.68700 30.34100 44.56400
C  51.10800 28.09500 43.73800
C  51.09000 28.53600 42.36300
O  52.07600 28.82800 41.68600
O  49.77400 28.79100 42.00000
C  49.52700 29.36400 40.70400
H  51.60700 21.17700 43.69300
H  57.92100 21.80600 45.33000
H  57.25800 28.11500 45.72400
H  49.35600 25.42700 44.16300
H  49.86900 22.89400 42.91800
H  48.60700 22.21500 44.54100
H  49.02800 23.69300 45.43100
H  50.07600 22.19200 45.57400
H  50.39000 24.82900 41.35200
H  49.26300 26.23000 41.79300
H  47.56800 25.37900 41.20300
H  47.81700 23.87700 42.22700
H  53.37500 18.85800 42.86900
H  52.17100 19.19200 44.10600
H  53.56800 18.16000 44.39100
H  58.41700 19.94400 44.25000
H  58.48000 18.27200 44.92600
H  58.13000 19.66600 45.96600
H  59.55200 23.99800 45.20900
H  58.73600 25.97100 47.11400
H  60.37900 23.43700 47.36100
H  59.02200 22.43500 47.45100
H  59.02600 24.13000 48.15000
H  59.05400 26.86900 44.22900
H  60.49300 26.02700 44.83200
H  61.17100 27.76900 45.95800
H  59.64600 27.86000 46.89500
H  59.71100 28.66100 45.37800
H  55.56600 30.21400 46.44300
H  54.35300 30.90300 45.39500
H  55.94200 30.37800 44.66700
H  50.07700 28.04100 44.08600
H  49.58000 28.52000 40.01600
H  50.40300 29.94800 40.42300
H  48.65400 30.01500 40.72800
Mg 36.17600 49.33200 24.95000
C  36.29300 47.62200 27.96400
C  34.70900 52.04300 26.55900
C  35.87100 50.78600 21.94200
C  37.27400 46.34500 23.34900
N  35.60800 49.76400 27.04900
C  35.80600 48.92200 28.18200
C  35.47300 49.67300 29.48000
C  34.84100 51.02600 28.96100
C  35.05400 50.90600 27.39900
C  33.37800 51.33800 29.41300
C  36.84600 49.85600 30.29500
C  36.77800 49.30300 31.69600
H  36.30700 50.31400 32.71700
N  35.45900 51.15100 24.32300
C  34.97400 52.15000 25.12300
C  34.54200 53.29200 24.32400
C  34.95000 52.97400 22.98100
C  35.43400 51.59700 23.03000
C  34.09500 54.64500 24.92600
C  34.98300 53.80700 21.73000
O  35.42300 53.44500 20.62900
C  34.63100 55.27000 21.90100
N  36.48300 48.63800 22.95800
C  36.26300 49.44600 21.86400
C  36.76600 48.72600 20.51400
C  37.61000 47.58200 21.16100
C  37.04700 47.45600 22.60300
C  35.45700 48.24800 19.72400
C  39.17000 47.83600 21.16000
C  39.92500 47.25300 20.00700
N  36.75600 47.37800 25.49700
C  37.16400 46.26200 24.77500
C  37.44000 45.11600 25.65200
C  37.16800 45.62700 26.87500
C  36.73100 46.97900 26.75400
C  37.79200 43.68800 25.30400
C  37.26700 45.24000 28.29500
O  37.64700 44.20500 28.79300
C  36.68600 46.52500 29.05700
C  35.65200 46.12900 30.02900
O  34.41600 46.33200 29.97500
O  36.30400 45.52600 31.10900
C  35.34900 45.16700 32.20200
H  34.14700 52.77800 27.13900
H  35.56100 51.13700 20.95500
H  37.78600 45.60100 22.73600
H  34.77800 49.02200 30.01000
H  35.48800 51.84000 29.28700
H  32.65800 51.25800 28.59900
H  33.35700 52.33400 29.85600
H  32.96700 50.66500 30.16600
H  37.11800 50.90500 30.41100
H  37.61800 49.37100 29.69800
H  37.69600 48.74800 31.89100
H  36.05200 48.49000 31.67300
H  34.80500 55.39800 24.58500
H  34.01200 54.59700 26.01200
H  33.09200 54.87300 24.56300
H  33.64700 55.45000 22.33300
H  34.77000 55.67900 20.90000
H  35.37000 55.77000 22.52600
H  37.33200 49.41400 19.88700
H  37.44100 46.66900 20.58900
H  35.58300 47.19200 19.48200
H  35.15800 48.78000 18.82100
H  34.59400 48.23300 20.39000
H  39.68400 47.61200 22.09500
H  39.29700 48.90500 20.98900
H  39.36800 46.91700 19.13300
H  40.35900 46.32100 20.37000
H  40.64600 48.03300 19.76200
H  37.77200 43.60500 24.21700
H  37.14800 43.05100 25.90900
H  38.81400 43.51300 25.64100
H  37.50400 46.92300 29.65700
H  35.93900 45.18100 33.11900
H  34.80600 44.22200 32.20700
H  34.67800 45.99900 32.41600

