158

Mg -11.13400 38.49500 41.30200
C  -9.06200 35.93600 40.40900
C  -8.79100 40.77800 40.11100
C  -13.47300 40.89500 41.36300
C  -13.61400 36.12900 42.24300
N  -9.12800 38.41900 40.48800
C  -8.49900 37.23800 40.15000
C  -7.17500 37.47600 39.39400
C  -7.00700 39.05500 39.51600
C  -8.34900 39.46000 40.17900
C  -5.70800 39.56500 40.22300
C  -7.19600 36.88300 37.95400
C  -6.01100 35.98900 37.53400
H  -5.28500 36.46600 36.24900
N  -11.15400 40.58000 40.82600
C  -10.06200 41.27700 40.38700
C  -10.44900 42.68300 40.20500
C  -11.89500 42.79300 40.52300
C  -12.24400 41.39100 40.90000
C  -9.43200 43.76100 39.64900
C  -12.80400 44.02200 40.40800
O  -12.30300 45.09400 40.01700
C  -14.28900 44.06900 40.64000
N  -13.23100 38.43500 41.82800
C  -13.93600 39.57600 41.72800
C  -15.38300 39.36300 42.02500
C  -15.48600 37.80600 42.27000
C  -14.04100 37.41000 42.15500
C  -15.96000 40.18900 43.19500
C  -16.32500 37.08800 41.16700
C  -17.88500 37.15300 41.37000
N  -11.30800 36.42100 41.33900
C  -12.31100 35.65400 41.84000
C  -11.86800 34.27700 41.94400
C  -10.62700 34.29000 41.30800
C  -10.32600 35.61700 41.01500
C  -12.72800 33.18000 42.48200
C  -9.48800 33.53200 40.83100
O  -9.24500 32.33900 40.97500
C  -8.38900 34.60300 40.31700
C  -7.17400 34.41000 41.10100
O  -6.53500 33.40800 40.95000
O  -6.91100 35.41900 42.02900
C  -5.84700 35.17500 43.03000
H  -7.98400 41.44900 39.80900
H  -14.18700 41.72000 41.38900
H  -14.33700 35.39000 42.59500
H  -6.38400 37.06800 40.02200
H  -7.00200 39.57600 38.55900
H  -5.94100 40.19900 41.07900
H  -5.25100 40.28100 39.54000
H  -5.03900 38.73600 40.45100
H  -7.20800 37.69800 37.23000
H  -8.11400 36.33200 37.75300
H  -6.32100 34.94400 37.53500
H  -5.17200 36.06000 38.22600
H  -9.85700 44.18600 38.73900
H  -8.38600 43.48300 39.51700
H  -9.48400 44.69300 40.21000
H  -14.53300 44.24700 41.68700
H  -14.77500 43.20300 40.19200
H  -14.75300 44.90000 40.10800
H  -15.91400 39.61700 41.10700
H  -15.83000 37.68100 43.29700
H  -16.51900 39.64400 43.95600
H  -16.71100 40.85600 42.77300
H  -15.17500 40.76800 43.68200
H  -16.03700 36.03800 41.21700
H  -16.09900 37.55000 40.20600
H  -18.43400 37.29200 40.43900
H  -18.17500 37.98200 42.01500
H  -18.19400 36.22300 41.84900
H  -12.12900 32.27900 42.61200
H  -13.58300 32.90900 41.86300
H  -13.05600 33.32600 43.51100
H  -8.19300 34.33900 39.27800
H  -4.98900 35.54000 42.46500
H  -5.71500 34.21200 43.52400
H  -5.89100 35.99400 43.74800
Mg -11.46400 16.88100 40.06100
C  -7.96300 16.36400 40.43400
C  -10.69700 20.31400 39.65000
C  -14.54200 17.51400 39.19300
C  -11.86000 13.36300 40.01600
N  -9.50300 18.18900 39.98000
C  -8.23200 17.68000 40.18200
C  -7.18600 18.82200 40.10700
C  -8.14300 20.09900 40.22700
C  -9.54400 19.51700 39.93700
C  -7.95400 20.90800 41.52500
C  -6.43600 19.03200 38.78400
C  -5.15700 18.23800 38.54000
H  -5.03500 17.03000 37.57900
N  -12.49400 18.66400 39.46400
C  -11.99200 19.92200 39.36100
C  -12.99200 20.81900 38.92400
C  -14.19300 20.07400 38.84500
C  -13.81100 18.70500 39.14500
C  -12.75800 22.26200 38.79000
C  -15.58300 20.63500 38.46600
O  -15.75700 21.85500 38.24900
C  -16.83700 19.83700 38.49700
N  -12.89600 15.63800 39.48700
C  -14.12300 16.16100 39.36700
C  -15.19500 14.99600 39.32000
C  -14.34200 13.71200 39.36100
C  -12.95200 14.25200 39.67100
C  -16.44200 15.10500 40.33500
C  -14.48600 12.84000 38.10800
C  -14.33000 11.31700 38.36100
N  -10.20200 15.12500 40.24000
C  -10.53100 13.80600 40.12900
C  -9.33700 13.06400 40.30800
C  -8.30300 14.03700 40.55300
C  -8.90900 15.32000 40.39600
C  -9.12700 11.65900 40.40100
C  -6.89800 14.21500 40.81300
O  -6.01500 13.39100 40.93400
C  -6.64700 15.76200 40.83800
C  -6.31900 15.99400 42.29300
O  -7.07100 16.19500 43.22700
O  -4.93500 15.80200 42.47600
C  -4.34100 15.99800 43.81300
H  -10.45100 21.36300 39.46900
H  -15.58200 17.61500 38.87500
H  -12.03200 12.28400 40.02800
H  -6.56900 18.66800 40.99200
H  -7.91700 20.83200 39.45300
H  -7.01900 21.46200 41.61900
H  -7.90700 20.13400 42.29100
H  -8.83500 21.54800 41.57000
H  -6.23700 20.10000 38.69000
H  -7.12900 18.75200 37.99100
H  -4.73400 18.03900 39.52400
H  -4.68500 19.10900 38.08400
H  -12.80900 22.67600 39.79700
H  -13.43800 22.75500 38.09600
H  -11.75100 22.58200 38.52500
H  -16.71300 19.12500 37.68100
H  -17.71800 20.45100 38.31100
H  -16.93700 19.29900 39.44000
H  -15.56500 15.18200 38.31200
H  -14.78800 13.22700 40.23000
H  -16.16800 15.87900 41.05200
H  -16.76400 14.25900 40.94200
H  -17.31500 15.42800 39.76800
H  -13.76000 13.20300 37.37900
H  -15.46200 13.02000 37.65700
H  -15.27100 10.91200 37.98900
H  -14.32400 11.13600 39.43500
H  -13.44400 10.94800 37.84500
H  -8.12600 11.27900 40.60300
H  -9.55000 11.30600 39.46000
H  -9.80100 11.21400 41.13300
H  -5.80300 15.96100 40.17800
H  -3.43600 16.58700 43.66300
H  -4.06400 14.97600 44.07100
H  -4.97800 16.37400 44.61300

