158

Mg -0.38100 18.13700 27.90500
C  -0.99400 15.62100 30.47500
C  -1.13300 20.51800 30.32600
C  -0.17900 20.45500 25.54900
C  -0.36200 15.53500 25.53000
N  -1.21700 18.00100 30.09000
C  -1.17900 16.93200 30.97600
C  -1.41900 17.33500 32.45900
C  -1.58400 18.93500 32.32000
C  -1.24700 19.18800 30.82800
C  -3.01100 19.45900 32.72800
C  -0.34100 16.87200 33.43500
C  -0.03600 17.75500 34.66300
H  0.72300 16.98600 35.77000
N  -0.56100 20.19200 27.92700
C  -0.83200 21.02300 29.00500
C  -0.75600 22.36400 28.62000
C  -0.50800 22.41200 27.19900
C  -0.39200 20.98300 26.82100
C  -1.03600 23.52400 29.55100
C  -0.21600 23.59400 26.25500
O  -0.05000 23.46900 25.06200
C  -0.24200 24.95600 26.88200
N  -0.26800 18.04700 25.86000
C  -0.11800 19.09700 25.05800
C  0.00200 18.67200 23.58000
C  0.23900 17.16900 23.69000
C  -0.15000 16.87100 25.11900
C  -1.20800 19.00700 22.71900
C  1.75700 16.68000 23.43600
C  2.74400 17.23100 24.50200
N  -0.56500 15.96300 27.88200
C  -0.66900 15.12000 26.82800
C  -0.90500 13.80200 27.38000
C  -1.07700 13.97900 28.81800
C  -0.80400 15.26200 29.08600
C  -0.95400 12.55400 26.62300
C  -1.38500 13.27400 30.10000
O  -1.69000 12.12700 30.34100
C  -1.28500 14.30200 31.25700
C  -0.23300 13.72100 32.14100
O  0.95600 13.84700 31.97400
O  -0.89300 13.04400 33.11700
C  -0.06400 12.15000 33.87400
H  -1.38100 21.30100 31.04600
H  0.05100 21.17200 24.75800
H  -0.30400 14.68400 24.84900
H  -2.32300 16.78300 32.71300
H  -0.90800 19.52500 32.93800
H  -2.99200 19.92400 33.71400
H  -3.58800 18.53500 32.76200
H  -3.36500 20.23900 32.05500
H  0.64700 16.84700 32.97500
H  -0.49100 15.82000 33.67600
H  -0.88900 18.10300 35.24500
H  0.53500 18.67300 34.52600
H  -1.72800 24.25100 29.12700
H  -0.14700 24.10800 29.78900
H  -1.43400 23.21400 30.51700
H  0.19300 24.98800 27.88100
H  -1.30700 25.17300 26.97000
H  0.22100 25.64400 26.17500
H  0.90000 19.20500 23.27000
H  -0.40300 16.51000 23.10500
H  -1.97800 19.44200 23.35700
H  -1.62500 18.12500 22.23300
H  -0.95100 19.76100 21.97400
H  2.14900 17.17100 22.54500
H  1.71500 15.59200 23.47900
H  2.25000 17.61100 25.39600
H  3.29400 18.06600 24.06800
H  3.36600 16.41700 24.87700
H  -0.22700 11.81300 26.95700
H  -0.77800 12.75600 25.56600
H  -1.93000 12.07900 26.72400
H  -2.24400 14.31700 31.77400
H  -0.70200 11.74000 34.65600
H  0.85200 12.63700 34.21100
H  0.22000 11.36000 33.18000
Mg 2.05900 8.70300 26.88800
C  2.64600 10.18300 29.91500
C  2.48800 5.59200 28.47000
C  1.77500 7.11800 23.79900
C  2.32300 11.74200 25.17800
N  2.36700 7.99400 29.02600
C  2.32100 8.84500 30.08400
C  2.19800 8.07200 31.42900
C  2.36500 6.59100 30.93700
C  2.42000 6.71200 29.41800
C  3.57500 5.86200 31.58300
C  0.87600 8.37300 32.16800
C  0.97200 8.45300 33.70800
H  2.20000 7.78200 34.41000
N  1.88200 6.69000 26.29300
C  2.10700 5.58700 27.05700
C  1.82500 4.42300 26.31200
C  1.45800 4.87000 25.00300
C  1.68300 6.31800 24.99900
C  1.93400 2.99500 26.88000
C  1.00400 4.10300 23.83000
O  0.50400 4.65300 22.84700
C  1.26600 2.61400 23.76200
N  2.05700 9.33100 24.80900
C  2.02300 8.51800 23.73900
C  2.18600 9.33000 22.43700
C  1.69400 10.67300 22.94700
C  1.95000 10.63900 24.41300
C  3.65100 9.27400 21.93000
C  0.24100 11.07900 22.69100
C  -0.10600 12.40300 21.90600
N  2.60000 10.56200 27.40500
C  2.66800 11.70500 26.59600
C  3.17900 12.75600 27.49300
C  3.09800 12.24100 28.78400
C  2.70000 10.88800 28.69000
C  3.45100 14.20800 27.11600
C  3.18800 12.54500 30.18700
O  3.44500 13.59400 30.75900
C  2.90600 11.24800 30.96200
C  3.93800 11.01500 32.01900
O  5.03600 10.46800 31.94700
O  3.43000 11.55300 33.22900
C  4.49300 11.78800 34.20000
H  2.50000 4.66200 29.04300
H  1.82900 6.65300 22.81200
H  2.55800 12.69800 24.70500
H  3.09700 8.39900 31.95200
H  1.49500 5.96700 31.14100
H  4.19200 6.53700 32.17700
H  4.24700 5.36100 30.88700
H  3.15400 5.01700 32.12700
H  0.22700 7.54600 31.88200
H  0.39500 9.26400 31.76700
H  0.02200 8.05200 34.06000
H  0.98100 9.50400 33.99800
H  2.82200 2.53800 26.44500
H  1.06800 2.35800 26.70100
H  2.08500 3.00800 27.96000
H  2.27000 2.30000 24.04800
H  1.11400 2.22100 22.75700
H  0.61400 2.02500 24.40800
H  1.55600 8.96400 21.62700
H  2.24500 11.47400 22.45500
H  4.38600 8.83000 22.60300
H  3.91100 10.33200 21.92900
H  3.65900 8.76000 20.96900
H  -0.24500 11.14000 23.66500
H  -0.26200 10.28100 22.14500
H  0.77200 12.51100 21.26900
H  -0.17700 13.29800 22.52500
H  -1.02700 12.37600 21.32400
H  3.77100 14.87800 27.91400
H  2.59700 14.66600 26.61700
H  4.34400 14.06200 26.50900
H  1.98000 11.29800 31.53400
H  5.40000 12.14700 33.71300
H  4.75400 10.88500 34.75200
H  4.14100 12.47200 34.97200

