158

Mg 47.31300 25.18300 29.15800
C  48.06600 27.58700 31.58700
C  46.19100 23.11100 31.67300
C  46.81400 22.76000 26.96100
C  49.09400 27.01600 26.80700
N  47.01600 25.39500 31.37800
C  47.43500 26.46400 32.15300
C  47.14900 26.16000 33.60100
C  46.84200 24.65500 33.59900
C  46.67000 24.33200 32.12300
C  47.87500 23.78900 34.29100
C  45.99300 27.00800 34.18000
C  46.31100 27.68000 35.52200
H  46.68200 26.84800 36.73400
N  46.28000 23.35300 29.24100
C  45.93600 22.63100 30.39000
C  45.33300 21.37200 29.96600
C  45.34300 21.31400 28.56200
C  46.14200 22.53200 28.20400
C  44.68000 20.47600 30.89500
C  44.88500 20.29800 27.65200
O  45.20400 20.21600 26.48800
C  43.91300 19.21300 28.17500
N  47.90500 24.85800 27.18800
C  47.55500 23.79100 26.44700
C  48.15400 23.90400 25.00200
C  48.44600 25.42400 24.95900
C  48.65200 25.75700 26.41200
C  49.43000 23.05000 24.67800
C  47.37700 26.25100 24.16900
C  47.86700 26.90500 22.90700
N  48.56300 26.85600 29.14600
C  49.22600 27.54700 28.05600
C  49.67600 28.81100 28.61700
C  49.27500 28.84700 29.97700
C  48.52000 27.67600 30.20600
C  50.18300 29.89600 27.81800
C  49.23900 29.64300 31.14300
O  49.66700 30.75300 31.40900
C  48.49100 28.90400 32.26000
C  49.45600 28.66000 33.24700
O  50.41900 27.94400 33.17800
O  49.02500 29.41500 34.35500
C  49.83500 29.51100 35.59200
H  45.90000 22.38100 32.43200
H  46.66900 21.98200 26.20800
H  49.58500 27.63900 26.05600
H  48.02700 26.37300 34.21200
H  45.88700 24.43200 34.07400
H  48.80500 24.27500 34.58400
H  48.11200 22.99000 33.58900
H  47.44400 23.41200 35.21800
H  45.09100 26.41000 34.31100
H  45.84000 27.86500 33.52500
H  45.39300 28.22600 35.74100
H  47.11700 28.40100 35.38700
H  43.63000 20.39600 30.61500
H  44.62700 20.95300 31.87300
H  45.18600 19.51900 31.02000
H  44.02900 18.68700 29.12300
H  43.74500 18.44800 27.41700
H  43.01100 19.82500 28.21800
H  47.40500 23.58000 24.28000
H  49.41300 25.66900 24.52000
H  49.96400 22.92200 25.62000
H  50.05400 23.70700 24.07200
H  49.33800 22.10300 24.14600
H  47.14900 27.05800 24.86500
H  46.51600 25.62000 23.94500
H  47.45100 26.32000 22.08700
H  48.94700 26.92600 22.76200
H  47.41200 27.89400 22.95900
H  50.24000 30.78500 28.44600
H  49.69400 30.29000 26.92700
H  51.22800 29.66500 27.61200
H  47.74500 29.65800 32.50900
H  49.32000 29.15800 36.48600
H  50.07400 30.54300 35.85100
H  50.76200 29.00000 35.33400
Mg -1.30600 33.88900 25.99000
C  -3.18700 32.15900 28.61300
C  0.01400 35.99500 28.24900
C  -0.08600 35.48300 23.50600
C  -3.12600 31.86600 23.74300
N  -1.69800 34.06500 28.10200
C  -2.40600 33.27100 29.00700
C  -2.06800 33.71300 30.43600
C  -1.16900 35.01000 30.24000
C  -0.86800 34.99700 28.79700
C  -1.92900 36.30700 30.79700
C  -1.36700 32.54100 31.26300
C  -2.01400 32.29800 32.70700
H  -1.10900 32.25300 33.99800
N  -0.16600 35.54300 25.83500
C  0.29300 36.33400 26.85100
C  1.21800 37.28300 26.39400
C  1.21300 37.12500 25.02100
C  0.29400 36.07000 24.72600
C  2.07400 38.16300 27.32000
C  2.14100 37.89200 24.03200
O  2.11900 37.76600 22.78400
C  3.13000 38.88900 24.51400
N  -1.81300 33.91800 23.80600
C  -1.00800 34.57100 22.99900
C  -1.05600 34.08300 21.57400
C  -1.67100 32.67700 21.73600
C  -2.27400 32.79500 23.17000
C  -1.66100 34.87000 20.48000
C  -0.60500 31.52100 21.62500
C  -1.15800 30.35000 20.80100
N  -2.82300 32.32900 26.09500
C  -3.47100 31.62300 25.07600
C  -4.42100 30.67000 25.60600
C  -4.21100 30.79500 26.99700
C  -3.35800 31.85100 27.23100
C  -5.32300 29.76400 24.84300
C  -4.67000 30.25300 28.25600
O  -5.39300 29.28300 28.44400
C  -4.03600 31.13500 29.32200
C  -5.20600 31.73800 30.02400
O  -5.74600 32.78100 29.75200
O  -5.38700 31.08200 31.21200
C  -6.20300 31.80600 32.19300
H  0.54600 36.59700 28.98900
H  0.28900 36.04800 22.65000
H  -3.68700 31.23100 23.05400
H  -3.07100 33.75600 30.86000
H  -0.25700 34.91300 30.83000
H  -1.40700 36.84400 31.58900
H  -2.87000 35.87300 31.13500
H  -2.14700 36.93900 29.93700
H  -0.35000 32.78700 31.56700
H  -1.45900 31.70300 30.57200
H  -2.64900 31.41300 32.76000
H  -2.74600 33.10200 32.78400
H  1.86300 38.09100 28.38700
H  2.04300 39.22200 27.06800
H  3.12200 37.90000 27.17800
H  2.57200 39.63600 25.07800
H  3.80200 39.38300 23.81100
H  3.84400 38.47100 25.22400
H  0.00900 34.04800 21.34500
H  -2.49900 32.43800 21.06900
H  -2.63100 34.52400 20.12300
H  -0.96000 34.97000 19.65100
H  -1.83900 35.83000 20.96400
H  -0.31500 31.17000 22.61500
H  0.26400 32.00800 21.18100
H  -0.47700 30.36200 19.95000
H  -2.13900 30.39200 20.32700
H  -1.12700 29.36500 21.26800
H  -6.20600 29.51200 25.43100
H  -4.78200 28.89000 24.48000
H  -5.62400 30.40000 24.01000
H  -3.52400 30.49300 30.03800
H  -5.55500 32.41000 32.83000
H  -6.75100 31.15600 32.87500
H  -6.78800 32.58200 31.70000

