158

Mg 53.90300 23.13600 44.64000
C  51.57100 25.69700 44.01600
C  51.77200 20.79300 43.69100
C  56.49800 20.94900 44.26400
C  56.35000 25.62400 45.43100
N  51.97900 23.26800 43.84800
C  51.13100 24.40300 43.61700
C  49.77400 23.94600 43.12800
C  49.77700 22.41000 43.49000
C  51.23700 22.12500 43.67400
C  48.99900 22.06100 44.80000
C  49.48900 24.24100 41.64200
C  48.03300 24.14300 41.27100
H  47.76900 23.51300 39.90600
N  54.05200 21.05100 44.09000
C  53.03000 20.24900 43.75700
C  53.52600 18.90200 43.59300
C  54.92300 18.89600 43.90400
C  55.25500 20.31600 44.07500
C  52.57700 17.78700 43.21100
C  55.81500 17.70300 43.89600
O  55.31100 16.57100 43.84000
C  57.27300 17.74400 44.01100
N  56.10200 23.29800 44.68700
C  56.91200 22.25600 44.49200
C  58.44800 22.60900 44.80000
C  58.34100 24.08200 45.30700
C  56.82500 24.36800 45.19900
C  59.19100 21.54600 45.77700
C  59.25000 25.04000 44.51600
C  60.20900 25.85500 45.48200
N  53.91700 25.24300 44.93300
C  55.00100 26.11800 45.28300
C  54.44600 27.41900 45.40500
C  53.10600 27.30100 44.92700
C  52.84200 25.97400 44.57700
C  55.12000 28.53300 45.98900
C  51.85600 27.99100 44.76100
O  51.55200 29.10000 45.20600
C  50.77400 26.99800 44.07600
C  50.47100 27.59900 42.73200
O  51.28900 28.17000 42.00400
O  49.14100 27.41600 42.46100
C  48.57400 27.94900 41.23700
H  51.06200 19.96800 43.77900
H  57.34600 20.27200 44.14100
H  57.04800 26.41100 45.72600
H  49.01800 24.49700 43.68600
H  49.41800 21.76000 42.69200
H  48.19900 22.74300 45.08600
H  49.75600 22.25700 45.56000
H  48.58800 21.05600 44.89100
H  50.01200 23.52300 41.01100
H  49.83900 25.24600 41.41000
H  47.56300 25.12600 41.31500
H  47.49500 23.55000 42.01100
H  52.19700 17.84000 42.19100
H  51.74500 17.62800 43.89800
H  53.01600 16.79600 43.10000
H  57.48700 18.22500 44.96600
H  57.65100 18.22000 43.10700
H  57.67500 16.73000 44.01200
H  58.87900 22.66700 43.80100
H  58.45500 24.02100 46.39000
H  59.87000 20.96500 45.15200
H  58.48500 20.86700 46.25500
H  59.67400 22.05900 46.60800
H  58.66200 25.75300 43.93700
H  59.93900 24.40900 43.95600
H  61.23200 25.47900 45.46800
H  59.70000 25.99200 46.43600
H  60.32200 26.86100 45.07800
H  56.05300 28.65700 45.44000
H  55.37300 28.39500 47.04100
H  54.54200 29.44000 45.81300
H  49.90800 26.89000 44.72900
H  49.02600 27.56100 40.32400
H  48.64800 29.03400 41.16400
H  47.51300 27.69500 41.23800
Mg 6.84500 53.24100 41.61200
C  6.37000 49.74600 41.05400
C  9.99300 52.94300 40.54700
C  7.02600 56.73500 41.40300
C  3.48500 53.49300 42.42300
N  7.99400 51.49000 40.81200
C  7.71800 50.18100 40.71800
C  8.98100 49.36800 40.50100
C  10.15000 50.40000 40.62600
C  9.36200 51.69800 40.73100
C  11.01400 50.24600 41.95700
C  9.00000 48.71500 39.07300
C  8.78600 49.64900 37.79300
H  7.72000 49.24400 36.73800
N  8.24200 54.61000 40.95400
C  9.47100 54.27100 40.65600
C  10.29700 55.52400 40.50600
C  9.48100 56.63400 40.76300
C  8.17900 55.97700 41.06300
C  11.67900 55.53500 40.12200
C  10.01900 58.13700 40.69500
O  11.20300 58.39900 40.43500
C  9.20300 59.24900 41.10100
N  5.42300 54.88100 41.82700
C  5.74800 56.20700 41.68400
C  4.51900 57.05500 42.12700
C  3.43200 56.02200 42.43800
C  4.10000 54.69300 42.08000
C  4.85900 58.04300 43.28700
C  2.09500 56.26100 41.63800
C  2.06700 55.68200 40.16100
N  5.24600 51.92100 41.79500
C  3.94000 52.19100 42.12800
C  3.08600 50.96400 42.11200
C  4.02800 49.98200 41.76500
C  5.31500 50.58800 41.54300
C  1.59000 50.90600 42.57500
C  4.23900 48.59300 41.51200
O  3.50300 47.60100 41.51900
C  5.77300 48.32900 41.02500
C  5.61600 47.80500 39.64300
O  5.47000 48.39700 38.57300
O  5.77100 46.45500 39.63500
C  5.55400 45.79400 38.37600
H  11.08400 52.88600 40.51800
H  7.14000 57.80600 41.58000
H  2.52400 53.64200 42.91900
H  8.99600 48.65300 41.32400
H  10.82500 50.57600 39.78800
H  12.05600 50.46800 41.72500
H  10.97100 49.23100 42.35200
H  10.66700 50.95800 42.70500
H  8.23500 47.93900 39.02900
H  9.94900 48.18400 38.99700
H  9.71700 49.72200 37.23000
H  8.53000 50.66800 38.08300
H  12.09600 54.57600 39.81200
H  12.28900 55.87700 40.95900
H  11.84300 56.25600 39.32200
H  8.35300 59.37200 40.43100
H  9.78400 60.17200 41.11000
H  8.79200 59.08600 42.09700
H  4.00700 57.72100 41.43300
H  3.07600 55.81900 43.44800
H  5.89300 57.89800 43.59900
H  4.21200 58.01500 44.16300
H  4.75900 59.08900 42.99500
H  1.95300 57.32200 41.43500
H  1.31100 55.81700 42.25200
H  1.51100 56.29900 39.45400
H  1.73000 54.64800 40.22300
H  3.09200 55.50300 39.83700
H  0.92600 50.91400 41.71100
H  1.41600 51.89000 43.01000
H  1.45200 50.06200 43.25100
H  6.32400 47.62600 41.64900
H  5.53500 44.71400 38.52100
H  6.38700 46.10400 37.74500
H  4.65200 46.05500 37.82200

