158

Mg 35.08600 3.47500 30.40000
C  32.70700 4.55400 32.71600
C  37.40100 3.59500 32.98800
C  37.29900 2.74500 28.16600
C  32.58800 3.73600 27.90500
N  35.00800 4.03500 32.59000
C  33.92200 4.35900 33.31300
C  34.25600 4.25300 34.86600
C  35.85800 4.29900 34.88100
C  36.08800 3.90400 33.38200
C  36.39500 5.72300 35.13900
C  33.72200 2.95700 35.59200
C  34.01300 2.76000 37.08900
H  34.44900 3.98100 37.91300
N  37.10400 3.12200 30.60500
C  37.93600 3.14500 31.72600
C  39.28900 2.72800 31.36600
C  39.30700 2.76200 29.92000
C  37.86800 2.85900 29.50500
C  40.41400 2.66200 32.46200
C  40.39800 2.61300 28.94100
O  40.15500 2.83300 27.76500
C  41.73300 2.08800 29.38700
N  34.94300 3.37000 28.29900
C  35.99400 2.99300 27.61300
C  35.77400 3.06600 26.01400
C  34.23100 3.29200 25.98600
C  33.86700 3.47200 27.48700
C  36.55200 4.18800 25.19300
C  33.50700 2.13900 25.26500
C  33.10700 0.94400 26.07200
N  33.07100 4.11900 30.27700
C  32.18800 4.08900 29.17400
C  30.84000 4.27000 29.66900
C  31.02100 4.50900 31.05300
C  32.41000 4.41000 31.38800
C  29.61900 4.28900 28.78200
C  30.37300 4.75500 32.29700
O  29.18700 4.93300 32.47900
C  31.39100 4.74600 33.46000
C  31.21100 6.02800 34.12100
O  30.98400 7.13200 33.56100
O  31.27900 5.81700 35.46600
C  31.49600 7.08400 36.14100
H  38.12100 3.70500 33.80200
H  38.03200 2.45200 27.41100
H  31.78400 3.67100 27.16900
H  33.78900 5.11300 35.34600
H  36.20400 3.64300 35.68000
H  36.91600 5.71400 36.09600
H  35.65900 6.52100 35.22400
H  37.15800 5.86900 34.37400
H  34.12400 2.05600 35.12900
H  32.63500 2.93400 35.51100
H  34.64300 1.87000 37.10700
H  33.15100 2.33600 37.60400
H  40.13700 3.22000 33.35600
H  41.23900 3.20800 32.00400
H  40.85700 1.70800 32.74900
H  41.50000 1.28700 30.08800
H  42.28500 2.94700 29.76800
H  42.36500 1.73800 28.57100
H  36.16700 2.13800 25.59700
H  34.01000 4.18800 25.40700
H  37.12200 4.71900 25.95600
H  35.81600 4.84100 24.72500
H  37.17700 3.63200 24.49400
H  34.18700 1.77600 24.49500
H  32.66200 2.58600 24.74200
H  33.63700 0.88000 27.02300
H  33.20300 0.08800 25.40500
H  32.04600 0.98700 26.32200
H  29.00200 3.39200 28.81300
H  29.88300 4.35100 27.72600
H  28.95300 5.11400 29.03400
H  31.06800 3.99000 34.17500
H  32.27800 7.61900 35.60100
H  31.96000 6.83200 37.09400
H  30.63200 7.74900 36.12800
Mg 40.79100 9.64400 29.43000
C  42.80000 10.76600 32.18700
C  38.61300 8.23500 31.47900
C  39.16400 8.50500 26.69200
C  43.46600 10.54500 27.37900
N  40.87300 9.37200 31.64300
C  41.66900 10.01500 32.54800
C  41.01600 9.92400 33.93900
C  39.81400 8.90200 33.68600
C  39.70000 8.85300 32.15700
C  39.90400 7.52200 34.36500
C  40.48000 11.28900 34.54800
C  40.07500 11.30100 36.05800
H  40.99200 12.09300 37.07200
N  39.14700 8.51900 29.09800
C  38.27800 8.05600 30.12700
C  37.11700 7.44800 29.57900
C  37.25500 7.67600 28.20700
C  38.53000 8.21800 27.95200
C  36.05700 6.70800 30.46000
C  36.17300 7.40200 27.12900
O  36.35100 7.47200 25.86800
C  34.85100 7.08900 27.58600
N  41.31600 9.41400 27.42500
C  40.40500 9.07900 26.45400
C  41.05200 9.03300 25.04500
C  42.25700 10.03900 25.27300
C  42.41000 9.91300 26.80600
C  41.33400 7.59400 24.60100
C  42.07100 11.56100 24.80700
C  40.68200 12.21100 25.18500
N  42.62500 10.66400 29.67500
C  43.60500 10.99200 28.69500
C  44.70000 11.79800 29.33600
C  44.40700 11.61700 30.73900
C  43.19100 10.93300 30.86900
C  45.98100 12.24200 28.70800
C  44.90300 11.92400 32.09300
O  45.97100 12.47800 32.37600
C  43.81800 11.41600 33.09400
C  44.31900 10.61900 34.20900
O  44.78000 9.50800 34.06000
O  43.97400 11.22200 35.41900
C  44.26500 10.27600 36.54100
H  37.74200 7.99200 32.09000
H  38.58600 8.41600 25.77000
H  44.10300 11.02000 26.63100
H  41.78700 9.47200 34.56200
H  38.86700 9.28800 34.06100
H  39.94200 6.82100 33.53100
H  39.00200 7.27600 34.92600
H  40.77200 7.47300 35.02100
H  39.69300 11.79900 33.99200
H  41.39400 11.88000 34.48700
H  40.02000 10.29700 36.47900
H  39.10200 11.78700 35.99000
H  36.51300 6.30400 31.36400
H  35.66100 5.84500 29.92400
H  35.28500 7.41000 30.77300
H  34.63900 7.78500 28.39800
H  34.89000 6.09400 28.02800
H  34.15800 7.17200 26.74900
H  40.48100 9.51200 24.25000
H  43.18200 9.59400 24.90600
H  40.90300 6.91200 25.33300
H  42.42100 7.51400 24.59800
H  40.93900 7.30000 23.62800
H  42.45000 11.66100 23.79000
H  42.82500 12.12500 25.35600
H  40.38400 12.67800 24.24600
H  40.90800 13.01300 25.88700
H  39.95000 11.49000 25.55000
H  45.96100 13.24700 28.28600
H  46.24900 11.48000 27.97600
H  46.66900 12.12300 29.54400
H  43.43500 12.29800 33.60700
H  43.85000 10.61400 37.49000
H  45.33400 10.17300 36.72600
H  43.78000 9.32300 36.32700

