158

Mg 26.47300 -0.20500 28.81500
C  28.13800 -0.38400 31.87700
C  23.53800 0.53700 30.64200
C  24.67900 -0.26200 25.99000
C  29.32600 -0.83300 27.15700
N  25.91300 -0.01600 31.05200
C  26.81400 -0.05000 32.09600
C  26.14200 0.35900 33.35900
C  24.65400 0.67300 33.01300
C  24.67500 0.34400 31.47700
C  23.61300 -0.15300 33.84700
C  26.80400 1.58000 34.10900
C  26.98300 1.42000 35.63400
H  25.96900 0.61900 36.50300
N  24.39600 0.15200 28.36400
C  23.35800 0.36100 29.25000
C  22.16200 0.51600 28.49300
C  22.43500 0.15300 27.16900
C  23.87600 -0.04100 27.11400
C  20.86200 0.85900 29.13200
C  21.56000 -0.04700 25.98700
O  21.98000 -0.50100 24.95600
C  20.04300 0.28900 26.12400
N  26.96400 -0.48600 26.89000
C  26.08200 -0.41800 25.82900
C  26.75100 -0.59500 24.50100
C  28.28800 -0.53600 24.80300
C  28.21200 -0.65100 26.38200
C  26.37100 -1.83100 23.65900
C  28.86100 0.79600 24.29400
C  30.14800 0.72800 23.48600
N  28.29900 -0.79400 29.39500
C  29.40500 -0.96700 28.56100
C  30.60400 -1.11000 29.39700
C  30.12300 -0.98400 30.74600
C  28.74300 -0.71100 30.67400
C  32.02700 -1.32300 28.91900
C  30.47300 -1.03400 32.16500
O  31.51700 -1.18500 32.75300
C  29.20300 -0.60100 32.99800
C  28.79600 -1.61400 33.97400
O  28.17000 -2.62000 33.74000
O  29.42500 -1.34300 35.22500
C  29.41500 -2.42400 36.26400
H  22.66100 0.88700 31.19100
H  24.24500 -0.50600 25.01800
H  30.29800 -0.75300 26.66600
H  26.23300 -0.44900 34.08500
H  24.51500 1.75300 33.05900
H  23.91100 -0.76100 34.70100
H  23.04600 -0.79800 33.17500
H  22.98000 0.66000 34.20100
H  26.24200 2.51100 34.03700
H  27.79300 1.71600 33.67300
H  27.10100 2.42500 36.03700
H  27.92700 0.90700 35.81500
H  20.93500 1.21100 30.16100
H  20.24100 -0.03600 29.14000
H  20.25500 1.58300 28.58800
H  19.66800 0.19700 25.10500
H  19.96200 1.32000 26.47100
H  19.74500 -0.38400 26.92800
H  26.43200 0.21800 23.85000
H  28.83800 -1.37900 24.38500
H  27.21400 -2.41900 23.29600
H  25.81400 -1.60900 22.74900
H  25.70200 -2.46600 24.24000
H  29.10900 1.35700 25.19500
H  28.11500 1.24300 23.63600
H  31.08800 1.21600 23.74400
H  29.95000 1.13500 22.49400
H  30.40700 -0.30200 23.24500
H  32.71300 -0.93800 29.67400
H  32.15300 -0.94800 27.90300
H  32.22700 -2.39300 28.87500
H  29.56000 0.24400 33.58700
H  29.43600 -3.42900 35.84300
H  28.53800 -2.36900 36.90900
H  30.30000 -2.30500 36.88900
Mg 16.39600 52.57300 26.24700
C  18.19900 50.89100 28.81100
C  14.31500 53.77200 28.61500
C  14.48400 53.91600 23.74000
C  18.52500 51.12400 23.89700
N  16.21600 52.19700 28.45900
C  17.09700 51.55800 29.30700
C  16.79200 51.87900 30.78800
C  15.42600 52.50400 30.70500
C  15.30900 52.95100 29.19600
C  14.24200 51.49200 31.11100
C  17.76500 52.92000 31.48100
C  18.01300 52.83100 33.03000
H  16.99000 52.03500 33.85500
N  14.54600 53.63500 26.19800
C  13.88500 54.07700 27.23500
C  12.84000 55.04100 26.85600
C  12.84100 55.05000 25.42600
C  13.93700 54.12300 25.02900
C  12.01100 55.72100 27.88000
C  11.97700 55.87100 24.53500
O  12.03900 55.77400 23.34500
C  10.93500 56.80200 25.16600
N  16.34100 52.35700 24.14700
C  15.52800 53.14600 23.33400
C  16.04500 53.05300 21.89700
C  17.48100 52.46600 22.07300
C  17.46000 51.91200 23.42100
C  15.10300 52.17900 21.01800
C  18.72400 53.34000 21.75900
C  19.69100 52.81900 20.69900
N  17.95400 51.09400 26.30500
C  18.74400 50.70600 25.22500
C  19.81000 49.82000 25.78900
C  19.67900 49.90500 27.16600
C  18.53000 50.64700 27.45000
C  20.88200 49.12700 25.05300
C  20.13400 49.45300 28.44000
O  21.10900 48.69900 28.71100
C  19.25300 50.19800 29.54300
C  18.68300 49.11100 30.45800
O  18.07000 48.07700 30.13500
O  19.09400 49.50500 31.70900
C  19.06200 48.38700 32.68000
H  13.71700 54.24200 29.39800
H  13.97600 54.43000 22.92100
H  19.28600 50.89300 23.14900
H  16.82300 51.00300 31.43600
H  15.25700 53.39600 31.30900
H  14.69400 50.64100 31.62000
H  13.74900 51.07100 30.23400
H  13.56900 52.07500 31.73900
H  17.32700 53.90500 31.32000
H  18.71200 53.02900 30.95300
H  18.22500 53.78400 33.51500
H  18.96000 52.30100 33.14100
H  12.07500 56.79300 27.69700
H  12.21400 55.33200 28.87700
H  10.94600 55.57700 27.69700
H  10.38400 56.11300 25.80500
H  10.28500 57.19100 24.38100
H  11.51400 57.56500 25.68700
H  15.99100 54.08000 21.53600
H  17.52500 51.54500 21.49100
H  14.18700 51.81800 21.48500
H  15.59900 51.37000 20.48100
H  14.70900 52.97000 20.38000
H  19.28700 53.55100 22.66800
H  18.29500 54.25100 21.34100
H  19.52500 53.38300 19.78100
H  19.37100 51.78000 20.62700
H  20.75200 52.83900 20.94800
H  21.10700 49.77500 24.20600
H  20.47300 48.20400 24.64100
H  21.84000 48.98100 25.55200
H  19.97700 50.78800 30.10500
H  19.00800 47.43700 32.14700
H  18.02600 48.32800 33.01300
H  19.67700 48.42400 33.57900

