158

Mg -11.84100 38.36300 42.18600
C  -9.58900 35.98100 40.96600
C  -9.73700 40.88000 40.84000
C  -14.29100 40.53900 42.60600
C  -13.79500 35.73900 43.29000
N  -9.97100 38.43200 40.88900
C  -9.20300 37.32200 40.67900
C  -7.93400 37.79100 39.86400
C  -7.81900 39.37000 40.21700
C  -9.22200 39.55700 40.75500
C  -6.68600 39.87300 41.24100
C  -8.10300 37.37800 38.36500
C  -6.96800 36.47700 37.97200
H  -6.33800 36.89500 36.64200
N  -11.98400 40.42600 41.78200
C  -11.00100 41.28000 41.30500
C  -11.52700 42.63900 41.38700
C  -12.87200 42.56200 41.78100
C  -13.11400 41.15100 42.11800
C  -10.73100 43.83300 41.03200
C  -13.78300 43.76800 42.05900
O  -13.37900 44.88000 41.75400
C  -15.23600 43.74000 42.63700
N  -13.74000 38.17000 42.93800
C  -14.56900 39.27600 43.02500
C  -15.84500 38.78600 43.81000
C  -15.81400 37.20800 43.65900
C  -14.34700 37.00900 43.25200
C  -15.87800 39.38500 45.21400
C  -16.77600 36.73200 42.52600
C  -17.95500 35.86400 42.91700
N  -11.70900 36.30600 42.18800
C  -12.54100 35.35500 42.79000
C  -11.84300 34.06700 42.84100
C  -10.71400 34.28400 42.04700
C  -10.68600 35.63400 41.68500
C  -12.30800 32.76900 43.43900
C  -9.55600 33.60800 41.48700
O  -9.21700 32.41200 41.56800
C  -8.78800 34.69300 40.66500
C  -7.40500 34.70200 41.03400
O  -6.91700 35.40800 41.91100
O  -6.73300 33.80300 40.25800
C  -5.33100 33.45500 40.64700
H  -9.02200 41.69300 40.69900
H  -15.14100 41.20400 42.77100
H  -14.46500 34.90100 43.49200
H  -7.13500 37.23500 40.35300
H  -7.81600 40.03700 39.35600
H  -6.07000 40.66700 40.81900
H  -6.07900 39.05400 41.62600
H  -7.17700 40.34700 42.09100
H  -8.00500 38.21800 37.67700
H  -9.07400 36.89800 38.25200
H  -7.37800 35.46800 37.91000
H  -6.12000 36.39000 38.65200
H  -11.26900 44.33900 40.23000
H  -9.81000 43.42600 40.61600
H  -10.52900 44.38000 41.95300
H  -15.85700 43.20900 41.91600
H  -15.63200 44.74700 42.76600
H  -15.31700 43.30500 43.63300
H  -16.73200 39.14900 43.29100
H  -16.09800 36.72400 44.59300
H  -16.75100 40.01900 45.36900
H  -14.98200 40.00000 45.28900
H  -15.83100 38.60800 45.97700
H  -16.09600 36.35300 41.76300
H  -17.20700 37.64000 42.10400
H  -18.15600 34.99300 42.29200
H  -18.93500 36.34100 42.91900
H  -17.84800 35.56400 43.95900
H  -12.74900 32.02700 42.77400
H  -13.02900 33.13600 44.16900
H  -11.58100 32.39100 44.15800
H  -8.84100 34.52800 39.58900
H  -5.28500 33.46600 41.73600
H  -4.63500 34.14500 40.16900
H  -5.19700 32.42400 40.31900
Mg -5.55300 26.18100 25.61000
C  -3.81200 27.59900 28.33300
C  -7.12700 24.04100 27.76900
C  -6.63500 24.59900 22.95000
C  -3.69900 28.44100 23.46700
N  -5.52800 25.95700 27.78900
C  -4.72200 26.60500 28.69200
C  -5.14600 26.30400 30.09800
C  -5.96800 24.94200 29.92700
C  -6.29400 25.01600 28.40900
C  -5.20900 23.62900 30.27300
C  -6.09000 27.37800 30.65400
C  -5.70600 27.92800 32.06200
H  -4.97000 27.06400 33.08700
N  -6.65900 24.49000 25.41800
C  -7.28500 23.79900 26.38400
C  -8.10600 22.71500 25.83700
C  -7.96800 22.83600 24.42700
C  -7.07400 24.01300 24.20400
C  -8.96000 21.74900 26.65700
C  -8.65000 22.00000 23.35400
O  -8.44500 22.23500 22.18400
C  -9.64700 20.88900 23.66900
N  -5.15700 26.49400 23.46400
C  -5.83300 25.72900 22.58000
C  -5.56800 26.17300 21.07800
C  -4.70300 27.43400 21.33900
C  -4.52500 27.51000 22.82500
C  -4.83600 25.04500 20.34300
C  -5.29500 28.74000 20.67200
C  -4.37000 29.49500 19.72700
N  -3.97700 27.64900 25.82900
C  -3.37600 28.47900 24.81900
C  -2.46400 29.45000 25.46800
C  -2.55200 29.07200 26.82600
C  -3.50800 28.05100 27.02200
C  -1.67000 30.52200 24.74100
C  -2.01800 29.34000 28.14900
O  -1.22200 30.16300 28.59800
C  -2.80000 28.38900 29.16500
C  -1.75200 27.55000 29.80700
O  -1.26200 26.50900 29.38600
O  -1.24500 28.18600 30.90000
C  -0.40100 27.43000 31.74100
H  -7.75000 23.48900 28.47600
H  -7.15400 24.19800 22.07700
H  -3.32800 29.16500 22.73900
H  -4.27000 26.16000 30.73200
H  -6.89400 24.99100 30.50000
H  -4.21300 23.91900 30.61000
H  -5.17600 22.93600 29.43200
H  -5.73000 23.05200 31.03700
H  -7.14500 27.13400 30.78200
H  -6.01200 28.21700 29.96300
H  -6.56200 28.40600 32.53900
H  -5.16500 28.86700 31.94800
H  -8.62300 20.79200 26.25900
H  -10.02500 21.87800 26.46300
H  -8.78300 21.84800 27.72800
H  -10.23500 20.52200 22.82800
H  -10.38300 21.31900 24.34800
H  -9.09600 20.10100 24.18300
H  -6.49700 26.42300 20.56600
H  -3.73200 27.22500 20.89200
H  -4.39600 24.22100 20.90400
H  -4.14200 25.36500 19.56600
H  -5.68300 24.65300 19.77900
H  -5.61100 29.46700 21.42000
H  -6.21900 28.59000 20.11500
H  -5.00600 30.21300 19.20800
H  -3.90200 28.90900 18.93600
H  -3.60800 30.02800 20.29600
H  -2.02400 30.61900 23.71500
H  -0.60200 30.30800 24.71400
H  -1.71300 31.56000 25.07200
H  -3.36600 28.90600 29.94000
H  -0.42200 26.36000 31.53500
H  -0.75600 27.54300 32.76500
H  0.61100 27.76200 31.50900

