158

Mg 26.14500 50.69400 27.60000
C  24.05700 52.05800 29.98900
C  28.27900 49.66900 30.00900
C  28.30200 49.79000 25.18800
C  24.04500 52.05000 25.16000
N  26.10200 50.78200 29.70500
C  25.11100 51.29400 30.52700
C  25.40400 51.04600 32.03000
C  26.88800 50.73400 31.97300
C  27.10600 50.27600 30.46900
C  27.91000 51.83200 32.43000
C  24.50900 50.01900 32.65400
C  24.03300 50.19000 34.14500
H  24.83500 50.88500 35.29900
N  27.94800 49.83900 27.62100
C  28.66400 49.34500 28.72200
C  29.93500 48.77500 28.33600
C  30.04300 48.86800 26.87300
C  28.70600 49.49700 26.49300
C  31.01900 48.12200 29.27400
C  31.18800 48.41400 25.98400
O  31.09200 48.41900 24.78600
C  32.50900 47.94500 26.49800
N  26.27500 51.09600 25.47200
C  27.26800 50.53200 24.64100
C  26.92700 50.67200 23.16300
C  25.47700 51.37500 23.13700
C  25.21500 51.46500 24.68600
C  27.99000 51.36700 22.25900
C  24.38800 50.66900 22.35800
C  23.96900 49.23800 22.70100
N  24.35000 51.68500 27.48300
C  23.65800 52.15500 26.48800
C  22.54900 52.98500 26.91100
C  22.73400 53.02200 28.32000
C  23.78900 52.18400 28.60300
C  21.57500 53.72300 26.09700
C  22.19000 53.47900 29.58500
O  21.29500 54.26800 29.84000
C  23.03000 52.83200 30.74200
C  23.70600 53.90800 31.56000
O  24.68700 54.56100 31.25500
O  22.89800 54.23400 32.68000
C  23.52400 54.91800 33.85200
H  28.97400 49.34100 30.78400
H  28.91700 49.46600 24.34500
H  23.40000 52.41600 24.35900
H  25.37100 52.05500 32.44000
H  27.08500 49.82300 32.53700
H  28.59000 52.12300 31.62900
H  28.50500 51.33500 33.19600
H  27.42800 52.71100 32.85800
H  24.92400 49.01700 32.54400
H  23.59000 49.85800 32.08900
H  23.88200 49.14300 34.40900
H  23.12600 50.79400 34.17000
H  30.40100 47.82500 30.12200
H  31.77700 48.84700 29.57200
H  31.53800 47.25300 28.87000
H  32.92000 48.71900 27.14600
H  33.14800 47.88500 25.61700
H  32.47900 46.91400 26.85000
H  26.83300 49.64900 22.79800
H  25.60700 52.42500 22.87200
H  27.51500 52.19700 21.73500
H  28.25000 50.61800 21.51100
H  28.84100 51.82000 22.76700
H  24.67600 50.70000 21.30700
H  23.52900 51.31500 22.54100
H  24.28500 48.62800 21.85400
H  22.88900 49.12400 22.60300
H  24.35000 48.83400 23.63900
H  22.09600 54.59000 25.69200
H  20.68600 54.01000 26.65800
H  21.28900 53.00300 25.33000
H  22.46500 52.18300 31.41200
H  23.75400 55.97300 33.70400
H  24.42400 54.32800 34.02600
H  22.91600 54.80100 34.74900
Mg -10.65300 16.92400 40.29100
C  -7.26800 16.67900 40.30300
C  -10.40100 20.40800 40.16100
C  -13.97300 17.14200 39.45200
C  -10.96200 13.43800 39.81500
N  -9.01500 18.35700 40.23400
C  -7.66800 18.03500 40.20600
C  -6.81900 19.27100 39.88500
C  -7.83800 20.40200 40.28100
C  -9.15400 19.71600 40.24800
C  -7.57100 21.15900 41.56800
C  -6.34700 19.35500 38.37600
C  -4.87400 19.19600 38.11900
H  -4.26500 18.11100 37.21300
N  -12.05500 18.62800 39.87800
C  -11.68400 19.93600 39.94500
C  -12.95800 20.71100 39.78900
C  -14.06900 19.77200 39.68100
C  -13.41100 18.46100 39.68700
C  -13.15400 22.17100 39.83700
C  -15.57800 20.12900 39.54500
O  -16.00700 21.25900 39.58500
C  -16.61500 19.04600 39.30500
N  -12.20500 15.48800 39.81000
C  -13.47100 15.86600 39.61500
C  -14.46900 14.68700 39.32400
C  -13.37600 13.53900 39.13200
C  -12.10600 14.15800 39.77000
C  -15.50400 14.43800 40.36500
C  -13.22200 13.16700 37.63800
C  -13.40800 11.74200 37.20000
N  -9.45500 15.36400 40.12400
C  -9.69500 13.99600 40.00400
C  -8.39200 13.29200 39.96300
C  -7.41900 14.32400 40.08300
C  -8.09700 15.56000 40.25200
C  -8.20700 11.86500 39.80200
C  -6.01400 14.61700 40.10900
O  -5.08000 13.79100 39.87900
C  -5.81000 16.15100 40.31600
C  -5.03300 16.35100 41.58200
O  -5.05600 15.65700 42.61900
O  -4.28500 17.51500 41.52700
C  -3.33800 17.79800 42.65800
H  -10.34900 21.49800 40.10600
H  -15.03200 17.14800 39.18500
H  -10.91000 12.34900 39.75300
H  -5.89000 19.40600 40.43900
H  -7.94700 21.15900 39.50500
H  -6.78100 20.72600 42.18200
H  -8.46000 21.05100 42.19000
H  -7.30500 22.16900 41.25800
H  -6.79300 20.17500 37.81400
H  -6.82600 18.50800 37.88500
H  -4.40200 19.14400 39.09900
H  -4.50600 20.16800 37.79100
H  -13.85800 22.60600 39.12700
H  -12.19500 22.67500 39.95800
H  -13.57600 22.31300 40.83200
H  -17.62900 19.43300 39.41300
H  -16.57900 18.30100 40.10000
H  -16.34300 18.51400 38.39400
H  -14.91300 15.00800 38.38200
H  -13.67100 12.68300 39.73900
H  -15.18500 14.58700 41.39700
H  -16.00300 13.48500 40.19100
H  -16.23300 15.23200 40.20300
H  -12.30800 13.59600 37.22800
H  -13.99300 13.68600 37.06900
H  -14.48100 11.60300 37.06400
H  -13.13100 11.08300 38.02300
H  -12.79300 11.48800 36.33700
H  -7.14200 11.64000 39.86400
H  -8.69400 11.67300 38.84600
H  -8.63400 11.30100 40.63100
H  -5.23200 16.53000 39.47400
H  -3.85200 17.82500 43.61900
H  -2.73400 18.69200 42.50400
H  -2.63500 16.96700 42.71200

