158

Mg 1.02100 7.68000 27.13700
C  1.95200 10.18200 29.63400
C  0.73800 5.45700 29.80500
C  0.15600 5.51100 24.88200
C  1.77600 10.12700 24.73100
N  1.34000 7.89700 29.50400
C  1.58900 8.97200 30.22600
C  1.16700 8.72400 31.64500
C  1.17800 7.13700 31.77000
C  1.06600 6.78300 30.27300
C  2.53000 6.47600 32.31500
C  -0.15300 9.41000 32.12700
C  -0.31400 9.77200 33.60900
H  0.80100 9.28200 34.58000
N  0.65300 5.66000 27.31700
C  0.56800 4.89200 28.48300
C  0.17100 3.52400 28.13200
C  -0.13200 3.57600 26.69600
C  0.27500 4.91300 26.17000
C  -0.03400 2.45700 29.19300
C  -0.80500 2.54800 25.77300
O  -0.90200 2.65100 24.59400
C  -1.44700 1.30200 26.42400
N  1.20200 7.70300 25.13600
C  0.59400 6.74200 24.39100
C  0.56100 7.14900 22.88300
C  1.08700 8.64300 22.80300
C  1.49400 8.84400 24.29300
C  1.28400 6.07700 22.00200
C  -0.01000 9.62300 22.33900
C  0.55600 10.93400 21.81300
N  1.71700 9.72000 27.10400
C  1.94000 10.57500 26.04800
C  2.34000 11.88200 26.53100
C  2.37800 11.76700 27.92200
C  1.93600 10.44700 28.21900
C  2.82700 13.00700 25.67900
C  2.78100 12.45900 29.14600
O  3.37900 13.50700 29.31300
C  2.40600 11.47600 30.30200
C  3.51800 11.29200 31.27700
O  4.43600 10.46900 31.19400
O  3.38400 12.19600 32.23400
C  4.19300 11.96600 33.42900
H  0.66700 4.74100 30.62700
H  -0.36100 4.98300 24.07800
H  1.92900 10.93700 24.01400
H  1.97600 9.09600 32.27300
H  0.33800 6.82300 32.38900
H  2.35400 5.98500 33.27200
H  3.32200 7.20200 32.50100
H  2.83300 5.82200 31.49700
H  -0.94300 8.66800 32.00500
H  -0.41400 10.28600 31.53200
H  -1.31800 9.58800 33.99300
H  -0.24300 10.85900 33.66100
H  0.13900 1.41800 28.91300
H  -1.09400 2.53000 29.43300
H  0.43900 2.54800 30.17100
H  -1.73600 1.46300 27.46200
H  -0.94100 0.36000 26.21100
H  -2.39300 1.26500 25.88400
H  -0.49200 7.00900 22.63500
H  1.94600 8.68600 22.13300
H  2.07400 5.76800 22.68700
H  1.75300 6.57100 21.15200
H  0.76600 5.17100 21.68600
H  -0.60900 9.94500 23.19100
H  -0.58500 9.14400 21.54600
H  0.05400 11.05800 20.85300
H  1.62100 10.99200 21.59100
H  0.28500 11.70000 22.54000
H  2.10400 13.02000 24.86300
H  3.83400 12.85500 25.29100
H  2.70900 14.00000 26.11200
H  1.55000 11.91400 30.81600
H  4.52900 12.91400 33.84700
H  4.94500 11.17700 33.44700
H  3.47600 11.63500 34.18100
Mg 0.57400 43.47200 26.04400
C  2.87100 43.70300 28.66100
C  -1.94500 43.41000 28.16300
C  -1.42400 42.93500 23.35400
C  3.33000 43.39800 23.81200
N  0.48300 43.48600 28.20000
C  1.49700 43.78600 29.07600
C  0.94700 43.89800 30.48400
C  -0.64100 43.74300 30.27800
C  -0.71600 43.45600 28.78000
C  -1.23300 42.45700 30.95900
C  1.34300 45.20600 31.26800
C  1.62600 45.06300 32.75900
H  0.96500 43.84600 33.37100
N  -1.38800 43.25800 25.85600
C  -2.30500 43.22400 26.82900
C  -3.61400 42.90400 26.33800
C  -3.55100 42.80700 24.93500
C  -2.04300 43.00400 24.63800
C  -4.91200 42.91600 27.22900
C  -4.61600 42.39400 23.85300
O  -4.43300 42.33400 22.62500
C  -6.01600 41.93900 24.32900
N  0.92400 43.36500 23.87700
C  -0.14300 43.17300 22.99200
C  0.37300 43.07900 21.57600
C  1.89300 43.35700 21.70100
C  2.09600 43.43200 23.22200
C  0.05400 41.77900 20.83200
C  2.40400 44.62100 21.03700
C  3.64300 44.49200 20.19600
N  2.72900 43.53000 26.11100
C  3.69700 43.51500 25.13900
C  4.99100 43.47300 25.78400
C  4.71400 43.62300 27.15600
C  3.30600 43.58400 27.31600
C  6.28000 43.50400 25.14800
C  5.35000 43.78900 28.45000
O  6.48200 43.87800 28.85800
C  4.12900 43.71100 29.46900
C  4.35900 42.66700 30.45800
O  4.37800 41.44100 30.31800
O  4.66100 43.24700 31.67300
C  4.91600 42.29300 32.72100
H  -2.76000 43.71000 28.82400
H  -2.15800 42.87100 22.54800
H  4.17600 43.24300 23.13900
H  1.46000 43.09100 31.00800
H  -1.15700 44.66000 30.56300
H  -0.44100 41.78900 31.29800
H  -1.91600 41.81900 30.39800
H  -1.73500 42.76400 31.87700
H  0.53000 45.92900 31.19800
H  2.15100 45.67800 30.70800
H  1.28500 45.98200 33.23600
H  2.66900 44.89800 33.02700
H  -5.71700 43.52700 26.82200
H  -4.76200 43.35800 28.21400
H  -5.23000 41.88300 27.37200
H  -5.88300 41.33400 25.22500
H  -6.58100 41.44100 23.54000
H  -6.47800 42.87500 24.64200
H  -0.13500 43.93800 21.13700
H  2.48800 42.48800 21.42200
H  -0.81100 42.03800 20.22100
H  -0.41500 41.02800 21.46700
H  0.85700 41.40500 20.19600
H  2.68600 45.34900 21.79800
H  1.60700 45.05100 20.43000
H  3.80000 43.46400 19.86900
H  4.50500 44.60100 20.85400
H  3.73600 45.26300 19.43200
H  6.59100 44.47300 24.75800
H  6.15400 42.79700 24.32800
H  7.07600 43.20800 25.83200
H  4.07900 44.68200 29.96100
H  5.43200 42.86200 33.49400
H  5.47200 41.37600 32.52700
H  3.98400 41.81200 33.01700

