158

Mg -0.31900 6.82600 26.46200
C  0.58200 8.96700 29.16700
C  -0.13400 4.08000 28.41700
C  -0.29100 4.99800 23.55200
C  0.22600 9.78000 24.34700
N  0.16800 6.62100 28.52700
C  0.26400 7.63600 29.47200
C  0.18600 7.00800 30.87800
C  0.09300 5.52000 30.62000
C  -0.00800 5.38800 29.09000
C  1.25800 4.57600 31.06700
C  -1.00200 7.57500 31.74200
C  -0.90100 7.59300 33.30200
H  0.30900 7.06800 33.98100
N  -0.28100 4.83700 26.05500
C  -0.25200 3.83000 27.05200
C  -0.28000 2.55400 26.39700
C  -0.26400 2.78500 24.99600
C  -0.24500 4.26000 24.76700
C  -0.38100 1.27200 27.17100
C  -0.38500 1.75500 23.90000
O  -0.31000 2.10100 22.72100
C  -0.70300 0.34500 24.10200
N  -0.14000 7.32100 24.26600
C  -0.22700 6.37400 23.31200
C  -0.28000 6.97800 21.83600
C  -0.07300 8.47200 22.10000
C  0.05600 8.53600 23.68400
C  0.91700 6.48400 20.94500
C  -1.17700 9.47800 21.58400
C  -2.53800 9.50500 22.38900
N  0.23700 8.98000 26.66800
C  0.44000 10.00900 25.74900
C  0.81400 11.22100 26.44800
C  0.74900 10.83200 27.77400
C  0.42300 9.51400 27.87500
C  1.11200 12.49700 25.87700
C  1.09800 11.33900 29.11400
O  1.50400 12.42500 29.51100
C  0.84500 10.14400 30.07900
C  2.03000 9.90900 31.00100
O  3.05500 9.25500 30.73700
O  1.64600 10.62000 32.15600
C  2.62400 10.65700 33.20500
H  -0.28500 3.21800 29.07000
H  -0.24500 4.49700 22.58300
H  0.31700 10.63300 23.67100
H  1.14600 7.18900 31.36200
H  -0.79300 5.08500 31.08100
H  2.07300 5.09300 31.57200
H  1.69600 4.19100 30.14600
H  0.92200 3.72500 31.65900
H  -1.82200 6.97400 31.34800
H  -1.17300 8.57100 31.33400
H  -1.77900 7.14000 33.76200
H  -0.97100 8.66200 33.50700
H  -1.34000 0.83600 26.89200
H  -0.32500 1.32100 28.25800
H  0.33300 0.53900 26.79400
H  -1.65500 0.35600 24.63300
H  0.18300 -0.13900 24.51200
H  -0.91700 -0.23600 23.20600
H  -1.20600 6.54800 21.45500
H  0.86900 8.79400 21.65500
H  1.48100 7.29600 20.48600
H  0.50100 5.80500 20.20100
H  1.56200 5.98300 21.66700
H  -1.30900 9.21600 20.53400
H  -0.62200 10.41100 21.68700
H  -2.44300 10.20200 23.22100
H  -2.79800 8.53600 22.81500
H  -3.31200 9.87200 21.71500
H  0.26400 12.88300 25.31100
H  2.00200 12.32900 25.27100
H  1.53500 13.16400 26.62900
H  -0.04700 10.42300 30.64100
H  2.76600 11.67800 33.55700
H  3.59600 10.23900 32.94300
H  2.26900 10.04200 34.03200
Mg 37.52300 50.22400 25.24700
C  38.03500 48.22400 28.18400
C  35.94400 52.52700 27.32200
C  37.08500 51.97100 22.62300
C  38.65100 47.43700 23.33000
N  37.05900 50.33400 27.51500
C  37.58700 49.51400 28.48400
C  37.29000 49.99500 29.88200
C  36.57400 51.35700 29.57600
C  36.51300 51.39400 28.05800
C  35.26000 51.56700 30.37300
C  38.53300 50.19700 30.77900
C  38.43700 49.54500 32.21500
H  37.15700 50.00000 33.02000
N  36.60700 51.97100 24.89700
C  36.01400 52.78800 25.87100
C  35.46800 53.94000 25.22500
C  35.68500 53.74900 23.82800
C  36.43500 52.49700 23.71600
C  34.78000 55.02900 26.03000
C  35.10100 54.61200 22.73600
O  35.32100 54.36900 21.56000
C  34.11000 55.76400 22.96600
N  37.77000 49.71300 23.32500
C  37.63500 50.69700 22.35700
C  38.16400 50.25700 20.93600
C  38.98400 48.99800 21.30000
C  38.35300 48.68300 22.73800
C  36.92500 50.04000 19.92700
C  40.55700 49.19500 21.32300
C  41.25900 48.30300 20.25400
N  38.17400 48.26200 25.62800
C  38.55200 47.24700 24.73800
C  38.83500 46.02500 25.49500
C  38.70500 46.39800 26.85600
C  38.29900 47.77500 26.84800
C  39.27500 44.76400 24.90800
C  38.80700 45.95700 28.22400
O  39.17300 44.87700 28.60300
C  38.40300 47.15100 29.08400
C  37.22600 46.54500 29.62300
O  36.19800 46.29200 28.99100
O  37.43300 46.32700 30.93800
C  36.38300 45.74800 31.65000
H  35.58800 53.27300 28.03500
H  36.98400 52.63100 21.75900
H  39.13600 46.70400 22.68300
H  36.71400 49.29200 30.48400
H  37.17900 52.21600 29.86700
H  34.80800 50.66500 30.78700
H  34.53900 52.14600 29.79600
H  35.64000 52.11700 31.23300
H  38.89800 51.21700 30.89600
H  39.39900 49.77700 30.26700
H  39.31900 49.85600 32.77400
H  38.57300 48.46600 32.14300
H  34.64900 54.85100 27.09800
H  33.76200 55.03000 25.64100
H  35.31300 55.97700 25.95000
H  33.16700 55.38000 23.35600
H  33.80800 56.26500 22.04600
H  34.48600 56.48000 23.69600
H  38.74900 51.07200 20.51100
H  38.75000 48.11700 20.70300
H  36.03200 50.41000 20.43200
H  36.82500 48.97400 19.71800
H  36.98600 50.50200 18.94200
H  40.94500 49.05400 22.33200
H  40.80200 50.23100 21.08900
H  41.95700 49.00400 19.79900
H  40.68500 47.78700 19.48400
H  41.85900 47.53300 20.74000
H  40.04100 44.19200 25.43100
H  39.48300 44.85000 23.84100
H  38.46400 44.06800 25.12200
H  39.09700 47.45700 29.86700
H  35.69900 45.20600 30.99700
H  35.74900 46.50800 32.10800
H  36.78100 44.97900 32.31200

