158

Mg 49.03200 45.13300 42.07000
C  45.96600 45.74000 40.48200
C  48.96200 42.00100 40.95600
C  52.34500 44.99000 42.83400
C  49.25000 48.60200 42.67600
N  47.55100 43.92100 40.97200
C  46.37800 44.36400 40.43500
C  45.69100 43.24000 39.67500
C  46.60000 41.99200 40.02500
C  47.79100 42.63200 40.67000
C  45.98800 40.88000 40.98400
C  45.65500 43.64900 38.16800
C  44.26700 43.54600 37.53600
H  44.16900 42.56100 36.30700
N  50.41100 43.62800 41.95400
C  50.14900 42.37800 41.54000
C  51.34700 41.55000 41.61100
C  52.33600 42.41000 42.20600
C  51.73900 43.72600 42.43200
C  51.48100 40.02400 41.23400
C  53.77900 41.97900 42.50400
O  54.02900 40.76300 42.38400
C  54.96200 42.85700 42.85000
N  50.66100 46.66600 42.31000
C  51.84300 46.28400 42.67300
C  52.78600 47.51800 42.89800
C  51.79600 48.62400 43.04000
C  50.48800 47.96600 42.70600
C  53.76000 47.48600 44.16400
C  52.06600 49.95400 42.30400
C  52.09300 51.28400 43.12700
N  47.80300 46.78000 41.83200
C  48.10700 48.08400 42.12400
C  46.95300 48.91200 41.69300
C  46.07300 47.99000 41.05500
C  46.64300 46.75900 41.12500
C  46.83600 50.45700 41.88100
C  44.86800 47.90000 40.32500
O  44.11400 48.73200 39.83800
C  44.67600 46.42600 40.02700
C  43.44000 45.95900 40.75500
O  42.43200 45.56200 40.12000
O  43.64600 45.93600 42.05800
C  42.59600 45.39200 42.88000
H  48.99000 40.93400 40.72300
H  53.42000 44.90000 43.00600
H  49.26400 49.68200 42.83700
H  44.72200 43.05300 40.13900
H  47.04800 41.46100 39.18500
H  45.90600 39.92100 40.47400
H  44.97000 41.16700 41.24600
H  46.49800 40.70600 41.93200
H  46.29600 42.98300 37.58900
H  46.14600 44.60800 38.00400
H  44.00500 44.54800 37.19700
H  43.57700 43.21600 38.31400
H  50.62900 39.81200 40.58800
H  51.29100 39.45800 42.14600
H  52.39000 39.84700 40.65900
H  54.89400 43.22800 43.87300
H  55.05200 43.69900 42.16400
H  55.84400 42.21800 42.80600
H  53.45900 47.69200 42.05900
H  51.68700 48.82100 44.10600
H  53.77500 46.41800 44.38400
H  53.37400 48.01000 45.03900
H  54.78400 47.76300 43.91600
H  51.37400 50.03100 41.46600
H  52.98400 49.79900 41.73900
H  53.03400 51.82800 43.05200
H  51.85200 51.07400 44.16900
H  51.29500 51.98300 42.87500
H  46.48500 50.87700 40.93800
H  47.76500 50.94500 42.17600
H  46.01400 50.68100 42.56000
H  44.38900 46.27900 38.98600
H  42.18400 46.19300 43.49400
H  42.96300 44.62700 43.56400
H  41.68400 45.01500 42.41600
Mg 48.47400 33.63100 26.72600
C  46.48500 32.23400 29.35400
C  48.80600 36.46400 28.63600
C  50.01000 34.94600 24.17600
C  47.48400 30.90100 24.73500
N  47.69500 34.24000 28.75300
C  47.10100 33.42900 29.71300
C  47.19200 34.14200 31.08500
C  47.57000 35.62400 30.67900
C  48.10300 35.42600 29.22700
C  46.35800 36.63700 30.75600
C  48.33200 33.52500 31.97100
C  48.15800 33.63900 33.56700
H  47.07900 34.46800 34.30600
N  49.26400 35.44100 26.36700
C  49.40400 36.42000 27.29200
C  50.17500 37.49000 26.70300
C  50.61300 37.03400 25.38000
C  49.98800 35.77000 25.25300
C  50.44300 38.77300 27.57700
C  51.35100 37.80500 24.29900
O  51.64000 37.27700 23.17600
C  51.84300 39.10700 24.52300
N  48.41200 33.18400 24.65600
C  49.30900 33.82600 23.88900
C  49.58500 33.10000 22.59100
C  48.86200 31.76300 22.83700
C  48.21500 31.92300 24.15600
C  49.11000 33.80200 21.31800
C  49.90100 30.54300 22.74600
C  49.93500 29.93200 21.37500
N  47.28000 31.96000 26.94400
C  46.97900 30.89500 26.04800
C  46.12700 29.82300 26.72100
C  45.90900 30.38800 27.99400
C  46.65200 31.65100 28.09600
C  45.58200 28.62800 26.09400
C  45.26100 30.11900 29.30600
O  44.64400 29.16800 29.71100
C  45.46400 31.42900 30.21700
C  45.93600 31.06500 31.63900
O  46.99800 30.60100 31.93700
O  44.93200 31.35500 32.55600
C  45.14200 30.64900 33.81300
H  48.98200 37.30300 29.31200
H  50.80600 35.08400 23.44200
H  47.42500 29.98200 24.14800
H  46.31300 34.15700 31.72900
H  48.35200 36.06800 31.29600
H  46.69600 37.55500 31.23700
H  45.54900 36.27200 31.38900
H  45.95800 36.87500 29.77100
H  49.35100 33.82900 31.73600
H  48.36400 32.46900 31.70300
H  49.17100 33.97800 33.78600
H  48.17100 32.62000 33.95200
H  49.57400 39.02100 28.18600
H  50.74800 39.64300 26.99600
H  51.29400 38.62100 28.24100
H  51.04600 39.78800 24.82300
H  52.23100 39.52300 23.59400
H  52.48800 38.96100 25.39000
H  50.67100 33.00700 22.62500
H  48.07900 31.45900 22.14200
H  48.04300 33.69600 21.12200
H  49.53000 33.56200 20.34100
H  49.19400 34.88100 21.44500
H  49.70300 29.72000 23.43300
H  50.93800 30.82500 22.92700
H  50.85400 30.25400 20.88600
H  49.06700 30.15500 20.75500
H  50.07800 28.85200 21.42900
H  46.34600 28.29900 25.38900
H  44.67200 28.92500 25.57300
H  45.30600 27.79700 26.74400
H  44.50700 31.94700 30.27300
H  45.87400 31.19000 34.41200
H  45.44700 29.62000 33.62500
H  44.19100 30.72200 34.34100

