158

Mg 44.14000 3.40300 47.50700
C  41.71400 5.88000 46.76300
C  41.55000 1.12200 47.19000
C  46.47800 0.95200 47.56800
C  46.57300 5.71200 46.76700
N  41.88600 3.57700 47.20300
C  41.09900 4.67400 46.91800
C  39.69200 4.28900 46.50100
C  39.64700 2.91400 47.21000
C  41.12200 2.48600 47.14100
C  39.08600 2.81200 48.60300
C  39.47100 4.32400 44.97600
C  38.31700 5.15900 44.41100
H  38.61700 6.41700 43.61300
N  44.06100 1.26600 47.40600
C  42.89000 0.50200 47.32800
C  43.28900 -0.82900 47.49000
C  44.72000 -0.90000 47.63600
C  45.17500 0.46600 47.53600
C  42.37600 -1.94500 47.34800
C  45.62900 -2.16000 47.65600
O  45.10600 -3.27100 47.65700
C  47.08400 -2.12600 47.52300
N  46.22900 3.35000 47.04200
C  47.00500 2.28000 47.25100
C  48.47700 2.60900 47.28400
C  48.52100 4.08100 46.97800
C  47.03800 4.42900 46.94500
C  49.12700 2.30000 48.65700
C  49.34200 4.61000 45.75200
C  50.75500 5.15800 46.02500
N  44.15500 5.45900 47.01500
C  45.25900 6.25200 46.76200
C  44.78000 7.59700 46.66600
C  43.40700 7.49400 46.61800
C  43.08500 6.18500 46.81500
C  45.55700 8.89500 46.45600
C  42.11000 8.26500 46.54800
O  41.82200 9.45500 46.59000
C  41.03600 7.16400 46.59600
C  40.08100 7.37000 47.68300
O  40.42100 7.40700 48.86900
O  38.74800 7.53600 47.28300
C  37.81300 7.56900 48.40100
H  40.74300 0.39500 47.08000
H  47.31000 0.28500 47.80100
H  47.38700 6.43900 46.71700
H  38.98500 5.03800 46.85800
H  39.16500 2.14000 46.61200
H  38.50500 3.66300 48.95800
H  39.90400 2.63800 49.30200
H  38.45500 1.92400 48.65900
H  39.19600 3.30400 44.70600
H  40.38100 4.48900 44.39900
H  37.64300 5.47600 45.20700
H  37.83000 4.37500 43.83100
H  41.39900 -1.66600 46.95300
H  42.15600 -2.44600 48.29100
H  42.77900 -2.74400 46.72600
H  47.49000 -1.46800 46.75500
H  47.53000 -3.12000 47.46900
H  47.39700 -1.78900 48.51100
H  49.06000 2.04600 46.55500
H  48.77800 4.67000 47.85800
H  48.37500 2.25300 49.44400
H  49.88100 3.07600 48.78900
H  49.78800 1.43600 48.59100
H  48.80700 5.16400 44.98100
H  49.53400 3.65000 45.27200
H  50.77900 5.16600 47.11500
H  50.92400 6.14600 45.59800
H  51.54400 4.47700 45.70800
H  46.31600 9.02300 47.22800
H  44.99100 9.81100 46.62300
H  46.17300 8.93400 45.55800
H  40.53900 7.21500 45.62800
H  37.62000 8.61000 48.65700
H  38.10500 6.94100 49.24300
H  36.85900 7.16700 48.05800
Mg 41.68000 41.21400 26.68000
C  41.33900 43.79700 29.01200
C  42.25400 39.14900 29.27300
C  42.16200 38.76600 24.41700
C  41.07700 43.40500 24.12200
N  41.85200 41.42300 28.96600
C  41.60100 42.56500 29.69300
C  41.55700 42.29100 31.22500
C  42.10900 40.81500 31.26300
C  42.23700 40.45600 29.75000
C  43.37600 40.65400 32.12800
C  40.16200 42.53300 31.91300
C  40.36600 43.13700 33.29400
H  39.71800 42.61300 34.54900
N  42.16100 39.23400 26.85100
C  42.22200 38.50400 27.98200
C  42.62800 37.10600 27.59300
C  42.71200 37.02100 26.17400
C  42.31300 38.37300 25.74900
C  42.84600 36.04500 28.64000
C  43.26900 35.90100 25.25400
O  43.51100 36.07100 24.05900
C  43.58800 34.52100 25.81300
N  41.58000 41.14700 24.54800
C  41.89400 40.03300 23.85600
C  41.74600 40.19800 22.37300
C  41.33100 41.66700 22.18700
C  41.25500 42.12500 23.72900
C  43.02000 39.83600 21.58200
C  40.07600 41.78400 21.34600
C  38.70600 41.24300 22.00000
N  41.44200 43.22900 26.52000
C  41.19200 44.03300 25.39000
C  40.94300 45.36800 25.90500
C  40.98900 45.30500 27.24700
C  41.32600 44.02300 27.61100
C  40.73200 46.54300 25.00500
C  40.75300 46.09100 28.43100
O  40.36800 47.26600 28.51000
C  41.06500 45.21900 29.65800
C  42.33800 45.71700 30.36500
O  43.47400 45.85500 29.91700
O  42.03100 46.00300 31.70200
C  43.14200 46.45000 32.57800
H  42.28500 38.41500 30.08100
H  42.33800 37.99000 23.67000
H  40.88100 44.05100 23.26400
H  42.28300 42.95400 31.69600
H  41.37800 40.08200 31.60500
H  44.24500 40.35000 31.54500
H  43.13100 39.83500 32.80500
H  43.58500 41.57400 32.67400
H  39.71500 41.55800 32.10800
H  39.49800 43.19600 31.36000
H  39.89800 44.10000 33.08700
H  41.36500 43.49400 33.54300
H  42.69400 36.41600 29.65400
H  43.90600 35.80100 28.56100
H  42.26400 35.13500 28.49300
H  42.70600 33.88900 25.70900
H  43.73200 34.56700 26.89300
H  44.53500 34.13800 25.43600
H  40.90100 39.58500 22.05800
H  42.08200 42.27800 21.68600
H  43.73500 39.30300 22.20800
H  43.52400 40.71100 21.17300
H  42.79100 39.22900 20.70700
H  40.22000 41.25200 20.40600
H  40.04600 42.81500 20.99300
H  38.32400 40.43400 21.37700
H  38.02000 42.08800 21.96300
H  38.76800 40.93700 23.04500
H  40.07100 47.32200 25.38500
H  40.29500 46.10900 24.10600
H  41.71200 46.87200 24.66000
H  40.32200 45.21900 30.45600
H  42.85200 47.35700 33.10800
H  44.10900 46.60000 32.09900
H  43.34300 45.73100 33.37300

