158

Mg 9.35700 3.23900 27.23000
C  10.52800 1.69000 30.16000
C  7.33800 5.17300 29.28500
C  7.57000 4.04400 24.51300
C  10.82000 0.57300 25.46700
N  9.06000 3.43500 29.49700
C  9.62900 2.64500 30.48100
C  9.27700 3.14900 31.85600
C  8.07000 4.09600 31.57300
C  8.21400 4.31000 30.04500
C  6.69400 3.57100 31.92200
C  10.56000 3.81800 32.46900
C  10.37300 4.80100 33.66500
H  10.86500 4.15600 34.97700
N  7.84900 4.55000 26.96200
C  7.20000 5.33500 27.91000
C  6.24700 6.22600 27.28500
C  6.35200 5.96400 25.89800
C  7.29400 4.81000 25.69500
C  5.32400 7.13700 28.02100
C  5.66200 6.67000 24.74400
O  5.96600 6.36300 23.57900
C  4.51500 7.54400 24.97300
N  9.11200 2.42300 25.26900
C  8.32800 2.96100 24.28500
C  8.44700 2.20200 23.02600
C  9.73500 1.31400 23.28700
C  9.98300 1.46900 24.73300
C  7.28800 1.35200 22.50000
C  11.01100 1.67600 22.53200
C  11.67700 0.49500 21.89500
N  10.56700 1.59600 27.69300
C  11.07600 0.57700 26.86000
C  11.98100 -0.28700 27.60500
C  11.79800 0.14000 28.92500
C  10.92600 1.23000 28.88800
C  12.89100 -1.20800 27.06300
C  12.22000 -0.12600 30.25500
O  12.93100 -0.99900 30.71500
C  11.33400 0.82900 31.13900
C  10.44600 -0.03400 32.01300
O  9.37400 -0.55600 31.66500
O  11.06700 -0.14700 33.22700
C  10.28900 -0.72800 34.28700
H  6.66400 5.67200 29.98400
H  6.98300 4.24200 23.61400
H  11.25700 -0.29500 24.96900
H  9.12200 2.29400 32.51300
H  8.06700 5.01000 32.16700
H  6.80700 2.56400 32.32600
H  6.09100 3.44800 31.02200
H  6.19600 4.21800 32.64400
H  11.06400 4.31900 31.64300
H  11.09500 2.92400 32.79000
H  9.34200 5.14200 33.76100
H  10.98100 5.69100 33.50500
H  5.73500 8.14100 27.91300
H  5.33500 6.85500 29.07300
H  4.27800 7.05800 27.72700
H  3.70600 7.14000 25.58100
H  4.07700 7.55400 23.97500
H  4.85600 8.56500 25.14100
H  8.58900 2.90900 22.20800
H  9.44800 0.26400 23.24200
H  6.78900 0.95500 23.38400
H  7.83600 0.57300 21.97000
H  6.68900 1.98800 21.84800
H  11.75100 2.09300 23.21500
H  10.83400 2.32700 21.67600
H  11.93800 0.72700 20.86300
H  10.95700 -0.32100 21.84700
H  12.50600 0.11900 22.49500
H  12.28100 -1.96200 26.56600
H  13.61700 -1.59200 27.77900
H  13.34500 -0.54400 26.32700
H  12.09400 1.36000 31.71200
H  9.29400 -0.31100 34.44300
H  10.76800 -0.37600 35.20100
H  10.21600 -1.81500 34.31500
Mg 36.55400 0.95300 29.68600
C  34.31000 2.39000 31.97200
C  38.90600 1.18100 32.06700
C  38.76200 -0.00600 27.36900
C  34.07000 1.15000 27.12200
N  36.61400 1.78200 31.77200
C  35.55900 2.17300 32.51700
C  35.84300 2.20200 33.99700
C  37.35500 2.05000 33.94700
C  37.67200 1.67100 32.50600
C  38.22100 3.10400 34.57600
C  35.04400 1.09800 34.77100
C  34.31800 1.48100 36.08500
H  34.81900 2.73300 36.82500
N  38.43700 0.47400 29.75000
C  39.23600 0.53600 30.86000
C  40.57200 0.02600 30.54300
C  40.53400 -0.31700 29.19300
C  39.13400 -0.02300 28.71200
C  41.70900 0.12800 31.59700
C  41.76000 -0.80900 28.30900
O  41.68900 -0.92700 27.06600
C  43.07600 -1.11600 28.91000
N  36.42000 0.73100 27.49900
C  37.54400 0.38600 26.79800
C  37.20200 0.19800 25.31000
C  35.69600 0.42700 25.22500
C  35.34800 0.77900 26.67000
C  38.09200 1.00700 24.36200
C  34.85000 -0.75000 24.71400
C  34.14800 -1.77100 25.70400
N  34.58900 1.64800 29.49100
C  33.68000 1.65900 28.45200
C  32.41400 2.26200 28.96100
C  32.64100 2.47100 30.33000
C  33.93900 2.15300 30.61600
C  31.14400 2.29100 28.15600
C  31.97700 2.92400 31.51900
O  30.81500 3.19900 31.68000
C  33.01700 2.78200 32.64500
C  33.08100 4.11200 33.32300
O  33.70600 5.08900 32.93000
O  32.14700 4.12100 34.39500
C  31.79600 5.44500 34.93800
H  39.67400 1.16100 32.84400
H  39.47400 -0.09100 26.54600
H  33.27900 1.18800 26.36900
H  35.58900 3.16600 34.43700
H  37.70800 1.16100 34.47000
H  38.79500 2.63300 35.37500
H  37.59900 3.92200 34.93800
H  38.99600 3.40700 33.87300
H  35.72800 0.29000 35.03000
H  34.31500 0.62400 34.11400
H  34.44400 0.69800 36.83200
H  33.28100 1.52200 35.75100
H  42.32800 -0.76500 31.51200
H  41.39600 0.09400 32.64000
H  42.46000 0.87600 31.34400
H  43.50200 -0.32500 29.52700
H  43.75200 -1.37900 28.09600
H  43.03300 -2.02700 29.50700
H  37.48600 -0.85000 25.20600
H  35.46700 1.24800 24.54500
H  38.66900 0.30900 23.75500
H  38.72800 1.69400 24.92000
H  37.48600 1.67400 23.74900
H  35.57200 -1.31600 24.12500
H  34.02800 -0.38100 24.10100
H  33.10400 -1.95500 25.45000
H  34.28400 -1.58100 26.76900
H  34.56100 -2.77200 25.57800
H  31.13100 1.86700 27.15200
H  30.78000 3.31900 28.16300
H  30.51300 1.72700 28.84200
H  32.58100 2.14100 33.41100
H  32.49400 5.61200 35.75800
H  30.74200 5.43500 35.21700
H  31.87200 6.20200 34.15800

