158

Mg 46.92800 23.78700 28.08200
C  47.89900 26.35600 30.62700
C  46.22300 21.78700 30.55600
C  46.18500 21.59500 25.73800
C  48.09400 25.99700 25.74300
N  46.98700 24.09100 30.41500
C  47.38600 25.15100 31.21100
C  46.97200 24.81900 32.66000
C  46.52200 23.31600 32.58900
C  46.53700 23.04200 31.12100
C  47.34400 22.32600 33.39500
C  46.04300 25.87000 33.35600
C  45.53000 25.48100 34.78500
H  45.35500 26.57700 35.86200
N  46.36100 21.95400 28.11300
C  46.09500 21.21700 29.22700
C  45.71100 19.87500 28.90800
C  45.53400 19.86400 27.50300
C  46.00900 21.22100 27.05900
C  45.46300 18.79600 29.99000
C  45.08500 18.78000 26.52100
O  44.93300 18.93700 25.27100
C  44.76000 17.42400 27.10800
N  47.17200 23.83300 26.04700
C  46.72900 22.84700 25.30100
C  47.03500 23.08400 23.80200
C  47.39000 24.60000 23.87400
C  47.53300 24.85800 25.31200
C  48.07600 22.11500 23.09500
C  46.22900 25.40100 23.12800
C  46.13300 25.18200 21.62900
N  47.79200 25.74000 28.10500
C  48.28900 26.47200 27.11100
C  48.87000 27.66500 27.56900
C  48.58700 27.70600 28.91900
C  48.06000 26.45200 29.24400
C  49.59600 28.66700 26.72400
C  48.75200 28.50100 30.07100
O  49.19800 29.63100 30.16200
C  48.20600 27.67300 31.28100
C  49.32800 27.60300 32.27900
O  50.33300 26.88400 32.12800
O  49.02100 28.30300 33.42800
C  49.82300 28.03400 34.69200
H  45.86800 21.08100 31.30900
H  45.87600 20.91600 24.94000
H  48.57000 26.69600 25.05200
H  47.95900 24.77000 33.11900
H  45.51800 23.20700 32.99900
H  46.78300 21.48600 33.80400
H  47.88000 22.78000 34.22900
H  48.01700 21.84000 32.68800
H  45.17700 25.96800 32.70100
H  46.64800 26.77300 33.44100
H  46.11800 24.67300 35.21900
H  44.49300 25.16700 34.66800
H  44.40000 18.57300 30.07900
H  45.70900 19.23900 30.95500
H  46.10900 17.93800 29.80200
H  45.69700 17.14900 27.59300
H  44.52900 16.73600 26.29500
H  43.97300 17.55900 27.85100
H  46.04200 22.98400 23.36400
H  48.39900 24.64000 23.46500
H  47.62300 21.95000 22.11800
H  48.08600 21.18100 23.65600
H  49.03800 22.58000 22.87900
H  46.37700 26.46400 23.31800
H  45.29400 25.06400 23.57600
H  46.89500 24.48700 21.27500
H  46.40100 26.13400 21.16900
H  45.17500 24.82300 21.25500
H  50.33600 28.12900 26.13200
H  50.15900 29.27100 27.43500
H  48.90400 29.22600 26.09400
H  47.32700 28.17700 31.68400
H  50.19100 28.98500 35.07800
H  50.59200 27.28400 34.50800
H  49.07500 27.62400 35.37100
Mg 41.50800 40.44300 27.27500
C  41.02300 43.09200 29.59300
C  42.06000 38.34700 29.91100
C  42.38100 38.22200 24.98800
C  41.17900 42.89200 24.67700
N  41.61200 40.73300 29.50400
C  41.25200 41.84500 30.18800
C  41.16700 41.50600 31.72900
C  41.71900 40.01800 31.81100
C  41.78900 39.66500 30.31500
C  43.01600 39.83800 32.66000
C  39.76400 41.68400 32.42900
C  39.67200 42.57900 33.65600
H  39.24200 41.96500 34.94100
N  42.03700 38.55000 27.46700
C  42.24600 37.83000 28.62400
C  42.57500 36.49500 28.22700
C  42.67800 36.42300 26.80700
C  42.32300 37.75200 26.31400
C  42.75200 35.37900 29.35100
C  43.02400 35.20800 25.92600
O  43.04400 35.12600 24.69200
C  43.28900 33.92200 26.65400
N  41.79200 40.61800 25.10600
C  42.10600 39.49800 24.41300
C  42.28000 39.76400 22.88300
C  41.86700 41.30600 22.79300
C  41.53200 41.63100 24.29100
C  43.78800 39.45900 22.44300
C  40.68700 41.48800 21.78100
C  39.37300 41.04100 22.35300
N  41.10500 42.55900 27.11100
C  41.00300 43.36000 26.03100
C  40.78600 44.74200 26.49900
C  40.71400 44.61600 27.86500
C  41.01900 43.30700 28.19100
C  40.61600 45.91600 25.55000
C  40.52300 45.42500 29.04000
O  40.24900 46.60000 29.20900
C  40.67100 44.38500 30.23500
C  41.63300 44.77700 31.32200
O  42.84700 44.79400 31.24200
O  40.92300 45.32300 32.31100
C  41.78900 45.96500 33.37600
H  42.17200 37.66900 30.75900
H  42.77500 37.51700 24.25300
H  40.95900 43.50100 23.79800
H  41.96800 42.14500 32.10300
H  40.87100 39.46000 32.20800
H  43.90200 39.77900 32.02900
H  42.86100 38.81700 33.00800
H  43.09100 40.55400 33.47800
H  39.37000 40.74100 32.80800
H  39.06700 42.04700 31.67300
H  38.80800 43.22600 33.50400
H  40.52100 43.20800 33.92300
H  42.05000 34.54600 29.31800
H  42.80800 35.83700 30.33800
H  43.71400 35.02300 28.98100
H  44.31300 33.96000 27.02500
H  43.23100 33.08400 25.96000
H  42.54100 33.76100 27.43000
H  41.52200 39.12900 22.42400
H  42.66200 41.95000 22.42000
H  44.40300 39.00800 23.22200
H  44.29000 40.37300 22.12600
H  43.79300 38.79400 21.57900
H  40.97400 41.01400 20.84300
H  40.53100 42.54300 21.55400
H  38.75500 41.93100 22.24000
H  39.47700 40.71100 23.38700
H  38.95100 40.19900 21.80400
H  39.66500 45.91900 25.01700
H  41.38600 45.98900 24.78100
H  40.64500 46.81600 26.16400
H  39.68900 44.12000 30.62700
H  42.05000 45.23700 34.14300
H  41.31300 46.73500 33.98300
H  42.78100 46.25700 33.03000

