158

Mg -1.46000 18.13900 27.34900
C  -2.17800 15.86800 29.94600
C  -1.86300 20.68600 29.51400
C  -1.07200 20.12400 24.75700
C  -1.10700 15.31200 25.23400
N  -1.93100 18.20700 29.54400
C  -2.09500 17.21800 30.42100
C  -2.22800 17.80600 31.85800
C  -2.40800 19.32700 31.58500
C  -1.97100 19.41200 30.11800
C  -3.85000 19.72000 31.91100
C  -1.11500 17.38800 32.81800
C  -1.63600 16.87100 34.18900
H  -0.54800 16.53900 35.23200
N  -1.42800 20.10200 27.25000
C  -1.61800 20.98300 28.23500
C  -1.55600 22.36300 27.64500
C  -1.22400 22.19100 26.20500
C  -1.18600 20.72700 26.01200
C  -1.94900 23.57700 28.43200
C  -1.10900 23.32100 25.11700
O  -0.75200 23.10900 23.96700
C  -1.66500 24.67000 25.47800
N  -1.16700 17.75400 25.25900
C  -1.00100 18.77100 24.38200
C  -0.66500 18.22300 23.01100
C  -0.44600 16.70800 23.26200
C  -0.92400 16.57800 24.66400
C  -1.84000 18.49600 22.05800
C  1.03100 16.22600 23.10500
C  2.15400 16.83800 23.97600
N  -1.61000 16.06200 27.47900
C  -1.54800 15.04600 26.53600
C  -1.84100 13.73800 27.05000
C  -2.13800 14.04400 28.42500
C  -1.91900 15.46100 28.63500
C  -1.75800 12.45100 26.43700
C  -2.46400 13.42200 29.63300
O  -2.60000 12.22400 29.90700
C  -2.55900 14.57200 30.70400
C  -1.69400 14.10700 31.81900
O  -0.45000 14.15400 31.84900
O  -2.42600 13.55600 32.83700
C  -1.70500 12.90500 33.97900
H  -1.64300 21.53200 30.16800
H  -0.98100 20.79700 23.90200
H  -1.03600 14.47700 24.53400
H  -3.09300 17.37400 32.36000
H  -1.72200 19.89500 32.21300
H  -4.14700 20.60100 31.34100
H  -4.10800 20.06300 32.91300
H  -4.49800 18.92800 31.53400
H  -0.44700 18.21200 33.06700
H  -0.52300 16.60800 32.33800
H  -2.20500 15.96100 34.00100
H  -2.16800 17.69600 34.66400
H  -2.44600 23.28800 29.35800
H  -2.57000 24.25500 27.84600
H  -1.16800 24.16000 28.92100
H  -2.69000 24.42300 25.75700
H  -1.66000 25.45400 24.72100
H  -1.21900 25.06600 26.39000
H  0.26700 18.66700 22.66100
H  -1.13800 16.18900 22.59900
H  -1.58000 18.41000 21.00300
H  -2.23000 19.47400 22.33900
H  -2.56700 17.71400 22.27800
H  1.47900 16.49600 22.14900
H  1.00500 15.15600 23.31100
H  1.73600 17.51000 24.72600
H  2.69000 17.54300 23.34000
H  2.75800 16.01200 24.35200
H  -1.30100 11.75000 27.13700
H  -1.17800 12.52100 25.51700
H  -2.79600 12.20700 26.20900
H  -3.55300 14.74900 31.11400
H  -2.35200 13.09400 34.83600
H  -0.77100 13.40100 34.24100
H  -1.55100 11.83500 33.84100
Mg 8.48200 3.39500 27.78500
C  9.96200 1.95100 30.72200
C  6.48200 5.09800 30.17400
C  7.06200 4.68700 25.28600
C  10.40300 1.33900 25.84500
N  8.13200 3.30200 30.29300
C  8.92200 2.73300 31.22100
C  8.44800 3.02700 32.63100
C  7.34200 4.10800 32.34000
C  7.28300 4.11400 30.85600
C  5.86100 3.71300 32.94500
C  9.55800 3.39100 33.60800
C  9.26900 4.53400 34.60400
H  9.97000 4.29800 35.96100
N  6.94200 4.66600 27.70500
C  6.27300 5.27300 28.78500
C  5.31500 6.27000 28.19100
C  5.57500 6.27800 26.80100
C  6.55600 5.14100 26.58000
C  4.29400 7.12700 28.96700
C  5.04900 7.15100 25.72400
O  5.49700 7.18300 24.54300
C  3.88100 7.98600 26.01600
N  8.59500 2.95400 25.74900
C  7.93500 3.70000 24.88600
C  8.34800 3.36400 23.45900
C  9.58600 2.47000 23.70500
C  9.49300 2.17200 25.19500
C  7.20400 2.56500 22.66500
C  10.88700 3.14100 23.32600
C  11.72300 3.92100 24.32400
N  9.81700 1.90700 28.12600
C  10.49500 1.11400 27.21400
C  11.43000 0.26600 27.83600
C  11.28300 0.57500 29.21700
C  10.28900 1.58800 29.37500
C  12.30700 -0.83900 27.26100
C  11.77900 0.21000 30.52200
O  12.72700 -0.50900 30.77400
C  10.91300 1.10500 31.53600
C  10.09000 0.16700 32.30200
O  9.17800 -0.45800 31.89600
O  10.49900 0.18200 33.61000
C  9.82200 -0.67100 34.58100
H  5.87100 5.78500 30.76400
H  6.64800 5.12800 24.37800
H  11.16400 0.86200 25.22400
H  8.10200 2.02200 32.87300
H  7.58100 5.11600 32.67900
H  5.18500 3.21900 32.24700
H  5.44600 4.66100 33.28700
H  5.91800 3.09000 33.83700
H  10.42800 3.53900 32.96900
H  9.65300 2.53500 34.27700
H  8.18900 4.64700 34.70100
H  9.69000 5.47400 34.24700
H  3.33800 6.60800 28.90000
H  4.30700 8.15000 28.59300
H  4.52200 7.24700 30.02700
H  3.58800 8.40200 25.05200
H  4.27600 8.81400 26.60500
H  3.11400 7.44800 26.57400
H  8.54000 4.20600 22.79400
H  9.66300 1.52800 23.16200
H  6.40800 2.59000 23.40900
H  7.31800 1.51400 22.39900
H  6.86200 3.17900 21.83200
H  10.69800 3.85400 22.52400
H  11.53700 2.39600 22.86600
H  11.15500 4.35800 25.14400
H  12.30100 4.71000 23.84400
H  12.38100 3.09500 24.59500
H  12.20600 -1.64700 27.98600
H  13.35500 -0.57600 27.39900
H  12.06300 -1.18400 26.25600
H  11.58900 1.64300 32.20100
H  9.53900 -0.01900 35.40700
H  10.48200 -1.34900 35.12200
H  8.93500 -1.08400 34.09900

