158

Mg 36.06600 48.27400 25.52300
C  36.46700 46.39100 28.47500
C  35.14700 51.02000 27.43300
C  35.04600 49.72700 22.72900
C  37.04900 45.46500 23.77400
N  35.63900 48.62800 27.71700
C  35.94700 47.67900 28.72500
C  35.75300 48.33000 30.07800
C  35.06600 49.70900 29.70300
C  35.32600 49.82500 28.22400
C  33.52300 49.76500 30.05300
C  36.98500 48.53100 30.87500
C  37.01600 48.35300 32.40900
H  35.70200 48.48400 33.24700
N  35.16900 50.16100 25.09900
C  34.97300 51.20500 25.99000
C  34.48900 52.37300 25.29400
C  34.21700 51.98300 23.92700
C  34.84100 50.60600 23.84900
C  34.25100 53.69000 25.98600
C  33.49500 52.75800 22.82600
O  33.48100 52.29100 21.69600
C  32.89600 54.13000 23.10100
N  36.05300 47.70400 23.57300
C  35.57900 48.45300 22.54400
C  35.78200 47.82200 21.13800
C  36.69200 46.57100 21.57300
C  36.56100 46.52000 23.09000
C  34.55000 47.40900 20.47700
C  38.13400 46.55700 21.04000
C  39.30300 47.10200 21.84100
N  36.67500 46.35400 25.95500
C  37.09300 45.32700 25.16000
C  37.62200 44.26200 25.91700
C  37.28400 44.59300 27.22700
C  36.77100 45.87800 27.23900
C  38.22500 42.93600 25.35800
C  37.36800 44.11200 28.63100
O  37.81300 43.08700 29.11000
C  36.83200 45.33300 29.49200
C  35.74100 44.94100 30.35100
O  34.60800 44.97500 30.02500
O  36.16900 44.71600 31.61900
C  35.09100 44.49600 32.64200
H  35.02100 51.83800 28.14600
H  34.68000 50.26900 21.85500
H  37.39300 44.65700 23.12500
H  35.00000 47.70900 30.56400
H  35.59200 50.49500 30.24500
H  33.29100 50.66300 30.62400
H  33.21200 49.01500 30.78100
H  32.82300 49.69500 29.22000
H  37.35400 49.52100 30.60500
H  37.69500 47.86500 30.38400
H  37.71100 49.17600 32.57900
H  37.46300 47.37400 32.57900
H  34.72200 54.51200 25.44700
H  34.75300 53.72000 26.95300
H  33.18600 53.80400 26.18300
H  32.24800 53.90000 23.94700
H  32.24200 54.45300 22.29200
H  33.71300 54.82500 23.29400
H  36.36300 48.51700 20.53100
H  36.19100 45.65100 21.27400
H  33.72100 47.60100 21.15800
H  34.52700 46.38600 20.10100
H  34.43600 48.12300 19.66200
H  38.08600 47.05900 20.07400
H  38.31100 45.52400 20.74200
H  39.72400 48.02300 21.43800
H  40.06400 46.32100 21.83500
H  39.03700 47.27200 22.88400
H  38.43600 43.00700 24.29100
H  37.62100 42.05000 25.55100
H  39.13600 42.67300 25.89500
H  37.69800 45.45400 30.14200
H  35.47100 44.61700 33.65600
H  34.78400 43.46800 32.45100
H  34.27900 45.21300 32.52800
Mg 6.22700 53.65500 41.05200
C  5.48600 50.13600 40.83300
C  9.31200 52.86100 39.77100
C  6.67000 56.91300 40.60700
C  2.84200 54.26600 41.71100
N  7.22000 51.67600 40.18100
C  6.78600 50.39900 40.25900
C  7.94800 49.50500 39.90400
C  9.25400 50.37700 39.90800
C  8.56500 51.72700 39.77800
C  10.21600 50.20700 41.14200
C  7.69500 48.75900 38.47200
C  6.68000 49.25400 37.46600
H  7.08300 49.76900 36.07800
N  7.86000 54.75900 40.46900
C  9.05800 54.20500 40.07300
C  9.90000 55.35600 39.88900
C  9.20100 56.61000 40.14300
C  7.84200 56.18700 40.38300
C  11.40600 55.13400 39.56600
C  9.89600 57.95400 40.25100
O  11.13100 58.09900 40.09900
C  9.11900 59.16900 40.55500
N  4.95700 55.37600 41.06700
C  5.40000 56.57100 41.03600
C  4.39300 57.70500 41.37800
C  3.14300 56.78600 41.60500
C  3.69300 55.35100 41.52600
C  4.96700 58.69100 42.51200
C  1.85400 57.18300 40.77000
C  1.67000 56.50400 39.37200
N  4.51900 52.48900 41.32400
C  3.22200 52.88900 41.59300
C  2.44800 51.67700 41.91400
C  3.33800 50.60400 41.66000
C  4.52400 51.13300 41.20000
C  0.97800 51.58200 42.41300
C  3.44300 49.13000 41.76800
O  2.66300 48.32500 42.24100
C  4.82400 48.74600 41.14700
C  4.59300 47.97000 39.92200
O  3.93700 48.28700 38.95100
O  5.28100 46.83400 40.09100
C  5.06900 45.72200 39.17600
H  10.29000 52.71500 39.30600
H  6.75300 57.97200 40.35400
H  1.79800 54.43900 41.98300
H  8.10200 48.68400 40.60400
H  9.78600 50.27300 38.96200
H  10.26300 50.97300 41.91600
H  11.22800 50.07200 40.76200
H  9.99000 49.31600 41.72800
H  7.41100 47.73100 38.69700
H  8.65300 48.77900 37.95200
H  6.14000 50.03800 37.99700
H  6.02400 48.41300 37.24100
H  11.76400 55.48300 38.59800
H  11.75400 54.11900 39.76100
H  12.00200 55.71900 40.26600
H  9.84300 59.98300 40.60400
H  8.57300 59.12700 41.49700
H  8.52600 59.35200 39.65900
H  4.19700 58.35700 40.52700
H  2.89700 56.80000 42.66600
H  4.21500 58.80300 43.29300
H  5.12400 59.66900 42.05500
H  5.87700 58.30200 42.96800
H  1.73800 58.25800 40.63200
H  1.10200 57.01100 41.54000
H  2.55700 55.97600 39.02100
H  1.37900 57.17900 38.56700
H  0.80500 55.84600 39.44200
H  0.79200 52.40600 43.10100
H  0.74900 50.61400 42.86000
H  0.37500 51.81100 41.53500
H  5.34200 48.12200 41.87600
H  5.58100 46.02100 38.26100
H  4.00200 45.54000 39.04400
H  5.66700 44.89500 39.55700

