158

Mg 26.18000 -0.13400 29.35000
C  27.85300 -0.60000 32.44100
C  23.29900 0.28300 30.98100
C  24.54500 -0.45100 26.28200
C  29.17700 -1.20300 27.68000
N  25.67000 -0.17400 31.52600
C  26.51500 -0.34500 32.60100
C  25.72600 0.02800 33.92100
C  24.29300 -0.06600 33.39700
C  24.42900 0.04400 31.84200
C  23.45400 -1.25100 33.86600
C  26.13900 1.43000 34.49900
C  25.80200 1.64900 35.93100
H  26.88100 1.82300 37.02700
N  24.26300 -0.02500 28.72200
C  23.23400 0.22300 29.57500
C  22.07900 0.44000 28.78400
C  22.37900 0.20700 27.39600
C  23.82100 -0.14800 27.47400
C  20.73300 0.66600 29.38000
C  21.52300 0.19600 26.07800
O  21.87800 -0.02200 24.90200
C  20.04200 0.50100 26.28900
N  26.77800 -0.69900 27.27600
C  25.89800 -0.72900 26.22700
C  26.62800 -1.19000 24.97000
C  28.18500 -1.20700 25.34800
C  28.04100 -1.09200 26.86900
C  26.05000 -2.44900 24.25800
C  29.03700 -0.11300 24.75800
C  30.45800 -0.55700 24.66400
N  28.11200 -0.62100 29.85800
C  29.24800 -0.98600 29.07800
C  30.36600 -1.11400 29.94500
C  29.87400 -0.96500 31.25100
C  28.50200 -0.76000 31.13500
C  31.71100 -1.38900 29.53300
C  30.32800 -0.93400 32.67800
O  31.37100 -1.16500 33.23100
C  29.03700 -0.57900 33.49300
C  28.80400 -1.57300 34.58400
O  28.39700 -2.69700 34.28900
O  29.08300 -0.99600 35.84600
C  28.73100 -1.87700 36.99200
H  22.38300 0.39600 31.56500
H  24.12700 -0.43300 25.27400
H  30.05000 -1.56500 27.13300
H  25.87700 -0.71500 34.70400
H  23.83600 0.85400 33.76200
H  23.18800 -1.93700 33.06100
H  22.54700 -0.83600 34.30600
H  24.00200 -1.86600 34.57900
H  25.65200 2.14100 33.83100
H  27.21800 1.54500 34.39600
H  25.20100 0.79900 36.25300
H  25.21500 2.56200 35.84100
H  19.91700 0.14400 28.88000
H  20.52900 1.71400 29.15900
H  20.54600 0.54100 30.44700
H  19.53200 -0.29600 26.83000
H  19.62000 0.69800 25.30300
H  20.03000 1.50100 26.72200
H  26.57900 -0.44500 24.17600
H  28.59500 -2.19200 25.12800
H  25.03400 -2.68400 24.57500
H  26.68300 -3.32200 24.41800
H  25.99800 -2.32600 23.17600
H  29.12900 0.73500 25.43600
H  28.70400 0.19800 23.76800
H  30.77200 -0.49100 23.62200
H  30.51700 -1.60200 24.96800
H  31.16000 -0.00600 25.29100
H  31.92500 -0.85100 28.60900
H  31.90100 -2.42200 29.24200
H  32.39000 -1.07300 30.32500
H  29.17000 0.37200 34.01100
H  27.64400 -1.91600 37.06600
H  29.10200 -1.37100 37.88400
H  28.98200 -2.93600 36.93400
Mg 25.75400 51.13900 26.51300
C  23.39600 52.44000 28.92800
C  27.94700 50.52200 29.03700
C  28.07600 51.09200 24.23600
C  23.34000 52.37400 24.15000
N  25.66300 51.47000 28.62100
C  24.64600 51.98900 29.48600
C  25.04100 51.93700 30.95200
C  26.60200 51.56200 30.90500
C  26.77600 51.25000 29.44600
C  27.56400 52.55700 31.56500
C  24.09400 51.10700 31.91700
C  24.54200 50.42500 33.25300
H  25.00100 51.42000 34.37800
N  27.77500 50.75200 26.64100
C  28.48500 50.44400 27.73700
C  29.85300 50.16900 27.35600
C  29.87300 50.32100 25.92000
C  28.52400 50.71100 25.53300
C  30.83900 49.76800 28.40000
C  31.00300 50.04400 24.94200
O  30.83600 49.90900 23.74000
C  32.37600 49.82400 25.58000
N  25.76600 51.85500 24.60700
C  26.89100 51.65200 23.82900
C  26.60300 52.07300 22.40200
C  25.09400 52.11500 22.27200
C  24.63800 52.08400 23.74900
C  27.35300 53.27200 21.95700
C  24.38400 51.00900 21.45400
C  22.85900 51.25300 21.09900
N  23.60000 51.99300 26.43100
C  22.82700 52.42000 25.41300
C  21.61700 53.00700 25.90700
C  21.79200 53.01500 27.30100
C  23.00600 52.41700 27.56000
C  20.57400 53.68600 25.00300
C  21.25300 53.48900 28.63200
O  20.28900 54.18700 28.89600
C  22.27000 52.96400 29.70400
C  22.70200 54.25100 30.45500
O  23.05500 55.31600 29.93700
O  22.67900 54.06500 31.82400
C  22.65500 55.29800 32.61700
H  28.56000 50.06700 29.81700
H  28.89000 51.17800 23.51300
H  22.63600 52.86300 23.47400
H  24.91100 52.95900 31.30700
H  26.67400 50.60400 31.42000
H  28.22200 53.05800 30.85500
H  28.17000 51.99800 32.27800
H  26.98800 53.32000 32.08800
H  23.49100 50.43800 31.30300
H  23.38600 51.83600 32.31200
H  25.36300 49.74400 33.02900
H  23.75000 49.81800 33.69200
H  30.63200 49.96300 29.45200
H  31.77700 50.28000 28.18500
H  30.95500 48.73000 28.08600
H  33.07100 49.42300 24.84200
H  32.39600 49.08000 26.37600
H  32.71700 50.78900 25.95500
H  26.87200 51.26800 21.71800
H  24.74800 53.02100 21.77600
H  27.62700 53.13000 20.91200
H  28.18600 53.51600 22.61700
H  26.69500 54.13400 22.06600
H  24.45000 50.09400 22.04300
H  24.98000 50.94700 20.54400
H  22.65700 52.27400 21.42300
H  22.20000 50.52600 21.57300
H  22.66900 51.26200 20.02500
H  20.56300 53.50000 23.92900
H  20.86800 54.73000 25.10600
H  19.61800 53.40800 25.44700
H  21.93900 52.22500 30.43400
H  23.23900 55.18700 33.53100
H  21.58200 55.37400 32.79300
H  22.92800 56.28400 32.24000

