158

Mg -3.42800 16.71600 26.03600
C  -3.65600 14.44600 28.89100
C  -3.71900 19.31700 28.10400
C  -3.37600 18.71900 23.20300
C  -3.68800 13.94900 24.01300
N  -3.52200 16.86100 28.28900
C  -3.64500 15.84000 29.27800
C  -3.65200 16.43500 30.67200
C  -3.76100 17.89300 30.33100
C  -3.70400 18.11200 28.85900
C  -5.00600 18.55100 31.03700
C  -2.39900 16.09600 31.58000
C  -2.06400 17.00200 32.77200
H  -1.87500 16.27400 34.11300
N  -3.60200 18.67200 25.65500
C  -3.72700 19.58400 26.68100
C  -3.74300 20.94100 26.14900
C  -3.44000 20.79500 24.76300
C  -3.43200 19.37200 24.42400
C  -4.02800 22.21000 26.99700
C  -3.14400 21.84100 23.76900
O  -3.12700 21.57200 22.59100
C  -2.94800 23.34400 24.25500
N  -3.64000 16.36500 23.90500
C  -3.54700 17.32400 23.00100
C  -3.48500 16.86200 21.55400
C  -3.66700 15.28300 21.74500
C  -3.58000 15.13200 23.31700
C  -4.60400 17.46800 20.64200
C  -2.53500 14.47300 21.04500
C  -2.92500 13.06600 20.50700
N  -3.55300 14.63300 26.33800
C  -3.67100 13.66500 25.39100
C  -3.85400 12.37300 25.99500
C  -3.79600 12.63500 27.41000
C  -3.64900 14.04000 27.53200
C  -4.03700 11.11400 25.26900
C  -3.76000 11.97900 28.75000
O  -3.73200 10.78800 29.03500
C  -3.71900 13.13500 29.71500
C  -2.48000 13.00500 30.48700
O  -1.37900 13.39100 30.17700
O  -2.72600 12.44900 31.70900
C  -1.60100 12.37300 32.74100
H  -3.81500 20.19100 28.75000
H  -3.30900 19.25800 22.25600
H  -3.78200 13.02500 23.43800
H  -4.52500 15.97400 31.13300
H  -2.94600 18.50500 30.71700
H  -4.61700 19.04100 31.93000
H  -5.76700 17.81100 31.28300
H  -5.37700 19.34100 30.38400
H  -1.51900 15.84800 30.98700
H  -2.73600 15.17500 32.05600
H  -2.91200 17.67900 32.86700
H  -1.17500 17.60500 32.58300
H  -3.06100 22.57100 27.34900
H  -4.55700 21.96800 27.91900
H  -4.67400 22.88400 26.43500
H  -3.87400 23.64400 24.74700
H  -2.69900 23.81800 23.30600
H  -2.08200 23.32300 24.91600
H  -2.51400 17.17600 21.17000
H  -4.64900 14.88100 21.49700
H  -5.38200 16.70600 20.58000
H  -4.28300 17.68500 19.62300
H  -5.16300 18.32700 21.01300
H  -1.74500 14.16900 21.73300
H  -2.13500 15.07800 20.23200
H  -2.21800 12.38800 20.98500
H  -2.96200 12.91700 19.42800
H  -3.92100 12.92900 20.92700
H  -4.93600 11.22700 24.66300
H  -3.96900 10.18600 25.83700
H  -3.15100 11.07100 24.63600
H  -4.56900 13.09100 30.39500
H  -1.25200 13.37600 32.98500
H  -0.82600 11.72900 32.32500
H  -1.93400 11.89400 33.66100
Mg -0.31600 7.06900 26.20700
C  0.32100 9.14800 28.84800
C  0.10300 4.34200 28.31200
C  -0.36800 4.90500 23.50800
C  0.07800 9.77600 23.96800
N  0.08500 6.84000 28.30300
C  0.19100 7.82400 29.23100
C  0.29800 7.30700 30.68900
C  0.59800 5.78500 30.36300
C  0.22500 5.65100 28.90400
C  2.05200 5.26600 30.74600
C  -1.02600 7.75700 31.42900
C  -0.80900 8.18500 32.85700
H  0.39400 7.60500 33.59600
N  -0.45000 4.97200 25.96400
C  -0.24000 4.06200 26.98000
C  -0.34700 2.74200 26.37900
C  -0.65500 2.87200 25.02700
C  -0.44100 4.27900 24.77400
C  -0.37800 1.51900 27.24500
C  -1.08500 1.79800 24.01700
O  -1.42300 2.08000 22.88300
C  -1.23500 0.34900 24.48100
N  -0.17300 7.27800 24.09400
C  -0.28300 6.23000 23.17900
C  -0.37000 6.73200 21.73600
C  -0.25300 8.27300 21.93800
C  -0.06700 8.51600 23.41000
C  0.71500 6.15300 20.75700
C  -1.17500 9.13100 21.14600
C  -2.51900 9.49500 21.79900
N  0.21000 9.10300 26.34600
C  0.30300 10.03600 25.33600
C  0.46700 11.36700 25.99100
C  0.48800 11.08600 27.35700
C  0.39700 9.68400 27.51900
C  0.63000 12.73000 25.10500
C  0.65800 11.59500 28.67500
O  0.98800 12.71400 28.99300
C  0.48500 10.39900 29.66700
C  1.65100 10.35100 30.50200
O  2.77800 10.01400 30.18400
O  1.33100 10.85900 31.72100
C  2.52000 11.16400 32.54100
H  0.26300 3.51900 29.01100
H  -0.54700 4.29500 22.62000
H  -0.06500 10.59300 23.25700
H  1.14500 7.84900 31.10900
H  -0.15500 5.21500 30.90700
H  2.69000 5.11000 29.87600
H  2.04600 4.36100 31.35300
H  2.52600 6.03500 31.35600
H  -1.74800 6.94300 31.49900
H  -1.54000 8.52500 30.85100
H  -1.64000 7.97000 33.52800
H  -0.84300 9.26500 33.00200
H  -0.03200 1.64100 28.27200
H  0.25900 0.73700 26.83200
H  -1.42000 1.21500 27.34200
H  -0.29900 -0.14300 24.74600
H  -1.65200 -0.12700 23.59400
H  -1.76200 0.19100 25.42200
H  -1.39300 6.60500 21.38200
H  0.72000 8.51900 21.51400
H  1.25700 6.85300 20.12000
H  0.14600 5.62200 19.99400
H  1.33300 5.38400 21.22000
H  -1.40000 8.66500 20.18600
H  -0.77800 10.13200 20.97800
H  -3.33000 9.50600 21.07100
H  -2.48900 10.52600 22.15000
H  -2.80800 8.77300 22.56300
H  -0.33500 13.21200 24.94800
H  1.16900 12.42600 24.20800
H  1.28000 13.49000 25.53900
H  -0.37900 10.47900 30.32700
H  2.27800 10.76700 33.52700
H  2.77300 12.21700 32.66400
H  3.44600 10.61700 32.36300

