158

Mg 41.10200 7.34600 29.52400
C  42.75200 8.91800 32.19000
C  38.83700 6.05900 31.61300
C  39.87100 5.82400 26.80600
C  43.96300 8.25500 27.52500
N  40.87700 7.43700 31.64200
C  41.58500 8.22700 32.60500
C  40.95400 8.09400 33.98700
C  39.86600 6.96500 33.75600
C  39.91100 6.73700 32.24400
C  40.05500 5.68100 34.64700
C  40.34000 9.39100 34.51600
C  39.94400 9.35800 36.02000
H  40.31500 10.55600 36.98400
N  39.46900 6.23500 29.20600
C  38.64500 5.81400 30.19800
C  37.62100 4.98100 29.61600
C  37.75800 5.04400 28.21100
C  39.08300 5.67900 27.99600
C  36.59800 4.27300 30.51300
C  36.82700 4.52200 27.14300
O  36.98800 4.62800 25.95600
C  35.50500 3.91300 27.62000
N  41.82800 7.01400 27.45300
C  41.05400 6.45200 26.48800
C  41.75600 6.36400 25.12200
C  42.96200 7.31400 25.39000
C  42.95000 7.62800 26.87100
C  42.19200 4.91000 24.70100
C  42.82800 8.69800 24.51800
C  41.55600 9.56900 24.74000
N  42.96800 8.33500 29.81100
C  43.99200 8.67900 28.93100
C  45.09200 9.36500 29.55600
C  44.60600 9.58800 30.87300
C  43.38400 8.86900 30.94400
C  46.40500 9.63900 28.90900
C  44.84300 10.14600 32.17600
O  45.80500 10.87100 32.54800
C  43.56400 9.81000 33.11300
C  44.08300 9.07800 34.30800
O  44.67700 7.97300 34.31200
O  43.74100 9.83300 35.40800
C  44.06100 9.25500 36.70400
H  38.04100 5.78200 32.30800
H  39.34300 5.31500 25.99600
H  44.79100 8.45000 26.84000
H  41.64300 7.72900 34.74800
H  38.92900 7.47300 33.98400
H  41.04700 5.66900 35.09700
H  39.86700 4.76500 34.08600
H  39.30500 5.83500 35.42300
H  39.49600 9.68500 33.89200
H  41.01500 10.24500 34.46900
H  40.31300 8.44400 36.48300
H  38.88000 9.13300 36.09500
H  35.68600 4.86300 30.42000
H  36.85900 4.22800 31.57100
H  36.30300 3.27100 30.20200
H  35.60800 3.07200 28.30600
H  35.00300 3.45400 26.76900
H  34.88500 4.67200 28.09700
H  41.04500 6.83700 24.44400
H  43.86500 6.91500 24.92800
H  42.96400 4.95000 23.93200
H  41.34100 4.39500 24.25500
H  42.53300 4.32500 25.55500
H  42.86900 8.53200 23.44200
H  43.73300 9.13600 24.93800
H  40.90800 9.45300 23.87100
H  41.88100 10.58800 24.95000
H  41.02400 9.19300 25.61400
H  46.06200 9.80100 27.88700
H  47.12300 8.83800 29.08900
H  46.79900 10.56600 29.32600
H  43.08700 10.73900 33.42200
H  43.75900 8.20800 36.66200
H  43.44800 9.76500 37.44700
H  45.11500 9.39300 36.94900
Mg -0.06200 43.69500 26.93400
C  2.14900 43.29700 29.50400
C  -2.66900 42.90500 29.24600
C  -2.27500 43.27700 24.41000
C  2.46300 44.06500 24.65400
N  -0.15700 43.12100 29.08700
C  0.83200 43.07600 29.93700
C  0.34900 42.70700 31.36900
C  -1.13800 42.36800 31.14700
C  -1.38200 42.88400 29.77300
C  -1.47800 40.84300 31.16700
C  0.54400 43.96800 32.26300
C  1.01300 43.76300 33.74000
H  0.42700 42.68400 34.62100
N  -2.20800 43.34000 26.85900
C  -3.05000 43.11000 27.93900
C  -4.40100 42.90900 27.45100
C  -4.30300 42.86300 25.98800
C  -2.88900 43.13700 25.66700
C  -5.54800 42.47900 28.26700
C  -5.37400 42.56600 24.92100
O  -5.09900 42.35600 23.75000
C  -6.87600 42.27500 25.28400
N  0.06900 43.73600 24.76600
C  -0.95900 43.57900 24.02000
C  -0.48400 43.70100 22.48400
C  0.98700 44.30500 22.63100
C  1.23500 43.96400 24.08900
C  -0.60500 42.45900 21.58600
C  1.03500 45.92000 22.38300
C  1.70800 46.41200 21.11100
N  1.89800 43.74800 26.97600
C  2.85600 43.96200 26.00100
C  4.12300 44.01100 26.67300
C  3.94200 43.66200 27.99400
C  2.54700 43.53600 28.14000
C  5.44000 44.25200 26.01100
C  4.60200 43.34300 29.29700
O  5.76800 43.34900 29.64600
C  3.48300 43.09900 30.26800
C  3.64300 41.67000 30.82000
O  3.66700 40.60100 30.20300
O  3.71000 41.81600 32.19500
C  3.85700 40.55400 32.81100
H  -3.45400 42.76700 29.99300
H  -2.93000 43.28900 23.53600
H  3.21900 44.37400 23.92900
H  0.91800 41.84700 31.72300
H  -1.88500 42.74900 31.84400
H  -1.92700 40.61100 30.20200
H  -2.24500 40.60600 31.90500
H  -0.60900 40.22000 31.37900
H  -0.43000 44.43100 32.42200
H  1.21800 44.69100 31.80300
H  0.77400 44.75200 34.12900
H  2.09300 43.61400 33.75700
H  -6.46800 42.96000 27.93400
H  -5.48200 42.59800 29.34900
H  -5.64400 41.40000 28.14400
H  -7.42500 43.03800 25.83700
H  -6.81400 41.25100 25.65200
H  -7.34900 42.14200 24.31100
H  -1.13900 44.36800 21.92300
H  1.69300 43.76900 21.99700
H  0.23600 42.22700 20.93200
H  -1.43600 42.44600 20.88000
H  -0.66000 41.55100 22.18700
H  1.45000 46.35500 23.29200
H  0.00400 46.22300 22.20000
H  2.61200 45.88000 20.81500
H  1.93100 47.47200 21.23700
H  1.03900 46.27300 20.26200
H  5.37500 44.15700 24.92700
H  6.14400 43.46000 26.26600
H  5.90800 45.18900 26.31300
H  3.53400 43.86000 31.04600
H  3.10600 39.86400 32.42700
H  3.62300 40.53800 33.87600
H  4.81100 40.09000 32.56300

