158

Mg -1.37200 17.67400 27.23700
C  -2.00100 15.31100 29.79700
C  -1.31000 20.13800 29.57800
C  -1.16700 19.73300 24.72900
C  -2.35300 15.10100 25.06200
N  -1.61600 17.71600 29.43800
C  -1.86900 16.64700 30.27000
C  -1.89200 17.10500 31.75200
C  -1.95800 18.66200 31.58500
C  -1.55200 18.90000 30.10500
C  -3.32800 19.42100 31.79600
C  -0.69200 16.53600 32.53700
C  -0.20000 17.24400 33.81800
H  -0.09200 16.42700 35.12900
N  -1.18900 19.70700 27.11400
C  -1.14800 20.52400 28.18600
C  -0.94000 21.90800 27.68900
C  -0.86800 21.89600 26.28700
C  -1.16200 20.40600 25.94800
C  -0.85600 23.05900 28.71300
C  -0.85800 22.97200 25.31700
O  -0.87300 22.79200 24.10400
C  -0.81800 24.44100 25.77400
N  -1.64400 17.46600 25.22200
C  -1.47700 18.42800 24.34700
C  -1.68100 18.01600 22.87000
C  -1.84400 16.45500 22.97600
C  -1.97200 16.32200 24.49600
C  -2.81100 18.68400 22.10600
C  -0.63300 15.64400 22.45600
C  0.86000 15.91400 22.88200
N  -1.91600 15.62400 27.31400
C  -2.25000 14.72700 26.33200
C  -2.37600 13.39400 26.83100
C  -2.28400 13.59600 28.21100
C  -2.05000 14.94100 28.47600
C  -2.79300 12.25900 25.96100
C  -2.33500 12.90400 29.43700
O  -2.33200 11.69000 29.65300
C  -2.25300 13.98400 30.55600
C  -1.15400 13.51300 31.38100
O  0.04600 13.72300 31.22900
O  -1.68100 12.89200 32.44600
C  -0.67000 12.28300 33.38100
H  -1.21500 20.96400 30.28500
H  -1.03600 20.28400 23.79500
H  -2.48500 14.39300 24.24200
H  -2.87500 16.84800 32.14500
H  -1.14700 19.19600 32.08100
H  -3.99200 19.29700 30.94000
H  -3.08200 20.43700 32.10400
H  -3.86500 18.86700 32.56700
H  0.19000 16.28700 31.94500
H  -1.23500 15.65800 32.88600
H  -0.98000 17.97900 34.01400
H  0.64100 17.93000 33.72400
H  -1.33300 23.90500 28.21900
H  0.15300 23.33500 29.02000
H  -1.36100 22.85000 29.65600
H  -1.73500 24.78700 26.25000
H  -0.69200 25.25100 25.05500
H  0.07100 24.33700 26.39600
H  -0.78000 18.20900 22.28700
H  -2.77700 16.15100 22.50200
H  -2.37400 19.28700 21.31100
H  -3.40300 19.25500 22.82100
H  -3.50000 17.95600 21.67600
H  -0.69100 15.62800 21.36700
H  -0.74400 14.63900 22.86300
H  1.38500 15.00300 23.17000
H  0.96500 16.74000 23.58600
H  1.33000 16.18000 21.93500
H  -2.07500 12.27300 25.14100
H  -3.78600 12.27500 25.51100
H  -2.66500 11.30300 26.46900
H  -3.22600 13.83500 31.02300
H  0.28900 12.06200 32.91300
H  -1.00700 11.30900 33.73600
H  -0.60100 12.85700 34.30500
Mg 25.38600 1.08000 29.56100
C  27.39100 1.11900 32.33600
C  22.59100 1.42500 31.68000
C  23.40600 1.18000 26.83300
C  28.10600 0.60000 27.56300
N  25.05700 1.29600 31.79100
C  26.06200 1.31400 32.75100
C  25.39700 1.65500 34.16000
C  23.86000 1.66000 33.85200
C  23.83600 1.50600 32.36800
C  22.90100 0.63300 34.65100
C  25.96400 3.04700 34.75300
C  26.70100 2.89000 36.12400
H  26.15200 3.75000 37.30200
N  23.32500 1.01500 29.30200
C  22.36900 1.15900 30.25400
C  21.03400 1.06600 29.66500
C  21.28300 0.86700 28.26100
C  22.70400 1.03100 28.06100
C  19.78400 1.12600 30.51000
C  20.26300 0.57400 27.22200
O  20.52000 0.33100 26.05900
C  18.82500 0.42300 27.64900
N  25.74500 0.93500 27.46700
C  24.78800 1.09900 26.50300
C  25.27700 1.04700 25.05600
C  26.82000 1.01500 25.34300
C  26.95300 0.94800 26.84600
C  24.74700 -0.06500 24.12200
C  27.71300 2.16800 24.67400
C  27.32400 2.49500 23.20600
N  27.31700 0.76500 29.87700
C  28.33400 0.64900 28.94100
C  29.53400 0.55200 29.69600
C  29.22400 0.71400 31.04200
C  27.84600 0.89800 31.08000
C  30.81400 0.18200 29.10600
C  29.75500 0.77600 32.40300
O  30.87500 0.64000 32.75700
C  28.53600 1.05200 33.24000
C  28.24900 -0.01200 34.29800
O  27.68000 -1.11900 34.12900
O  28.80800 0.37200 35.48200
C  28.63300 -0.54100 36.61500
H  21.71300 1.61000 32.30200
H  22.69000 1.21300 26.00800
H  29.00000 0.57300 26.93800
H  25.55500 0.78900 34.80300
H  23.48800 2.66700 34.03900
H  22.39200 0.00800 33.91700
H  22.15600 1.24000 35.16400
H  23.41000 -0.02800 35.35300
H  25.16000 3.76600 34.90800
H  26.65700 3.50100 34.04500
H  27.68400 3.25600 35.82800
H  26.69900 1.85100 36.45400
H  19.19900 0.20600 30.50500
H  19.23600 1.97200 30.09500
H  20.06000 1.23600 31.55900
H  18.65900 -0.57800 28.04700
H  18.24900 0.32800 26.72800
H  18.51100 1.20300 28.34300
H  24.98800 2.03700 24.70300
H  27.17700 0.06300 24.95100
H  24.01000 -0.75300 24.53500
H  25.54700 -0.66800 23.69400
H  24.29500 0.49800 23.30400
H  28.74000 1.80300 24.69100
H  27.51900 2.98100 25.37400
H  26.72800 3.40200 23.10100
H  26.79500 1.64400 22.77800
H  28.25700 2.64800 22.66400
H  31.58900 0.52500 29.79200
H  30.98600 0.73900 28.18400
H  30.80500 -0.90500 29.02700
H  28.74200 1.99400 33.74900
H  27.57000 -0.54600 36.85500
H  29.21500 -0.13600 37.44300
H  29.07800 -1.52900 36.50000

