158

Mg 47.96300 16.02800 27.84100
C  46.18000 15.73500 30.88700
C  50.42000 17.71500 29.58400
C  49.57200 16.39500 24.97800
C  45.21900 14.57500 26.19400
N  48.23400 16.68000 30.05700
C  47.42600 16.37200 31.10000
C  48.01300 16.87700 32.41800
C  49.06400 17.85000 31.84600
C  49.27800 17.40600 30.41600
C  48.65500 19.33500 31.89200
C  48.63200 15.70500 33.16100
C  48.75900 16.01400 34.72000
H  49.01700 17.41900 35.16000
N  49.77200 16.86800 27.35000
C  50.68900 17.46300 28.21400
C  51.91800 17.76400 27.48700
C  51.76700 17.25200 26.17900
C  50.32200 16.79100 26.07500
C  53.25500 18.20000 28.15800
C  52.76600 17.19500 24.99400
O  52.41300 16.64100 23.94700
C  54.14500 17.73500 25.11900
N  47.41400 15.53300 25.86600
C  48.27200 15.92600 24.88000
C  47.61000 15.80700 23.50800
C  46.21800 15.19000 23.91000
C  46.31700 14.96900 25.39300
C  47.52400 17.06000 22.61700
C  45.86600 13.96100 23.12700
C  46.44300 12.55900 23.58600
N  46.05900 15.31000 28.33500
C  45.08600 14.69600 27.58500
C  44.00600 14.29100 28.45400
C  44.32100 14.70000 29.80700
C  45.60600 15.29100 29.65000
C  42.81400 13.49200 28.04300
C  43.97900 14.68300 31.15200
O  42.97400 14.28200 31.70200
C  45.13500 15.35900 31.94700
C  44.60100 16.49200 32.70600
O  44.23000 17.52800 32.21400
O  44.38700 16.15900 34.03900
C  43.80900 17.18500 34.93600
H  51.31800 18.10800 30.06400
H  50.07800 16.42800 24.01100
H  44.36700 14.19300 25.62800
H  47.35500 17.48000 33.04500
H  50.01600 17.74000 32.36600
H  47.57900 19.40800 32.05300
H  48.91700 19.97500 31.04900
H  49.07700 19.80500 32.78000
H  49.62200 15.47200 32.77000
H  47.96900 14.84400 33.07000
H  49.63800 15.42600 34.98300
H  47.84700 15.67800 35.21300
H  54.07200 17.71400 27.62500
H  53.23400 17.96800 29.22300
H  53.44300 19.25600 27.96300
H  54.80500 17.06000 25.66400
H  53.96200 18.75800 25.44900
H  54.46900 17.91000 24.09400
H  48.24100 15.09100 22.98000
H  45.45400 15.96500 23.84400
H  48.29100 17.69900 23.05400
H  46.58100 17.60600 22.65600
H  47.73500 16.75900 21.59100
H  46.26900 14.12900 22.12800
H  44.79100 13.78300 23.09100
H  46.76900 12.10300 22.65100
H  45.64900 11.94700 24.01400
H  47.28700 12.67200 24.26600
H  42.38900 12.92800 28.87400
H  43.10100 12.72800 27.32100
H  42.12100 14.13200 27.49700
H  45.56800 14.68000 32.68200
H  42.97900 17.55800 34.33600
H  44.61500 17.90600 35.07500
H  43.46000 16.82500 35.90300
Mg 47.60700 24.77400 27.93100
C  48.51000 26.87000 30.62400
C  46.74700 22.37300 30.29700
C  47.19500 22.58500 25.39400
C  48.96400 27.06900 25.70400
N  47.62700 24.68000 30.18000
C  48.01400 25.62900 31.07700
C  47.71000 25.26800 32.53600
C  47.29600 23.74900 32.34300
C  47.09600 23.64300 30.88000
C  48.35800 22.79600 33.00400
C  46.65900 26.11300 33.27700
C  47.29800 26.89100 34.50700
H  46.45700 27.59800 35.56300
N  46.99700 22.74300 27.83500
C  46.63700 21.95900 28.93900
C  46.11400 20.74500 28.42800
C  46.29700 20.78200 26.97100
C  46.81000 22.08500 26.68800
C  45.62000 19.65000 29.36300
C  45.83200 19.72200 25.94900
O  46.18500 19.70000 24.76500
C  45.08900 18.55800 26.39400
N  48.07100 24.82500 25.89200
C  47.77900 23.84600 25.02700
C  48.18600 24.17000 23.58800
C  48.41700 25.70100 23.66700
C  48.49100 25.91400 25.17500
C  49.26300 23.24400 22.83400
C  47.28000 26.60500 23.07700
C  47.85400 27.88700 22.39000
N  48.57900 26.58300 28.07000
C  49.04300 27.34900 27.11000
C  49.61400 28.60100 27.69100
C  49.49900 28.42600 29.03200
C  48.82500 27.16100 29.24300
C  50.26700 29.72000 26.87500
C  49.72900 29.00100 30.37800
O  50.25900 30.06900 30.69900
C  49.04100 28.03400 31.43500
C  50.17500 27.64600 32.35200
O  50.71100 26.56400 32.28900
O  50.58800 28.71100 33.15600
C  51.66600 28.36900 34.01000
H  46.49700 21.59400 31.02100
H  46.97700 21.88300 24.58600
H  49.35700 27.87700 25.08400
H  48.71600 25.23200 32.95600
H  46.27800 23.61400 32.70700
H  47.94700 22.13400 33.76600
H  49.22800 23.25200 33.47700
H  48.73800 22.24000 32.14700
H  45.72900 25.57900 33.47300
H  46.45800 26.87300 32.52200
H  47.82900 27.75900 34.11500
H  47.95100 26.16500 34.99100
H  44.53500 19.54600 29.35700
H  45.86300 19.78700 30.41700
H  46.08400 18.73300 29.00000
H  44.24700 19.02300 26.90600
H  45.64800 17.87400 27.03300
H  44.78000 18.00300 25.50800
H  47.22300 23.96600 23.12000
H  49.37300 25.98200 23.22400
H  48.75600 22.48100 22.24200
H  49.89700 22.83700 23.62200
H  49.91400 23.89400 22.25000
H  46.50900 26.73700 23.83600
H  46.65000 26.12200 22.33000
H  47.71100 28.74200 23.05200
H  47.32300 28.12900 21.47000
H  48.88100 27.87900 22.02500
H  49.82500 29.87600 25.89100
H  51.35400 29.65300 26.81600
H  50.07600 30.54900 27.55600
H  48.23500 28.52200 31.98400
H  52.56900 28.10200 33.46100
H  51.44500 27.51100 34.64600
H  51.93700 29.19100 34.67300

