158

Mg 44.00900 5.18300 47.03000
C  42.07300 7.92900 46.47500
C  41.20200 3.27100 46.06400
C  45.93900 2.38000 46.67300
C  46.83500 7.08300 46.94400
N  41.82800 5.53100 46.24600
C  41.27800 6.80000 46.18000
C  39.72500 6.77700 45.96100
C  39.42800 5.23900 46.13900
C  40.88200 4.58800 46.15900
C  38.70900 4.95300 47.46600
C  39.11800 7.34700 44.59300
C  40.12500 7.66200 43.43900
H  39.56300 7.86100 42.04800
N  43.63600 3.11100 46.50900
C  42.38300 2.55400 46.12600
C  42.56200 1.14100 45.79700
C  43.96700 0.87700 45.84200
C  44.58700 2.15400 46.33500
C  41.46200 0.28300 45.21600
C  44.58100 -0.46800 45.43700
O  43.89800 -1.39900 45.09900
C  46.08800 -0.55500 45.34800
N  46.09400 4.74700 46.85100
C  46.69600 3.57400 46.85400
C  48.24900 3.61700 46.85200
C  48.44300 5.18800 46.98700
C  47.01300 5.72900 46.92100
C  49.02700 2.75200 47.91800
C  49.33900 5.83700 45.91400
C  50.33900 6.85900 46.46700
N  44.33000 7.09100 46.88900
C  45.57300 7.77800 46.89800
C  45.34700 9.16900 46.73600
C  43.97900 9.27500 46.65800
C  43.40700 7.97400 46.71200
C  46.36700 10.16600 46.66700
C  42.90300 10.21100 46.50100
O  42.91500 11.43900 46.51300
C  41.55200 9.37100 46.40300
C  40.65200 9.65600 47.56100
O  40.86200 9.20500 48.67400
O  39.53100 10.36300 47.17500
C  38.39000 10.46600 48.22600
H  40.31100 2.70100 45.79500
H  46.64700 1.55000 46.70000
H  47.75300 7.67500 46.92900
H  39.25100 7.34800 46.76000
H  38.91900 4.88000 45.24500
H  37.81500 5.56000 47.60600
H  39.47300 5.03900 48.23900
H  38.44100 3.89600 47.47800
H  38.77000 8.32400 44.92600
H  38.37000 6.65600 44.20500
H  40.88300 6.88000 43.37400
H  40.51900 8.62500 43.76300
H  41.80800 -0.01400 44.22600
H  40.55100 0.86500 45.07700
H  41.21100 -0.66400 45.69200
H  46.31500 -1.51400 44.88200
H  46.42000 -0.55200 46.38600
H  46.51600 0.29400 44.81500
H  48.59800 3.33000 45.86000
H  48.75800 5.44200 47.99900
H  49.68800 2.03500 47.43100
H  48.25100 2.21100 48.45900
H  49.71600 3.37600 48.48600
H  48.84300 6.27800 45.04900
H  49.88900 5.04000 45.41400
H  51.32700 6.43200 46.29600
H  50.21800 6.98900 47.54200
H  50.02800 7.84200 46.11300
H  47.20500 9.78300 47.25000
H  45.93200 11.07600 47.07900
H  46.53600 10.31800 45.60100
H  41.01600 9.69500 45.51200
H  37.74500 9.59700 48.09600
H  37.75700 11.30900 47.94900
H  38.82800 10.63100 49.21000
Mg 26.78200 50.16700 26.03300
C  24.66000 51.21700 28.82900
C  29.05500 49.27400 28.34200
C  28.45200 49.23500 23.51900
C  24.32400 51.57600 24.00200
N  26.83500 50.24000 28.31700
C  25.85700 50.55500 29.20600
C  26.34800 50.27500 30.66600
C  27.86900 49.82800 30.49200
C  27.93000 49.77100 28.96000
C  28.86200 50.72100 31.31000
C  25.34600 49.08300 31.27600
C  25.57100 48.70300 32.75900
H  26.52100 49.42600 33.74800
N  28.56300 49.52400 25.93900
C  29.36700 49.14800 26.93100
C  30.58200 48.62600 26.39900
C  30.41000 48.59000 24.98300
C  29.11300 49.17500 24.74600
C  31.76200 48.12600 27.28900
C  31.41400 48.11000 23.93200
O  31.19000 48.22900 22.75800
C  32.68600 47.47800 24.37800
N  26.44200 50.41300 23.99600
C  27.24600 49.80500 23.13800
C  26.49600 49.56200 21.76500
C  25.17600 50.33000 21.92000
C  25.34700 50.87900 23.36200
C  27.35500 49.94200 20.51700
C  23.89700 49.53800 21.70100
C  22.80200 50.03500 20.71700
N  24.96800 51.27400 26.31200
C  24.12200 51.79100 25.34400
C  23.06100 52.45100 26.02900
C  23.24200 52.31500 27.39700
C  24.39800 51.48300 27.50900
C  21.81100 53.09000 25.43100
C  22.62700 52.60800 28.69400
O  21.55000 53.22800 29.01800
C  23.68500 51.90900 29.67400
C  24.19500 53.01200 30.46200
O  24.89600 53.95000 30.16200
O  23.73800 52.90800 31.74400
C  24.11900 53.89800 32.70800
H  29.65200 48.86900 29.16100
H  28.85800 48.75800 22.62500
H  23.44400 51.82800 23.40700
H  26.30300 51.26900 31.11100
H  27.95000 48.87800 31.02000
H  29.43700 49.98700 31.87500
H  28.47100 51.51600 31.94700
H  29.61800 51.16300 30.66200
H  25.62600 48.17200 30.74700
H  24.30400 49.33700 31.08000
H  25.83800 47.64700 32.78100
H  24.60500 48.84400 33.24400
H  32.01300 47.08300 27.09400
H  31.62600 48.39800 28.33500
H  32.63500 48.69100 26.96100
H  32.53100 46.56700 24.95700
H  33.38400 48.16200 24.86100
H  33.20000 47.25400 23.44300
H  26.28600 48.49300 21.75400
H  25.29700 51.20000 21.27500
H  28.01900 50.78100 20.72400
H  26.80200 50.16000 19.60300
H  27.96200 49.04500 20.40200
H  23.36800 49.60200 22.65200
H  24.13500 48.47600 21.63100
H  23.16100 50.99900 20.35800
H  21.81400 50.21300 21.14100
H  22.62400 49.32400 19.91000
H  22.19800 53.86200 24.76600
H  21.29500 53.45500 26.32000
H  21.30100 52.38300 24.77700
H  23.08900 51.27700 30.33200
H  23.83100 54.89800 32.38600
H  25.17700 53.74000 32.92000
H  23.54100 53.82500 33.63000

