158

Mg 8.48200 4.64500 27.55600
C  9.70800 2.92100 30.30700
C  6.56300 6.61600 29.72300
C  6.97400 6.04000 24.92900
C  10.06200 2.36800 25.43500
N  8.19300 4.78400 29.67500
C  8.83300 3.95200 30.62800
C  8.58800 4.55500 32.08300
C  7.68300 5.77800 31.78500
C  7.43800 5.75500 30.31000
C  6.31900 5.70100 32.65900
C  9.89200 4.89100 32.81800
C  9.65200 5.94300 33.95200
H  10.42300 5.67400 35.24000
N  7.09600 6.23400 27.28400
C  6.42300 6.91500 28.30800
C  5.61500 7.93500 27.76300
C  5.74000 7.78300 26.32300
C  6.70200 6.69600 26.10200
C  4.73200 8.93500 28.65600
C  4.97200 8.53800 25.30900
O  5.19000 8.39300 24.11200
C  3.93100 9.53100 25.68700
N  8.39200 4.14800 25.51600
C  7.79900 5.01200 24.59600
C  8.23500 4.68500 23.12300
C  9.35400 3.63700 23.36000
C  9.30100 3.32700 24.87400
C  7.09300 4.18900 22.22700
C  10.82500 4.11400 22.89600
C  11.57300 5.03300 23.85700
N  9.63600 2.96700 27.75100
C  10.28900 2.14700 26.81400
C  11.17600 1.27600 27.52100
C  10.97300 1.52400 28.86900
C  9.98500 2.50600 28.97000
C  12.16000 0.45900 26.88800
C  11.42700 1.16900 30.21200
O  12.21000 0.33000 30.63100
C  10.53300 2.02200 31.11500
C  9.68600 1.11200 31.87300
O  8.90700 0.31700 31.40600
O  9.96900 1.23100 33.20000
C  9.11200 0.46400 34.17000
H  6.10700 7.27600 30.46300
H  6.65000 6.54200 24.01400
H  10.74800 1.79900 24.80400
H  8.07200 3.83200 32.71500
H  8.17700 6.73100 31.97800
H  6.07100 6.67800 33.07300
H  6.58700 5.04800 33.49000
H  5.51000 5.19800 32.13000
H  10.53600 5.29300 32.03600
H  10.20400 3.98000 33.32800
H  8.59100 6.05200 34.17900
H  10.06100 6.89500 33.61500
H  5.04500 9.95600 28.44200
H  4.79800 8.77900 29.73200
H  3.68200 8.81300 28.38800
H  4.31300 10.38600 26.24500
H  3.17400 9.04600 26.30300
H  3.66200 9.97600 24.72900
H  8.61200 5.60700 22.67900
H  9.18100 2.64300 22.94700
H  6.25100 3.88000 22.84700
H  7.40300 3.29100 21.69300
H  6.92800 5.14100 21.72300
H  10.80400 4.65300 21.94900
H  11.38000 3.17800 22.83000
H  10.98000 5.06100 24.77100
H  11.72400 6.01500 23.40900
H  12.56600 4.64500 24.08500
H  12.47100 0.92300 25.95200
H  11.61200 -0.41400 26.53300
H  12.90800 0.22400 27.64600
H  11.26100 2.56000 31.72100
H  9.71900 -0.24400 34.73300
H  8.23600 -0.02300 33.74200
H  8.80700 1.25000 34.86100
Mg 47.45500 24.94900 28.63800
C  48.55600 27.30700 31.14800
C  47.11800 22.58800 31.03700
C  46.89700 22.71500 26.21000
C  48.43500 27.27700 26.19900
N  47.86700 24.98000 30.78900
C  48.25100 26.00500 31.66300
C  48.02100 25.63400 33.19600
C  47.74200 24.10000 33.02700
C  47.50100 23.87500 31.53900
C  48.88800 23.21000 33.58100
C  46.94700 26.46300 33.96300
C  47.46100 27.32800 35.16900
H  46.60700 27.36100 36.42000
N  46.97100 22.95400 28.63900
C  46.84900 22.17000 29.72000
C  46.51000 20.81100 29.34000
C  46.55400 20.81100 27.93100
C  46.78700 22.16900 27.51000
C  46.27700 19.63400 30.35200
C  46.19700 19.69900 26.96500
O  46.21300 19.75200 25.70300
C  45.75300 18.34500 27.48400
N  47.72000 24.99400 26.47200
C  47.20900 23.97100 25.72400
C  47.31900 24.28500 24.24100
C  47.82900 25.80800 24.22300
C  48.05000 26.07200 25.67100
C  48.33300 23.28400 23.51600
C  46.77800 26.74900 23.43500
C  45.44800 26.95200 24.20700
N  48.34400 26.90900 28.59500
C  48.54800 27.70800 27.47800
C  49.06900 28.95900 27.98800
C  49.06700 28.85300 29.40100
C  48.66700 27.57700 29.76000
C  49.61100 30.14400 27.23400
C  49.51200 29.53000 30.70700
O  50.00300 30.67400 30.89300
C  49.08000 28.57600 31.90400
C  50.14200 28.28600 32.81500
O  50.94800 27.35100 32.78400
O  50.13800 29.20000 33.87700
C  50.96700 28.76200 34.98700
H  47.06500 21.89000 31.87600
H  46.53500 21.95400 25.51600
H  48.77000 27.99800 25.45000
H  49.03600 25.76400 33.56900
H  46.83200 23.82000 33.55800
H  49.69900 23.88900 33.84700
H  49.32200 22.56500 32.81700
H  48.64700 22.50200 34.37300
H  46.21700 25.76400 34.37000
H  46.43300 27.04600 33.19800
H  47.61800 28.34600 34.81400
H  48.42700 26.93500 35.48600
H  45.26300 19.23700 30.38500
H  46.63600 20.03700 31.29900
H  46.91400 18.80000 30.05700
H  46.55200 17.72800 27.89400
H  45.42200 17.76700 26.62000
H  44.85800 18.38200 28.10400
H  46.28500 24.33200 23.90100
H  48.78300 25.85700 23.69800
H  47.72900 22.97100 22.66400
H  48.56900 22.41700 24.13300
H  49.23500 23.76600 23.14000
H  46.67100 26.29400 22.45100
H  47.07700 27.76800 23.18700
H  45.31300 27.95700 24.60800
H  45.40500 26.37500 25.13000
H  44.65100 26.67000 23.52000
H  50.51600 29.82200 26.71900
H  49.82200 30.96000 27.92500
H  48.88500 30.42500 26.47100
H  48.23200 29.10300 32.34100
H  51.94100 29.25100 34.97500
H  51.08000 27.68200 35.09100
H  50.47200 29.04800 35.91500

