158

Mg 30.71500 58.71200 40.23400
C  28.00900 56.86800 39.18500
C  32.92600 56.22800 39.10700
C  33.22500 60.77700 40.70100
C  28.31600 61.32400 41.13500
N  30.51000 56.88900 39.23000
C  29.29200 56.31800 38.98300
C  29.46600 54.94600 38.31000
C  30.95100 54.58100 38.58300
C  31.51200 55.98100 38.90500
C  31.21400 53.56700 39.74200
C  29.22500 55.00700 36.73200
C  28.12600 54.13200 36.23400
H  27.69600 54.30000 34.77200
N  32.87700 58.50200 39.89600
C  33.54400 57.47700 39.36600
C  34.97500 57.73500 39.48600
C  35.09600 59.02200 40.06700
C  33.68400 59.52200 40.20800
C  36.02300 56.67000 39.18000
C  36.37700 59.62900 40.62500
O  37.47000 59.10900 40.37900
C  36.57100 61.00000 41.48400
N  30.71500 60.82000 40.73800
C  31.95900 61.35000 40.97900
C  31.82300 62.82100 41.42500
C  30.26900 62.93600 41.82500
C  29.67100 61.64400 41.12700
C  32.80100 63.29900 42.57000
C  29.50900 64.17400 41.39700
C  28.52700 64.58400 42.51300
N  28.53500 59.07800 40.23200
C  27.76300 60.09700 40.69000
C  26.36100 59.77700 40.57800
C  26.35500 58.49700 39.95500
C  27.72800 58.13700 39.81500
C  25.21400 60.65000 40.82300
C  25.52200 57.39400 39.43100
O  24.34600 57.14900 39.27000
C  26.65600 56.31300 38.95000
C  26.40200 55.00100 39.71400
O  26.90800 54.62800 40.76800
O  25.39800 54.37300 39.13500
C  25.19400 52.98400 39.61000
H  33.47800 55.29300 38.98700
H  34.08300 61.44500 40.80100
H  27.69400 62.10600 41.57400
H  28.76400 54.22300 38.72400
H  31.48800 54.16100 37.73200
H  30.40600 52.90200 40.04700
H  31.54900 54.17200 40.58500
H  31.96200 52.85700 39.39100
H  30.07900 54.77100 36.09600
H  28.96600 56.04000 36.49900
H  27.17600 54.28200 36.74600
H  28.38500 53.08800 36.41300
H  37.00300 57.14200 39.10400
H  35.83500 56.12000 38.25700
H  36.12200 56.02400 40.05200
H  35.63600 61.01000 42.04400
H  36.71000 61.89900 40.88400
H  37.33100 60.89000 42.25800
H  31.89600 63.35400 40.47700
H  30.38400 62.81100 42.90200
H  33.68500 63.73800 42.10800
H  33.01600 62.42100 43.17900
H  32.16600 64.03300 43.06800
H  28.89000 64.08400 40.50400
H  30.23000 64.98900 41.34700
H  28.71900 65.60500 42.84300
H  28.43700 63.89500 43.35300
H  27.55600 64.62500 42.02000
H  25.45200 61.61800 41.26400
H  24.49100 60.19400 41.50000
H  24.66700 60.84900 39.90200
H  26.42700 56.15800 37.89600
H  24.35800 52.64900 38.99700
H  24.80800 52.93000 40.62800
H  25.99800 52.28000 39.39400
Mg -1.51200 34.37900 26.26900
C  -3.14600 32.68500 28.94500
C  0.23600 36.17600 28.48900
C  -0.18900 36.20300 23.60400
C  -3.52700 32.70000 23.96500
N  -1.49500 34.39300 28.49900
C  -2.29600 33.65200 29.38300
C  -1.96600 34.09800 30.82100
C  -0.89800 35.23500 30.60900
C  -0.68300 35.28600 29.08500
C  -1.43600 36.62100 31.15700
C  -1.52700 32.95900 31.76900
C  -2.46500 32.61800 32.99600
H  -1.79000 32.34100 34.31200
N  -0.05900 35.83300 26.13600
C  0.55900 36.46600 27.16800
C  1.58100 37.38800 26.64300
C  1.35400 37.44800 25.23800
C  0.31900 36.45700 24.91800
C  2.54000 38.11900 27.48600
C  2.16800 38.23600 24.27900
O  2.05200 37.97700 23.03700
C  3.14800 39.11700 24.73000
N  -1.80600 34.40000 24.12000
C  -1.16300 35.21800 23.25700
C  -1.44800 34.75800 21.81300
C  -2.58500 33.62400 21.96000
C  -2.67300 33.54000 23.43600
C  -1.92900 35.80500 20.76900
C  -2.15700 32.36400 21.14800
C  -3.30200 31.47700 20.56100
N  -3.04800 33.01700 26.38700
C  -3.68300 32.35500 25.31500
C  -4.62700 31.40900 25.89400
C  -4.36300 31.43500 27.33200
C  -3.43800 32.46500 27.56600
C  -5.67100 30.64200 25.26700
C  -4.85000 30.82900 28.54800
O  -5.66300 29.94900 28.77400
C  -4.04700 31.68000 29.70500
C  -5.04900 32.47600 30.49300
O  -5.57200 33.48400 30.00000
O  -5.23800 31.95400 31.73600
C  -6.20200 32.69300 32.60400
H  0.87100 36.69900 29.20700
H  0.38800 36.51500 22.73000
H  -4.23600 32.16400 23.33100
H  -2.86000 34.55700 31.24300
H  -0.00100 35.12700 31.21900
H  -2.39200 36.91100 30.72100
H  -0.75500 37.41100 30.83800
H  -1.38500 36.74200 32.23900
H  -0.53400 33.16000 32.17100
H  -1.53000 32.04500 31.17600
H  -2.96300 31.67300 32.78000
H  -3.20200 33.41400 33.09200
H  3.59400 37.98600 27.24300
H  2.37800 37.80200 28.51600
H  2.17600 39.14500 27.42500
H  2.69900 39.87600 25.37100
H  3.59200 39.66500 23.90000
H  3.93000 38.56800 25.25500
H  -0.47800 34.35400 21.52100
H  -3.57800 33.81300 21.55200
H  -1.94200 36.77800 21.26100
H  -2.92000 35.70500 20.32700
H  -1.17300 35.82100 19.98300
H  -1.51200 31.74500 21.77200
H  -1.58300 32.67500 20.27500
H  -4.34200 31.69500 20.80200
H  -3.07200 30.45500 20.86500
H  -3.24600 31.50500 19.47300
H  -5.95000 29.72700 25.78900
H  -5.33900 30.42100 24.25300
H  -6.50100 31.34400 25.17600
H  -3.47300 31.00300 30.33800
H  -7.20400 32.31600 32.40000
H  -6.36900 33.75200 32.40400
H  -5.92800 32.51100 33.64300

