158

Mg 53.88000 24.18800 43.91400
C  51.37100 26.65100 43.16800
C  51.49300 21.89700 43.06900
C  56.27600 21.91500 43.95100
C  56.12800 26.68500 44.67700
N  51.71600 24.39800 43.06800
C  50.92500 25.42900 42.79300
C  49.50500 24.94100 42.49900
C  49.48800 23.51500 43.17600
C  51.00000 23.20900 43.12000
C  48.82100 23.29500 44.58100
C  49.10600 24.88800 41.02300
C  50.06300 24.32300 40.01400
H  50.48100 25.38200 38.96100
N  53.90200 22.20900 43.48800
C  52.80600 21.39600 43.13200
C  53.22500 20.05600 42.89000
C  54.61200 20.04200 43.17600
C  55.00900 21.42800 43.58100
C  52.20400 19.03800 42.32300
C  55.50700 18.84400 42.97800
O  54.95700 17.79600 42.56000
C  57.02600 18.76200 43.19100
N  56.05800 24.38400 43.91200
C  56.78800 23.25900 44.19000
C  58.23100 23.64600 44.59100
C  58.10900 25.17900 44.95700
C  56.70700 25.46300 44.43900
C  58.94900 22.77000 45.72100
C  59.11500 26.05200 44.21400
C  60.25300 26.75200 45.06300
N  53.81400 26.22200 43.94100
C  54.76000 27.04700 44.49900
C  54.10300 28.41900 44.74700
C  52.86300 28.24600 44.13200
C  52.66800 26.90800 43.66300
C  54.84000 29.63500 45.22100
C  51.63500 28.95300 43.80200
O  51.29300 30.09200 44.03300
C  50.64300 27.97000 43.10900
C  50.29000 28.38900 41.77800
O  51.13800 28.57000 40.92400
O  48.93200 28.45500 41.60800
C  48.49800 29.18000 40.32400
H  50.74400 21.10900 43.17100
H  57.06200 21.15900 44.02100
H  56.72500 27.42500 45.21600
H  48.85300 25.63200 43.03400
H  48.87800 22.83800 42.57900
H  49.60100 23.13700 45.32500
H  48.15500 22.44000 44.46900
H  48.18100 24.14900 44.80300
H  48.83700 25.91300 40.76600
H  48.15700 24.35200 40.98800
H  49.53500 23.61400 39.37700
H  50.90300 23.75600 40.41600
H  51.39400 19.57600 41.83100
H  51.67700 18.58700 43.16400
H  52.63600 18.29500 41.65300
H  57.24500 19.29400 44.11700
H  57.59900 19.10300 42.32900
H  57.30400 17.72100 43.35400
H  58.77300 23.33000 43.70000
H  58.05400 25.32600 46.03500
H  58.39000 21.84200 45.84500
H  58.89500 23.38500 46.62000
H  60.00900 22.56100 45.58400
H  58.65900 26.73700 43.50000
H  59.67500 25.37100 43.57400
H  60.59900 27.57300 44.43500
H  61.06500 26.06200 45.29200
H  59.75400 27.08600 45.97300
H  54.78200 29.64900 46.30900
H  54.25400 30.47200 44.84000
H  55.82700 29.71000 44.76500
H  49.79900 27.73700 43.75900
H  47.95300 30.11400 40.46600
H  47.93800 28.59000 39.59900
H  49.37900 29.43300 39.73400
Mg 42.48700 41.25500 26.64200
C  41.92000 43.49900 29.30400
C  43.22300 38.76300 29.12900
C  43.60000 39.24400 24.21400
C  42.42700 43.92100 24.46900
N  42.60100 41.13600 28.96100
C  42.20300 42.17600 29.77700
C  42.26500 41.74000 31.29800
C  42.57400 40.21500 31.21200
C  42.95600 39.99800 29.72000
C  43.66900 39.81100 32.22100
C  41.06400 42.19700 32.08100
C  40.74000 41.27600 33.32300
H  40.31200 42.04300 34.59900
N  43.20700 39.23400 26.65400
C  43.30900 38.34200 27.67300
C  43.83200 37.09000 27.17600
C  44.14200 37.29500 25.78800
C  43.66200 38.63600 25.47800
C  44.20600 35.92900 27.99300
C  44.93100 36.35500 24.89400
O  45.22700 36.69300 23.77900
C  45.23500 34.86900 25.34900
N  42.99500 41.57200 24.61500
C  43.39500 40.59400 23.80600
C  43.47400 41.11400 22.27100
C  42.80300 42.50600 22.33800
C  42.81000 42.69100 23.91200
C  44.95400 41.10700 21.87500
C  41.38600 42.57300 21.70400
C  40.15700 41.69200 22.24300
N  42.11800 43.31500 26.81600
C  42.09900 44.21100 25.77400
C  41.78400 45.51300 26.31400
C  41.67200 45.28200 27.72800
C  41.90800 43.92000 27.95600
C  41.71700 46.79100 25.64800
C  41.48400 45.98000 28.98600
O  41.33900 47.18500 29.23000
C  41.60400 44.77300 30.06900
C  42.60700 45.30900 31.04500
O  43.84900 45.39700 30.90900
O  41.94400 45.58100 32.22800
C  42.68100 45.97000 33.40000
H  43.44400 37.96200 29.83800
H  43.78100 38.53600 23.40200
H  42.29100 44.70400 23.71900
H  43.14100 42.21400 31.74100
H  41.62200 39.70600 31.36300
H  44.53000 39.62100 31.58000
H  43.34600 38.91800 32.75500
H  43.97800 40.57700 32.93300
H  40.32700 42.43200 31.31300
H  41.35700 43.12500 32.57100
H  41.51100 40.53500 33.53200
H  39.82300 40.78400 32.99800
H  43.81900 34.97800 27.62900
H  43.91600 36.08700 29.03200
H  45.27500 35.88700 28.20400
H  45.52000 34.32200 24.45100
H  44.39500 34.31200 25.76400
H  45.99600 34.91900 26.12800
H  43.04800 40.41200 21.55300
H  43.39900 43.25400 21.81400
H  45.56100 41.03700 22.77800
H  45.23500 42.02500 21.35900
H  45.04700 40.27900 21.17300
H  41.57900 42.28100 20.67200
H  41.09300 43.60200 21.91600
H  39.43700 42.44800 22.55700
H  40.55800 41.01700 22.99800
H  39.82200 41.03600 21.44000
H  41.55700 46.75100 24.57000
H  42.67400 47.30800 25.71400
H  40.91800 47.40200 26.06900
H  40.61600 44.69500 30.52300
H  43.67700 45.52800 33.44400
H  42.07000 45.87600 34.29800
H  42.90400 47.03100 33.28500

