158

Mg 48.81000 45.17200 42.12200
C  45.28700 45.22200 41.50300
C  48.81600 41.95100 41.19300
C  52.10900 45.52000 42.00000
C  48.49900 48.77000 42.68800
N  47.22600 43.78700 41.39300
C  45.89300 43.95900 41.30700
C  45.13600 42.74200 40.84200
C  46.19700 41.63200 41.07200
C  47.50200 42.48000 41.22500
C  45.94300 40.65500 42.23900
C  44.59600 42.91600 39.35100
C  43.13200 42.44000 39.07500
H  42.84600 41.79800 37.72200
N  50.29800 43.89600 41.51600
C  50.07300 42.55200 41.26500
C  51.37100 41.98100 40.86200
C  52.32800 42.94400 41.12800
C  51.59200 44.17600 41.56900
C  51.50100 40.54000 40.34400
C  53.79500 42.67100 40.99600
O  54.19900 41.57100 40.58200
C  54.91100 43.68400 41.39200
N  50.15400 47.07100 42.02800
C  51.48400 46.74100 42.27500
C  52.21100 48.08400 42.50500
C  51.04100 49.09500 42.88500
C  49.85000 48.27000 42.53700
C  53.33300 47.98900 43.59300
C  51.21100 50.34700 42.00000
C  50.99200 51.61400 42.77400
N  47.25300 46.74500 42.12700
C  47.29300 48.09300 42.48400
C  45.96500 48.61300 42.56000
C  45.15000 47.54400 42.05500
C  45.96500 46.43800 41.91100
C  45.56100 49.97700 43.03900
C  43.73100 47.21300 41.86700
O  42.73600 47.85100 41.99400
C  43.84900 45.61800 41.39600
C  42.99300 44.88600 42.33500
O  41.95800 44.41900 41.94000
O  43.54100 44.73300 43.64300
C  42.81500 43.97500 44.67500
H  48.77400 40.90000 40.89800
H  53.19500 45.61200 42.06400
H  48.35400 49.81400 42.97500
H  44.34100 42.61100 41.57600
H  46.18200 40.92300 40.24400
H  45.69100 41.24400 43.12100
H  46.86900 40.14700 42.51200
H  45.20300 39.87600 42.05700
H  45.26300 42.31000 38.73800
H  44.63400 43.96800 39.06800
H  42.54100 43.35600 39.05100
H  42.61800 41.84700 39.83200
H  51.64800 40.49700 39.26400
H  50.62100 39.91900 40.50400
H  52.35600 40.11400 40.87000
H  54.77000 43.93100 42.44400
H  54.80600 44.59200 40.79700
H  55.91700 43.31100 41.19700
H  52.70600 48.30100 41.55800
H  51.17700 49.51400 43.88200
H  53.28500 46.97100 43.97800
H  53.25200 48.72600 44.39200
H  54.32800 48.08300 43.15800
H  50.58900 50.30300 41.10700
H  52.20000 50.37000 41.54200
H  51.94500 51.89900 43.21800
H  50.22100 51.68500 43.54200
H  50.66500 52.27700 41.97300
H  44.48000 50.10200 43.09700
H  45.90600 50.72100 42.32100
H  45.82000 50.24200 44.06400
H  43.44800 45.49400 40.39000
H  43.58900 43.60500 45.34700
H  42.33700 43.09100 44.25200
H  42.08000 44.60700 45.17300
Mg -5.09600 25.64900 25.91700
C  -3.87200 26.93300 28.91200
C  -6.98100 23.63800 27.73500
C  -5.49000 23.81200 23.10800
C  -2.78300 27.66700 24.20800
N  -5.28100 25.20800 28.11500
C  -4.85400 25.99500 29.14400
C  -5.39800 25.50900 30.52500
C  -6.36800 24.33500 30.14000
C  -6.18000 24.37800 28.55900
C  -6.03500 22.93700 30.73500
C  -6.15500 26.58200 31.30100
C  -5.87400 26.76900 32.78400
H  -5.43800 25.61100 33.65100
N  -6.14800 23.94400 25.48500
C  -6.94400 23.40300 26.39000
C  -7.77900 22.41500 25.72100
C  -7.19300 22.22600 24.41900
C  -6.23300 23.34300 24.27500
C  -8.99100 21.76400 26.41600
C  -7.50900 21.19700 23.31100
O  -6.93600 21.20900 22.27600
C  -8.47200 20.11600 23.75500
N  -4.23100 25.69700 23.99400
C  -4.66800 24.88100 23.00800
C  -3.94000 25.23600 21.71100
C  -3.26800 26.59400 22.02700
C  -3.50600 26.72200 23.47800
C  -2.94000 24.04900 21.26200
C  -3.92600 27.81200 21.36200
C  -3.03800 28.90400 20.76000
N  -3.63700 27.07500 26.33000
C  -2.84700 27.86900 25.55900
C  -2.02600 28.73100 26.43200
C  -2.38000 28.38500 27.74300
C  -3.37300 27.43200 27.62000
C  -0.99300 29.74300 26.01900
C  -2.19000 28.68500 29.08200
O  -1.43800 29.48800 29.65900
C  -3.09000 27.74300 29.94700
C  -2.16000 26.95200 30.86700
O  -1.27100 26.18600 30.55900
O  -2.29800 27.45900 32.15300
C  -1.39200 26.93500 33.15800
H  -7.66600 23.03500 28.33400
H  -5.75200 23.27800 22.19200
H  -2.15200 28.38300 23.67700
H  -4.58000 25.27300 31.20500
H  -7.40900 24.51300 30.40700
H  -6.96200 22.37900 30.86400
H  -5.57200 23.03000 31.71800
H  -5.34600 22.33600 30.14200
H  -7.22900 26.39700 31.26400
H  -5.86900 27.53500 30.85500
H  -6.80500 27.08000 33.25900
H  -5.25100 27.65000 32.93700
H  -9.84700 22.10100 25.83200
H  -9.15500 22.16500 27.41700
H  -8.89200 20.67900 26.41200
H  -8.51800 19.40200 22.93300
H  -9.46500 20.54500 23.88600
H  -8.03000 19.59700 24.60500
H  -4.77000 25.36400 21.01600
H  -2.20300 26.56000 21.79600
H  -2.92000 23.39600 22.13400
H  -1.94800 24.37500 20.94800
H  -3.34100 23.55700 20.37600
H  -4.49400 28.29400 22.15700
H  -4.68100 27.46800 20.65500
H  -2.98000 28.89600 19.67200
H  -1.99600 28.71900 21.02200
H  -3.31000 29.92900 21.01200
H  -0.49600 29.35900 25.12800
H  -0.21200 29.86200 26.77000
H  -1.44700 30.68500 25.71000
H  -3.75700 28.42400 30.47600
H  -1.68000 25.94700 33.51700
H  -1.16700 27.51400 34.05300
H  -0.38100 26.95400 32.75000

