158

Mg 1.28100 7.81300 25.79400
C  1.87000 9.82700 28.67300
C  1.63700 5.02700 27.78200
C  0.51300 5.96000 23.11100
C  1.15200 10.72400 23.96000
N  1.76700 7.60700 27.92900
C  1.87200 8.52600 28.98800
C  2.00200 7.84000 30.35900
C  2.18700 6.31700 29.98300
C  1.89300 6.26100 28.42500
C  3.52700 5.71900 30.35800
C  0.72700 8.24100 31.25500
C  0.99600 8.63000 32.70200
H  2.07500 7.75100 33.45100
N  1.10500 5.77100 25.43800
C  1.21400 4.75000 26.38500
C  0.71100 3.47100 25.86600
C  0.46000 3.74700 24.46000
C  0.61500 5.21900 24.28400
C  0.55300 2.23500 26.75800
C  0.07900 2.74800 23.40000
O  -0.07000 3.10500 22.22600
C  -0.23000 1.33900 23.70500
N  1.01600 8.21700 23.74700
C  0.63000 7.36700 22.82200
C  0.47700 8.07000 21.48300
C  0.70700 9.59700 21.78200
C  0.94200 9.56200 23.28600
C  1.40400 7.34600 20.40800
C  -0.52600 10.53100 21.37400
C  -0.10900 11.81500 20.70300
N  1.48200 9.89200 26.19000
C  1.27700 10.96900 25.33800
C  1.51500 12.21800 26.01900
C  1.75900 11.81000 27.40800
C  1.64700 10.40400 27.42700
C  1.36400 13.65100 25.50400
C  2.09800 12.26500 28.67800
O  2.40400 13.35700 29.03200
C  2.09100 10.96600 29.60900
C  3.30900 10.88800 30.31900
O  4.41100 10.65700 29.78900
O  3.06500 11.15300 31.66300
C  4.25100 11.30500 32.54700
H  1.90900 4.11300 28.31300
H  0.16100 5.43900 22.21800
H  1.04200 11.61600 23.33900
H  2.87100 8.37200 30.74800
H  1.38800 5.79300 30.50700
H  3.38500 4.97100 31.13800
H  4.05200 6.55800 30.81600
H  4.14300 5.43200 29.50700
H  -0.06100 7.48900 31.29200
H  0.28500 9.16200 30.87200
H  0.02100 8.38000 33.12100
H  1.03100 9.71400 32.81600
H  -0.32400 1.77500 26.30100
H  0.33800 2.56200 27.77500
H  1.34200 1.48200 26.77000
H  0.55100 0.94300 24.35400
H  -0.38500 0.68600 22.84600
H  -1.14200 1.33200 24.30100
H  -0.56300 7.96500 21.17500
H  1.62700 10.00200 21.36100
H  2.24800 6.80400 20.83500
H  1.80400 8.03100 19.65900
H  0.70500 6.62100 19.99300
H  -1.04600 10.78600 22.29700
H  -1.17900 10.02400 20.66200
H  0.91000 12.08100 20.42000
H  -0.59900 12.58900 21.29400
H  -0.68800 11.78400 19.78000
H  1.40700 14.41900 26.27700
H  0.58200 13.88800 24.78300
H  2.22800 13.84100 24.86800
H  1.25100 11.03100 30.30000
H  4.78800 12.23500 32.35900
H  5.01800 10.54900 32.37700
H  4.02200 11.07900 33.58800
Mg -11.03000 39.79000 41.49000
C  -10.39900 36.54800 40.55900
C  -7.97400 40.85400 40.33000
C  -12.19900 42.90500 41.28200
C  -14.40300 38.64000 42.38100
N  -9.38800 38.78900 40.50800
C  -9.38400 37.45600 40.19000
C  -8.03400 37.08200 39.49800
C  -7.31700 38.49000 39.40300
C  -8.19100 39.43800 40.18300
C  -5.77200 38.54100 39.87700
C  -8.27200 36.27700 38.13200
C  -7.44000 36.61500 36.89100
H  -6.78400 35.57100 36.08600
N  -10.15500 41.65900 41.04800
C  -8.90300 41.87400 40.61600
C  -8.71600 43.28600 40.34500
C  -9.90800 43.92800 40.70600
C  -10.85200 42.84300 40.96800
C  -7.39000 43.98300 40.03600
C  -10.11500 45.51800 40.76800
O  -9.25500 46.29900 40.36900
C  -11.32500 46.19300 41.50500
N  -12.95900 40.57600 41.74400
C  -13.15200 41.94700 41.57300
C  -14.56400 42.41600 41.91800
C  -15.15400 41.06100 42.45500
C  -14.13700 40.01300 42.16600
C  -14.68900 43.55100 42.94900
C  -16.53300 40.57700 41.81200
C  -17.64200 40.18200 42.88500
N  -12.16700 37.97100 41.65600
C  -13.44200 37.67500 42.08000
C  -13.58100 36.21300 42.07700
C  -12.44600 35.73600 41.46800
C  -11.62700 36.85100 41.23300
C  -14.86500 35.45000 42.37900
C  -11.71500 34.60200 41.02400
O  -11.99600 33.43600 41.19800
C  -10.45800 35.06800 40.28900
C  -9.27400 34.29800 40.81700
O  -8.61700 34.49800 41.85600
O  -9.00100 33.27900 39.89700
C  -8.00800 32.31000 40.34300
H  -7.01100 41.15400 39.91100
H  -12.70700 43.85800 41.11700
H  -15.28700 38.22500 42.86900
H  -7.50400 36.36500 40.12500
H  -7.34300 38.78400 38.35400
H  -5.49200 37.51900 40.13300
H  -5.72400 39.08600 40.82000
H  -5.15300 39.02800 39.12400
H  -9.29700 36.47700 37.82200
H  -8.15700 35.23200 38.41900
H  -6.60700 37.23400 37.22500
H  -8.14400 37.17100 36.27200
H  -7.14600 43.94800 38.97500
H  -6.56700 43.53700 40.59400
H  -7.33200 45.02700 40.34400
H  -11.57900 45.78600 42.48300
H  -12.20000 46.10400 40.86100
H  -11.03900 47.24100 41.41500
H  -15.02900 42.77900 41.00100
H  -15.26500 41.10500 43.53800
H  -15.24900 44.39600 42.54800
H  -13.72700 43.93800 43.28600
H  -15.21400 43.16200 43.82100
H  -16.37500 39.69800 41.18800
H  -17.01800 41.30900 41.16500
H  -18.53800 40.71100 42.55900
H  -17.29900 40.50300 43.86900
H  -17.89800 39.12600 42.79000
H  -15.69700 36.05000 42.01100
H  -14.93000 35.29900 43.45700
H  -15.00600 34.50300 41.85900
H  -10.68900 34.98200 39.22800
H  -7.67100 31.64500 39.54700
H  -8.48400 31.88300 41.22600
H  -7.16400 32.95800 40.57600

