158

Mg 30.35600 57.56700 39.85500
C  27.54500 55.48600 39.24100
C  32.46000 55.09600 39.12700
C  32.87900 59.84500 40.10600
C  28.01800 60.15600 40.54900
N  30.01700 55.53300 39.26600
C  28.81500 54.93600 38.81100
C  29.14100 53.55000 38.23300
C  30.66900 53.42200 38.36600
C  31.06500 54.76200 39.02800
C  31.09700 52.21800 39.25300
C  28.42900 53.34900 36.86200
C  28.75300 54.35800 35.75600
H  27.61400 55.17300 35.20900
N  32.33300 57.48100 39.57600
C  33.04200 56.36200 39.33400
C  34.40600 56.65300 39.19100
C  34.57600 58.02700 39.46100
C  33.24400 58.52200 39.75800
C  35.49200 55.62600 38.96200
C  36.01300 58.69400 39.65400
O  36.93200 58.03700 39.27200
C  36.33500 60.05800 40.16200
N  30.44300 59.77700 40.15200
C  31.62000 60.47300 40.23700
C  31.34600 62.02000 40.48400
C  29.75900 62.03400 40.56900
C  29.39100 60.55200 40.48200
C  32.06600 62.63100 41.71700
C  29.08600 62.77700 39.37900
C  28.74400 64.23400 39.69500
N  28.21900 57.75900 39.98900
C  27.45800 58.85200 40.31000
C  26.08300 58.55100 40.27000
C  26.06600 57.18600 39.85200
C  27.37600 56.77800 39.68100
C  24.89500 59.36300 40.55600
C  25.18100 56.10000 39.62100
O  23.93700 56.07800 39.75500
C  26.13200 54.92900 39.20100
C  26.04400 53.80100 40.18600
O  26.55800 53.67900 41.30300
O  25.40200 52.84100 39.56800
C  25.33000 51.59900 40.34100
H  33.22200 54.36000 38.86500
H  33.72900 60.52700 40.02400
H  27.24500 60.91500 40.69200
H  28.58600 52.83700 38.84400
H  31.11600 53.36300 37.37400
H  31.73700 51.51900 38.71400
H  30.21500 51.72300 39.65900
H  31.56000 52.51400 40.19400
H  27.35700 53.26700 37.03900
H  28.67800 52.34000 36.53300
H  29.04200 53.77500 34.88200
H  29.52000 55.03500 36.13200
H  35.86400 55.87400 37.96800
H  35.21400 54.57300 38.92100
H  36.22100 55.68400 39.77100
H  36.22600 60.71500 39.29900
H  37.40800 60.15900 40.32400
H  35.76600 60.41700 41.02000
H  31.76200 62.49300 39.59400
H  29.42500 62.52400 41.48300
H  32.39800 63.66700 41.64600
H  32.93700 62.06200 42.04200
H  31.22800 62.77400 42.40000
H  28.29700 62.19200 38.90800
H  29.81300 62.91500 38.57800
H  29.29300 64.91700 39.04800
H  28.88800 64.52300 40.73600
H  27.73400 64.40100 39.32000
H  24.50000 58.99600 41.50400
H  24.19500 59.37000 39.72200
H  25.33400 60.33300 40.78800
H  25.85400 54.53600 38.22300
H  26.23200 51.01400 40.16600
H  24.41500 51.13200 39.97700
H  25.30000 51.76400 41.41800
Mg -5.89900 25.51800 25.92000
C  -4.39100 26.86200 28.58000
C  -7.11300 23.00500 28.10900
C  -7.29300 23.85800 23.35600
C  -4.33400 27.62300 23.77000
N  -5.80000 25.03800 28.09000
C  -5.27100 25.85000 29.04000
C  -5.73400 25.46000 30.48400
C  -6.25900 24.04600 30.25600
C  -6.40300 23.98600 28.74500
C  -5.44400 22.93200 30.81200
C  -6.77500 26.43300 31.06400
C  -6.63800 26.75100 32.52400
H  -7.62200 26.09800 33.48900
N  -7.11800 23.76900 25.75200
C  -7.47700 22.88800 26.78400
C  -8.38700 21.81500 26.20100
C  -8.52500 22.12300 24.82100
C  -7.67000 23.29900 24.54600
C  -8.84600 20.57800 26.93900
C  -9.30400 21.32600 23.69500
O  -9.15300 21.49400 22.48800
C  -10.29400 20.22800 24.10600
N  -5.64700 25.51600 23.81600
C  -6.36800 24.84400 22.99200
C  -6.13200 25.24100 21.49000
C  -5.28800 26.53300 21.67800
C  -5.02900 26.54200 23.16500
C  -5.45000 24.30900 20.54700
C  -6.02600 27.77800 21.19500
C  -5.17200 28.64300 20.33700
N  -4.59700 26.95200 26.05600
C  -4.07700 27.87100 25.12900
C  -3.20500 28.77700 25.79800
C  -3.23900 28.42100 27.13500
C  -4.13200 27.29400 27.27300
C  -2.40200 29.94300 25.14900
C  -2.79100 28.78400 28.46300
O  -1.94200 29.55600 28.94100
C  -3.63300 27.80100 29.43600
C  -2.71000 27.09800 30.34200
O  -1.83500 26.26700 30.03100
O  -2.97900 27.46100 31.64500
C  -1.93000 27.00800 32.63900
H  -7.58100 22.26700 28.76300
H  -7.69300 23.51300 22.40000
H  -3.96300 28.32300 23.01900
H  -4.89900 25.31300 31.16900
H  -7.23700 23.99000 30.73400
H  -5.64300 22.71200 31.86100
H  -4.41400 23.27900 30.88400
H  -5.53700 22.03200 30.20400
H  -7.81100 26.15600 30.86500
H  -6.66000 27.38200 30.54200
H  -6.80000 27.81600 32.68800
H  -5.66400 26.44600 32.90700
H  -9.93300 20.57500 26.85400
H  -8.59800 20.68900 27.99500
H  -8.44200 19.65100 26.53300
H  -9.73200 19.35000 24.42500
H  -10.80100 19.95700 23.18000
H  -11.08900 20.61700 24.74300
H  -7.03900 25.49800 20.94400
H  -4.25500 26.42700 21.34500
H  -4.85400 23.60100 21.12300
H  -4.64600 24.63400 19.88700
H  -6.18600 23.68800 20.03800
H  -6.48100 28.30800 22.03100
H  -6.89400 27.48900 20.60300
H  -5.35200 28.84200 19.28100
H  -4.13800 28.31200 20.44000
H  -5.21700 29.65200 20.74600
H  -2.93400 30.53400 24.40300
H  -1.47100 29.60200 24.69500
H  -2.17700 30.63500 25.96100
H  -4.36800 28.33000 30.04300
H  -2.24400 26.02900 33.00000
H  -2.07800 27.55600 33.56900
H  -0.89500 27.13500 32.32100

