158

Mg -9.39300 40.12600 39.79700
C  -8.53900 36.76900 39.23500
C  -6.20600 41.01400 39.06300
C  -10.52300 43.19600 38.95600
C  -12.70100 39.11800 40.17400
N  -7.63100 39.04800 39.26700
C  -7.42300 37.69400 39.20800
C  -5.98200 37.31200 38.90400
C  -5.19000 38.61100 39.09100
C  -6.37800 39.64800 39.17400
C  -4.13700 38.65500 40.19300
C  -5.77400 36.54600 37.59400
C  -6.35000 37.24500 36.35600
H  -7.10400 36.40000 35.35800
N  -8.46400 41.87800 39.28000
C  -7.16500 42.01700 38.98800
C  -6.92400 43.35600 38.59000
C  -8.15400 44.03400 38.50700
C  -9.14100 43.05100 38.86600
C  -5.57200 44.01300 38.43700
C  -8.45300 45.52200 38.13200
O  -7.46700 46.19800 37.94500
C  -9.80900 46.16700 38.02900
N  -11.27500 40.98500 39.60500
C  -11.47300 42.28900 39.29800
C  -12.98100 42.61800 39.30200
C  -13.62700 41.44700 40.04100
C  -12.51800 40.43000 39.91700
C  -13.45900 44.08100 39.72100
C  -15.05600 41.09700 39.43600
C  -16.00700 40.31200 40.30400
N  -10.50800 38.37000 39.83100
C  -11.82500 38.09300 39.96400
C  -12.01300 36.64000 39.89500
C  -10.77300 36.07700 39.59000
C  -9.86000 37.19000 39.60700
C  -13.32700 35.88300 40.11700
C  -10.04100 34.82000 39.36700
O  -10.44300 33.67100 39.30000
C  -8.59600 35.26200 39.02800
C  -7.61800 34.45300 39.88100
O  -7.27600 34.75200 41.00800
O  -7.05000 33.44800 39.21000
C  -5.86000 32.89000 39.87100
H  -5.20900 41.43900 38.93000
H  -10.92400 44.20900 38.89300
H  -13.71800 38.76200 40.35100
H  -5.81900 36.57200 39.68700
H  -4.68000 38.93300 38.18300
H  -4.15300 39.60300 40.73000
H  -3.13700 38.53600 39.77600
H  -4.40900 37.90700 40.93800
H  -6.01000 35.49200 37.73600
H  -4.70300 36.56600 37.39700
H  -5.51900 37.69400 35.81100
H  -6.98300 38.09300 36.61800
H  -5.57500 44.47100 37.44800
H  -4.78300 43.26100 38.44800
H  -5.45000 44.75400 39.22700
H  -10.27600 46.40200 38.98500
H  -10.56800 45.61100 37.48000
H  -9.55200 47.09400 37.51600
H  -13.34100 42.62300 38.27300
H  -13.79400 41.53200 41.11500
H  -12.71000 44.86800 39.81100
H  -14.07900 44.12100 40.61700
H  -14.07400 44.49000 38.91900
H  -14.79900 40.44000 38.60600
H  -15.58900 41.95700 39.03000
H  -16.72600 41.00900 40.73600
H  -15.50400 39.91300 41.18500
H  -16.42800 39.52900 39.67400
H  -13.89800 35.85100 39.18900
H  -13.90400 36.19900 40.98500
H  -13.04300 34.85600 40.34800
H  -8.53700 34.97500 37.97800
H  -5.21500 33.74700 40.06300
H  -5.36700 32.15600 39.23400
H  -6.20900 32.37400 40.76500
Mg -10.60900 17.38400 41.90600
C  -7.10400 17.37600 42.14500
C  -10.54600 20.67700 40.96400
C  -14.01700 17.25300 41.36100
C  -10.57100 13.95100 42.14300
N  -8.97600 18.88800 41.63300
C  -7.68600 18.62000 41.72800
C  -6.84300 19.84100 41.14400
C  -7.93100 20.99400 41.21400
C  -9.28800 20.15900 41.22600
C  -7.70600 21.91000 42.57400
C  -6.35600 19.50200 39.64800
C  -4.81800 19.50900 39.40600
H  -4.37500 18.32500 38.52300
N  -12.09000 18.84100 41.34200
C  -11.82400 20.12800 41.11100
C  -13.08800 20.92100 41.07800
C  -14.13200 19.95500 41.23000
C  -13.53900 18.60000 41.28300
C  -13.19900 22.40100 40.67200
C  -15.65000 20.22500 41.29100
O  -16.01800 21.39500 41.19900
C  -16.59500 19.17900 41.48300
N  -11.94400 15.76800 41.51200
C  -13.34200 16.01400 41.38800
C  -14.12000 14.71400 41.44900
C  -12.96400 13.62400 41.34600
C  -11.76500 14.50500 41.78100
C  -15.04100 14.64800 42.73400
C  -12.83300 12.96000 39.87000
C  -12.66300 11.42300 39.75200
N  -9.15300 15.96700 42.28000
C  -9.37200 14.57900 42.36800
C  -8.09500 13.95300 42.68200
C  -7.15400 15.02000 42.53100
C  -7.90500 16.22300 42.29200
C  -7.76400 12.51600 42.93000
C  -5.75000 15.43600 42.54900
O  -4.79500 14.70200 42.72700
C  -5.67500 16.91500 42.28000
C  -4.88500 17.60800 43.40800
O  -4.93600 17.30800 44.60800
O  -4.13700 18.65600 42.89400
C  -3.57300 19.55800 43.87900
H  -10.59500 21.73700 40.70600
H  -15.09100 17.07700 41.26500
H  -10.50400 12.86100 42.13700
H  -6.05500 20.00500 41.87800
H  -7.90700 21.65000 40.34400
H  -8.61800 21.68000 43.12400
H  -7.60700 22.94100 42.23400
H  -6.81300 21.63500 43.13700
H  -6.79100 20.28300 39.02500
H  -6.75500 18.57300 39.24100
H  -4.27500 19.51400 40.35100
H  -4.63600 20.37600 38.77100
H  -14.00500 22.93600 41.17600
H  -13.37700 22.42500 39.59700
H  -12.33300 23.00800 40.93600
H  -16.71300 18.61300 40.55900
H  -17.53600 19.72500 41.55000
H  -16.38700 18.49500 42.30600
H  -14.74200 14.70200 40.55400
H  -13.05200 12.91200 42.16700
H  -14.68300 13.93900 43.48000
H  -16.05900 14.40600 42.42800
H  -15.15400 15.64500 43.15800
H  -12.03500 13.39000 39.26500
H  -13.75300 13.17000 39.32500
H  -12.20800 11.14900 40.70400
H  -11.79700 11.23500 39.11700
H  -13.58200 10.87900 39.53600
H  -7.76600 12.33000 44.00400
H  -6.77000 12.37400 42.50500
H  -8.51100 11.87000 42.46800
H  -5.16000 17.08900 41.33600
H  -2.59900 19.19400 44.20700
H  -4.20900 19.58100 44.76400
H  -3.38700 20.48900 43.34500

