158

Mg 17.07500 -1.92000 28.12000
C  16.13600 0.50000 30.51500
C  18.89700 -3.56700 30.49800
C  18.68500 -3.60800 25.55900
C  15.88900 0.43500 25.69800
N  17.49800 -1.51000 30.22900
C  16.95500 -0.56500 31.07000
C  17.50600 -0.71500 32.54600
C  18.47600 -1.90200 32.42100
C  18.25000 -2.40000 30.96500
C  19.88400 -1.62100 32.86200
C  16.32400 -1.01800 33.60900
C  16.63900 -0.27700 34.99400
H  18.03600 -0.22000 35.52300
N  18.37900 -3.60400 28.06200
C  19.01600 -4.17200 29.19300
C  19.71200 -5.32600 28.69700
C  19.72700 -5.33100 27.27200
C  18.93000 -4.13600 26.87700
C  20.30900 -6.43000 29.58800
C  20.51900 -6.17000 26.34100
O  20.42100 -6.03200 25.13400
C  21.40500 -7.28400 26.70000
N  17.37300 -1.56100 25.94800
C  17.97900 -2.47400 25.11300
C  17.82800 -2.09600 23.65800
C  16.90000 -0.77100 23.70200
C  16.68700 -0.64300 25.21900
C  19.09800 -2.01000 22.82600
C  15.41900 -0.94000 23.02600
C  14.29500 -1.75500 23.79100
N  15.90800 -0.10500 28.09600
C  15.52700 0.73700 27.02100
C  14.64500 1.72000 27.52200
C  14.87800 1.66700 28.91700
C  15.76200 0.59400 29.17700
C  13.91500 2.71700 26.63200
C  14.64900 2.38700 30.09200
O  14.09900 3.51500 30.26600
C  15.35300 1.58300 31.27200
C  16.22000 2.51800 32.19300
O  17.41500 2.62700 31.99300
O  15.51800 3.07000 33.27700
C  16.29500 4.00400 34.12700
H  19.36400 -4.02600 31.37200
H  19.08200 -4.26100 24.77900
H  15.48900 1.07700 24.91100
H  17.97100 0.25700 32.71300
H  18.05600 -2.74300 32.97300
H  20.16100 -0.63500 33.23600
H  20.38400 -1.65200 31.89400
H  20.24300 -2.37200 33.56400
H  16.21300 -2.07800 33.84000
H  15.33200 -0.77600 33.22800
H  15.98200 -0.74900 35.72400
H  16.36700 0.75100 34.75300
H  21.34500 -6.63100 29.31500
H  19.81800 -7.37900 29.37100
H  20.19200 -6.27200 30.66000
H  21.87100 -7.81000 25.86700
H  20.95100 -8.11000 27.24800
H  22.17100 -6.94300 27.39700
H  17.36800 -2.92900 23.12800
H  17.35900 0.11200 23.25600
H  19.93800 -2.53300 23.28400
H  19.37900 -0.97200 22.65100
H  18.88200 -2.41700 21.83800
H  15.50500 -1.40000 22.04200
H  14.90800 0.00100 22.82300
H  13.57800 -1.09300 24.27500
H  14.65800 -2.47700 24.52200
H  13.65000 -2.32500 23.12100
H  13.24300 3.22400 27.32600
H  13.32800 2.18600 25.88200
H  14.58500 3.45400 26.19100
H  14.47400 1.14000 31.74200
H  16.94200 4.60800 33.49100
H  16.86600 3.36400 34.79900
H  15.58500 4.62800 34.67100
Mg 54.07100 24.76100 44.61600
C  51.14800 26.54200 43.95800
C  52.31600 21.90800 43.84100
C  57.00300 23.35200 44.01100
C  55.66700 27.86100 45.26500
N  51.92600 24.26400 43.76800
C  50.91200 25.17200 43.75900
C  49.63500 24.47800 43.43700
C  49.98100 22.92700 43.69600
C  51.50800 22.97900 43.73200
C  49.25400 22.47000 45.00800
C  49.05600 24.67100 42.01200
C  50.02600 24.87100 40.79300
H  49.40900 25.08100 39.42700
N  54.56600 22.83500 44.00500
C  53.71900 21.75300 43.90300
C  54.43800 20.55200 43.84600
C  55.81600 20.98000 43.87700
C  55.89200 22.43900 43.95800
C  53.90800 19.22300 43.70600
C  56.91000 19.94800 43.89500
O  56.69500 18.76600 43.88100
C  58.34700 20.44900 43.96000
N  55.99500 25.55400 44.55100
C  57.07900 24.72500 44.32000
C  58.44000 25.43700 44.52400
C  57.98500 26.85000 44.93400
C  56.46600 26.81000 44.83300
C  59.43800 24.74400 45.52800
C  58.72300 27.98300 43.98900
C  57.95200 28.34300 42.75100
N  53.55500 26.82700 44.77600
C  54.24100 27.93500 45.14300
C  53.30500 29.02200 45.48200
C  52.09500 28.55100 44.86400
C  52.32400 27.20100 44.36000
C  53.64400 30.29100 46.22000
C  50.72200 28.92400 44.60100
O  50.05500 29.94900 44.72500
C  50.14100 27.62500 43.94700
C  49.60300 27.89400 42.63200
O  50.28400 28.09800 41.59200
O  48.23900 28.11700 42.71700
C  47.57700 28.26200 41.41300
H  51.69600 21.01200 43.90400
H  57.94300 22.80300 44.10300
H  56.20500 28.73100 45.64700
H  48.87600 24.77500 44.16100
H  49.52800 22.32800 42.90600
H  48.80800 23.24500 45.63200
H  50.07100 21.93200 45.48800
H  48.50500 21.68100 44.94000
H  48.32300 25.47400 42.09000
H  48.56400 23.72500 41.78600
H  50.63800 23.97000 40.80600
H  50.72500 25.69000 40.96100
H  54.21100 18.69700 44.61100
H  54.35800 18.64400 42.90000
H  52.84100 19.32500 43.50600
H  58.53000 21.13100 43.13000
H  58.97400 19.58100 43.75600
H  58.64000 20.93500 44.89100
H  58.75700 25.28900 43.49200
H  58.09500 27.00300 46.00800
H  60.35700 24.38800 45.06200
H  58.96300 23.89900 46.02600
H  59.72100 25.46900 46.29000
H  59.64800 27.44900 43.77300
H  58.89700 28.84300 44.63500
H  58.66900 28.26200 41.93300
H  57.70500 29.39300 42.90600
H  57.03900 27.77200 42.58000
H  54.68600 30.33500 46.53500
H  53.08000 30.28700 47.15300
H  53.42300 31.13900 45.57100
H  49.35600 27.25600 44.60700
H  47.80100 29.24400 40.99700
H  46.49600 28.25700 41.55800
H  47.78600 27.45400 40.71200

