158

Mg 36.46400 48.83300 24.41600
C  36.38400 47.00900 27.36100
C  35.44600 51.54500 26.32000
C  35.82400 50.37200 21.46300
C  37.76100 46.12400 22.72800
N  35.82300 49.19200 26.63500
C  36.02100 48.31300 27.65600
C  36.02100 48.96800 29.03200
C  35.51400 50.41300 28.64900
C  35.65600 50.39800 27.11700
C  34.10600 50.69900 29.14500
C  37.45900 49.07800 29.76300
C  37.50700 48.83900 31.31800
H  36.07700 48.78000 32.00400
N  35.80900 50.68000 23.97200
C  35.37200 51.62700 24.87000
C  35.01300 52.81900 24.05400
C  34.96600 52.48600 22.65700
C  35.51800 51.10300 22.65600
C  34.70500 54.16600 24.65800
C  34.71100 53.34600 21.36200
O  34.69100 52.89600 20.20200
C  34.36500 54.83200 21.49100
N  36.74100 48.35100 22.34100
C  36.41200 49.13700 21.26500
C  36.86200 48.48100 19.89900
C  37.72000 47.19800 20.35600
C  37.42900 47.20600 21.90100
C  35.63500 48.16000 18.99100
C  39.31200 47.54000 20.20800
C  40.25800 46.39700 19.77600
N  36.90600 46.93300 24.88200
C  37.40800 45.86800 24.04900
C  37.51100 44.71300 24.82500
C  37.14800 45.08100 26.15300
C  36.80800 46.45700 26.12200
C  38.19700 43.34700 24.37300
C  37.03100 44.61300 27.50200
O  37.24500 43.51500 28.03600
C  36.58300 45.95200 28.33800
C  35.34200 45.61700 29.03700
O  34.19900 45.76200 28.57000
O  35.55700 45.07800 30.27200
C  34.34300 44.76600 31.06300
H  35.25900 52.40300 26.96900
H  35.54000 50.75500 20.48100
H  38.20800 45.25800 22.23500
H  35.39900 48.22000 29.52500
H  36.22200 51.14100 29.04400
H  33.83500 49.89600 29.83100
H  33.28900 50.68400 28.42300
H  34.02200 51.69300 29.58400
H  37.91200 50.05400 29.58800
H  38.11400 48.38200 29.24000
H  38.07300 49.65300 31.77100
H  38.03900 47.90000 31.47100
H  33.79700 54.56800 24.20800
H  35.58500 54.79100 24.50900
H  34.46100 54.08000 25.71700
H  33.38300 54.84100 21.96300
H  34.29300 55.28700 20.50300
H  35.07200 55.41600 22.08200
H  37.41700 49.20300 19.30000
H  37.46500 46.27300 19.83900
H  35.94800 47.29200 18.41000
H  35.49900 48.95400 18.25700
H  34.70000 48.06200 19.54200
H  39.70000 47.81200 21.18900
H  39.47500 48.36900 19.51900
H  39.63800 45.53300 19.53500
H  40.89800 46.02600 20.57600
H  40.88000 46.64100 18.91600
H  38.98900 43.07300 25.07100
H  38.60500 43.58500 23.39100
H  37.58600 42.44400 24.36800
H  37.42700 46.21400 28.97500
H  34.53100 43.78000 31.48800
H  33.43100 44.61600 30.48500
H  34.14100 45.50600 31.83700
Mg 9.75000 47.82000 26.51700
C  8.08500 47.61200 29.48300
C  12.45000 48.99200 28.37400
C  11.30100 48.24800 23.54900
C  6.60700 47.45500 24.74800
N  10.20600 48.23400 28.70800
C  9.32400 48.15000 29.71500
C  9.93500 48.67800 31.03400
C  11.09300 49.59400 30.56900
C  11.30100 48.89200 29.12700
C  10.84100 51.22000 30.58900
C  10.35500 47.49200 31.93300
C  9.88600 47.55500 33.38600
H  9.98400 46.19200 34.11800
N  11.68400 48.32100 26.07900
C  12.60800 48.76900 27.00600
C  13.82100 48.74400 26.31700
C  13.51200 48.51200 24.92600
C  12.07600 48.37300 24.76700
C  15.17400 48.97800 27.03200
C  14.47900 48.50600 23.73100
O  14.17900 48.19600 22.60700
C  15.91300 48.66900 23.92400
N  9.01300 47.90100 24.39200
C  9.87400 48.03000 23.40800
C  9.21300 48.06700 22.01000
C  7.68200 47.79400 22.42200
C  7.74400 47.61800 23.97600
C  9.45500 49.30900 21.03700
C  7.01200 46.62100 21.65900
C  6.57300 46.99000 20.20200
N  7.74700 47.46700 26.99600
C  6.64500 47.37300 26.22900
C  5.51900 47.19600 27.09700
C  5.99400 47.27600 28.39400
C  7.38500 47.46400 28.22700
C  4.14800 46.97000 26.58300
C  5.71100 47.17700 29.80500
O  4.69800 46.99300 30.43600
C  7.06000 47.43100 30.50900
C  7.27800 46.18500 31.28300
O  7.73500 45.11700 30.92400
O  6.75900 46.31200 32.51400
C  6.42100 45.07800 33.28200
H  13.32700 49.33700 28.92700
H  11.81800 48.34000 22.59200
H  5.63600 47.30500 24.27200
H  9.18200 49.24600 31.58000
H  11.94400 49.51700 31.24600
H  10.98800 51.40000 29.52400
H  11.76600 51.53600 31.07300
H  9.93300 51.56900 31.08100
H  11.44300 47.46200 31.97800
H  10.18400 46.51300 31.48400
H  8.85500 47.90200 33.32900
H  10.33900 48.40300 33.90000
H  15.27300 48.77400 28.09800
H  15.46500 49.95400 26.64300
H  15.84200 48.18100 26.70300
H  16.43100 48.77800 22.97100
H  16.19600 47.74700 24.43100
H  16.29800 49.49800 24.51900
H  9.52800 47.21600 21.40600
H  7.07500 48.69000 22.29300
H  8.52300 49.72400 20.65400
H  10.02300 49.03300 20.14900
H  10.00800 50.06800 21.59100
H  6.09800 46.37600 22.19900
H  7.65200 45.74400 21.76000
H  6.71700 48.05200 20.00200
H  5.54000 46.75900 19.94100
H  7.13800 46.37500 19.50200
H  4.07000 46.36400 25.68100
H  3.61700 47.91100 26.43800
H  3.48600 46.48600 27.30000
H  6.93800 48.21600 31.25500
H  6.87300 45.13200 34.27200
H  6.65000 44.11100 32.83400
H  5.34500 45.12600 33.44500

