158

Mg 47.56000 25.35500 27.68500
C  48.70600 27.57700 30.32700
C  47.09200 23.03700 29.96700
C  46.84100 23.36800 25.12800
C  49.15700 27.62000 25.47600
N  47.84400 25.33000 29.87700
C  48.06000 26.40800 30.72200
C  47.82000 26.05100 32.16700
C  47.62600 24.43800 32.05800
C  47.56200 24.22900 30.54400
C  48.71200 23.68200 32.90200
C  46.61600 26.86100 32.66700
C  46.91600 27.49400 34.00200
H  45.78700 27.54500 35.01300
N  46.90300 23.52500 27.55300
C  46.80300 22.65700 28.60600
C  46.33900 21.34700 28.12200
C  46.12300 21.53600 26.73000
C  46.66800 22.87400 26.35600
C  45.97500 20.24000 29.03400
C  45.48600 20.62900 25.77500
O  45.35600 20.76200 24.56600
C  45.10300 19.25700 26.25100
N  47.86100 25.48900 25.59200
C  47.37700 24.60300 24.72700
C  47.60100 24.95300 23.25400
C  48.28900 26.36800 23.34900
C  48.41700 26.55500 24.92300
C  48.46400 23.91200 22.51000
C  47.47400 27.53600 22.67800
C  48.27100 28.77200 22.24500
N  48.78200 27.20100 27.78100
C  49.39900 27.94600 26.79500
C  50.02300 29.04300 27.37600
C  49.77700 28.95800 28.79400
C  49.04200 27.80300 28.95200
C  50.82000 30.06900 26.63100
C  49.95600 29.63600 30.01500
O  50.55400 30.68900 30.24700
C  49.26000 28.83300 31.15300
C  50.07400 28.48800 32.41100
O  50.75700 27.56200 32.71000
O  49.94700 29.57200 33.16900
C  50.49900 29.45100 34.60800
H  46.92300 22.26200 30.71800
H  46.56000 22.71500 24.29800
H  49.47200 28.35500 24.73100
H  48.69100 26.39900 32.72100
H  46.65300 24.22900 32.50400
H  49.14500 24.28400 33.70100
H  49.51500 23.29500 32.27500
H  48.17700 22.88300 33.41500
H  45.79700 26.16600 32.84700
H  46.26300 27.65900 32.01400
H  47.09700 28.56600 33.92300
H  47.69600 26.87200 34.44300
H  46.09700 20.44500 30.09700
H  46.56200 19.36600 28.75400
H  44.88700 20.20100 28.98000
H  44.29100 19.34200 26.97300
H  46.01400 18.83800 26.67800
H  44.83600 18.69500 25.35600
H  46.70400 25.07200 22.64600
H  49.29000 26.44700 22.92400
H  48.65100 23.05300 23.15400
H  49.39900 24.40000 22.23400
H  47.92000 23.54600 21.64000
H  46.61400 27.68800 23.33000
H  47.01800 27.14200 21.77000
H  48.01600 28.95300 21.20100
H  49.33600 28.61600 22.41600
H  48.10800 29.69400 22.80300
H  51.86800 29.79100 26.51700
H  50.72300 30.96100 27.24900
H  50.46200 30.15800 25.60600
H  48.45200 29.46600 31.52100
H  50.14900 28.60200 35.19500
H  50.10200 30.29200 35.17700
H  51.58400 29.41600 34.69900
Mg -5.90300 24.87800 26.16800
C  -4.37300 26.14700 28.94600
C  -7.92600 22.89900 28.17400
C  -6.87400 23.04300 23.40000
C  -3.54600 26.48000 24.23300
N  -5.99300 24.41700 28.25400
C  -5.34900 25.14300 29.25500
C  -5.90300 24.75500 30.66400
C  -6.78100 23.49100 30.42400
C  -6.97500 23.61100 28.88800
C  -6.16800 22.14800 30.92600
C  -6.67500 25.95500 31.24700
C  -6.35400 26.28600 32.71800
H  -5.79400 25.26100 33.75300
N  -7.32000 23.29700 25.80900
C  -8.17700 22.73800 26.77600
C  -9.16900 21.95900 26.12500
C  -8.83100 21.94900 24.73700
C  -7.63100 22.80400 24.59400
C  -10.22600 21.24300 26.90900
C  -9.49500 21.23700 23.57000
O  -8.97600 21.08900 22.49500
C  -10.84400 20.66600 23.79200
N  -5.42400 24.77800 24.02100
C  -5.83000 23.90800 23.06200
C  -5.08500 24.06400 21.74300
C  -4.26500 25.40300 22.02900
C  -4.50600 25.65600 23.46600
C  -4.24200 22.78000 21.42100
C  -4.52900 26.73000 21.27400
C  -4.23600 26.58700 19.78900
N  -4.36300 26.20600 26.43100
C  -3.45500 26.80100 25.59600
C  -2.49100 27.66700 26.30700
C  -2.95000 27.53000 27.65400
C  -3.99400 26.52600 27.69200
C  -1.32200 28.46400 25.69700
C  -2.62400 27.87100 29.00900
O  -1.84900 28.66900 29.51400
C  -3.61600 27.01400 29.87700
C  -2.68500 26.25700 30.72000
O  -1.73200 25.62400 30.34200
O  -2.97100 26.39900 32.09100
C  -1.87000 26.01000 33.01100
H  -8.43500 22.25200 28.89100
H  -7.03100 22.46200 22.48800
H  -2.85800 26.95200 23.52900
H  -5.01800 24.47700 31.23600
H  -7.77700 23.56600 30.86000
H  -5.77800 21.58600 30.07800
H  -6.95600 21.55600 31.39200
H  -5.40900 22.38100 31.67200
H  -7.74100 25.73400 31.17800
H  -6.43300 26.82400 30.63500
H  -7.22200 26.78000 33.15400
H  -5.53300 26.99500 32.61500
H  -10.34700 21.80100 27.83700
H  -9.94000 20.20200 27.05900
H  -11.22100 21.30400 26.46700
H  -11.23600 20.32000 22.83500
H  -11.47400 21.51300 24.06200
H  -10.87400 19.85700 24.52200
H  -5.88200 24.24300 21.02200
H  -3.21800 25.16000 21.84800
H  -3.26100 23.01000 21.00500
H  -4.76700 22.11800 20.73300
H  -4.08200 22.14900 22.29500
H  -3.86400 27.51000 21.64300
H  -5.54400 27.03900 21.52500
H  -3.29000 26.99500 19.43100
H  -5.03100 27.09600 19.24400
H  -4.30300 25.53600 19.50400
H  -1.74900 29.43400 25.43900
H  -0.81900 28.05200 24.82200
H  -0.52300 28.66400 26.41100
H  -4.12000 27.82200 30.40600
H  -1.44400 25.04600 32.73500
H  -2.24800 26.08100 34.03100
H  -1.13400 26.80900 32.92000

