158

Mg 48.76000 36.30500 27.73000
C  46.60600 34.76800 30.11200
C  49.04700 38.87500 29.82600
C  50.35300 37.82900 25.22800
C  47.88200 33.67700 25.53100
N  48.21500 36.56500 29.93500
C  47.27500 35.83500 30.65100
C  47.15900 36.41300 32.10500
C  47.64500 37.96000 31.89200
C  48.34700 37.80200 30.44900
C  46.47800 39.01800 31.84000
C  48.00100 35.62100 33.12400
C  49.38400 36.13400 33.53400
H  49.47200 36.92100 34.88700
N  49.64300 38.03900 27.57600
C  49.66000 38.96000 28.52700
C  50.46200 40.06600 28.11800
C  50.88000 39.76800 26.79600
C  50.32400 38.46900 26.46500
C  50.96000 41.17000 29.03300
C  51.66800 40.68400 25.85200
O  52.08000 40.26900 24.78800
C  51.85100 42.15600 26.21500
N  48.83600 35.88700 25.56600
C  49.67000 36.67400 24.78600
C  50.15000 35.90400 23.52500
C  49.39000 34.50000 23.62500
C  48.64100 34.64400 24.99300
C  49.99800 36.65200 22.16400
C  50.18400 33.09600 23.65200
C  51.31700 32.94900 22.60600
N  47.65600 34.57600 27.79900
C  47.31100 33.60700 26.75100
C  46.46000 32.64400 27.30000
C  46.20200 33.02600 28.56300
C  46.90200 34.21300 28.83800
C  46.00000 31.38400 26.60400
C  45.39900 32.68300 29.78900
O  44.89700 31.67100 30.16400
C  45.53400 33.88100 30.75200
C  45.80100 33.42300 32.11700
O  46.69600 32.67600 32.48800
O  44.71700 33.71000 32.90900
C  44.71500 33.05800 34.22200
H  49.05100 39.78100 30.43600
H  50.99100 38.22800 24.43700
H  47.58200 32.87000 24.85900
H  46.09800 36.47700 32.34500
H  48.42800 38.30500 32.56800
H  46.10100 39.17600 32.85000
H  45.74200 38.66300 31.11900
H  46.85300 39.97100 31.46700
H  48.12700 34.65000 32.64400
H  47.46600 35.51100 34.06700
H  49.85400 36.75600 32.77200
H  49.99900 35.25500 33.72300
H  50.70500 40.91100 30.06000
H  50.54100 42.11700 28.69500
H  52.03500 41.35200 29.03200
H  52.01000 42.72600 25.29900
H  52.69500 42.30500 26.88900
H  50.89800 42.47600 26.63600
H  51.19600 35.74600 23.78800
H  48.71900 34.38200 22.77400
H  49.51400 37.61200 22.34400
H  49.62400 35.99100 21.38200
H  51.02700 36.80900 21.84000
H  49.51200 32.25300 23.49100
H  50.62200 32.98800 24.64400
H  52.30100 32.96400 23.07500
H  51.17600 33.76700 21.90000
H  51.11800 32.06800 21.99600
H  45.51600 30.73200 27.33200
H  46.80500 30.74900 26.23300
H  45.37000 31.68800 25.76900
H  44.61300 34.46400 30.77900
H  45.27100 33.74900 34.85500
H  45.10200 32.04000 34.24000
H  43.71100 33.15900 34.63400
Mg -4.75300 25.16200 25.35800
C  -3.52800 26.29200 28.49700
C  -6.69600 22.95700 27.02200
C  -5.40300 23.62100 22.45000
C  -2.41900 27.22300 23.78800
N  -4.79700 24.51800 27.47900
C  -4.36700 25.27500 28.57100
C  -4.92900 24.74300 29.87100
C  -5.78900 23.51600 29.31100
C  -5.74600 23.63900 27.82800
C  -5.43800 22.03600 29.89800
C  -5.78000 25.75300 30.75100
C  -5.25100 25.86300 32.20700
H  -6.19700 25.35200 33.35300
N  -5.97300 23.62000 24.80500
C  -6.80600 22.98700 25.63900
C  -7.74500 22.11700 24.94400
C  -7.23500 22.08400 23.62400
C  -6.15600 23.10500 23.56100
C  -8.97000 21.42500 25.51900
C  -7.52800 21.13200 22.45600
O  -6.87900 20.94000 21.50400
C  -8.80300 20.34900 22.67300
N  -3.86200 25.24400 23.45900
C  -4.39600 24.54500 22.45000
C  -3.77200 24.89900 21.09000
C  -3.08600 26.28600 21.46700
C  -3.12100 26.27300 22.98400
C  -2.84300 23.82300 20.48200
C  -3.83000 27.52400 20.79500
C  -3.66900 27.54800 19.30600
N  -3.34400 26.65300 25.94300
C  -2.46100 27.36500 25.20900
C  -1.66200 28.23600 26.11600
C  -2.00000 27.84900 27.39500
C  -3.05200 26.86200 27.24000
C  -0.58500 29.24200 25.80700
C  -1.64800 28.03400 28.75500
O  -0.88300 28.79600 29.37300
C  -2.74500 27.10900 29.55600
C  -1.88700 26.36800 30.47700
O  -1.45900 25.20200 30.38600
O  -1.71600 27.02400 31.68100
C  -1.00500 26.32900 32.72800
H  -7.42400 22.30700 27.51300
H  -5.59400 23.06300 21.53100
H  -1.74000 27.83600 23.19100
H  -4.02300 24.46300 30.40800
H  -6.84200 23.53100 29.59300
H  -4.48100 22.05400 30.42000
H  -5.17800 21.30600 29.13200
H  -6.23100 21.58000 30.49100
H  -6.84500 25.56800 30.88900
H  -5.82800 26.70300 30.21900
H  -5.02600 26.89800 32.46500
H  -4.27100 25.40200 32.33700
H  -8.91500 20.33700 25.51400
H  -9.96400 21.68000 25.15000
H  -9.15500 21.58700 26.58100
H  -9.69300 20.97500 22.73000
H  -8.64200 19.69400 23.52900
H  -8.87500 19.62700 21.86000
H  -4.55600 25.05000 20.34800
H  -2.05100 26.41000 21.15000
H  -1.81200 24.17600 20.48000
H  -3.19100 23.45400 19.51700
H  -2.94400 23.02700 21.21900
H  -3.32700 28.41900 21.16400
H  -4.87300 27.58700 21.10400
H  -4.59000 27.11100 18.92000
H  -2.83500 26.99400 18.87400
H  -3.45600 28.55700 18.95400
H  -0.88300 29.83400 24.94200
H  0.42600 28.84500 25.72300
H  -0.56300 29.88900 26.68400
H  -3.43200 27.65800 30.20000
H  0.03900 26.30500 32.41500
H  -1.28900 25.27900 32.78400
H  -1.16800 26.85400 33.67000

