158

Mg 43.80100 4.15600 47.52300
C  41.55600 6.91700 47.27300
C  41.01700 2.19200 48.03600
C  45.72700 1.48200 47.26400
C  46.36300 6.28500 46.87300
N  41.54400 4.57100 47.62100
C  40.90600 5.74700 47.44300
C  39.40000 5.55700 47.63800
C  39.22500 4.03600 47.90900
C  40.66600 3.53800 47.90600
C  38.28700 3.60500 49.10700
C  38.47800 6.11800 46.54900
C  38.96900 6.09300 45.13300
H  38.53900 7.21000 44.16900
N  43.43100 2.09900 47.70300
C  42.22500 1.50600 47.89200
C  42.51400 0.05800 48.02200
C  43.84900 -0.20100 47.69900
C  44.39800 1.14500 47.58700
C  41.48300 -1.00700 48.30200
C  44.52900 -1.55800 47.70700
O  43.89800 -2.55900 48.00300
C  45.89300 -1.84800 47.26700
N  45.69800 3.91200 46.84800
C  46.27800 2.67500 47.04300
C  47.81600 2.82400 47.08700
C  48.04700 4.39700 46.88800
C  46.63500 4.92000 46.85500
C  48.54800 2.18400 48.36400
C  48.87800 4.73200 45.56900
C  50.32500 4.99100 45.86100
N  43.96300 6.20800 46.97000
C  45.13600 7.00100 46.86500
C  44.76600 8.40700 46.76100
C  43.39400 8.39500 46.86600
C  42.90800 7.09900 46.98100
C  45.69700 9.58500 46.63800
C  42.29400 9.23700 47.06000
O  42.27800 10.46600 47.13900
C  40.98200 8.32200 47.14600
C  40.07900 8.72800 48.33000
O  40.24600 8.46900 49.47800
O  38.96600 9.39200 47.78900
C  38.07300 9.97300 48.73800
H  40.11700 1.57600 48.09400
H  46.40800 0.63100 47.20800
H  47.25000 6.90800 46.74500
H  39.10500 6.08800 48.54300
H  38.69700 3.59300 47.06400
H  37.91000 4.53700 49.52800
H  38.85800 3.05100 49.85200
H  37.48500 2.92900 48.80900
H  38.07700 7.10900 46.76200
H  37.53400 5.57800 46.47600
H  38.49200 5.22000 44.68900
H  40.02900 5.84300 45.07900
H  41.65400 -1.44500 49.28500
H  41.51700 -1.60900 47.39400
H  40.45700 -0.64000 48.26400
H  46.73500 -1.45700 47.83700
H  46.00700 -1.41900 46.27100
H  45.93800 -2.93500 47.19300
H  48.32300 2.28000 46.29000
H  48.51900 4.66700 47.83200
H  47.75800 1.94500 49.07600
H  49.26900 2.80700 48.89300
H  49.00000 1.25600 48.01600
H  48.54600 5.71400 45.23200
H  48.71600 4.03600 44.74700
H  50.89000 4.83700 44.94100
H  50.76100 4.40900 46.67300
H  50.38300 6.03600 46.16700
H  46.49400 9.29800 45.95100
H  46.18600 9.66800 47.60900
H  45.19600 10.51900 46.38400
H  40.35400 8.35100 46.25600
H  38.59000 10.32100 49.63200
H  37.39800 9.17000 49.03400
H  37.62700 10.79100 48.17300
Mg 35.49200 1.54900 29.58900
C  33.57700 3.03600 32.09400
C  38.24400 2.02000 31.63800
C  37.43400 0.75200 26.98600
C  32.74700 1.95000 27.47900
N  35.79300 2.22900 31.68900
C  34.82000 2.65500 32.56600
C  35.34900 2.88700 34.00500
C  36.90300 2.50800 33.80800
C  37.01500 2.29100 32.27100
C  37.93300 3.58900 34.34000
C  34.60800 1.99400 35.09900
C  34.06900 2.73400 36.30800
H  34.85500 3.97100 36.73700
N  37.50900 1.17800 29.36900
C  38.45500 1.45000 30.35800
C  39.80800 1.11500 29.79700
C  39.59000 0.68000 28.45200
C  38.15400 0.96700 28.22900
C  41.16000 1.13700 30.49300
C  40.58800 0.00400 27.44900
O  40.13900 -0.38900 26.31000
C  42.12500 -0.01000 27.65200
N  35.17000 1.42400 27.51200
C  36.08500 0.86400 26.66300
C  35.51300 0.76300 25.25300
C  33.93700 0.86300 25.52100
C  33.95400 1.39600 26.92400
C  35.98800 1.88100 24.17000
C  33.20400 -0.53700 25.39400
C  32.17000 -0.73500 24.23000
N  33.60800 2.42600 29.61600
C  32.61300 2.51600 28.71500
C  31.38400 3.18300 29.15200
C  31.76200 3.33900 30.50900
C  33.07000 2.90000 30.74700
C  30.13200 3.49300 28.34800
C  31.24900 3.92300 31.69900
O  30.17300 4.42100 31.86900
C  32.30500 3.60000 32.77000
C  32.54200 4.90200 33.47500
O  33.39000 5.66800 33.22300
O  31.52200 5.12600 34.35300
C  31.51400 6.39600 35.09600
H  39.14100 2.07900 32.25800
H  37.97300 0.27100 26.16700
H  31.92000 1.85600 26.77100
H  35.31000 3.95100 34.23900
H  37.18500 1.57100 34.28900
H  37.29600 4.37500 34.74600
H  38.52000 4.00200 33.52000
H  38.58000 3.09400 35.06400
H  35.16100 1.12500 35.45700
H  33.70600 1.58100 34.64800
H  33.90000 2.05400 37.14300
H  33.13300 3.17600 35.96700
H  41.80000 2.01000 30.36800
H  41.62900 0.17100 30.30400
H  41.04100 1.08700 31.57500
H  42.69900 0.33500 26.79200
H  42.47400 -0.97700 28.01400
H  42.42700 0.78500 28.33500
H  35.76400 -0.23300 24.88900
H  33.45200 1.58100 24.86000
H  35.24400 2.60600 23.84100
H  36.34000 1.37500 23.27200
H  36.85200 2.35200 24.63800
H  32.71400 -0.70500 26.35400
H  34.01300 -1.24900 25.23300
H  32.43200 -1.52700 23.52900
H  31.99900 0.13200 23.59100
H  31.19800 -0.97400 24.66100
H  30.39700 4.23200 27.59300
H  29.23600 3.72000 28.92500
H  29.86600 2.64700 27.71400
H  31.73200 2.91200 33.39100
H  32.35100 7.04400 34.83600
H  31.70800 6.23300 36.15600
H  30.63600 7.03500 35.00800

