158

Mg 16.68300 -1.95700 28.79300
C  15.25700 0.25300 31.15500
C  18.57200 -3.31400 31.43100
C  18.16800 -3.90200 26.63000
C  15.22400 -0.03400 26.32200
N  16.83300 -1.53400 31.02100
C  16.23600 -0.62900 31.75900
C  16.63000 -0.73200 33.22000
C  17.86400 -1.69700 33.20600
C  17.72900 -2.19200 31.81700
C  19.23900 -1.11800 33.69100
C  15.36900 -1.18900 34.16100
C  15.28000 -0.87600 35.71400
H  16.51000 -0.36800 36.46600
N  18.10300 -3.40200 29.00400
C  18.69500 -3.90100 30.13900
C  19.45900 -5.11600 29.81800
C  19.29200 -5.32000 28.45600
C  18.41000 -4.23300 27.99300
C  20.31800 -5.77500 30.91600
C  19.85800 -6.50300 27.60300
O  19.48100 -6.73000 26.46300
C  20.83400 -7.55700 28.16500
N  16.82600 -1.81800 26.77600
C  17.43500 -2.79200 26.06300
C  17.19500 -2.60000 24.55000
C  16.34800 -1.41600 24.46700
C  16.06300 -1.05400 25.92500
C  18.52000 -2.47800 23.84000
C  15.01100 -1.70000 23.79400
C  14.27700 -0.50200 23.21900
N  15.41900 -0.32300 28.73000
C  14.91200 0.35000 27.58000
C  14.12600 1.48700 27.93800
C  14.11900 1.37600 29.41300
C  14.98800 0.29600 29.77400
C  13.49200 2.46700 27.10400
C  13.68400 1.98800 30.59600
O  12.90700 2.96800 30.73800
C  14.37600 1.25000 31.75500
C  15.10800 2.33700 32.52300
O  15.97400 3.06600 32.07200
O  14.76600 2.37600 33.84100
C  15.50500 3.33000 34.62700
H  19.05200 -3.65800 32.34900
H  18.52300 -4.67000 25.94000
H  14.84400 0.64700 25.55700
H  16.89900 0.26000 33.58200
H  17.63300 -2.60700 33.75900
H  19.12800 -0.31700 34.42200
H  19.84800 -0.73700 32.87200
H  19.75200 -1.96800 34.14300
H  15.30300 -2.27700 34.15300
H  14.39900 -0.85700 33.79200
H  14.97700 -1.85100 36.09700
H  14.52800 -0.11200 35.91200
H  19.73900 -6.56400 31.39600
H  20.79400 -5.10700 31.63400
H  21.15100 -6.32800 30.48200
H  21.78400 -7.05200 28.33800
H  20.96000 -8.36000 27.43900
H  20.55700 -8.02000 29.11200
H  16.76700 -3.57400 24.31200
H  16.80800 -0.49000 24.12300
H  18.63400 -3.40100 23.27200
H  19.31500 -2.35100 24.57500
H  18.46500 -1.62700 23.16000
H  14.25900 -2.17100 24.42700
H  15.20500 -2.38700 22.97100
H  13.41100 -0.32500 23.85700
H  13.97600 -0.87000 22.23900
H  14.95500 0.34500 23.10800
H  12.47500 2.57900 27.47800
H  13.35600 1.89300 26.18800
H  13.90100 3.45000 26.87000
H  13.71400 0.58200 32.30600
H  16.59100 3.30900 34.53900
H  15.19300 3.10300 35.64600
H  15.24100 4.37500 34.46400
Mg 25.82500 50.87900 26.42100
C  23.50200 51.88700 28.89000
C  28.09300 50.36200 29.02200
C  28.22200 50.76700 24.07900
C  23.52300 51.97700 24.04500
N  25.75400 51.07500 28.69500
C  24.68100 51.24900 29.41400
C  24.90500 50.96200 30.89600
C  26.48000 50.76200 30.88600
C  26.80400 50.73900 29.37000
C  27.27900 51.85300 31.62500
C  24.15700 49.71200 31.47100
C  23.14200 49.92500 32.64300
H  23.37000 49.17500 33.93800
N  27.82800 50.37100 26.50600
C  28.51700 50.18500 27.64900
C  29.85500 49.74300 27.24900
C  29.91300 49.86300 25.82900
C  28.62200 50.33600 25.39500
C  30.91100 49.31200 28.21100
C  31.06100 49.51800 24.91800
O  30.92200 49.64000 23.73300
C  32.30800 49.01300 25.51300
N  25.90700 51.28000 24.29500
C  26.98300 51.17500 23.52800
C  26.62400 51.49700 21.98900
C  25.08300 51.72100 22.06300
C  24.79400 51.64500 23.53700
C  27.49800 52.71800 21.64100
C  24.20400 50.70600 21.20100
C  23.85400 51.15600 19.77000
N  23.96300 51.80200 26.40400
C  23.10500 52.11400 25.36300
C  21.86200 52.64100 25.91300
C  21.99400 52.61700 27.28400
C  23.25600 52.05800 27.55200
C  20.73000 53.20400 25.05600
C  21.32500 52.89100 28.52100
O  20.21600 53.35400 28.78900
C  22.35500 52.41400 29.68600
C  22.74900 53.62100 30.47700
O  23.66900 54.41700 30.21000
O  21.81500 53.77900 31.48000
C  22.14300 54.86800 32.41200
H  28.84300 50.05700 29.75400
H  29.04000 50.84200 23.36000
H  22.69800 52.20300 23.36600
H  24.64200 51.86000 31.45600
H  26.66400 49.78500 31.33200
H  27.59900 51.69400 32.65500
H  26.80100 52.81200 31.42200
H  28.25600 51.97800 31.15900
H  24.91000 49.02300 31.85300
H  23.48000 49.28700 30.73000
H  22.16600 49.63100 32.25800
H  23.31700 50.97100 32.89300
H  31.04400 48.23200 28.26500
H  30.77800 49.77800 29.18800
H  31.85500 49.77900 27.92800
H  32.17100 48.25900 26.28800
H  32.81400 49.93500 25.80000
H  32.84800 48.56100 24.68200
H  26.91000 50.62800 21.39600
H  24.89400 52.71100 21.64800
H  28.57300 52.53600 21.61800
H  27.34600 53.62800 22.22100
H  27.30700 52.91800 20.58600
H  23.24100 50.60000 21.70200
H  24.63300 49.71700 21.04300
H  24.06700 50.39700 19.01800
H  24.45000 52.02900 19.50400
H  22.79000 51.38200 19.69800
H  19.87900 53.32600 25.72600
H  20.36200 52.55900 24.25800
H  21.04000 54.18500 24.69800
H  21.99800 51.66800 30.39600
H  23.03000 54.69400 33.02000
H  21.35900 55.07800 33.13900
H  22.31000 55.84900 31.96700

