158

Mg 45.06700 4.38600 47.03300
C  43.35800 7.50400 46.73100
C  41.97600 2.91200 46.37300
C  46.78700 1.57800 46.59500
C  48.15500 6.21500 46.87100
N  42.80500 5.24800 46.48700
C  42.39900 6.51000 46.50900
C  40.86600 6.51800 46.25500
C  40.52100 4.97800 46.23000
C  41.81700 4.32700 46.37700
C  39.46900 4.59000 47.30000
C  40.34300 7.35500 44.97700
C  41.25900 7.37300 43.69600
H  40.72000 6.42600 42.63200
N  44.48600 2.47500 46.58400
C  43.16500 2.07700 46.36100
C  43.24900 0.64800 46.10800
C  44.62100 0.21600 46.33300
C  45.36300 1.45200 46.54000
C  42.10700 -0.15800 45.74900
C  45.16100 -1.15300 46.14700
O  44.35300 -2.00100 45.79200
C  46.57400 -1.51300 46.36300
N  47.20800 3.94400 46.59600
C  47.58800 2.67400 46.66000
C  49.18500 2.53200 46.66500
C  49.61500 4.03800 46.65500
C  48.22600 4.81700 46.71500
C  49.57800 1.74100 47.94700
C  50.45700 4.47200 45.45300
C  51.70100 3.62900 45.05200
N  45.70800 6.36800 46.94800
C  46.93600 6.94700 46.86000
C  46.84500 8.38600 46.85000
C  45.43000 8.61400 46.86500
C  44.78400 7.40800 46.97800
C  47.94000 9.37500 46.97000
C  44.35200 9.66900 46.88400
O  44.37800 10.89600 46.80000
C  42.94900 8.89900 46.74400
C  42.20200 9.28900 47.97800
O  42.11300 8.59700 49.00300
O  41.42400 10.41300 47.75800
C  40.49800 10.57200 48.85700
H  40.99200 2.43800 46.37200
H  47.49100 0.74400 46.60000
H  49.11700 6.73200 46.86500
H  40.55200 7.03800 47.16000
H  40.06100 4.69200 45.28400
H  39.85900 3.84600 47.99500
H  38.63200 4.18000 46.73500
H  39.25800 5.42400 47.97000
H  40.00400 8.34000 45.29600
H  39.40000 6.87100 44.72100
H  42.28100 7.03100 43.86000
H  41.25900 8.39000 43.30500
H  41.84700 -0.96500 46.43300
H  42.15700 -0.66500 44.78500
H  41.20400 0.44700 45.66900
H  46.83000 -2.57000 46.29100
H  46.93900 -1.16200 47.32800
H  47.09800 -1.13300 45.48600
H  49.56200 2.14700 45.71800
H  50.07800 4.35600 47.58900
H  49.73000 0.70300 47.65000
H  48.80900 1.71700 48.71900
H  50.49500 2.04600 48.45000
H  50.71800 5.48600 45.75600
H  49.86500 4.52900 44.54000
H  51.70500 3.16000 44.06900
H  51.85400 2.83400 45.78300
H  52.61700 4.21900 45.08600
H  48.68800 9.09200 47.71100
H  47.46300 10.32600 47.20900
H  48.59900 9.47000 46.10700
H  42.60500 9.37700 45.82700
H  39.81000 9.73000 48.92600
H  39.90600 11.45700 48.62400
H  41.09000 10.71300 49.76200
Mg 9.53600 46.76900 26.55100
C  7.58400 46.77400 29.49700
C  12.28000 47.72700 28.49900
C  11.38600 46.57900 23.81100
C  6.61300 46.05300 24.74000
N  9.83700 47.38700 28.73900
C  8.95500 47.13600 29.76600
C  9.63300 47.36000 31.06900
C  11.07000 48.06300 30.76700
C  11.07800 47.75200 29.24100
C  11.24300 49.52400 31.27500
C  9.80700 46.04600 31.91300
C  9.23100 46.15300 33.35200
H  9.48500 45.13900 34.34500
N  11.47000 47.15000 26.17700
C  12.46800 47.46500 27.10000
C  13.66900 47.70900 26.37300
C  13.41900 47.41000 25.01700
C  12.06900 47.04000 24.96900
C  15.01800 48.19200 27.02800
C  14.36200 47.60100 23.80100
O  14.01500 47.24000 22.67900
C  15.66100 48.39200 23.94000
N  9.05700 46.43500 24.57900
C  10.05300 46.31900 23.58500
C  9.43700 45.85200 22.21700
C  7.96300 45.38300 22.64200
C  7.85700 45.93300 24.08800
C  9.37900 46.85200 21.10500
C  7.68200 43.86600 22.41200
C  8.43400 43.01500 23.47100
N  7.49400 46.48100 26.94200
C  6.41700 46.30600 26.10300
C  5.14800 46.24100 26.83500
C  5.56800 46.34600 28.19500
C  7.00200 46.50800 28.20500
C  3.73800 46.13300 26.23900
C  5.07900 46.42200 29.59600
O  3.94200 46.40300 30.01800
C  6.38900 46.60100 30.51900
C  6.42600 45.33200 31.28100
O  7.05300 44.34000 30.87500
O  5.69100 45.44800 32.44800
C  5.90900 44.32500 33.37900
H  13.13100 48.09800 29.07400
H  11.94100 46.48400 22.87500
H  5.68700 45.71400 24.27200
H  8.99600 48.10100 31.55200
H  11.90400 47.53700 31.23200
H  11.86900 49.61000 32.16300
H  10.23900 49.82800 31.57200
H  11.68000 50.19300 30.53400
H  10.83900 45.69600 31.91900
H  9.39600 45.16400 31.42000
H  8.16800 46.27000 33.14400
H  9.55100 47.13100 33.71400
H  14.88300 48.00900 28.09400
H  15.16800 49.26600 26.90900
H  15.89700 47.63200 26.70900
H  15.37800 49.42100 24.16200
H  16.25300 48.41400 23.02400
H  16.35200 48.01100 24.69200
H  10.06100 44.98400 22.00700
H  7.27800 45.85000 21.93300
H  8.51300 47.50700 21.19500
H  9.37900 46.28900 20.17200
H  10.27400 47.46700 21.01000
H  8.10400 43.55900 21.45500
H  6.61300 43.65500 22.42800
H  7.72100 42.27700 23.83800
H  8.79200 43.59800 24.31900
H  9.25700 42.46500 23.01400
H  3.05400 45.90500 27.05700
H  3.74900 45.38600 25.44600
H  3.44700 47.05900 25.74300
H  6.22300 47.44000 31.19500
H  6.38000 44.65400 34.30500
H  6.53200 43.50100 33.03100
H  4.96600 43.83400 33.61900

