158

Mg 16.54100 -2.32000 27.77300
C  15.65700 -0.38400 30.43000
C  18.96200 -3.82600 29.93500
C  17.97100 -3.77400 25.12000
C  14.77100 -0.17600 25.58900
N  17.24500 -2.06700 29.89700
C  16.61900 -1.31600 30.80900
C  17.12700 -1.51500 32.24100
C  18.26600 -2.64400 32.05200
C  18.17800 -2.85500 30.50700
C  19.68400 -2.27100 32.64800
C  15.90600 -1.88700 33.21700
C  15.99800 -1.39200 34.68400
H  17.31600 -0.63200 35.16400
N  18.12900 -3.77700 27.56200
C  18.90800 -4.29500 28.57800
C  19.67300 -5.38200 27.99900
C  19.41800 -5.38700 26.54400
C  18.53900 -4.27800 26.31000
C  20.36900 -6.38900 28.92400
C  20.01300 -6.36200 25.53800
O  19.67900 -6.28600 24.42500
C  21.00800 -7.41100 25.98800
N  16.45600 -2.00400 25.71300
C  17.09500 -2.77500 24.82800
C  16.70200 -2.45800 23.31800
C  15.58600 -1.43400 23.54600
C  15.53400 -1.18700 25.05500
C  17.84800 -1.93200 22.50800
C  14.20100 -1.90000 22.92600
C  13.34600 -2.71200 23.93300
N  15.33700 -0.76600 27.92000
C  14.59100 0.00400 26.97500
C  13.84400 1.05000 27.61500
C  14.23000 0.93700 28.99700
C  15.13400 -0.17700 29.09500
C  13.03800 2.12500 26.85700
C  14.03400 1.53700 30.27900
O  13.19700 2.30200 30.68800
C  14.98900 0.72100 31.21200
C  15.92900 1.79500 31.68700
O  16.71000 2.37300 31.02800
O  15.76900 2.04000 33.02500
C  16.68700 3.00600 33.60600
H  19.63800 -4.33900 30.62100
H  18.29100 -4.33300 24.23800
H  14.20800 0.54900 24.99800
H  17.44100 -0.50000 32.48500
H  17.87600 -3.57700 32.46000
H  20.49800 -2.11700 31.94000
H  19.92900 -3.14000 33.25900
H  19.76500 -1.32600 33.18600
H  15.72100 -2.94900 33.05300
H  14.98600 -1.42700 32.85500
H  15.94100 -2.26300 35.33700
H  15.19400 -0.68200 34.87500
H  19.94700 -7.37900 28.75100
H  20.46900 -6.20200 29.99300
H  21.39700 -6.37900 28.56200
H  20.58700 -8.08600 26.73200
H  21.89400 -6.81500 26.20900
H  21.23700 -8.00800 25.10500
H  16.29700 -3.29000 22.74200
H  15.78600 -0.43500 23.15800
H  18.59100 -1.48400 23.16700
H  17.37900 -1.17900 21.87400
H  18.14100 -2.74700 21.84600
H  14.45000 -2.55000 22.08700
H  13.64900 -1.02600 22.57900
H  12.85400 -1.91700 24.49300
H  13.90000 -3.30300 24.66200
H  12.57700 -3.30100 23.43400
H  12.35200 2.66300 27.51100
H  12.45900 1.66700 26.05400
H  13.65600 2.90200 26.40800
H  14.31300 0.26800 31.93700
H  16.45000 3.97600 33.17000
H  17.65700 2.57400 33.36200
H  16.45000 3.19000 34.65500
Mg 46.68000 17.00100 28.42700
C  44.88600 16.90600 31.50600
C  49.11300 18.82500 30.08900
C  47.89900 17.64400 25.44500
C  43.89000 15.48200 26.99100
N  46.88900 17.92000 30.60200
C  46.03800 17.74300 31.61200
C  46.70200 18.10300 32.98600
C  47.97900 18.87900 32.53000
C  48.04900 18.51100 31.00200
C  47.98900 20.41100 32.82500
C  47.06400 16.89000 33.89500
C  46.89900 17.04800 35.45400
H  46.53200 18.38000 36.13500
N  48.28300 17.97100 27.88000
C  49.12600 18.67500 28.67600
C  50.21400 19.25000 27.84000
C  49.96900 18.82800 26.51300
C  48.57800 18.18500 26.54500
C  51.38000 20.05700 28.40100
C  50.84700 18.99700 25.26300
O  50.46900 18.57600 24.14400
C  52.27700 19.31900 25.39600
N  45.99300 16.62100 26.46500
C  46.78600 16.88200 25.36900
C  46.17200 16.24000 24.07600
C  44.93400 15.54600 24.66000
C  44.96600 15.83700 26.11100
C  45.88300 17.24400 22.92600
C  44.88600 14.01900 24.34300
C  43.74700 13.68800 23.36200
N  44.81500 16.29700 29.07200
C  43.86400 15.66400 28.38100
C  42.80600 15.22600 29.22700
C  43.21600 15.61500 30.47000
C  44.46300 16.32800 30.34600
C  41.57400 14.38600 28.93400
C  42.81600 15.54500 31.86400
O  41.84300 15.02300 32.46400
C  43.91300 16.34400 32.59500
C  43.26900 17.50100 33.27000
O  42.96800 18.59000 32.79100
O  42.89600 16.99100 34.52500
C  42.35600 18.11600 35.42700
H  49.99400 19.27400 30.55300
H  48.34100 17.88900 24.47600
H  42.97200 15.00500 26.64100
H  46.10100 18.80700 33.56000
H  48.86300 18.47500 33.02500
H  47.07900 20.73400 33.33200
H  47.92900 20.82600 31.81900
H  48.90600 20.70700 33.33600
H  48.12000 16.62400 33.84100
H  46.51900 15.98900 33.61200
H  47.94500 16.98300 35.75600
H  46.36400 16.27400 36.00400
H  52.31100 19.49500 28.46600
H  51.12600 20.48200 29.37200
H  51.57200 20.90400 27.74200
H  52.46600 20.37900 25.57000
H  52.77500 19.00000 24.48100
H  52.61400 18.62800 26.16800
H  46.95900 15.57400 23.72100
H  44.08100 16.09200 24.25800
H  46.51800 16.91300 22.10500
H  46.18400 18.27300 23.12200
H  44.84900 17.24500 22.58000
H  44.75200 13.46500 25.27200
H  45.85700 13.72400 23.94700
H  44.16300 13.39000 22.40000
H  43.14200 14.55500 23.09900
H  43.24600 12.79500 23.73800
H  41.20300 14.60100 27.93100
H  40.70600 14.59700 29.55900
H  41.92400 13.35500 28.95800
H  44.28400 15.67600 33.37300
H  41.64600 18.74900 34.89500
H  43.07300 18.75900 35.93800
H  41.71700 17.62200 36.16000

