158

Mg 9.41100 47.96800 27.55300
C  7.11100 47.74800 30.27800
C  11.87300 48.27200 29.67800
C  11.40300 48.48700 24.77300
C  6.56200 48.02400 25.31200
N  9.38500 47.95100 29.77500
C  8.43500 47.84300 30.73000
C  8.96400 48.00500 32.18400
C  10.51300 48.27500 31.93200
C  10.65000 48.08100 30.36500
C  11.08800 49.60300 32.58900
C  8.53600 46.87800 33.15400
C  9.63500 46.28000 34.05000
H  9.07300 45.80500 35.39800
N  11.40300 48.22800 27.28600
C  12.27400 48.23100 28.29900
C  13.59000 48.42300 27.84100
C  13.50700 48.50600 26.43200
C  12.06000 48.34300 26.03800
C  14.88200 48.41900 28.74000
C  14.64300 48.54300 25.42300
O  14.41100 48.50700 24.18600
C  16.09600 48.47300 25.87000
N  9.06100 48.16200 25.38600
C  10.06600 48.34000 24.45900
C  9.55700 48.54300 23.02100
C  8.04500 48.32900 23.22800
C  7.85300 48.16700 24.72200
C  10.00000 49.92100 22.41200
C  7.24800 47.14200 22.52000
C  5.94400 47.45500 21.76800
N  7.29600 47.91200 27.66100
C  6.29600 47.97200 26.69200
C  5.02300 47.84600 27.34800
C  5.28900 47.69700 28.70600
C  6.68000 47.76300 28.85200
C  3.66600 47.71800 26.69200
C  4.68700 47.62600 29.97700
O  3.49300 47.42700 30.27000
C  5.84100 47.70100 31.07300
C  5.70100 46.40600 31.70900
O  5.93900 45.35500 31.19600
O  5.36900 46.50300 33.04600
C  5.24200 45.15600 33.74400
H  12.68800 48.62700 30.31100
H  12.03700 48.81000 23.94500
H  5.77500 47.96800 24.55600
H  8.46800 48.89100 32.58100
H  11.14000 47.48900 32.35400
H  12.10100 49.35200 32.90700
H  10.41900 50.00100 33.35200
H  11.19000 50.30400 31.76100
H  8.16500 46.01400 32.60200
H  7.63400 47.23100 33.65200
H  10.29600 47.11800 34.27100
H  10.17000 45.43400 33.61900
H  14.68700 48.46400 29.81100
H  15.44400 49.32700 28.52200
H  15.57400 47.60800 28.51400
H  16.20500 47.44200 26.20700
H  16.15900 49.28600 26.59300
H  16.84400 48.50200 25.07800
H  9.97400 47.79000 22.35200
H  7.55700 49.29000 23.06700
H  10.80400 50.45600 22.91700
H  9.13700 50.58300 22.32900
H  10.32500 49.66600 21.40400
H  7.01700 46.40100 23.28600
H  7.88600 46.62000 21.80700
H  5.76900 48.52900 21.83500
H  5.12900 46.88500 22.21200
H  5.93600 47.18600 20.71100
H  3.91000 47.54400 25.64400
H  3.14600 48.67200 26.77200
H  3.13900 46.93600 27.24000
H  5.71900 48.58100 31.70400
H  4.89200 45.21100 34.77500
H  6.18400 44.63500 33.57200
H  4.44600 44.56800 33.28700
Mg -4.87600 24.93800 26.44200
C  -3.35400 26.66900 29.10400
C  -5.82000 22.65800 28.75100
C  -6.34700 23.54700 23.90500
C  -3.30700 27.32300 24.18600
N  -4.69000 24.80100 28.68100
C  -4.18000 25.65900 29.53300
C  -4.51500 25.35200 30.96000
C  -4.75800 23.77900 30.95300
C  -5.13500 23.74600 29.39500
C  -3.45200 22.99700 31.23600
C  -5.74100 26.17100 31.50900
C  -5.49400 26.94800 32.83800
H  -4.96000 26.18800 34.03400
N  -5.99200 23.31500 26.28500
C  -6.25900 22.45000 27.38900
C  -7.11300 21.40400 26.88300
C  -7.32200 21.69100 25.46800
C  -6.50500 22.89700 25.15700
C  -7.55000 20.27400 27.70100
C  -8.15300 21.00800 24.38400
O  -8.23900 21.27300 23.20200
C  -9.12000 19.96800 24.88300
N  -4.62400 25.28100 24.33300
C  -5.53700 24.68100 23.56400
C  -5.40200 25.13400 22.09600
C  -4.30600 26.21000 22.11100
C  -4.07800 26.33500 23.64300
C  -5.05500 23.94000 21.15400
C  -4.71700 27.56100 21.43100
C  -3.82600 28.01200 20.27500
N  -3.55400 26.59400 26.57100
C  -3.04900 27.44100 25.58800
C  -2.18700 28.40400 26.22800
C  -2.27100 28.13400 27.59300
C  -3.13700 27.06400 27.72900
C  -1.36300 29.59500 25.71500
C  -1.74400 28.58100 28.92600
O  -0.95700 29.45500 29.27600
C  -2.62300 27.69000 29.90900
C  -1.69000 27.10200 30.91500
O  -0.69900 26.44900 30.65700
O  -1.97300 27.40000 32.17100
C  -1.04600 26.95500 33.20500
H  -6.06400 21.86100 29.45700
H  -6.92400 23.25300 23.02500
H  -2.88800 28.12700 23.57700
H  -3.69800 25.63400 31.62400
H  -5.53800 23.57200 31.68600
H  -3.53400 22.35500 32.11400
H  -2.63100 23.69100 31.41400
H  -3.22800 22.38500 30.36200
H  -6.67500 25.61400 31.58000
H  -5.99500 26.92800 30.76700
H  -6.41900 27.33500 33.26400
H  -4.86600 27.83200 32.73400
H  -8.63900 20.24400 27.73900
H  -7.13700 20.29800 28.70900
H  -7.15300 19.35900 27.26200
H  -8.56500 19.06300 25.13000
H  -9.72600 19.71000 24.01500
H  -9.75000 20.35800 25.68200
H  -6.32000 25.51300 21.64500
H  -3.32200 25.84800 21.81300
H  -5.80100 23.88400 20.36100
H  -5.05400 22.98100 21.67300
H  -4.04700 24.07500 20.76200
H  -4.78200 28.34500 22.18400
H  -5.69100 27.34400 20.99200
H  -2.89500 28.53200 20.50000
H  -4.42300 28.66200 19.63600
H  -3.61400 27.23100 19.54400
H  -1.48300 29.71200 24.63800
H  -0.28400 29.45200 25.76800
H  -1.62000 30.43200 26.36500
H  -3.29000 28.31500 30.50200
H  -0.82200 25.89100 33.12400
H  -1.61500 27.21800 34.09600
H  -0.08900 27.47300 33.25700

