158

Mg 40.15200 8.90300 29.04600
C  42.05900 9.90500 31.79100
C  38.29900 6.89700 31.20400
C  38.18200 8.00600 26.40200
C  42.49800 10.30900 26.89500
N  40.23600 8.37800 31.33300
C  40.91700 9.14400 32.22900
C  40.47200 8.85400 33.66000
C  39.42100 7.61400 33.41400
C  39.27200 7.59900 31.89100
C  39.92600 6.19700 34.06500
C  39.83200 10.03800 34.37800
C  39.31000 9.80900 35.82100
H  39.79300 10.82400 36.81000
N  38.36400 7.76600 28.84100
C  37.82500 7.01700 29.83800
C  36.60800 6.33600 29.30700
C  36.65700 6.64500 27.88100
C  37.73700 7.56300 27.65300
C  35.67000 5.48700 30.11600
C  35.80200 5.99000 26.79300
O  35.93600 6.18600 25.58800
C  34.93600 4.86600 27.20000
N  40.28000 9.00600 26.97000
C  39.36900 8.67100 26.10000
C  39.68600 9.14000 24.68300
C  40.95900 10.04700 24.83200
C  41.25900 9.80800 26.29700
C  39.67600 7.94600 23.57600
C  40.85400 11.58200 24.48200
C  39.59400 12.32700 24.83600
N  41.99700 9.70300 29.22500
C  42.83700 10.20100 28.22200
C  43.98900 10.79100 28.85800
C  43.64800 10.79600 30.23400
C  42.49300 10.10400 30.44400
C  45.23300 11.40500 28.26900
C  44.15400 11.23800 31.51500
O  45.15700 11.83900 31.81500
C  43.08500 10.70700 32.54300
C  43.72700 9.92200 33.60400
O  44.18700 8.81000 33.42800
O  43.62100 10.51000 34.84600
C  44.14700 9.77100 36.01500
H  37.57600 6.32300 31.78800
H  37.60700 7.72900 25.51500
H  43.15100 10.96800 26.31800
H  41.35300 8.50900 34.20200
H  38.42300 7.86700 33.77100
H  40.76900 6.30700 34.74700
H  40.06700 5.45100 33.28300
H  39.11500 5.87100 34.71600
H  38.93900 10.28900 33.80600
H  40.57600 10.83400 34.36300
H  39.66500 8.82500 36.12900
H  38.22700 9.73700 35.72200
H  34.63200 5.80600 30.02900
H  35.89100 5.71400 31.15900
H  35.97000 4.46200 29.89900
H  35.65300 4.15500 27.61100
H  34.54800 4.40000 26.29400
H  34.12700 5.11400 27.88600
H  38.92600 9.88100 24.43600
H  41.74300 9.74100 24.14000
H  38.82000 8.00100 22.90300
H  39.74000 6.92200 23.94500
H  40.52700 8.23200 22.95800
H  41.13600 11.69500 23.43500
H  41.59500 12.22900 24.95000
H  39.04000 12.67300 23.96200
H  39.81300 13.27900 25.32000
H  38.94900 11.69200 25.44400
H  46.08100 11.46300 28.95100
H  44.96500 12.38500 27.87400
H  45.48600 10.88100 27.34800
H  42.68900 11.58100 33.05900
H  44.92900 10.42700 36.39800
H  44.55000 8.77700 35.81900
H  43.50600 9.77400 36.89600
Mg 26.39400 49.78200 26.90200
C  24.48500 51.35000 29.47100
C  28.83600 49.24000 29.39200
C  28.37400 48.76600 24.52500
C  24.17800 51.35200 24.55800
N  26.50600 50.11000 29.20000
C  25.48700 50.59400 29.97700
C  25.85800 50.38900 31.45700
C  27.36600 49.99700 31.39000
C  27.67100 49.80400 29.89800
C  28.37400 50.98700 32.12700
C  24.95000 49.26300 32.24600
C  24.16100 49.80400 33.35800
H  24.06000 49.02100 34.72700
N  28.20000 48.92800 26.98300
C  29.14100 48.87400 28.04500
C  30.30500 48.27700 27.55300
C  30.20600 48.11000 26.14700
C  28.87000 48.55800 25.84000
C  31.53400 48.03000 28.40400
C  31.29900 47.84000 25.07200
O  31.16600 47.76700 23.83700
C  32.77300 47.57500 25.47300
N  26.31500 49.95000 24.82800
C  27.20800 49.30900 24.04800
C  26.90200 49.55800 22.55700
C  25.57500 50.35600 22.60400
C  25.33700 50.62200 24.12500
C  28.09100 50.29600 21.69900
C  24.39400 49.55400 22.02300
C  23.11900 50.26900 21.52400
N  24.62500 51.05500 26.93600
C  23.91100 51.67400 25.92700
C  22.69600 52.33600 26.51500
C  23.01500 52.25700 27.93600
C  24.16400 51.49300 28.10500
C  21.50800 52.83000 25.74400
C  22.52200 52.60400 29.20200
O  21.50900 53.17000 29.42600
C  23.44600 52.07700 30.31800
C  24.03700 53.18500 31.11100
O  24.68900 54.06900 30.60200
O  23.65700 53.08000 32.41500
C  24.21400 54.10600 33.36500
H  29.70700 49.22300 30.05000
H  28.95700 48.45200 23.65700
H  23.54500 51.74400 23.76000
H  25.80800 51.34500 31.97800
H  27.48600 49.02500 31.86900
H  29.08900 51.36200 31.39500
H  28.82200 50.41500 32.93900
H  27.84000 51.80700 32.60700
H  25.61600 48.51100 32.66900
H  24.41800 48.82400 31.40300
H  23.15200 49.96200 32.97700
H  24.58600 50.77400 33.61600
H  31.90000 47.03300 28.15700
H  31.32400 48.05900 29.47300
H  32.26200 48.79300 28.12900
H  33.49500 47.55200 24.65700
H  33.03700 46.74600 26.13000
H  33.03100 48.53100 25.92900
H  26.72800 48.54000 22.20900
H  25.59800 51.34400 22.14600
H  28.61400 51.06100 22.27300
H  27.57300 50.82000 20.89500
H  28.84600 49.62500 21.28900
H  24.19600 48.88500 22.86100
H  24.67100 48.89000 21.20500
H  22.79800 49.88600 20.55600
H  23.29700 51.33600 21.39000
H  22.33000 50.15200 22.26700
H  20.65500 52.43000 26.29200
H  21.42400 52.55400 24.69300
H  21.43300 53.91500 25.82400
H  22.90400 51.33100 30.89900
H  24.51800 55.03200 32.87600
H  25.11500 53.79000 33.89100
H  23.48600 54.38700 34.12700

