158

Mg -2.12100 17.49400 26.65200
C  -2.58300 15.30600 29.56500
C  -2.31900 20.11300 28.85100
C  -2.15800 19.62700 24.06200
C  -2.44400 14.81900 24.64900
N  -2.29200 17.65100 29.02600
C  -2.39700 16.65500 29.92800
C  -2.53400 17.29300 31.36700
C  -2.45600 18.81300 31.10000
C  -2.33000 18.89700 29.56000
C  -3.62300 19.72900 31.66300
C  -1.51900 16.72800 32.40100
C  -0.93500 17.60900 33.57200
H  -0.56300 16.81700 34.86000
N  -1.99900 19.62600 26.47300
C  -2.11600 20.48900 27.44100
C  -1.94700 21.81900 26.88900
C  -1.79300 21.78200 25.51200
C  -2.00300 20.30000 25.33300
C  -1.80300 23.04800 27.73100
C  -1.52500 22.78200 24.48100
O  -1.52200 22.54300 23.27100
C  -1.15300 24.19700 24.75400
N  -2.36800 17.23300 24.65600
C  -2.33000 18.26700 23.72400
C  -2.51200 17.76800 22.29400
C  -2.18700 16.23300 22.53800
C  -2.32700 16.06200 24.04700
C  -3.85400 18.13700 21.71300
C  -0.81800 15.73900 21.99100
C  0.46400 15.80100 22.91100
N  -2.43400 15.44400 27.01200
C  -2.58200 14.45000 26.03200
C  -2.64900 13.16700 26.65600
C  -2.60700 13.48700 28.05700
C  -2.54300 14.83900 28.18500
C  -2.70800 11.88400 25.94000
C  -2.60700 12.91300 29.42000
O  -2.55300 11.76200 29.75900
C  -2.65400 14.06000 30.44000
C  -1.45000 13.72700 31.26900
O  -0.32500 14.05200 30.93600
O  -1.85400 13.25400 32.50600
C  -0.71900 12.86100 33.32900
H  -2.19300 20.95100 29.53900
H  -2.07300 20.23900 23.16100
H  -2.41700 13.91800 24.03200
H  -3.51000 16.99700 31.75100
H  -1.50600 19.31800 31.27500
H  -3.33500 20.77000 31.51300
H  -3.57900 19.47300 32.72100
H  -4.55600 19.32600 31.27000
H  -0.68700 16.34700 31.80800
H  -1.87700 15.86000 32.95400
H  -1.44200 18.55300 33.77200
H  0.03600 17.98600 33.25000
H  -0.88600 23.62400 27.60200
H  -1.96900 22.82400 28.78500
H  -2.66100 23.67000 27.47600
H  -0.16500 24.09200 25.20300
H  -1.90200 24.62100 25.42300
H  -1.06200 24.70100 23.79100
H  -1.68000 18.25200 21.78200
H  -2.98500 15.63700 22.09500
H  -4.34900 18.80800 22.41500
H  -4.36100 17.18900 21.53400
H  -3.67100 18.58200 20.73500
H  -0.64800 16.31300 21.07900
H  -0.94700 14.68400 21.75000
H  0.69200 14.77000 23.17800
H  0.33000 16.33100 23.85400
H  1.34300 16.20000 22.40500
H  -1.85900 11.21300 25.81000
H  -3.21100 11.94400 24.97400
H  -3.44300 11.34900 26.54200
H  -3.55900 14.21300 31.02800
H  -0.49700 11.81700 33.11100
H  -0.97500 13.01500 34.37700
H  0.23600 13.37600 33.22400
Mg 1.17300 -2.54100 44.50600
C  4.67100 -2.21200 43.62000
C  0.55500 0.10200 42.47400
C  -2.04400 -3.70700 44.20900
C  2.01000 -5.57900 46.06000
N  2.50700 -1.37300 43.07300
C  3.88000 -1.25100 42.99000
C  4.33600 -0.14800 41.99500
C  3.00600 0.71700 42.01700
C  1.92800 -0.25900 42.54900
C  3.03700 1.99300 42.86000
C  4.77900 -0.60400 40.54500
C  6.19000 -0.07400 40.10500
H  6.29500 0.73700 38.84700
N  -0.57500 -1.85000 43.62500
C  -0.59100 -0.67800 42.86500
C  -1.93900 -0.39400 42.44000
C  -2.77600 -1.44800 42.88700
C  -1.88200 -2.37700 43.64300
C  -2.36200 0.84600 41.53300
C  -4.27300 -1.57500 42.65000
O  -4.89900 -0.63800 42.13100
C  -5.02700 -2.81300 43.02100
N  0.13100 -4.35700 45.11300
C  -1.20600 -4.61800 44.89600
C  -1.66400 -5.98700 45.53300
C  -0.35400 -6.34700 46.35200
C  0.66900 -5.37000 45.81400
C  -2.98000 -5.92000 46.34800
C  0.04000 -7.86800 46.09900
C  0.60100 -8.55200 47.36800
N  2.91200 -3.67900 44.93400
C  3.11800 -4.85000 45.64500
C  4.55300 -5.20200 45.62300
C  5.15000 -4.13300 44.93700
C  4.11200 -3.26900 44.45400
C  5.31200 -6.36700 46.25600
C  6.47200 -3.57100 44.48900
O  7.61700 -3.89700 44.71800
C  6.18300 -2.43000 43.56500
C  6.89500 -1.21100 44.10400
O  6.47200 -0.40400 44.91500
O  8.03100 -1.01400 43.31500
C  8.98100 0.03200 43.72400
H  0.34500 1.06300 41.99900
H  -3.06800 -4.08400 44.21800
H  2.30100 -6.54200 46.48600
H  5.05900 0.43100 42.57000
H  2.73300 0.98400 40.99600
H  2.84500 2.81500 42.17100
H  4.01100 2.19200 43.30600
H  2.24600 2.09400 43.60400
H  4.11900 -0.22800 39.76300
H  4.76200 -1.69000 40.46400
H  6.98600 -0.79200 39.90900
H  6.58800 0.63100 40.83500
H  -3.32000 0.68200 41.03900
H  -1.62500 0.89300 40.73100
H  -2.55600 1.75300 42.10600
H  -4.36500 -3.62900 42.73200
H  -5.91300 -2.77200 42.38800
H  -5.21600 -2.91300 44.09000
H  -1.83700 -6.75000 44.77300
H  -0.51500 -6.11800 47.40500
H  -2.79000 -6.20800 47.38200
H  -3.66300 -6.70200 46.01400
H  -3.49300 -4.97400 46.17400
H  0.79900 -7.82800 45.31900
H  -0.89900 -8.35800 45.84200
H  0.00200 -9.36200 47.78300
H  0.64800 -7.84600 48.19800
H  1.52100 -9.05100 47.06600
H  4.59900 -6.82600 46.94000
H  6.28300 -6.17100 46.71000
H  5.42200 -7.10400 45.46000
H  6.51900 -2.66400 42.55400
H  9.86300 -0.51300 44.06100
H  8.55700 0.75500 44.42100
H  9.33800 0.55400 42.83600

