158

Mg 36.03800 0.95300 30.33700
C  33.96500 2.35500 32.83800
C  38.56700 1.14000 32.66300
C  38.15900 0.16500 27.92100
C  33.45500 1.51400 28.01900
N  36.18500 1.45200 32.54500
C  35.24400 2.05500 33.33000
C  35.70500 2.27600 34.76900
C  37.22800 2.05300 34.58900
C  37.29400 1.41700 33.21100
C  38.07600 3.34200 34.81000
C  34.98000 1.21000 35.60600
C  34.57600 1.62900 37.04700
H  35.33000 2.84000 37.63100
N  38.15800 0.61600 30.27200
C  39.03500 0.73900 31.34700
C  40.31400 0.34400 30.98200
C  40.17900 0.01900 29.59400
C  38.79500 0.25200 29.19800
C  41.50700 0.24800 31.92700
C  41.25300 -0.53100 28.65000
O  41.01100 -0.81100 27.47700
C  42.69300 -0.75000 29.10300
N  35.73500 0.73000 28.25400
C  36.80900 0.39700 27.44800
C  36.40800 0.33000 26.01700
C  34.88500 0.63900 26.03100
C  34.60000 0.89500 27.53900
C  37.20000 1.35700 25.18600
C  33.85200 -0.41800 25.37300
C  32.94800 -0.01200 24.20200
N  34.10900 1.74200 30.33100
C  33.19800 1.92300 29.28100
C  31.98100 2.47900 29.87100
C  32.25000 2.70700 31.23400
C  33.56400 2.26800 31.45400
C  30.68100 2.84000 29.08200
C  31.71200 3.17300 32.46200
O  30.63200 3.67500 32.56600
C  32.78200 3.02200 33.55500
C  33.11500 4.38800 34.14700
O  33.99000 5.12100 33.79600
O  32.42300 4.56900 35.29900
C  32.74400 5.58800 36.20900
H  39.34400 1.36600 33.39500
H  38.82300 0.02400 27.06500
H  32.72100 1.86700 27.29200
H  35.35700 3.29300 34.94900
H  37.70300 1.38300 35.30600
H  38.84000 3.21900 35.57800
H  37.41800 4.18600 35.01800
H  38.66100 3.60000 33.92800
H  35.74200 0.43700 35.70400
H  34.15400 0.73900 35.07500
H  34.74300 0.72400 37.63100
H  33.51700 1.89000 37.05800
H  42.27300 -0.46400 31.62000
H  41.10600 -0.19100 32.84100
H  42.00900 1.19800 32.10700
H  43.33100 -1.09800 28.29100
H  42.59600 -1.51500 29.87400
H  43.11000 0.21600 29.38900
H  36.64100 -0.66100 25.62800
H  34.72800 1.55700 25.46600
H  37.85600 1.97000 25.80500
H  36.56200 2.03500 24.62000
H  37.89300 0.85600 24.51000
H  33.17400 -0.75600 26.15700
H  34.46300 -1.24600 25.01600
H  33.10600 1.04900 24.01300
H  31.90100 -0.30200 24.29200
H  33.30100 -0.56900 23.33300
H  30.84400 2.84100 28.00400
H  30.24400 3.81600 29.29200
H  29.92700 2.11200 29.38300
H  32.27000 2.50800 34.36900
H  33.74400 6.00200 36.07500
H  32.62500 5.02100 37.13300
H  32.01700 6.39500 36.12100
Mg 46.37800 24.48600 28.44300
C  46.72300 26.86500 31.15900
C  46.04200 22.11000 30.98600
C  46.24100 22.32400 26.04300
C  47.57500 26.92700 26.24800
N  46.16900 24.49200 30.80800
C  46.51100 25.57100 31.66400
C  46.46900 25.10500 33.16100
C  46.18400 23.54800 32.99200
C  46.22900 23.36600 31.47400
C  47.19000 22.66400 33.90100
C  45.45500 25.86600 34.02900
C  45.01000 25.19900 35.37500
H  45.80700 25.62900 36.59900
N  46.08600 22.51500 28.47300
C  45.93700 21.73300 29.61100
C  45.74100 20.33900 29.15600
C  45.70900 20.40100 27.69800
C  45.97400 21.80000 27.35800
C  45.66200 19.16100 30.10900
C  45.43100 19.25100 26.76100
O  45.58300 19.34900 25.58400
C  44.99800 18.01400 27.30900
N  46.79000 24.70100 26.39200
C  46.64100 23.61100 25.58800
C  47.03700 23.91000 24.21500
C  47.54000 25.42300 24.24600
C  47.32900 25.72700 25.70400
C  48.04500 22.89900 23.55400
C  46.84100 26.43600 23.30300
C  45.34300 26.79800 23.64100
N  46.93900 26.43000 28.55800
C  47.38500 27.26300 27.61900
C  47.58400 28.58400 28.13100
C  47.34900 28.43100 29.53500
C  46.95700 27.11000 29.75600
C  48.01400 29.84500 27.33000
C  47.41400 29.16100 30.79000
O  47.66500 30.32900 31.06300
C  46.92900 28.20700 31.93000
C  48.06400 27.95200 32.85400
O  49.01300 27.23900 32.59900
O  47.87000 28.70500 33.99900
C  48.92600 28.61700 35.03500
H  46.07700 21.32100 31.74100
H  46.18000 21.55500 25.27100
H  48.06800 27.62300 25.56600
H  47.42000 25.30100 33.65800
H  45.18100 23.35000 33.37000
H  47.95100 23.20200 34.46500
H  47.77300 21.92500 33.35100
H  46.52300 22.17100 34.60900
H  44.61900 26.22100 33.42700
H  45.95100 26.75800 34.40900
H  45.31000 24.15300 35.32400
H  43.94700 25.31600 35.58700
H  45.87800 18.24500 29.56000
H  44.65700 19.10200 30.52700
H  46.41200 19.36700 30.87300
H  45.88800 17.51700 27.69700
H  44.65800 17.42600 26.45700
H  44.20500 18.20400 28.03300
H  46.12500 23.90500 23.61900
H  48.60700 25.56500 24.07800
H  48.72600 23.27600 22.79100
H  47.55000 22.09700 23.00700
H  48.73400 22.46600 24.27800
H  46.82200 26.06200 22.28000
H  47.43000 27.34600 23.42200
H  45.30400 27.87300 23.81400
H  45.02000 26.14300 24.45000
H  44.66600 26.61200 22.80800
H  47.57200 30.68600 27.86300
H  47.54700 29.76300 26.34800
H  49.10200 29.87200 27.28700
H  46.08300 28.60400 32.49100
H  48.59800 29.36700 35.75400
H  49.89300 28.82600 34.57700
H  49.12100 27.61600 35.42100

