158

Mg 17.20500 -2.00300 27.66100
C  16.33600 -0.17300 30.68900
C  19.00400 -4.16100 29.61800
C  17.96800 -3.53000 24.95100
C  15.67400 0.66500 25.85500
N  17.58200 -2.12000 29.96100
C  17.10000 -1.31100 30.98200
C  17.64600 -1.76800 32.35800
C  18.35500 -3.11300 31.93200
C  18.26400 -3.17400 30.40400
C  19.82700 -3.27600 32.53500
C  16.58900 -1.89400 33.55000
C  16.92900 -1.25800 34.93000
H  18.33600 -0.67600 35.27000
N  18.42700 -3.65700 27.33200
C  18.99600 -4.51800 28.23600
C  19.68200 -5.54100 27.57200
C  19.39400 -5.34900 26.13700
C  18.57900 -4.12600 26.03400
C  20.48700 -6.54800 28.21100
C  19.81800 -6.21700 24.97800
O  19.54300 -5.95900 23.81200
C  20.65800 -7.47800 25.12700
N  16.87800 -1.46000 25.71900
C  17.34000 -2.26800 24.74100
C  17.14100 -1.65400 23.28800
C  16.31400 -0.36700 23.55600
C  16.22200 -0.39500 25.11900
C  18.55300 -1.31900 22.71400
C  15.00100 -0.40400 22.70600
C  13.75200 -1.01400 23.44900
N  16.11400 -0.15100 28.10300
C  15.63500 0.80600 27.29600
C  14.98000 1.78600 28.04000
C  15.15100 1.39400 29.38100
C  15.91400 0.26300 29.38000
C  14.12600 2.87200 27.45800
C  14.95200 1.84400 30.73100
O  14.45400 2.93500 31.06500
C  15.75000 0.84100 31.63900
C  16.78800 1.54200 32.52500
O  17.94000 1.82100 32.12800
O  16.22400 2.09800 33.67300
C  17.05200 3.05600 34.34900
H  19.52300 -4.89400 30.23800
H  18.13700 -4.16400 24.07800
H  15.18300 1.36700 25.17800
H  18.40100 -1.00200 32.53200
H  17.79700 -3.99400 32.25100
H  20.05700 -4.33800 32.62800
H  19.97900 -2.72500 33.46400
H  20.62400 -2.90500 31.89100
H  16.47600 -2.96900 33.69300
H  15.63800 -1.48200 33.21200
H  16.75600 -2.05300 35.65500
H  16.10000 -0.61500 35.22300
H  20.50300 -6.45700 29.29700
H  21.48600 -6.33500 27.83200
H  20.14700 -7.56500 28.01500
H  21.52000 -7.30700 25.77000
H  20.95400 -7.66300 24.09400
H  20.01500 -8.23000 25.58500
H  16.75500 -2.44600 22.64600
H  16.84300 0.53300 23.24200
H  18.90200 -0.33900 23.03800
H  18.48200 -1.32100 21.62600
H  19.21700 -2.12400 23.02900
H  15.19800 -0.97400 21.79800
H  14.66100 0.61200 22.50300
H  13.26700 -0.21500 24.01100
H  14.10600 -1.71200 24.20700
H  13.02000 -1.47700 22.78700
H  13.14700 2.40900 27.32900
H  14.38500 3.25700 26.47200
H  14.14700 3.58800 28.27900
H  14.98600 0.40700 32.28500
H  16.69000 4.02100 33.99600
H  18.13100 2.94400 34.23900
H  16.74000 2.87100 35.37700
Mg 41.81800 40.72500 27.43000
C  40.74500 43.27900 29.51300
C  42.08100 38.62100 30.07500
C  43.27800 38.41300 25.36300
C  41.63600 42.89000 24.70300
N  41.44700 40.94500 29.54300
C  40.98600 42.03200 30.18300
C  40.83600 41.72100 31.67500
C  41.33600 40.25300 31.85600
C  41.65600 39.91500 30.41500
C  42.55300 40.04200 32.85300
C  39.41100 41.99700 32.19200
C  39.28000 43.11600 33.29500
H  38.75900 42.72500 34.71900
N  42.49600 38.85200 27.66400
C  42.45500 38.13400 28.82400
C  42.91500 36.83900 28.67200
C  43.34400 36.70700 27.29700
C  43.02900 37.99800 26.68600
C  43.07900 35.83300 29.84500
C  43.90500 35.49100 26.61900
O  44.09800 35.53100 25.38500
C  43.82700 34.14000 27.30300
N  42.24400 40.62300 25.25100
C  43.02300 39.61400 24.73900
C  43.29400 39.95500 23.20700
C  42.62700 41.36900 23.02000
C  42.12300 41.62700 24.39800
C  44.78100 39.84100 22.74500
C  41.49200 41.51200 21.82700
C  40.06800 41.03200 22.13000
N  41.29600 42.63800 27.13200
C  41.27800 43.43400 25.94600
C  40.75700 44.73600 26.22400
C  40.47000 44.69000 27.61200
C  40.90400 43.48500 28.12600
C  40.58100 46.05300 25.36200
C  39.96500 45.50000 28.76300
O  39.52400 46.65900 28.79100
C  40.28000 44.68300 30.09000
C  41.35100 45.34200 30.85600
O  42.57300 45.29900 30.59100
O  40.82800 45.90700 31.97100
C  41.80200 46.27600 33.04200
H  42.13200 37.95300 30.93700
H  43.83200 37.84400 24.61400
H  41.48200 43.45700 23.78200
H  41.59700 42.23000 32.26700
H  40.62600 39.56600 32.31600
H  43.53800 39.95700 32.39300
H  42.34500 39.09300 33.34900
H  42.62100 40.90700 33.51300
H  39.01800 41.05100 32.56500
H  38.78400 42.28300 31.34800
H  38.50500 43.79900 32.94600
H  40.22100 43.62700 33.49900
H  42.27000 35.10400 29.80700
H  42.97200 36.31100 30.81900
H  44.03100 35.30600 29.79100
H  44.14400 33.36700 26.60400
H  42.81200 33.76100 27.41800
H  44.48800 34.02400 28.16200
H  42.85400 39.20700 22.54800
H  43.33500 42.09500 22.62200
H  45.47600 39.39800 23.45900
H  45.12000 40.76000 22.26800
H  44.78600 39.14200 21.90900
H  41.91200 41.01800 20.95100
H  41.45600 42.56000 21.53100
H  40.09700 40.48500 23.07200
H  39.69000 40.37900 21.34400
H  39.53100 41.96800 22.28800
H  40.00200 45.73900 24.49400
H  41.58000 46.32100 25.01800
H  40.01000 46.85600 25.82800
H  39.43200 44.48500 30.74600
H  42.42700 45.39300 33.17600
H  41.24500 46.42100 33.96800
H  42.49100 47.09500 32.83700

