158

Mg 27.35800 49.73400 26.91700
C  25.49000 50.92800 29.62600
C  29.93800 49.16600 29.03600
C  29.57600 49.33900 24.30600
C  25.01600 51.10600 24.81600
N  27.69500 50.15700 29.10200
C  26.71300 50.30200 30.00000
C  27.19900 50.18300 31.40800
C  28.64300 49.61400 31.28000
C  28.76400 49.64100 29.70800
C  29.81600 50.31300 32.06100
C  26.17900 49.46700 32.44200
C  25.80400 50.31700 33.64500
H  26.48300 50.03400 34.93000
N  29.30800 49.05500 26.71900
C  30.19500 48.93100 27.72600
C  31.40500 48.36000 27.26200
C  31.35200 48.38700 25.87000
C  30.03400 48.95600 25.55100
C  32.53300 47.82400 28.01400
C  32.42100 48.05000 24.88400
O  32.32100 48.29800 23.69300
C  33.72400 47.42200 25.28300
N  27.40400 50.26100 24.83000
C  28.33400 49.91600 23.93600
C  27.83500 50.08600 22.50800
C  26.32500 50.27300 22.70600
C  26.19300 50.64800 24.19200
C  28.57500 51.22900 21.78600
C  25.36200 49.20000 22.22000
C  24.02200 49.69200 21.60000
N  25.58500 50.72400 27.08900
C  24.71600 51.21600 26.14600
C  23.55800 51.80800 26.76000
C  23.75300 51.71900 28.17000
C  25.03500 51.05700 28.28400
C  22.42100 52.45300 26.08500
C  23.25400 51.96400 29.54600
O  22.19300 52.42100 29.94400
C  24.36300 51.45300 30.51000
C  24.78700 52.70200 31.23000
O  25.85000 53.29200 31.04300
O  23.88800 53.09900 32.22400
C  24.42300 54.03500 33.15200
H  30.69900 48.81600 29.73700
H  30.27200 49.15200 23.48600
H  24.19100 51.46800 24.20000
H  27.35100 51.17800 31.82500
H  28.71200 48.55200 31.51700
H  30.52500 50.74100 31.35200
H  30.27400 49.52100 32.65400
H  29.47100 51.06600 32.76900
H  26.64500 48.54100 32.78100
H  25.22400 49.17300 32.00600
H  24.76800 50.02600 33.81600
H  26.00200 51.38100 33.51200
H  32.31100 47.57200 29.05100
H  33.40900 48.47000 28.07700
H  32.84600 46.88200 27.56300
H  33.55100 46.42800 25.69600
H  34.17400 48.10600 26.00300
H  34.29500 47.38400 24.35500
H  28.05100 49.16400 21.97000
H  26.07300 51.27100 22.34800
H  28.98200 50.97600 20.80700
H  29.42400 51.61300 22.35100
H  27.94700 52.11400 21.68100
H  24.94500 48.70200 23.09600
H  25.67700 48.26700 21.75100
H  24.23200 49.99900 20.57500
H  23.67000 50.58600 22.11500
H  23.22600 48.95800 21.72300
H  21.86700 51.81800 25.39400
H  22.87800 53.29000 25.55600
H  21.81900 52.77500 26.93400
H  23.92800 50.72300 31.19200
H  24.87000 53.35600 33.87800
H  23.63100 54.66100 33.56300
H  25.19900 54.74600 32.86900
Mg 2.08000 42.03900 25.98000
C  4.46500 42.43400 28.53700
C  -0.17300 41.13800 28.34400
C  0.05700 41.60200 23.45400
C  4.78000 42.40300 23.58900
N  2.20200 41.62700 28.22000
C  3.20700 42.00200 29.04900
C  2.76800 41.90300 30.47400
C  1.39800 41.25700 30.46200
C  1.09600 41.28600 28.95200
C  1.41700 39.83400 31.10500
C  2.82100 43.31100 31.20300
C  2.90700 43.07500 32.69200
H  1.77500 43.38400 33.74100
N  0.15900 41.61900 25.92900
C  -0.64500 41.20100 26.98800
C  -1.95500 40.93100 26.52500
C  -1.98700 41.24400 25.12600
C  -0.59100 41.49200 24.74200
C  -2.96600 40.46900 27.52100
C  -3.12700 41.24600 24.10800
O  -2.98300 41.56600 22.93400
C  -4.52900 40.65400 24.56200
N  2.38200 42.02900 23.80900
C  1.33500 41.78100 22.98600
C  1.78000 41.83400 21.49200
C  3.29300 42.17600 21.53500
C  3.51000 42.19700 23.09000
C  1.51000 40.46200 20.74100
C  3.79000 43.59200 20.98800
C  3.20300 44.09400 19.65500
N  4.11300 42.36800 26.03100
C  5.03900 42.44900 24.93000
C  6.36000 42.60000 25.44300
C  6.15400 42.64900 26.89200
C  4.83700 42.40400 27.15800
C  7.61100 42.90700 24.64100
C  6.82400 42.78200 28.19800
O  8.02400 42.79400 28.48600
C  5.71300 42.80100 29.31800
C  6.05000 41.88200 30.47700
O  6.20500 40.68800 30.38700
O  6.07300 42.61200 31.64700
C  6.33400 41.88600 32.89000
H  -0.91200 40.90300 29.11300
H  -0.60500 41.57200 22.58600
H  5.54900 42.41900 22.81400
H  3.50700 41.24100 30.92700
H  0.60000 41.74200 31.02400
H  0.47900 39.64400 31.62600
H  2.23000 39.77000 31.82900
H  1.64000 39.01800 30.41800
H  1.98600 43.95900 30.93400
H  3.71300 43.84000 30.86900
H  3.82100 43.60000 32.96700
H  3.20200 42.06400 32.97200
H  -3.95800 40.30800 27.09900
H  -3.28100 41.17400 28.29100
H  -2.61700 39.52900 27.94700
H  -5.21400 40.66000 23.71500
H  -4.91300 41.35100 25.30800
H  -4.38400 39.63900 24.93200
H  1.27900 42.62900 20.94000
H  3.88700 41.45700 20.97100
H  1.80000 39.54100 21.24700
H  1.96000 40.53900 19.75200
H  0.43800 40.40900 20.55300
H  4.79500 43.36300 20.63500
H  3.82000 44.38600 21.73400
H  2.66200 45.00600 19.90500
H  2.54600 43.26900 19.37900
H  3.88500 44.27200 18.82300
H  7.59900 43.99400 24.55700
H  7.78200 42.61100 23.60700
H  8.48300 42.61400 25.22600
H  5.63200 43.76900 29.81200
H  7.28200 42.26600 33.27200
H  6.42500 40.80200 32.81500
H  5.58600 41.99800 33.67400

