158

Mg 53.10200 25.42200 44.48300
C  50.57700 27.78200 43.85800
C  50.80500 22.92000 43.46500
C  55.66300 23.33500 43.67400
C  55.31800 27.88500 44.99800
N  50.94500 25.39300 43.46500
C  50.10400 26.48800 43.54700
C  48.72400 26.06000 43.09000
C  48.70400 24.52900 43.49700
C  50.24700 24.20900 43.49700
C  47.90500 24.29900 44.89300
C  48.29900 26.30200 41.58800
C  49.38300 26.71700 40.53900
H  49.58400 25.89500 39.28400
N  53.20100 23.39400 43.81800
C  52.12300 22.58500 43.51700
C  52.65300 21.28400 43.23600
C  54.06400 21.27100 43.39300
C  54.35000 22.67900 43.63700
C  51.76100 20.10800 42.71600
C  55.08300 20.08600 43.31600
O  54.57800 18.96900 43.23600
C  56.57400 20.20800 43.33500
N  55.21200 25.57200 44.22600
C  56.02100 24.54500 44.15000
C  57.55500 24.97700 44.28300
C  57.44100 26.47500 44.64900
C  55.89500 26.72400 44.55500
C  58.33600 24.13400 45.34600
C  58.19600 27.38100 43.55300
C  58.93200 28.53400 44.17500
N  53.02900 27.44600 44.51800
C  53.98800 28.31900 44.99300
C  53.29900 29.50800 45.45300
C  52.01600 29.41600 44.94100
C  51.88900 28.13900 44.38300
C  53.93100 30.72200 46.01800
C  50.69500 30.11400 44.74200
O  50.47800 31.28100 45.06000
C  49.78700 29.05700 43.97700
C  49.48700 29.53700 42.62300
O  50.30000 29.73400 41.73400
O  48.16700 29.83200 42.55200
C  47.61900 30.51300 41.39100
H  49.99200 22.19400 43.40900
H  56.55000 22.70500 43.58000
H  56.04500 28.65200 45.27200
H  48.09200 26.65000 43.75500
H  48.25600 23.85600 42.76600
H  48.56900 23.91100 45.66700
H  47.18800 23.51300 44.65500
H  47.36300 25.20300 45.16900
H  47.52300 27.06300 41.67200
H  47.86400 25.37800 41.20600
H  50.34000 26.65600 41.05600
H  49.12900 27.74500 40.28300
H  52.16900 19.36200 42.03500
H  50.95200 20.58400 42.16100
H  51.21800 19.52200 43.45700
H  56.98400 19.23600 43.06000
H  57.04000 20.47400 44.28400
H  56.88800 20.93200 42.58300
H  57.98100 24.75100 43.30600
H  57.83400 26.72900 45.63400
H  57.60000 23.67800 46.00800
H  59.01400 24.76900 45.91700
H  58.81000 23.29100 44.84400
H  57.41300 27.79500 42.91700
H  58.88400 26.80300 42.93600
H  59.30700 28.29700 45.17100
H  58.13500 29.25300 44.36400
H  59.76700 28.93600 43.60100
H  53.18900 31.33400 46.52900
H  54.40900 31.27500 45.20900
H  54.57100 30.38200 46.83200
H  48.87100 28.99600 44.56400
H  48.02200 30.07500 40.47900
H  47.88800 31.56900 41.41300
H  46.54300 30.34900 41.45000
Mg 27.31200 49.99200 26.71700
C  25.07600 50.73500 29.25100
C  29.89600 49.57000 28.96000
C  29.38700 49.45200 24.15900
C  24.78600 50.90400 24.27700
N  27.42800 50.18400 28.83300
C  26.37400 50.32200 29.68100
C  26.83100 50.13400 31.15600
C  28.43300 49.91700 31.10400
C  28.60600 50.03500 29.53800
C  29.30700 50.89800 31.86900
C  26.12700 48.88500 31.77500
C  25.45600 49.05100 33.18300
H  26.36400 49.08700 34.40100
N  29.34600 49.58000 26.49900
C  30.20600 49.37200 27.57300
C  31.47900 49.01200 27.08500
C  31.34000 48.91800 25.68300
C  30.01100 49.33200 25.37000
C  32.61900 48.68100 27.98800
C  32.32400 48.48700 24.60400
O  32.06900 48.43200 23.39800
C  33.78300 48.30900 24.93200
N  27.07600 50.24200 24.47000
C  28.09100 49.83300 23.68100
C  27.65200 49.73100 22.22200
C  26.13800 50.05000 22.33400
C  25.97700 50.42400 23.82500
C  28.40100 50.66400 21.16300
C  25.19600 48.84500 21.90200
C  24.65800 47.88700 23.00300
N  25.37600 50.82400 26.67200
C  24.50000 51.16800 25.66900
C  23.24700 51.63100 26.30000
C  23.45300 51.55100 27.68500
C  24.71400 50.98200 27.84100
C  22.07200 52.08000 25.49500
C  22.83800 51.72600 28.97600
O  21.78400 52.25100 29.30200
C  23.87200 51.18600 29.99400
C  24.16100 52.36900 30.97800
O  24.60200 53.40600 30.50800
O  23.96000 52.03100 32.24200
C  24.35100 53.03400 33.19800
H  30.68600 49.50900 29.71100
H  30.01900 49.19800 23.30600
H  23.97800 50.95600 23.54500
H  26.45600 51.03100 31.64900
H  28.76700 48.90800 31.34700
H  29.54500 50.60800 32.89200
H  28.79500 51.85700 31.94600
H  30.30000 51.00200 31.43200
H  26.86700 48.09500 31.90300
H  25.29900 48.61500 31.11900
H  24.70500 48.28000 33.35700
H  24.87400 49.97200 33.13900
H  32.50500 47.79500 28.61100
H  32.87400 49.54500 28.60100
H  33.54100 48.61000 27.41100
H  34.35800 48.06300 24.03900
H  33.81300 47.48600 25.64500
H  34.32900 49.13200 25.39500
H  27.85900 48.69800 21.94100
H  25.76100 50.79100 21.62900
H  29.29500 51.06600 21.63900
H  27.78300 51.43000 20.69400
H  28.84400 49.98800 20.43200
H  25.76800 48.28800 21.16000
H  24.33100 49.26200 21.38700
H  25.35000 47.87900 23.84500
H  24.77500 46.85100 22.68400
H  23.59900 48.05400 23.20200
H  22.03000 51.46600 24.59600
H  22.13800 53.13300 25.21900
H  21.18800 51.94700 26.12000
H  23.49200 50.37200 30.61200
H  25.05400 53.77500 32.82000
H  24.87700 52.64000 34.06800
H  23.53100 53.64400 33.57800

