158

Mg 35.75600 49.24600 25.96100
C  36.05700 47.65300 29.03800
C  34.57600 52.15700 27.67200
C  35.54200 50.95100 23.02700
C  37.17400 46.52500 24.41100
N  35.29300 49.85800 28.07600
C  35.71400 49.02000 29.15300
C  35.70000 49.80000 30.42400
C  35.06600 51.21900 30.02800
C  35.04000 51.14900 28.57100
C  33.67300 51.42300 30.65400
C  37.08500 49.92100 31.00700
C  37.25000 49.62200 32.48800
H  36.02700 49.60200 33.45600
N  35.10100 51.21700 25.42800
C  34.70100 52.24200 26.30500
C  34.51100 53.42900 25.60200
C  34.94500 53.14300 24.30600
C  35.19000 51.71800 24.20700
C  33.88800 54.70000 26.19300
C  34.97900 54.04200 23.04700
O  35.21600 53.78000 21.86400
C  34.99300 55.60400 23.32100
N  35.98200 48.64500 23.94100
C  35.92600 49.58500 22.95900
C  36.38500 48.89600 21.61100
C  37.02200 47.60200 22.12500
C  36.65100 47.52900 23.57400
C  35.02000 48.69500 20.75200
C  38.63100 47.59800 21.94600
C  39.15800 46.68200 20.85200
N  36.32500 47.37700 26.46500
C  36.97300 46.39700 25.79700
C  37.21500 45.27900 26.69800
C  36.82700 45.74700 27.98700
C  36.35100 47.01500 27.80700
C  37.76500 43.94200 26.26600
C  36.82100 45.35100 29.35700
O  37.12000 44.30700 29.89900
C  36.30300 46.50300 30.07600
C  35.12100 46.15100 30.94700
O  33.97600 45.89600 30.60000
O  35.54800 46.05000 32.24400
C  34.61300 45.51600 33.20800
H  34.26600 53.07000 28.18500
H  35.55000 51.50900 22.08800
H  37.75700 45.77400 23.87400
H  35.11100 49.25700 31.16300
H  35.67300 52.06600 30.34800
H  33.04300 51.70900 29.81100
H  33.78700 52.31800 31.26600
H  33.22600 50.57400 31.17000
H  37.27400 50.93900 30.66600
H  37.85800 49.29900 30.55600
H  37.91600 50.40300 32.85600
H  37.69800 48.64800 32.68700
H  34.66300 55.23100 26.74500
H  33.16800 54.38700 26.95000
H  33.31700 55.33700 25.51800
H  35.71900 55.67300 24.13200
H  34.00700 55.99000 23.58100
H  35.30800 56.16000 22.43800
H  36.98900 49.59500 21.03300
H  36.66100 46.70300 21.62500
H  34.05600 48.75100 21.25800
H  35.09400 47.81700 20.11000
H  34.97500 49.51200 20.03200
H  39.14500 47.44300 22.89500
H  38.91400 48.61500 21.67500
H  38.37400 46.36700 20.16300
H  39.45600 45.79700 21.41400
H  39.86100 47.19200 20.19300
H  36.92500 43.26900 26.09300
H  38.44000 43.60600 27.05400
H  38.38300 44.20500 25.40800
H  37.09700 46.86800 30.72800
H  34.94100 45.94000 34.15700
H  34.64300 44.44800 33.42400
H  33.59000 45.84700 33.03000
Mg 6.11400 53.67200 41.72600
C  5.67400 50.31500 40.87400
C  9.25100 53.56000 40.51000
C  6.10100 57.05300 41.58800
C  2.57100 53.83100 42.57800
N  7.17200 52.09900 40.58300
C  6.90900 50.78100 40.43700
C  8.02400 50.05000 39.91200
C  9.25500 51.00000 40.16700
C  8.54700 52.33000 40.46900
C  10.26000 50.45400 41.32600
C  7.93200 49.58300 38.43500
C  7.14700 50.45800 37.41200
H  7.18700 49.95600 35.95200
N  7.53600 55.13200 41.16900
C  8.80100 54.86900 40.78100
C  9.55300 56.08500 40.64700
C  8.73700 57.14100 41.12100
C  7.39300 56.46500 41.35700
C  10.92500 56.09600 40.01900
C  9.10100 58.62100 41.23600
O  10.25700 58.95100 41.17400
C  8.07400 59.60000 41.56500
N  4.52200 55.24200 42.02100
C  4.87200 56.50600 41.87900
C  3.61200 57.39100 42.13600
C  2.51100 56.38700 42.63000
C  3.18100 55.04900 42.30500
C  3.80400 58.73300 42.90400
C  1.05000 56.64800 42.20900
C  0.00800 56.29000 43.27400
N  4.49600 52.36800 41.90900
C  3.17900 52.58200 42.30500
C  2.61300 51.22500 42.47200
C  3.48700 50.33800 41.87900
C  4.64400 51.10000 41.50700
C  1.38200 50.87000 43.36500
C  3.76000 48.92800 41.57500
O  3.05300 47.99100 41.89300
C  5.14300 48.86600 40.88700
C  5.02800 48.09100 39.59600
O  4.44800 48.46100 38.60600
O  5.60700 46.81200 39.72400
C  5.45900 45.95600 38.59900
H  10.29500 53.47800 40.19900
H  6.08600 58.13400 41.43300
H  1.52300 53.92700 42.86900
H  8.11900 49.13300 40.49400
H  9.95600 51.09000 39.33700
H  10.42600 51.25700 42.04400
H  11.23900 50.23700 40.89800
H  9.99000 49.56000 41.88800
H  7.37100 48.66000 38.28900
H  8.95800 49.36600 38.13900
H  7.67600 51.41000 37.45900
H  6.14800 50.78600 37.69800
H  10.94500 56.11900 38.92900
H  11.40400 55.18400 40.37600
H  11.47300 56.95300 40.41200
H  8.60800 60.53000 41.76000
H  7.70800 59.27100 42.53800
H  7.34000 59.70900 40.76700
H  3.41400 57.79700 41.14400
H  2.67900 56.59400 43.68700
H  3.38600 59.58100 42.36100
H  4.86500 58.97800 42.94200
H  3.49000 58.69500 43.94700
H  0.80000 56.00500 41.36600
H  1.14300 57.67500 41.85400
H  -0.56200 57.20900 43.40400
H  0.55800 56.05500 44.18500
H  -0.70700 55.53700 42.94100
H  0.94000 49.98300 42.91200
H  0.64900 51.67000 43.46900
H  1.76200 50.63200 44.35800
H  5.79700 48.24400 41.49800
H  4.95100 45.04600 38.91800
H  6.44300 45.61900 38.27100
H  4.94200 46.36300 37.73000

