158

Mg 43.24600 3.94700 46.79500
C  41.54400 7.02400 46.47400
C  40.22100 2.32400 46.27200
C  44.84100 0.98500 46.74000
C  46.25900 5.72800 46.79700
N  41.16000 4.63700 46.26100
C  40.70400 5.89400 46.31600
C  39.21000 5.95600 46.35100
C  38.78200 4.43300 46.35000
C  40.11000 3.73200 46.32500
C  37.80800 3.86400 47.44300
C  38.57400 6.94700 45.30600
C  37.26500 6.59400 44.58000
H  37.25300 6.22100 43.05100
N  42.64700 1.86800 46.50400
C  41.36300 1.46100 46.36600
C  41.28100 -0.00600 46.37800
C  42.64200 -0.47300 46.46700
C  43.43600 0.77200 46.64500
C  39.98100 -0.84100 46.03900
C  43.16600 -1.81700 46.31900
O  42.38400 -2.74800 46.28400
C  44.69900 -2.07000 46.20000
N  45.21600 3.50300 46.63800
C  45.64200 2.21000 46.83100
C  47.12700 2.11500 46.75300
C  47.63400 3.56800 46.70900
C  46.28400 4.29900 46.71100
C  47.76500 1.26700 47.87500
C  48.39700 3.95600 45.39700
C  49.94000 4.20800 45.53700
N  43.84900 6.00700 46.68500
C  45.12100 6.56600 46.75700
C  44.98600 7.99500 46.76400
C  43.60500 8.24700 46.73800
C  42.94700 6.99900 46.60000
C  46.16700 8.94100 46.88400
C  42.56200 9.27000 46.74300
O  42.83300 10.47600 46.82200
C  41.16300 8.53900 46.58300
C  40.42500 8.73000 47.87500
O  40.40600 8.00400 48.85500
O  39.48400 9.67200 47.71400
C  38.43800 9.88900 48.74500
H  39.26300 1.81700 46.13700
H  45.46900 0.10900 46.91500
H  47.18300 6.30500 46.86600
H  39.06600 6.39900 47.33700
H  38.31000 4.23000 45.38800
H  37.20500 3.06200 47.01600
H  37.23700 4.70700 47.83200
H  38.30800 3.31900 48.24300
H  39.33000 7.13300 44.54400
H  38.49200 7.90800 45.81300
H  36.77000 7.56500 44.54700
H  36.60500 5.94000 45.15000
H  39.02800 -0.33200 46.18600
H  40.15500 -1.58600 46.81600
H  39.97500 -1.33900 45.07000
H  45.17700 -1.86600 47.15800
H  45.02700 -1.37000 45.43200
H  44.93500 -3.02800 45.73700
H  47.41200 1.63900 45.81500
H  48.27000 3.68900 47.58600
H  47.99500 0.29500 47.43900
H  47.02000 1.06200 48.64300
H  48.69900 1.65200 48.28600
H  48.00100 4.76400 44.78200
H  48.46000 3.08200 44.74800
H  50.08300 5.20600 45.12200
H  50.52600 3.56900 44.87700
H  50.32700 4.10900 46.55100
H  46.83600 8.83100 46.03100
H  46.78200 8.89000 47.78300
H  45.74000 9.93500 47.02000
H  40.66400 9.05300 45.76200
H  37.63700 9.15500 48.84100
H  37.96500 10.84900 48.53800
H  38.97200 10.10200 49.67100
Mg 30.29000 59.79300 40.27300
C  27.51400 57.65900 39.30100
C  32.41000 57.32000 39.01900
C  32.74100 61.92800 40.78400
C  27.91100 62.22600 40.77200
N  30.00900 57.64800 39.55900
C  28.79000 57.05700 39.13000
C  29.01100 55.76600 38.33600
C  30.57100 55.51500 38.58600
C  31.06100 56.91600 39.06200
C  30.94300 54.41700 39.49500
C  28.61500 55.94600 36.88300
C  27.81700 54.90300 36.19900
H  27.01900 55.35200 34.98800
N  32.28500 59.65100 39.98100
C  32.97100 58.56600 39.43700
C  34.37000 58.89700 39.33700
C  34.53100 60.18500 39.86900
C  33.21600 60.66100 40.29800
C  35.42100 57.97400 38.78700
C  35.83400 60.89800 40.04800
O  36.86200 60.30400 39.70000
C  35.99100 62.19900 40.82000
N  30.30500 61.90400 40.49700
C  31.48000 62.53000 40.82900
C  31.12900 63.95200 41.32800
C  29.60700 64.04800 41.07300
C  29.26800 62.59000 40.88300
C  31.54500 64.19700 42.78100
C  29.17400 64.97200 39.85600
C  28.41100 66.32900 40.20100
N  28.12600 59.97900 40.11500
C  27.32900 61.09500 40.27100
C  25.99400 60.81800 39.98600
C  26.00500 59.38400 39.62600
C  27.34300 58.96300 39.68200
C  24.79500 61.71400 40.11000
C  25.17800 58.26000 39.18400
O  23.97200 58.23200 39.08300
C  26.19500 57.13800 38.95700
C  25.69700 55.90800 39.68800
O  25.65700 55.73400 40.89500
O  25.51400 54.92500 38.81400
C  25.24700 53.60600 39.28400
H  32.98300 56.46100 38.66500
H  33.47700 62.73400 40.74900
H  27.15800 63.00200 40.92600
H  28.46600 54.90900 38.73300
H  30.93500 55.28400 37.58500
H  31.66800 54.88800 40.15900
H  31.27200 53.54200 38.93400
H  30.10700 54.20000 40.16100
H  29.48800 56.12100 36.25400
H  28.21500 56.94400 36.70600
H  27.11500 54.42100 36.87900
H  28.57000 54.23900 35.77500
H  36.35000 58.03700 39.35300
H  35.68100 58.20300 37.75400
H  35.06100 56.95000 38.68000
H  35.35300 61.94400 41.66700
H  35.63600 63.11800 40.35400
H  37.05100 62.29500 41.05400
H  31.65900 64.69300 40.73000
H  29.09100 64.38100 41.97300
H  32.22200 65.04100 42.91600
H  32.00400 63.29900 43.19500
H  30.70400 64.39800 43.44400
H  28.49900 64.41300 39.20700
H  30.04600 65.33100 39.30900
H  28.22000 66.47900 41.26300
H  27.45100 66.37800 39.68600
H  29.08800 67.14000 39.93300
H  25.04400 62.44200 39.33800
H  24.81300 62.21800 41.07600
H  23.84300 61.20500 39.95700
H  26.14400 56.83300 37.91200
H  24.17100 53.43700 39.34300
H  25.65800 53.36200 40.26400
H  25.71600 53.04700 38.47500

