158

Mg 3.47600 1.06200 44.35200
C  6.22600 3.25800 43.84700
C  1.53200 3.50200 42.71100
C  1.15700 -1.22200 43.80600
C  5.84900 -1.39100 45.26100
N  3.88500 3.03000 43.26000
C  5.00100 3.71500 43.36900
C  4.81500 5.11200 42.74300
C  3.31700 5.26900 42.80600
C  2.85800 3.86100 42.85700
C  2.74800 6.11300 43.97300
C  5.35500 5.25500 41.34200
C  5.42400 3.96700 40.51300
H  5.67000 4.10400 39.01400
N  1.59200 1.16000 43.52700
C  0.94400 2.25000 42.99900
C  -0.44700 1.93100 42.85600
C  -0.58400 0.54400 43.17200
C  0.75600 0.07400 43.57300
C  -1.43600 2.91800 42.29900
C  -1.90300 -0.26500 43.15100
O  -2.94900 0.22000 42.77400
C  -1.95900 -1.67600 43.41600
N  3.59100 -1.03100 44.38900
C  2.44600 -1.78500 44.16600
C  2.57600 -3.30900 44.57400
C  3.99400 -3.26300 45.23700
C  4.60300 -1.87600 44.90300
C  1.44100 -3.80100 45.50500
C  4.82400 -4.50300 44.86100
C  5.43200 -5.25100 45.99800
N  5.66100 0.95000 44.56500
C  6.44300 -0.13000 44.99300
C  7.82300 0.32900 44.94500
C  7.72100 1.69400 44.58200
C  6.43400 2.00900 44.30700
C  9.08400 -0.43800 45.44800
C  8.52600 2.87100 44.39800
O  9.76200 3.02400 44.44900
C  7.57600 3.92100 43.83800
C  7.63300 5.21900 44.58600
O  8.12200 6.27600 44.25600
O  6.94000 4.95300 45.79000
C  6.57500 6.20700 46.52500
H  0.85600 4.28000 42.34800
H  0.45700 -2.04000 43.62300
H  6.52100 -2.16900 45.62900
H  5.33200 5.90900 43.27700
H  2.81000 5.69300 41.93900
H  2.54900 7.15100 43.70700
H  3.38500 6.29400 44.83900
H  1.82100 5.76100 44.42500
H  6.31300 5.75500 41.48900
H  4.75100 5.94200 40.74900
H  4.45600 3.46700 40.55600
H  6.24600 3.31700 40.81200
H  -1.43100 2.98800 41.21100
H  -1.19100 3.91800 42.65700
H  -2.47900 2.70500 42.53400
H  -1.74100 -2.10700 44.39300
H  -1.40600 -2.11200 42.58300
H  -2.96400 -2.08900 43.32300
H  2.63400 -3.91000 43.66600
H  3.87100 -3.09100 46.30700
H  0.54200 -4.09400 44.96300
H  1.16000 -2.99200 46.18000
H  1.70000 -4.66700 46.11400
H  5.65300 -4.15300 44.24600
H  4.25600 -5.16200 44.20500
H  5.30300 -6.26600 45.62200
H  4.96800 -5.10100 46.97300
H  6.51900 -5.18800 46.04400
H  9.76100 -0.74400 44.65000
H  8.80100 -1.31800 46.02600
H  9.59900 0.12700 46.22500
H  8.06600 4.11200 42.88400
H  5.69400 5.92800 47.10300
H  6.43100 7.00700 45.79900
H  7.34200 6.40500 47.27400
Mg 16.67500 -2.48900 28.22400
C  16.08400 -0.32700 31.05900
C  18.22900 -4.56200 30.25300
C  17.59500 -4.02200 25.52800
C  14.98800 -0.00600 26.24600
N  17.19700 -2.34300 30.36100
C  16.81800 -1.50800 31.37000
C  17.10400 -2.02900 32.69300
C  18.16600 -3.17300 32.44600
C  17.90000 -3.40400 30.94500
C  19.70100 -2.75800 32.82000
C  15.91300 -2.47400 33.45700
C  15.78300 -1.96300 34.87000
H  16.99700 -1.50900 35.69600
N  17.62100 -4.12700 27.97600
C  18.19200 -4.93900 28.95300
C  18.78600 -6.11300 28.30100
C  18.54400 -5.97000 26.87700
C  17.91300 -4.69000 26.73000
C  19.60500 -7.14000 29.04100
C  18.87000 -6.90900 25.74800
O  18.63900 -6.62200 24.56600
C  19.63300 -8.18000 26.06900
N  16.36900 -1.99900 26.13700
C  16.92600 -2.85800 25.22300
C  16.84700 -2.28200 23.80700
C  15.74400 -1.15100 23.98100
C  15.58600 -1.06100 25.53600
C  18.21900 -1.86600 23.16800
C  14.42800 -1.34500 23.18600
C  13.91400 -0.16900 22.31500
N  15.75300 -0.55600 28.54900
C  15.10900 0.26400 27.59700
C  14.67700 1.43900 28.32400
C  14.96400 1.27200 29.64600
C  15.68100 0.07300 29.71900
C  13.90200 2.61800 27.90300
C  14.83900 1.73800 31.02200
O  14.24500 2.68000 31.53200
C  15.58500 0.73700 31.96700
C  16.62000 1.55400 32.67800
O  17.71300 1.80800 32.28800
O  16.07100 1.87900 33.89300
C  16.93800 2.66600 34.81300
H  18.57700 -5.32800 30.95000
H  17.98900 -4.52900 24.64500
H  14.60300 0.82800 25.65500
H  17.41900 -1.13800 33.23700
H  18.03900 -4.09900 33.00700
H  19.78300 -1.74500 33.21500
H  20.33300 -3.10300 32.00200
H  20.05200 -3.44300 33.59000
H  15.92100 -3.54800 33.63800
H  15.02400 -2.18900 32.89300
H  15.14200 -2.59800 35.48100
H  15.10600 -1.11500 34.76900
H  19.46700 -6.95100 30.10500
H  20.66200 -7.03700 28.79300
H  19.34400 -8.16600 28.78300
H  20.50100 -8.04800 26.71500
H  19.97300 -8.55600 25.10400
H  18.93800 -8.82300 26.61000
H  16.34000 -3.04700 23.21900
H  16.16300 -0.20000 23.65000
H  18.13700 -0.86600 22.74100
H  18.50900 -2.58100 22.39800
H  19.01600 -1.93800 23.90800
H  13.69200 -1.58500 23.95300
H  14.43700 -2.28100 22.62600
H  13.43200 -0.55200 21.41600
H  14.75000 0.48800 22.07700
H  13.11400 0.36600 22.82700
H  14.21200 2.64400 26.85800
H  14.21300 3.54400 28.38700
H  12.83300 2.52200 28.09300
H  14.80500 0.31700 32.60100
H  16.55900 2.60700 35.83300
H  16.98500 3.73700 34.61500
H  17.97100 2.32000 34.77100

