158

Mg -2.38000 16.99700 27.56400
C  -2.76200 14.96400 30.34300
C  -2.85300 19.76200 29.60600
C  -2.53800 19.03900 24.69900
C  -2.71500 14.24800 25.41700
N  -2.96600 17.30500 29.76900
C  -2.84200 16.33500 30.74100
C  -2.88000 16.98700 32.14900
C  -3.15600 18.44600 31.88600
C  -2.97900 18.56800 30.36400
C  -4.49300 19.02400 32.33000
C  -1.61400 16.65200 32.99600
C  -1.21100 17.61200 34.16700
H  -0.83400 16.78400 35.47200
N  -2.47900 19.13200 27.23400
C  -2.67400 20.05300 28.19100
C  -2.69700 21.37700 27.54300
C  -2.33400 21.16000 26.16100
C  -2.44900 19.69900 25.96000
C  -3.01500 22.58000 28.37900
C  -2.11400 22.14000 25.02100
O  -2.01300 21.85500 23.86700
C  -1.99100 23.60000 25.45200
N  -2.59200 16.65700 25.37500
C  -2.65100 17.61700 24.39800
C  -2.77900 17.00000 23.01000
C  -2.62100 15.47100 23.23100
C  -2.62600 15.45500 24.72400
C  -4.03500 17.44200 22.26100
C  -1.41900 14.99900 22.40300
C  -0.09400 14.68900 23.17900
N  -2.67400 15.01000 27.79300
C  -2.70400 13.97500 26.90500
C  -2.80700 12.69600 27.50400
C  -2.63000 13.03400 28.81900
C  -2.66300 14.44500 28.99400
C  -3.03000 11.38600 26.95400
C  -2.59300 12.47800 30.16400
O  -2.54800 11.30400 30.56000
C  -2.66200 13.67900 31.24500
C  -1.68000 13.51000 32.23600
O  -0.51600 13.82300 32.14500
O  -2.23700 13.05900 33.46500
C  -1.39400 12.88700 34.67700
H  -2.98200 20.58700 30.30900
H  -2.48100 19.64100 23.79000
H  -2.72500 13.35900 24.78200
H  -3.68600 16.64200 32.79700
H  -2.48200 19.14800 32.37700
H  -5.23400 18.32300 32.71400
H  -4.98700 19.58400 31.53500
H  -4.39300 19.73100 33.15300
H  -0.71100 16.47900 32.41000
H  -1.78100 15.70700 33.51300
H  -2.12800 18.08100 34.52300
H  -0.42600 18.34600 33.98400
H  -2.14700 23.22300 28.53000
H  -3.45600 22.32100 29.34200
H  -3.77200 23.08900 27.78300
H  -2.05100 24.13200 24.50300
H  -1.19500 23.85800 26.15100
H  -2.94300 23.79800 25.94500
H  -1.91000 17.35300 22.45500
H  -3.53900 14.95400 22.95100
H  -4.74800 17.90100 22.94600
H  -4.39000 16.59900 21.66800
H  -3.88500 18.19200 21.48400
H  -1.12600 15.59500 21.53900
H  -1.74900 14.03300 22.02200
H  -0.11500 14.95600 24.23500
H  0.64100 15.27500 22.62700
H  0.24100 13.65600 23.08100
H  -2.36400 10.66600 27.43000
H  -2.88900 11.27800 25.87800
H  -4.02400 11.10300 27.30100
H  -3.57500 13.71700 31.83900
H  -1.79700 13.47500 35.50200
H  -0.33600 13.13900 34.59500
H  -1.41900 11.82700 34.92900
Mg 1.60200 -1.55900 44.77200
C  4.75700 -0.37800 44.00100
C  0.31600 1.23400 43.29700
C  -1.42400 -3.08600 44.70400
C  3.09200 -4.66000 45.55300
N  2.49300 0.16400 43.54600
C  3.77900 0.49700 43.43400
C  4.02000 1.83500 42.68600
C  2.51600 2.45400 42.95300
C  1.69900 1.22600 43.30800
C  2.43900 3.49900 44.02700
C  4.41500 1.60800 41.19500
C  5.85900 2.10900 40.90700
H  6.70400 1.37000 39.89100
N  -0.31900 -0.91000 44.34800
C  -0.60600 0.25600 43.71400
C  -2.05100 0.32500 43.57600
C  -2.65900 -0.90500 43.99600
C  -1.50900 -1.66800 44.43600
C  -2.68700 1.63800 42.99900
C  -4.16200 -1.33500 43.93800
O  -5.01200 -0.52300 43.59800
C  -4.77100 -2.66100 44.29800
N  0.96600 -3.62100 44.81100
C  -0.37600 -3.90700 45.03700
C  -0.70300 -5.24600 45.67700
C  0.73300 -5.78100 45.89400
C  1.67300 -4.62000 45.37100
C  -1.53000 -5.11100 46.90600
C  0.96000 -7.20300 45.22600
C  1.42300 -8.28000 46.24200
N  3.51400 -2.38000 44.83900
C  4.04700 -3.64300 45.19300
C  5.50600 -3.63300 45.13800
C  5.78600 -2.33600 44.72800
C  4.57900 -1.64800 44.56500
C  6.42200 -4.86000 45.41700
C  6.92600 -1.48600 44.40000
O  8.13800 -1.58500 44.45700
C  6.26700 -0.17800 43.94900
C  6.55600 0.73800 45.07400
O  5.86900 0.83100 46.08700
O  7.66100 1.41600 44.74900
C  7.85900 2.68600 45.37600
H  -0.21100 2.14800 43.01700
H  -2.44500 -3.46000 44.80300
H  3.61900 -5.56200 45.86900
H  4.77400 2.40000 43.23300
H  2.15000 2.89700 42.02700
H  2.98500 4.38200 43.69500
H  2.81800 3.18100 44.99800
H  1.42900 3.87900 44.18300
H  3.79200 2.29500 40.62200
H  4.39400 0.57600 40.84500
H  6.47200 2.03900 41.80500
H  5.72600 3.15400 40.62700
H  -3.77100 1.56100 42.91700
H  -2.42200 1.85200 41.96300
H  -2.47500 2.55800 43.54300
H  -4.38100 -2.93800 45.27700
H  -4.33200 -3.33900 43.56600
H  -5.85600 -2.64600 44.40600
H  -1.31500 -5.87700 45.03400
H  1.04600 -5.85400 46.93600
H  -2.57800 -5.10700 46.60700
H  -1.25200 -4.18100 47.40100
H  -1.30200 -6.01000 47.47900
H  1.63400 -6.98400 44.39700
H  -0.01800 -7.57300 44.91900
H  1.21300 -8.06700 47.29000
H  2.46300 -8.57500 46.10200
H  0.80900 -9.15600 46.03200
H  5.77100 -5.72200 45.27700
H  6.70400 -4.83300 46.46900
H  7.30600 -4.86200 44.77900
H  6.71500 0.20700 43.03300
H  8.80400 2.98400 44.92100
H  7.73300 2.51300 46.44500
H  7.15300 3.44400 45.03600

