158

Mg 50.04600 35.44700 26.78200
C  47.57800 34.11900 28.85400
C  49.90100 38.37700 28.64500
C  52.09400 36.84100 24.46000
C  49.82400 32.50600 24.73800
N  48.91100 36.12100 28.56700
C  48.00500 35.37100 29.29300
C  47.64000 35.99600 30.60500
C  48.04500 37.49200 30.29700
C  49.13200 37.32400 29.22800
C  46.86700 38.44000 29.92600
C  48.28900 35.40900 31.85100
C  47.55100 35.12400 33.10600
H  47.77300 36.07300 34.33000
N  50.85300 37.27100 26.61200
C  50.67400 38.33900 27.48200
C  51.37500 39.49500 26.94600
C  52.12700 39.07700 25.79600
C  51.68500 37.69300 25.54100
C  51.41400 40.87000 27.66300
C  53.10100 39.88500 24.92700
O  53.50500 39.43300 23.85900
C  53.61500 41.20700 25.42700
N  50.58100 34.82600 24.69000
C  51.67200 35.47800 24.09300
C  52.22200 34.70800 22.86000
C  51.57600 33.27500 23.02400
C  50.61300 33.53300 24.26500
C  52.02600 35.23300 21.50600
C  52.57700 32.10100 23.35100
C  53.43800 31.62400 22.23700
N  49.04700 33.59800 26.84700
C  49.00000 32.57200 25.90600
C  48.09500 31.57000 26.32800
C  47.44300 32.13700 27.46800
C  48.06100 33.37200 27.69200
C  47.91500 30.20000 25.69600
C  46.51600 31.89700 28.49700
O  45.72700 30.94200 28.77900
C  46.52200 33.12200 29.37900
C  46.76400 32.69600 30.79400
O  47.82900 32.36100 31.18400
O  45.58600 32.65000 31.55400
C  45.63200 31.72300 32.67800
H  49.82000 39.23700 29.31400
H  52.77400 37.23000 23.69900
H  49.95500 31.52900 24.26700
H  46.56700 35.91200 30.77700
H  48.61000 38.03000 31.05800
H  47.04500 38.85700 28.93500
H  46.79900 39.14700 30.75300
H  45.92900 37.88500 29.91100
H  48.98500 36.20400 32.11800
H  48.98100 34.62200 31.55000
H  47.79400 34.10000 33.38900
H  46.49000 35.08000 32.86000
H  51.27300 41.60600 26.87100
H  52.43500 41.13000 27.94200
H  50.74100 41.17600 28.46400
H  52.88400 42.00000 25.27100
H  54.54300 41.49100 24.93200
H  53.78800 41.12600 26.50100
H  53.29200 34.62900 23.05300
H  51.08000 32.89800 22.13000
H  52.98400 35.41800 21.02100
H  51.53800 36.20800 21.48700
H  51.40100 34.59400 20.88200
H  52.08900 31.19400 23.70900
H  53.12900 32.62400 24.13100
H  53.32600 30.54500 22.13000
H  54.49700 31.87600 22.29400
H  53.01000 32.06200 21.33500
H  48.23400 30.21500 24.65400
H  46.87600 29.90100 25.56300
H  48.35700 29.39900 26.28800
H  45.55500 33.62500 29.37200
H  44.99800 32.19800 33.42600
H  46.62800 31.51700 33.07000
H  45.12700 30.79500 32.41200
Mg 9.00700 48.79600 25.89200
C  6.91400 49.02800 28.64500
C  11.74200 49.79400 27.96600
C  11.15200 48.33000 23.35600
C  6.35100 48.23600 23.84900
N  9.30600 49.40500 28.05400
C  8.31800 49.20800 29.02000
C  8.95400 49.46200 30.44200
C  10.40100 50.06500 30.10500
C  10.51800 49.75900 28.61300
C  10.67000 51.57500 30.49000
C  9.11800 48.24100 31.43400
C  8.80700 48.50500 32.86800
H  8.58500 47.28800 33.66800
N  11.12100 49.02400 25.63400
C  12.02900 49.47200 26.63600
C  13.40100 49.43300 26.06200
C  13.27800 48.95500 24.72600
C  11.81100 48.73500 24.49100
C  14.66900 49.81700 26.80300
C  14.37900 48.72200 23.70000
O  14.10300 48.20600 22.63400
C  15.89100 49.03400 24.00500
N  8.75900 48.63000 23.80800
C  9.73100 48.26000 23.03800
C  9.24300 47.80200 21.62600
C  7.68300 47.84900 21.75900
C  7.59500 48.27900 23.22700
C  9.83000 48.77900 20.46600
C  6.95300 46.50800 21.48000
C  5.64500 46.72800 20.70900
N  7.05800 48.65200 26.08700
C  6.04500 48.44500 25.16900
C  4.75700 48.40900 25.80400
C  5.03400 48.70400 27.23200
C  6.43400 48.77500 27.31500
C  3.52600 48.09000 25.08700
C  4.45900 48.89400 28.54900
O  3.28400 48.78400 28.98000
C  5.68900 49.10900 29.50400
C  5.58600 48.06200 30.52600
O  5.76800 46.88700 30.43800
O  5.23300 48.76600 31.74800
C  4.91400 47.98900 32.94200
H  12.47200 50.12400 28.70800
H  11.87500 48.05200 22.58600
H  5.46700 48.11400 23.21900
H  8.38700 50.19000 31.02300
H  11.25200 49.62200 30.62200
H  11.16100 51.68100 31.45700
H  9.66200 51.94300 30.67900
H  11.09600 52.18600 29.69400
H  10.12600 47.84000 31.54100
H  8.54900 47.39300 31.05200
H  7.89900 49.09900 32.97600
H  9.58700 49.11100 33.33000
H  15.25400 48.91800 26.99400
H  14.45600 50.33300 27.74000
H  15.19400 50.58000 26.22800
H  16.41700 49.02500 23.05100
H  16.30400 48.32300 24.72100
H  15.93700 50.03400 24.43700
H  9.70700 46.81800 21.56700
H  7.12000 48.54500 21.13700
H  9.35400 49.74600 20.62400
H  9.69800 48.33300 19.48000
H  10.90800 48.84800 20.61500
H  6.81300 45.82500 22.31800
H  7.59600 45.83200 20.91600
H  5.77900 46.05900 19.85900
H  5.56600 47.75900 20.36400
H  4.75300 46.47400 21.28200
H  3.21500 48.91000 24.43900
H  2.94400 47.77400 25.95300
H  3.73400 47.26700 24.40300
H  5.49700 50.10000 29.91600
H  5.83700 47.47900 33.21800
H  4.15400 47.25200 32.68200
H  4.52100 48.54600 33.79200

