158

Mg 1.52500 8.47600 25.79300
C  2.33200 10.37800 28.59600
C  1.95100 5.65100 27.64400
C  1.38700 6.56200 23.06400
C  1.54300 11.34300 23.86800
N  2.00200 8.05900 27.81900
C  2.21700 8.99800 28.81800
C  2.28500 8.37700 30.20800
C  2.35600 6.88600 29.81600
C  2.12600 6.85600 28.30600
C  3.75100 6.11800 30.12300
C  1.07200 8.87600 30.92100
C  1.12600 8.79500 32.49500
H  2.42500 8.15500 33.11000
N  1.39300 6.40400 25.41700
C  1.61600 5.37500 26.27200
C  1.37500 4.10300 25.68500
C  1.16500 4.39400 24.32500
C  1.30500 5.88400 24.19600
C  1.33100 2.83700 26.53600
C  0.83800 3.43900 23.21900
O  0.59000 3.75200 22.07300
C  0.93600 1.93600 23.60100
N  1.44800 8.93100 23.76300
C  1.43800 7.94400 22.81700
C  1.24900 8.56400 21.40700
C  0.96200 10.02000 21.73300
C  1.36700 10.12600 23.22500
C  2.52400 8.26100 20.60300
C  -0.56100 10.45100 21.53800
C  -0.97200 10.95000 20.17200
N  1.89800 10.44400 26.11600
C  1.94000 11.52900 25.21500
C  2.35400 12.74200 25.93100
C  2.41700 12.33600 27.30800
C  2.16900 10.93000 27.36400
C  2.30300 14.08000 25.35600
C  2.75600 12.86200 28.64600
O  3.16400 13.97100 28.96300
C  2.56000 11.64300 29.57000
C  3.79700 11.54400 30.44500
O  4.89400 11.25800 30.06000
O  3.39400 11.90000 31.67600
C  4.48500 12.23900 32.55800
H  2.17400 4.76100 28.23700
H  1.47300 5.78800 22.29800
H  1.33200 12.25100 23.29900
H  3.17100 8.72600 30.73700
H  1.51100 6.28700 30.15500
H  3.50100 5.33000 30.83300
H  4.53100 6.71900 30.59100
H  4.18300 5.69000 29.21800
H  0.28000 8.19300 30.61400
H  0.70000 9.86800 30.66800
H  0.34200 8.12400 32.84700
H  1.05000 9.82000 32.85700
H  1.43400 2.98900 27.61000
H  2.25100 2.34600 26.21700
H  0.53400 2.10400 26.41600
H  1.81800 1.79300 24.22400
H  1.21100 1.54500 22.62200
H  0.01300 1.47500 23.95400
H  0.49000 8.00700 20.85600
H  1.52800 10.56300 20.97700
H  3.21200 8.03800 21.41800
H  2.89300 9.10700 20.02300
H  2.38200 7.32900 20.05600
H  -0.79500 11.13500 22.35400
H  -1.20100 9.64600 21.90100
H  -0.17700 10.67900 19.47700
H  -1.12100 12.01200 19.97700
H  -1.86900 10.38600 19.91700
H  1.22500 14.22400 25.41700
H  2.53700 14.10300 24.29100
H  2.96500 14.84100 25.76800
H  1.63900 11.89200 30.09600
H  5.04000 13.04700 32.08200
H  5.27100 11.53300 32.82700
H  4.08900 12.68600 33.47000
Mg -0.04300 44.00600 25.79800
C  2.09900 43.79800 28.64400
C  -2.53900 42.90900 27.85500
C  -2.04800 43.71100 23.07800
C  2.65500 44.88500 23.84600
N  -0.22000 43.57900 28.08500
C  0.74600 43.52500 29.01400
C  0.19300 43.29400 30.35700
C  -1.27600 42.79900 30.07400
C  -1.38900 43.20900 28.59200
C  -1.61500 41.37200 30.51200
C  0.30500 44.61300 31.21900
C  0.78200 44.38200 32.70200
H  0.42500 43.07400 33.33500
N  -1.94000 43.29400 25.50200
C  -2.85100 42.87400 26.51100
C  -4.11500 42.44400 25.94900
C  -4.00200 42.65100 24.54800
C  -2.55500 43.13300 24.28700
C  -5.33000 42.17300 26.78500
C  -5.09000 42.44400 23.45500
O  -4.98000 42.77200 22.32800
C  -6.34800 41.86800 23.81200
N  0.35100 44.14800 23.79000
C  -0.76200 44.22000 22.87500
C  -0.39900 45.13800 21.65000
C  1.14000 45.50900 21.95800
C  1.43300 44.85900 23.26400
C  -0.62400 44.57800 20.23000
C  1.36000 47.02400 22.02700
C  1.59400 47.69300 20.65000
N  2.00900 44.26300 26.09300
C  3.02000 44.51000 25.18300
C  4.29200 44.52300 25.75800
C  3.99200 44.30200 27.16800
C  2.59600 44.09900 27.31400
C  5.54800 44.98200 25.00900
C  4.56600 44.13300 28.48000
O  5.76200 44.13300 28.78600
C  3.38500 43.79000 29.44600
C  3.67200 42.49800 30.07800
O  3.32000 41.42100 29.63000
O  4.33200 42.69400 31.23000
C  4.63200 41.49300 32.01200
H  -3.40000 42.65600 28.47700
H  -2.69700 43.79600 22.20400
H  3.47600 45.36700 23.31200
H  0.72900 42.50800 30.88800
H  -2.05300 43.36000 30.59400
H  -1.76500 40.69700 29.67000
H  -2.40800 41.31600 31.25900
H  -0.73100 40.98600 31.01900
H  -0.62100 45.18700 31.25100
H  1.08500 45.26100 30.81800
H  0.40800 45.22000 33.29000
H  1.85300 44.58100 32.67400
H  -6.10700 42.91100 26.58800
H  -5.21200 41.90100 27.83400
H  -5.67100 41.22400 26.37000
H  -6.94500 42.55600 24.41000
H  -6.14200 40.89700 24.26200
H  -7.04400 41.79900 22.97700
H  -1.01100 46.03800 21.70000
H  1.83800 45.03800 21.26600
H  -1.63500 44.77000 19.86800
H  -0.50500 43.50200 20.35300
H  0.12200 44.95400 19.53000
H  2.25400 47.29300 22.59000
H  0.50000 47.45400 22.54000
H  0.95200 48.57000 20.57200
H  1.36700 46.94300 19.89200
H  2.65000 47.96200 20.65800
H  5.49400 45.98700 24.59000
H  5.88100 44.15600 24.38100
H  6.29400 45.13600 25.78800
H  3.38600 44.51700 30.25800
H  3.67000 40.98200 32.06400
H  4.88800 41.68900 33.05300
H  5.37900 40.85900 31.53500

