158

Mg 25.10700 -5.25700 45.90700
C  26.95500 -2.76900 44.40200
C  22.29700 -4.22000 44.07700
C  23.59700 -8.11900 46.87000
C  28.07900 -6.47900 47.54100
N  24.66300 -3.68000 44.43600
C  25.65800 -2.80300 43.94400
C  25.06600 -1.96700 42.84700
C  23.48200 -2.08500 43.17900
C  23.43700 -3.41300 43.96600
C  22.93400 -0.99900 44.12000
C  25.52400 -2.55600 41.45300
C  26.37400 -1.62500 40.52000
H  25.95600 -1.54000 39.02000
N  23.24900 -6.01700 45.54500
C  22.21500 -5.44300 44.82300
C  21.13000 -6.32700 44.80700
C  21.34700 -7.45500 45.56500
C  22.79500 -7.24000 46.04400
C  19.81800 -5.92700 44.18200
C  20.50800 -8.65800 45.75800
O  19.34200 -8.63800 45.35300
C  20.82500 -9.73700 46.66300
N  25.75600 -7.16700 46.94600
C  24.87100 -8.10200 47.26700
C  25.48800 -9.04000 48.30300
C  26.87800 -8.44300 48.62400
C  26.97500 -7.27500 47.62500
C  24.65800 -9.58400 49.58400
C  28.10800 -9.42000 48.63600
C  28.76900 -9.50500 49.97800
N  27.07500 -4.78600 46.03100
C  28.14900 -5.34700 46.72200
C  29.35400 -4.49300 46.48700
C  28.87300 -3.61800 45.48900
C  27.52800 -3.72800 45.35100
C  30.67800 -4.61100 46.99300
C  29.38000 -2.63100 44.57500
O  30.44100 -2.22000 44.43600
C  28.12000 -1.99600 43.83500
C  28.06900 -0.58400 44.16200
O  27.85600 -0.13300 45.27500
O  28.35400 0.20600 43.08700
C  28.85000 1.50600 43.41100
H  21.42100 -3.78800 43.58900
H  23.12300 -9.00000 47.30900
H  28.92600 -6.74500 48.17700
H  25.42600 -0.95800 43.05200
H  22.78700 -2.29400 42.36600
H  22.40600 -0.28100 43.49200
H  23.73500 -0.42200 44.58200
H  22.32500 -1.37800 44.94000
H  24.65000 -2.92000 40.91100
H  26.02100 -3.51900 41.56900
H  27.41800 -1.93300 40.55500
H  26.28600 -0.58700 40.83900
H  19.16300 -6.78900 44.05100
H  19.95400 -5.60300 43.15000
H  19.27600 -5.17600 44.75700
H  19.89700 -10.28300 46.83600
H  21.09600 -9.28600 47.61700
H  21.65000 -10.36000 46.31800
H  25.61900 -9.96700 47.74300
H  26.79800 -8.01100 49.62200
H  25.21300 -9.62200 50.52100
H  24.24200 -10.58200 49.44500
H  23.84700 -8.85600 49.58700
H  28.82300 -9.11300 47.87200
H  27.90100 -10.45800 48.37500
H  28.02200 -9.57800 50.76900
H  29.27000 -8.56300 50.20000
H  29.51700 -10.29700 50.00000
H  31.36400 -3.85400 46.61300
H  30.92500 -5.63000 46.69600
H  30.62600 -4.55400 48.08100
H  28.30200 -2.12600 42.76800
H  28.99800 2.12000 42.52200
H  29.87000 1.37600 43.77400
H  28.27100 2.17200 44.05000
Mg 46.87600 25.79200 28.55300
C  47.80500 27.82200 31.27000
C  45.62200 23.52300 30.83800
C  46.24500 23.76800 25.95700
C  48.52900 28.00500 26.35700
N  46.75300 25.70600 30.79200
C  47.13300 26.69300 31.71800
C  46.80900 26.18500 33.17300
C  46.13400 24.84100 32.95000
C  46.16800 24.66900 31.41900
C  46.80800 23.65600 33.74500
C  45.97900 27.32100 33.98500
C  46.59200 27.98900 35.13500
H  45.69400 28.52900 36.26100
N  46.08600 23.87200 28.45500
C  45.54600 23.15700 29.45500
C  44.93500 21.92100 28.93500
C  45.11300 21.94600 27.55700
C  45.85700 23.23900 27.21000
C  44.08200 20.93300 29.67900
C  44.52000 21.05900 26.50400
O  44.73400 21.18300 25.33800
C  43.75600 19.86000 26.86400
N  47.39200 25.84800 26.47600
C  46.94700 24.86900 25.64200
C  47.24300 25.20300 24.12900
C  47.74300 26.71800 24.24900
C  48.00000 26.83700 25.76100
C  48.25100 24.24100 23.43500
C  46.62800 27.75000 23.79000
C  47.04600 28.66500 22.60800
N  47.88100 27.56900 28.70800
C  48.53900 28.30500 27.74700
C  49.15600 29.38600 28.35600
C  48.85800 29.29000 29.70300
C  48.14300 28.09200 29.87900
C  50.10200 30.34400 27.69000
C  49.04400 29.91500 30.94800
O  49.51000 31.03400 31.22100
C  48.47900 28.92500 32.12000
C  49.59800 28.44300 32.98900
O  50.52500 27.74500 32.61500
O  49.59400 29.02000 34.23100
C  50.55200 28.54600 35.23700
H  45.20800 22.83900 31.58200
H  46.03500 23.18500 25.05800
H  48.95300 28.75300 25.68400
H  47.78500 25.98900 33.61600
H  45.08800 24.83800 33.25700
H  47.45400 23.94600 34.57300
H  47.29700 22.91200 33.11600
H  46.02000 23.02200 34.15200
H  45.07800 26.83400 34.36000
H  45.73900 28.19200 33.37500
H  47.05100 28.91400 34.78500
H  47.47600 27.49500 35.53800
H  43.07700 21.09600 29.29000
H  44.06200 21.32900 30.69500
H  44.45300 19.91100 29.60400
H  44.39100 19.37800 27.60700
H  43.51500 19.22000 26.01500
H  42.84000 20.22100 27.33300
H  46.25400 25.09900 23.68300
H  48.65600 26.99600 23.72300
H  48.24600 23.31200 24.00500
H  49.22400 24.65600 23.17300
H  47.85900 23.91000 22.47400
H  46.39400 28.44900 24.59300
H  45.66400 27.24900 23.70100
H  46.46800 28.57200 21.68800
H  48.08400 28.52200 22.30800
H  46.92200 29.71400 22.87900
H  50.79800 29.89800 26.98000
H  50.63100 30.83300 28.50800
H  49.51400 31.13500 27.22500
H  47.87000 29.57300 32.75000
H  51.18600 27.71300 34.93300
H  49.97800 28.24700 36.11500
H  51.26000 29.31900 35.53600

