158

Mg 0.84200 8.44800 26.15900
C  1.81500 9.99900 29.20600
C  0.84000 5.47500 27.91900
C  0.19800 6.78000 23.24800
C  1.26900 11.31900 24.49100
N  1.35100 7.81900 28.32500
C  1.60300 8.63200 29.41200
C  1.58800 7.83900 30.71500
C  1.37000 6.36500 30.34700
C  1.14500 6.53400 28.80400
C  2.45800 5.37500 30.66600
C  0.60900 8.34500 31.79500
C  1.14400 8.36900 33.26000
H  2.37900 7.57700 33.61400
N  0.42600 6.40300 25.70000
C  0.48500 5.33800 26.61400
C  0.12900 4.13300 25.91600
C  -0.04000 4.42100 24.51000
C  0.24200 5.94100 24.42200
C  0.10500 2.76700 26.57800
C  -0.13300 3.52500 23.32300
O  -0.01600 3.98300 22.18300
C  -0.34800 2.06400 23.48000
N  0.88200 8.92400 24.13100
C  0.45600 8.12600 23.15600
C  0.32900 8.89800 21.81300
C  0.69100 10.36900 22.22900
C  0.96800 10.23500 23.73500
C  1.24800 8.24300 20.72500
C  -0.27300 11.58800 21.88700
C  -1.08100 11.44200 20.56700
N  1.37200 10.28900 26.71900
C  1.53900 11.44000 25.88700
C  1.91100 12.59900 26.72300
C  2.05200 12.02000 28.00900
C  1.75300 10.65700 27.93800
C  2.05800 14.02300 26.26900
C  2.41100 12.36500 29.39200
O  2.67800 13.38100 30.00900
C  2.01300 11.09400 30.19600
C  3.11400 10.77300 31.15700
O  4.07100 10.06700 30.94400
O  2.91500 11.43400 32.34100
C  3.98100 11.61800 33.30600
H  0.92000 4.52900 28.45900
H  -0.08200 6.39400 22.26500
H  1.48300 12.22700 23.92300
H  2.63100 7.96900 31.00500
H  0.39300 6.01300 30.67900
H  2.75300 4.78800 29.79600
H  2.00400 4.64400 31.33500
H  3.36300 5.81000 31.08900
H  -0.29300 7.73500 31.84900
H  0.33600 9.38000 31.58700
H  0.37400 7.95300 33.91000
H  1.22000 9.39100 33.63100
H  1.09600 2.31600 26.53100
H  -0.61400 2.10100 26.10200
H  -0.30500 2.79100 27.58800
H  -0.33600 1.63300 22.48000
H  -1.31300 1.77300 23.89600
H  0.51700 1.75300 24.06500
H  -0.70400 8.78000 21.48600
H  1.70600 10.61200 21.91500
H  1.54200 9.08800 20.10100
H  0.69100 7.54700 20.09700
H  2.20000 7.84600 21.07800
H  0.34500 12.47100 21.72400
H  -0.95800 11.66700 22.73000
H  -0.69100 12.16600 19.85200
H  -2.14800 11.61000 20.71100
H  -0.98200 10.43500 20.16100
H  2.70500 14.70700 26.81800
H  1.06000 14.45800 26.20900
H  2.45400 13.92000 25.25900
H  1.14600 11.37500 30.79400
H  4.29800 12.66100 33.29900
H  4.85700 11.01400 33.07100
H  3.58700 11.37600 34.29400
Mg 36.80600 49.42900 24.75400
C  36.91700 47.37500 27.66800
C  35.78900 52.06200 26.75500
C  36.36400 51.05500 22.04600
C  37.26200 46.46500 22.83400
N  36.33700 49.67400 26.97300
C  36.54900 48.75200 27.98800
C  36.27800 49.36600 29.39200
C  35.76000 50.80800 29.02200
C  36.01700 50.87600 27.46900
C  34.24300 51.08600 29.33400
C  37.57000 49.33500 30.17600
C  37.50100 49.06000 31.67500
H  36.17700 49.01900 32.34600
N  36.22500 51.31000 24.46500
C  35.81700 52.30300 25.36800
C  35.47200 53.44600 24.66800
C  35.70800 53.21600 23.25800
C  36.09700 51.79900 23.22400
C  34.96500 54.73500 25.32100
C  35.40200 54.18400 22.09300
O  35.37900 53.86900 20.90200
C  35.03500 55.63400 22.32600
N  36.83800 48.81900 22.69400
C  36.62500 49.67200 21.78500
C  36.84100 49.16400 20.33200
C  37.19600 47.67600 20.67000
C  37.16700 47.62800 22.14900
C  35.59100 49.39700 19.41800
C  38.62300 47.21300 20.10300
C  39.87100 47.19700 20.94400
N  37.11900 47.37900 25.13600
C  37.30100 46.31900 24.25900
C  37.51300 45.08500 24.99600
C  37.34000 45.44800 26.34900
C  37.06100 46.84100 26.40000
C  37.72700 43.67200 24.40300
C  37.26600 44.94300 27.71600
O  37.28200 43.79400 28.12300
C  37.03400 46.18300 28.58800
C  35.84100 45.91300 29.31900
O  34.73200 46.12300 28.92400
O  36.17100 45.40900 30.52400
C  35.19100 45.04600 31.42800
H  35.52200 52.95600 27.32200
H  36.29800 51.66500 21.14300
H  37.45200 45.51700 22.32800
H  35.44100 48.83600 29.84500
H  36.38700 51.56100 29.49900
H  33.80300 50.37500 30.03300
H  33.77500 51.13300 28.35100
H  34.15800 52.08200 29.76900
H  38.23500 50.15800 29.91600
H  38.16400 48.51500 29.77200
H  38.02300 49.90900 32.11700
H  38.06200 48.14000 31.84000
H  34.19700 55.02500 24.60400
H  35.76400 55.46900 25.41500
H  34.53400 54.61400 26.31500
H  35.73100 56.08800 23.03300
H  33.96900 55.73800 22.52500
H  35.02100 56.12000 21.35100
H  37.66400 49.64600 19.80500
H  36.34600 47.04800 20.40500
H  34.69600 49.52500 20.02700
H  35.43600 48.57200 18.72200
H  35.83100 50.29400 18.84800
H  38.83900 47.95000 19.33000
H  38.52400 46.30200 19.51300
H  39.61100 47.29900 21.99800
H  40.41000 48.10800 20.68800
H  40.40900 46.27400 20.72600
H  36.82100 43.08700 24.24000
H  38.30900 43.13800 25.15400
H  38.47200 43.76100 23.61200
H  37.80600 46.39600 29.32800
H  35.48100 45.69500 32.25300
H  35.17800 43.97100 31.61200
H  34.18300 45.34100 31.13500

