158

Mg 47.76200 24.50500 29.15000
C  48.85400 26.91400 31.41500
C  46.81000 22.47600 31.66900
C  46.90700 22.22600 26.84800
C  49.14700 26.56200 26.56500
N  47.69300 24.77500 31.24300
C  48.16900 25.80900 31.96700
C  47.68300 25.66700 33.44400
C  47.22200 24.19700 33.58100
C  47.24800 23.79700 32.07800
C  47.99000 23.16800 34.45700
C  46.55600 26.70800 33.81600
C  46.85500 27.78200 34.86500
H  45.79800 28.04000 35.99000
N  46.87200 22.66300 29.23700
C  46.58600 21.92400 30.39300
C  46.06800 20.62200 30.11300
C  46.00100 20.56000 28.67400
C  46.57600 21.85300 28.16700
C  45.55700 19.67100 31.15500
C  45.47400 19.49400 27.83900
O  45.33400 19.70700 26.63900
C  45.03000 18.18700 28.42000
N  48.03100 24.40700 26.97800
C  47.53200 23.38200 26.26000
C  47.84200 23.52800 24.73100
C  48.19500 24.99000 24.66900
C  48.39600 25.38900 26.11400
C  49.05500 22.61700 24.32000
C  47.05700 25.78800 24.03400
C  46.91300 25.72000 22.50800
N  48.84100 26.32800 28.99900
C  49.38100 27.00900 27.84800
C  50.10500 28.14300 28.34600
C  49.96500 28.14100 29.75300
C  49.17100 27.07700 30.07100
C  50.89100 29.17700 27.61900
C  50.27400 28.76100 30.98300
O  50.97800 29.76600 31.25600
C  49.47400 28.06100 32.13500
C  50.44600 27.67900 33.17900
O  51.20300 26.73700 33.20600
O  50.20800 28.58200 34.21100
C  51.13800 28.32800 35.33100
H  46.53400 21.96000 32.59100
H  46.68700 21.53300 26.03300
H  49.55100 27.08900 25.69800
H  48.58700 25.71500 34.05000
H  46.18900 24.24500 33.92600
H  48.94000 23.56000 34.82200
H  48.27100 22.31100 33.84500
H  47.40400 22.78600 35.29200
H  45.63400 26.23000 34.14700
H  46.22900 27.07600 32.84400
H  47.05700 28.73700 34.38000
H  47.76500 27.43500 35.35500
H  45.85800 18.68100 30.81200
H  44.46700 19.64200 31.13800
H  45.94500 19.94800 32.13500
H  45.83900 17.51500 28.71000
H  44.47300 17.57700 27.70900
H  44.29700 18.37700 29.20400
H  47.01700 23.26200 24.07100
H  49.07500 25.27900 24.09500
H  49.62500 22.09500 25.08900
H  49.82400 23.19000 23.80100
H  48.54700 21.78700 23.83000
H  47.19400 26.83000 24.32500
H  46.20000 25.49300 24.64000
H  47.62100 25.03200 22.04600
H  47.12700 26.73200 22.16300
H  45.85400 25.47300 22.43500
H  50.52700 29.21400 26.59200
H  51.96800 29.01200 27.59300
H  50.68400 30.13000 28.10500
H  48.59200 28.59200 32.49400
H  52.17300 28.09500 35.08200
H  50.73000 27.49000 35.89700
H  51.22900 29.19900 35.98000
Mg 35.88400 48.35500 24.44900
C  36.07700 46.57000 27.41300
C  34.70200 51.10400 26.26000
C  35.37500 49.95900 21.58300
C  36.90100 45.42900 22.75500
N  35.11700 48.66200 26.54500
C  35.50300 47.85800 27.60100
C  35.28000 48.53200 28.97400
C  34.62700 49.88100 28.55000
C  34.91600 49.91900 27.03400
C  33.10500 50.16100 28.92700
C  36.65400 48.75000 29.73400
C  36.74500 48.55000 31.17900
H  35.45400 48.67200 31.97700
N  35.19700 50.31100 23.97800
C  34.83400 51.27800 24.86100
C  34.51500 52.48300 24.16700
C  34.60900 52.14000 22.75900
C  35.07600 50.77100 22.65600
C  34.10900 53.83300 24.88900
C  34.35500 52.95900 21.46200
O  34.44500 52.64000 20.29200
C  33.87100 54.31200 21.79800
N  35.99600 47.72200 22.42100
C  35.81600 48.60100 21.48500
C  36.20500 47.99000 20.07900
C  36.52600 46.45800 20.40100
C  36.48400 46.54800 21.95800
C  35.11200 48.15700 19.01200
C  37.76900 45.89900 19.81400
C  39.06200 46.41300 20.30300
N  36.44400 46.37200 24.92100
C  36.86000 45.38700 24.17300
C  37.32100 44.32100 25.04400
C  37.01700 44.73300 26.35500
C  36.42500 46.00900 26.19100
C  37.78500 42.99800 24.62600
C  37.01600 44.40100 27.70500
O  37.38400 43.36600 28.26100
C  36.42600 45.57000 28.56200
C  35.39600 44.99400 29.39900
O  34.18200 44.95800 29.20600
O  35.93400 44.66500 30.56800
C  35.00200 44.66800 31.67100
H  34.37600 51.98900 26.81200
H  35.01300 50.39600 20.65000
H  37.26200 44.52700 22.25600
H  34.63500 47.84300 29.51900
H  35.15300 50.72600 28.99500
H  32.66000 50.81400 28.17600
H  33.26200 50.74100 29.83600
H  32.50700 49.25300 28.99900
H  37.10300 49.72600 29.55200
H  37.41700 48.16800 29.21800
H  37.50100 49.22700 31.57500
H  37.10900 47.52500 31.25700
H  34.96400 54.47300 24.67200
H  34.06900 53.60600 25.95400
H  33.17700 54.33300 24.62700
H  34.73100 54.85300 22.19200
H  33.00600 54.27900 22.46100
H  33.47200 54.80900 20.91400
H  37.13700 48.41200 19.70300
H  35.66600 45.80000 20.27100
H  34.39100 48.93900 19.24900
H  34.61500 47.20500 18.82600
H  35.64000 48.37900 18.08500
H  37.50100 46.14300 18.78600
H  37.78600 44.82300 19.98500
H  39.62700 46.77600 19.44500
H  39.80400 45.69900 20.66300
H  39.04800 47.19400 21.06400
H  38.84600 42.94600 24.87200
H  37.68400 42.81200 23.55700
H  37.22600 42.16200 25.04700
H  37.19000 45.98300 29.22100
H  34.41600 43.75400 31.57000
H  34.40000 45.57600 31.69000
H  35.54700 44.67100 32.61500

