158

Mg 36.24900 49.22300 24.29800
C  36.68600 47.53100 27.37400
C  34.74400 51.81500 25.96800
C  35.71100 50.66600 21.36600
C  37.46100 46.41700 22.64000
N  35.70600 49.54500 26.47800
C  36.14800 48.85600 27.53300
C  35.74700 49.56200 28.86200
C  34.95000 50.85100 28.36600
C  35.12400 50.75400 26.84200
C  33.57300 51.12000 28.92100
C  37.07400 49.84200 29.69300
C  37.23000 49.12000 31.04400
H  35.93100 48.80600 31.82600
N  35.36100 51.01900 23.75400
C  34.90100 52.02900 24.56800
C  34.42700 53.18500 23.75400
C  34.58900 52.80700 22.36500
C  35.26900 51.45700 22.46900
C  33.85800 54.43100 24.33400
C  34.38700 53.59500 21.12200
O  34.77700 53.12500 20.04400
C  33.83100 54.94300 21.18200
N  36.45200 48.61800 22.25300
C  36.25700 49.42200 21.16500
C  36.63800 48.79800 19.88300
C  37.51300 47.66000 20.35500
C  37.12900 47.54100 21.83700
C  35.43200 48.36200 18.96000
C  38.99000 47.97600 20.23800
C  39.77900 46.70300 19.84200
N  36.94000 47.35500 24.79000
C  37.36200 46.32200 24.00900
C  37.74800 45.20700 24.86700
C  37.51100 45.63000 26.16700
C  37.00400 46.99200 26.14400
C  38.30900 43.80700 24.47600
C  37.51700 45.19100 27.60300
O  37.83500 44.17700 28.20000
C  36.98400 46.47500 28.46000
C  35.80200 46.00800 29.17700
O  34.65300 46.04900 28.83000
O  36.22400 45.33500 30.24400
C  35.18200 44.51200 30.90200
H  34.30800 52.67700 26.47800
H  35.63300 51.11300 20.37300
H  38.09800 45.61600 22.25900
H  35.02500 48.90700 29.35100
H  35.49300 51.76900 28.58700
H  33.61100 52.04500 29.49600
H  33.26300 50.27600 29.53600
H  32.92400 51.24100 28.05400
H  37.24000 50.88300 29.96900
H  37.91900 49.44700 29.13100
H  37.89000 49.70500 31.68400
H  37.88200 48.26400 30.86900
H  33.77400 54.47400 25.42000
H  32.85300 54.63700 23.96700
H  34.57400 55.22700 24.12700
H  33.37400 55.16900 20.21900
H  34.73400 55.52400 21.37000
H  33.13200 55.08500 22.00600
H  37.09000 49.51700 19.20000
H  37.26000 46.70400 19.89800
H  34.95800 49.27100 18.58900
H  34.81300 47.77100 19.63600
H  35.78600 47.72400 18.15100
H  39.37800 48.31400 21.19900
H  39.18900 48.77600 19.52500
H  39.30700 45.78100 20.18100
H  40.66900 46.62300 20.46700
H  40.05000 46.69300 18.78600
H  39.03900 43.81100 23.66600
H  37.56200 43.08400 24.15200
H  38.81500 43.43900 25.36800
H  37.81800 46.65200 29.13900
H  35.52200 43.73100 31.58200
H  34.56700 43.96500 30.18700
H  34.54800 45.12100 31.54600
Mg 27.14800 49.91900 26.12900
C  25.21900 50.91400 28.84800
C  29.69000 48.91400 28.42400
C  29.14600 49.21700 23.46900
C  24.69300 50.94200 23.95700
N  27.41400 49.92700 28.36500
C  26.41400 50.35700 29.25600
C  26.89000 50.03500 30.71800
C  28.35600 49.41700 30.56000
C  28.51900 49.48100 28.99700
C  29.50800 50.20800 31.27700
C  25.81900 49.19200 31.49500
C  25.69700 49.74500 32.94000
H  25.74800 48.87200 34.14100
N  29.14500 49.18600 25.99600
C  30.03800 48.85400 27.03900
C  31.26500 48.36700 26.41600
C  31.16700 48.47000 24.98000
C  29.74400 48.96200 24.76300
C  32.42100 47.90200 27.36300
C  32.25400 48.28300 23.89200
O  32.07300 48.64100 22.71600
C  33.52300 47.64900 24.25500
N  26.94100 50.05600 24.06500
C  27.84700 49.59200 23.17100
C  27.22900 49.65100 21.74900
C  25.87000 50.22200 21.89000
C  25.80100 50.29300 23.41200
C  28.08400 50.31300 20.66500
C  24.76400 49.27800 21.33300
C  23.78200 49.98200 20.38100
N  25.30000 50.85600 26.29000
C  24.39900 51.10300 25.34800
C  23.25300 51.72700 25.99400
C  23.57200 51.77800 27.33000
C  24.78000 51.06700 27.47900
C  21.98900 52.17100 25.35900
C  23.06600 52.16800 28.66000
O  22.07200 52.81100 28.91800
C  24.08200 51.44800 29.68900
C  24.49000 52.57100 30.68800
O  25.19800 53.53800 30.46600
O  23.67500 52.45200 31.82900
C  24.11400 53.36200 32.86800
H  30.45900 48.46700 29.05700
H  29.73700 48.90500 22.60500
H  23.93800 51.31700 23.26200
H  26.91700 51.03400 31.15400
H  28.30200 48.41200 30.97900
H  29.08500 50.62600 32.19000
H  29.97100 50.95300 30.62900
H  30.28300 49.48500 31.53300
H  26.11300 48.14400 31.55000
H  24.84600 49.21000 31.00500
H  24.72000 50.19500 33.11900
H  26.43100 50.52300 33.14500
H  32.09900 47.04200 27.94900
H  32.63400 48.72700 28.04300
H  33.31400 47.65900 26.78700
H  34.13200 48.24900 24.93100
H  34.05400 47.57500 23.30600
H  33.44600 46.64300 24.67000
H  27.15500 48.59900 21.47300
H  25.93900 51.24400 21.51600
H  29.03800 50.56500 21.12800
H  27.68200 51.28300 20.37300
H  28.09800 49.74600 19.73400
H  24.25200 48.91100 22.22300
H  25.20200 48.48000 20.73400
H  24.27000 49.96700 19.40700
H  23.66700 51.01900 20.69600
H  22.83600 49.44800 20.29500
H  22.05300 53.20000 25.00800
H  21.21400 52.19300 26.12500
H  21.79100 51.47100 24.54700
H  23.52500 50.66800 30.20700
H  23.47600 53.29000 33.74800
H  23.91300 54.35100 32.45600
H  25.11400 53.20500 33.27300

