158

Mg 15.80500 -2.29300 27.88800
C  15.06900 -0.20100 30.56900
C  17.85500 -4.09800 30.11400
C  17.27100 -3.92000 25.33600
C  14.77400 0.17800 25.64600
N  16.53900 -1.99200 30.08200
C  15.97300 -1.21500 30.97700
C  16.36700 -1.56400 32.37300
C  17.54200 -2.55600 32.18600
C  17.24400 -3.01100 30.76700
C  19.05200 -2.02300 32.27100
C  15.13500 -2.11200 33.21800
C  14.81300 -1.27000 34.50100
H  15.89600 -0.87700 35.48500
N  17.09200 -3.99200 27.74200
C  17.90100 -4.53400 28.78100
C  18.62300 -5.67200 28.24500
C  18.41900 -5.67000 26.83800
C  17.55300 -4.50000 26.57400
C  19.47200 -6.53300 29.07200
C  18.95200 -6.57700 25.77400
O  18.75300 -6.37100 24.60600
C  19.80600 -7.75200 26.16300
N  15.82600 -1.97700 25.82800
C  16.56200 -2.78100 24.98400
C  16.48300 -2.31000 23.53200
C  15.58900 -1.06900 23.58500
C  15.35000 -0.96200 25.09200
C  17.80700 -2.13000 22.82300
C  14.41500 -0.94000 22.62100
C  13.27100 -1.84000 23.08800
N  14.97200 -0.40500 27.95100
C  14.48800 0.42200 27.00700
C  13.66900 1.44200 27.68900
C  13.89200 1.27800 29.10000
C  14.74600 0.17300 29.19300
C  12.68800 2.36300 27.00300
C  13.56300 1.78200 30.38900
O  12.75200 2.63500 30.64700
C  14.35400 0.90700 31.37900
C  15.22100 1.92100 32.14900
O  16.15200 2.51600 31.67400
O  14.62000 2.33200 33.33500
C  15.30200 3.43800 34.06600
H  18.46300 -4.72000 30.77500
H  17.73500 -4.41100 24.47800
H  14.30100 0.76900 24.85800
H  16.65700 -0.61600 32.82600
H  17.41200 -3.28800 32.98300
H  19.66900 -2.58300 32.97500
H  19.04300 -0.99200 32.62500
H  19.56300 -2.00200 31.30800
H  15.25400 -3.09900 33.66600
H  14.17100 -1.99000 32.72400
H  13.97500 -1.78300 34.97200
H  14.26200 -0.39400 34.15900
H  19.49100 -7.56500 28.72000
H  19.02400 -6.54500 30.06600
H  20.45300 -6.11400 29.29600
H  20.83000 -7.52200 26.45900
H  20.01400 -8.27500 25.23000
H  19.34900 -8.44200 26.87200
H  15.92500 -3.14100 23.10000
H  16.12500 -0.13200 23.43200
H  17.99700 -1.09900 22.52500
H  17.64600 -2.56900 21.83800
H  18.67200 -2.58300 23.30600
H  14.64100 -1.22600 21.59400
H  14.13100 0.10700 22.51600
H  12.34700 -1.32200 23.34600
H  13.49300 -2.48600 23.93700
H  13.11300 -2.48200 22.22100
H  12.32500 3.09700 27.72300
H  11.81000 1.80500 26.67700
H  13.18800 2.92700 26.21500
H  13.57400 0.48000 32.00900
H  14.52700 3.99400 34.59300
H  15.88800 4.15800 33.49400
H  15.96400 3.10800 34.86700
Mg -1.14100 34.00800 27.25400
C  -3.04800 32.39500 29.63300
C  0.29500 35.94900 29.74000
C  0.17100 36.02600 24.83500
C  -2.97800 32.32600 24.74300
N  -1.49300 34.25100 29.40700
C  -2.22100 33.36100 30.11800
C  -1.95800 33.64300 31.62300
C  -0.98900 34.79300 31.64900
C  -0.70600 35.04300 30.18800
C  -1.38400 36.07400 32.44200
C  -1.37100 32.28300 32.32800
C  -2.03700 31.86900 33.58900
H  -1.26600 32.15000 34.89500
N  0.09700 35.76000 27.28600
C  0.62600 36.36700 28.42200
C  1.37200 37.50700 28.00700
C  1.34200 37.57500 26.58600
C  0.47300 36.48800 26.14500
C  2.04000 38.36400 29.05600
C  2.05500 38.52500 25.65600
O  2.00600 38.31200 24.46100
C  2.62100 39.81500 26.16000
N  -1.42900 34.16600 25.07200
C  -0.62400 34.98200 24.34400
C  -0.88100 34.83100 22.83300
C  -1.72500 33.58800 22.88200
C  -2.18400 33.35300 24.31600
C  -1.59400 36.08900 22.22700
C  -1.10800 32.34400 22.15300
C  0.02800 31.58800 22.91100
N  -2.75500 32.74300 27.08900
C  -3.24800 32.02300 26.03600
C  -4.20000 31.01600 26.53100
C  -4.16100 31.13800 27.94900
C  -3.18900 32.13900 28.23700
C  -5.06200 30.01900 25.78000
C  -4.68200 30.62800 29.16500
O  -5.55900 29.84700 29.34900
C  -3.89900 31.40800 30.31400
C  -4.98700 32.09500 31.15300
O  -5.62200 33.12300 30.85600
O  -5.24200 31.38300 32.32400
C  -6.32500 31.94200 33.18900
H  0.79900 36.45000 30.56900
H  0.71700 36.58900 24.07500
H  -3.34800 31.54600 24.07500
H  -2.91900 33.85900 32.09100
H  -0.06000 34.43500 32.09300
H  -1.24000 37.00400 31.89300
H  -0.72700 35.96600 33.30500
H  -2.43700 36.00800 32.71700
H  -0.30200 32.42000 32.49300
H  -1.42100 31.45100 31.62500
H  -2.26000 30.80200 33.57000
H  -2.99900 32.38100 33.58400
H  3.07200 38.43000 28.71200
H  1.94100 37.96800 30.06600
H  1.57400 39.34900 29.10400
H  2.95900 40.38000 25.29100
H  3.54500 39.61500 26.70200
H  1.95600 40.27400 26.89100
H  0.10300 34.66400 22.39600
H  -2.62600 33.77300 22.29700
H  -1.43600 36.96300 22.85900
H  -2.67300 36.10000 22.07600
H  -1.05800 36.24500 21.29100
H  -0.61200 32.64300 21.22900
H  -1.88400 31.63700 21.85700
H  -0.38200 30.65200 23.29200
H  0.54200 32.21300 23.64200
H  0.77600 31.23900 22.19900
H  -5.09200 30.15700 24.69900
H  -6.07200 30.21700 26.13800
H  -4.65100 29.04500 26.04700
H  -3.36300 30.69500 30.94000
H  -7.09600 32.32900 32.52300
H  -5.90900 32.69500 33.85900
H  -6.84700 31.17700 33.76300

