158

Mg 24.80200 -7.95900 47.02700
C  27.16200 -5.60500 45.98300
C  22.59900 -6.60700 44.75200
C  22.66700 -10.46500 47.69200
C  27.31600 -9.52600 48.97000
N  24.97000 -6.40600 45.42900
C  25.99100 -5.55900 45.20700
C  25.61700 -4.50200 44.14000
C  24.10200 -4.64000 44.02200
C  23.81300 -5.98100 44.79300
C  23.20100 -3.45400 44.48300
C  26.44400 -4.72400 42.81000
C  27.16200 -3.51400 42.18900
H  26.44600 -2.59500 41.27800
N  22.82000 -8.38000 46.34500
C  22.10600 -7.69700 45.43100
C  20.84800 -8.36800 45.21300
C  20.85900 -9.57600 45.94500
C  22.14100 -9.51000 46.69000
C  19.81800 -7.91500 44.15100
C  19.80200 -10.55500 45.93600
O  18.68200 -10.23200 45.51000
C  19.88300 -11.95900 46.48100
N  24.95100 -9.69900 48.21800
C  23.92700 -10.53900 48.36500
C  24.37100 -11.84100 49.18400
C  25.89700 -11.52800 49.43800
C  26.09300 -10.15800 48.84600
C  23.52300 -11.94100 50.50900
C  26.84900 -12.60500 48.96700
C  26.67000 -12.92800 47.50100
N  26.73800 -7.53900 47.64900
C  27.64700 -8.29400 48.38100
C  28.88700 -7.56400 48.53200
C  28.66200 -6.49200 47.64400
C  27.40300 -6.51900 47.08500
C  30.14200 -7.89400 49.30600
C  29.34900 -5.37000 47.00700
O  30.52100 -4.94200 47.23500
C  28.38500 -4.71000 46.00700
C  28.16100 -3.31900 46.44500
O  27.76800 -2.98500 47.57700
O  28.30600 -2.45700 45.41100
C  28.06500 -1.05700 45.75700
H  21.90500 -6.16200 44.03600
H  21.97300 -11.29000 47.86400
H  28.11500 -9.97800 49.56100
H  25.83700 -3.47100 44.41800
H  23.71200 -4.70400 43.00600
H  22.61200 -3.03500 43.66600
H  23.71400 -2.57300 44.86900
H  22.59900 -3.78600 45.32900
H  25.69500 -5.01900 42.07500
H  27.15600 -5.53500 42.96700
H  27.97600 -3.91100 41.58400
H  27.60200 -2.92900 42.99700
H  20.12300 -7.24300 43.34900
H  19.01800 -7.41300 44.69600
H  19.48100 -8.74800 43.53400
H  19.68900 -11.82900 47.54600
H  20.85100 -12.30700 46.12100
H  19.13200 -12.65300 46.10500
H  24.37000 -12.79300 48.65400
H  26.12400 -11.52900 50.50400
H  23.96400 -11.49700 51.40100
H  23.47100 -13.02100 50.64700
H  22.54100 -11.47300 50.43800
H  26.55300 -13.51600 49.48700
H  27.88900 -12.38200 49.20500
H  27.65400 -13.16700 47.09700
H  26.14800 -12.08600 47.04700
H  26.07900 -13.81400 47.27100
H  30.41500 -8.94900 49.30100
H  29.95300 -7.69000 50.36000
H  30.93300 -7.20800 49.00400
H  28.79500 -4.64700 44.99900
H  27.01700 -0.81400 45.92800
H  28.23100 -0.38100 44.91800
H  28.49400 -0.71500 46.69900
Mg 47.56600 15.42100 27.68500
C  45.35000 15.27100 30.52300
C  49.73200 17.07300 29.58500
C  49.46700 15.50500 24.99500
C  44.94200 13.79700 25.87900
N  47.47400 16.16100 29.79200
C  46.53900 15.96700 30.79700
C  47.10900 16.36600 32.17000
C  48.36800 17.18100 31.80700
C  48.54300 16.73600 30.30300
C  48.24600 18.74300 31.78500
C  47.35900 15.20300 33.11300
C  47.36700 15.49300 34.64800
H  47.11100 16.97800 35.04700
N  49.47600 16.07100 27.38500
C  50.15300 16.79300 28.29000
C  51.40700 17.12100 27.67300
C  51.38300 16.62700 26.32600
C  50.05800 16.04500 26.15300
C  52.57600 17.84200 28.35400
C  52.43700 16.70900 25.24900
O  52.34800 16.13600 24.13200
C  53.68500 17.43700 25.42600
N  47.11700 14.91300 25.67800
C  48.16300 14.94600 24.76200
C  47.65000 14.44300 23.36200
C  46.30000 13.63300 23.79700
C  46.10400 14.10900 25.22700
C  47.52000 15.55300 22.38800
C  46.35600 12.08900 23.51900
C  46.54200 11.16100 24.74100
N  45.48900 14.71300 28.02600
C  44.64500 14.01800 27.27600
C  43.50600 13.56700 28.02600
C  43.72300 14.07900 29.26300
C  44.94900 14.70900 29.24500
C  42.33900 12.87700 27.44300
C  43.20300 14.17100 30.67200
O  42.13400 13.84900 31.09400
C  44.21000 14.90900 31.53600
C  43.51900 16.09700 32.09000
O  42.98400 17.04900 31.45800
O  43.54000 15.95000 33.47600
C  42.58800 16.70800 34.19300
H  50.52000 17.62300 30.10400
H  50.03900 15.57600 24.06800
H  44.25900 13.09800 25.39100
H  46.34000 17.00400 32.60500
H  49.10000 16.83200 32.53600
H  48.01200 19.14700 30.80000
H  49.21800 19.11200 32.11100
H  47.36500 19.02400 32.36200
H  48.27800 14.70100 32.80900
H  46.59700 14.47600 32.83200
H  48.33100 15.20600 35.07000
H  46.56500 14.94000 35.13700
H  52.37300 17.82000 29.42500
H  52.68600 18.79100 27.83000
H  53.56600 17.40000 28.24000
H  53.38500 18.41500 25.80100
H  54.20600 17.63800 24.48900
H  54.35900 17.01800 26.17300
H  48.42100 13.83700 22.88600
H  45.45200 14.00000 23.21800
H  46.50300 15.93900 22.45000
H  47.80800 15.11900 21.43000
H  48.21400 16.31600 22.74200
H  47.14500 11.78700 22.83100
H  45.43500 11.81300 23.00700
H  46.64000 10.10700 24.47900
H  45.73000 11.35800 25.44000
H  47.55200 11.33700 25.11100
H  42.40400 11.80700 27.64100
H  42.29000 13.03600 26.36600
H  41.39600 13.29000 27.80100
H  44.53300 14.16300 32.26200
H  42.72100 16.44600 35.24200
H  41.59100 16.41600 33.86400
H  42.74100 17.78100 34.07800

