158

Mg 10.01200 48.65000 26.26200
C  7.95000 48.69100 29.10100
C  12.56700 49.63000 28.23000
C  11.95000 48.82300 23.45300
C  7.13700 48.30200 24.23100
N  10.20700 49.19300 28.37600
C  9.26300 49.11200 29.35100
C  9.84800 49.67600 30.66400
C  11.20100 50.27000 30.22200
C  11.36600 49.58600 28.89200
C  11.27200 51.82100 30.15300
C  9.97000 48.70300 31.88500
C  9.01000 49.01700 33.06800
H  9.63200 49.57900 34.29600
N  12.06400 49.08300 25.85900
C  12.95700 49.31400 26.82500
C  14.28800 49.46900 26.23200
C  14.10400 49.21400 24.83500
C  12.62900 49.09200 24.63300
C  15.52400 49.92400 27.02800
C  15.15800 49.10700 23.73600
O  14.88300 49.05600 22.57800
C  16.60800 49.23800 24.05600
N  9.56400 48.69700 24.09800
C  10.63300 48.61900 23.18300
C  10.03400 48.56900 21.73700
C  8.47000 48.17900 22.02800
C  8.34900 48.46800 23.51900
C  10.25900 49.81500 20.89100
C  8.10200 46.73500 21.67900
C  8.66300 45.61000 22.56300
N  7.94300 48.48200 26.56200
C  6.92500 48.31900 25.65400
C  5.65000 48.28100 26.37100
C  6.00500 48.32900 27.73600
C  7.41600 48.54000 27.75000
C  4.31000 48.01500 25.78700
C  5.52400 48.36900 29.12800
O  4.43800 48.29500 29.62100
C  6.76300 48.60900 30.06900
C  6.87000 47.32100 30.77700
O  7.60900 46.39400 30.45000
O  6.00600 47.26500 31.86100
C  6.28100 46.11500 32.78400
H  13.42800 50.00100 28.79000
H  12.66300 48.70000 22.63500
H  6.23900 48.34700 23.61200
H  9.21400 50.49200 31.01000
H  12.11400 49.93700 30.71400
H  10.28800 52.27400 30.03200
H  11.97900 52.11500 29.37700
H  11.67000 52.19700 31.09500
H  10.99100 48.79900 32.25400
H  9.82700 47.65300 31.62900
H  8.48100 48.09700 33.31700
H  8.18100 49.70900 32.92300
H  15.25400 50.10100 28.06900
H  15.93300 50.86800 26.66700
H  16.29500 49.16500 26.90100
H  16.91700 48.61200 24.89400
H  16.88000 50.25000 24.35400
H  17.16500 48.93500 23.16900
H  10.60000 47.73400 21.32600
H  7.84000 48.88600 21.49000
H  10.62200 50.52500 21.63400
H  9.35400 50.17000 20.39700
H  10.95400 49.63900 20.07000
H  8.46100 46.61800 20.65600
H  7.02100 46.60100 21.71100
H  7.95800 44.79000 22.69800
H  8.90100 46.00900 23.54900
H  9.51100 45.12700 22.07900
H  3.48600 47.80700 26.47000
H  4.51200 47.11400 25.20800
H  4.14200 48.77400 25.02300
H  6.69700 49.42700 30.78700
H  5.32900 45.58900 32.85600
H  6.56200 46.53500 33.75000
H  7.09400 45.45200 32.49100
Mg -4.41200 26.10500 25.59600
C  -3.10200 27.30400 28.58700
C  -6.41100 24.01600 27.55800
C  -5.16800 24.33500 22.77400
C  -2.03700 27.82400 23.91600
N  -4.48000 25.50100 27.78800
C  -3.96400 26.27500 28.75000
C  -4.50300 25.87000 30.11100
C  -5.18700 24.53700 29.83200
C  -5.45600 24.68100 28.31300
C  -4.30900 23.27400 30.18800
C  -5.43100 26.92400 30.79700
C  -5.89800 26.63800 32.25700
H  -5.34400 25.52000 33.03600
N  -5.68600 24.47700 25.16200
C  -6.52100 23.85300 26.12600
C  -7.27900 22.86300 25.44300
C  -6.89500 22.85400 24.07700
C  -5.87000 23.89500 23.95600
C  -8.19500 21.92500 26.18600
C  -7.39900 21.90000 22.95300
O  -6.95600 22.01800 21.73900
C  -8.60100 20.99400 23.27100
N  -3.76400 26.13700 23.59200
C  -4.13700 25.30200 22.55800
C  -3.38700 25.58500 21.28500
C  -2.53400 26.83300 21.70300
C  -2.76100 26.92300 23.15500
C  -2.62500 24.33200 20.78700
C  -2.76200 28.06600 20.90600
C  -1.54100 28.85700 20.35500
N  -2.93200 27.38000 26.13700
C  -2.06600 28.11600 25.30300
C  -1.44300 29.15600 26.07300
C  -1.81900 28.86300 27.41600
C  -2.65200 27.72900 27.39000
C  -0.47600 30.23300 25.55500
C  -1.58000 29.21100 28.72500
O  -0.87500 30.04800 29.27000
C  -2.44800 28.27600 29.59000
C  -1.61800 27.56400 30.61900
O  -0.88000 26.59400 30.44000
O  -1.87700 28.05700 31.86800
C  -1.26700 27.40200 33.02700
H  -7.15100 23.52300 28.19200
H  -5.41400 23.79600 21.85600
H  -1.49900 28.60400 23.37400
H  -3.63100 25.68600 30.73800
H  -6.03900 24.39800 30.49800
H  -4.82800 22.69700 30.95400
H  -3.31700 23.32100 30.63800
H  -4.06500 22.50900 29.45100
H  -6.40000 26.92900 30.29700
H  -5.17400 27.96000 30.57800
H  -6.98700 26.66900 32.22900
H  -5.57000 27.49500 32.84600
H  -8.27000 22.21700 27.23300
H  -7.88900 20.88700 26.05300
H  -9.20300 22.08100 25.80400
H  -8.39600 20.15500 23.93600
H  -8.92700 20.52500 22.34200
H  -9.41700 21.59400 23.67200
H  -4.16200 25.87500 20.57500
H  -1.49100 26.52400 21.77000
H  -2.94500 24.06200 19.78100
H  -2.70600 23.45400 21.42800
H  -1.55700 24.53000 20.70000
H  -3.35300 28.77600 21.48500
H  -3.28900 27.67600 20.03500
H  -1.43800 29.81200 20.87000
H  -1.66200 28.92900 19.27400
H  -0.57700 28.36100 20.46600
H  -0.26400 30.03500 24.50400
H  0.43200 30.09300 26.14100
H  -0.92500 31.20400 25.76200
H  -3.22200 28.82900 30.12300
H  -1.40600 26.32200 32.98500
H  -1.76200 27.82900 33.89900
H  -0.21200 27.64200 33.16300

