158

Mg 47.55800 44.92700 42.59700
C  44.04500 44.29900 42.45300
C  47.99900 41.43000 42.17500
C  50.65100 45.66000 41.79300
C  46.67700 48.42100 42.49900
N  46.16000 43.08000 42.01100
C  44.78100 43.09100 42.13900
C  44.25300 41.69100 42.01300
C  45.52700 40.73200 42.22800
C  46.65400 41.84400 42.22700
C  45.40100 39.80900 43.42500
C  43.46900 41.46100 40.77800
C  43.94300 42.29300 39.53500
H  43.74100 41.59000 38.23600
N  49.09700 43.78400 42.14200
C  49.11800 42.37100 42.11300
C  50.49300 41.92400 41.89100
C  51.30300 43.11700 41.62700
C  50.33800 44.29100 41.80700
C  50.92900 40.47000 41.92600
C  52.78400 43.13200 41.43700
O  53.44200 42.09900 41.23200
C  53.64400 44.45100 41.32900
N  48.49300 46.80300 42.15600
C  49.88700 46.81500 42.00400
C  50.49100 48.25800 42.10100
C  49.17900 49.10600 42.17000
C  48.00300 48.04900 42.22800
C  51.42800 48.41500 43.37600
C  48.91700 50.18700 41.00700
C  48.45300 51.54900 41.29200
N  45.78700 46.12500 42.64700
C  45.57300 47.56000 42.66200
C  44.19800 47.88400 42.90100
C  43.54700 46.55600 42.86200
C  44.53500 45.59800 42.61700
C  43.48100 49.16600 43.10400
C  42.27000 45.88700 42.93100
O  41.10300 46.24600 43.02600
C  42.56800 44.41700 42.64000
C  42.06500 43.63200 43.78200
O  41.28300 42.67100 43.64500
O  42.36200 44.21500 44.97200
C  41.68500 43.62400 46.09600
H  48.20000 40.35700 42.16600
H  51.71200 45.90000 41.69700
H  46.57000 49.50500 42.57000
H  43.63700 41.51500 42.89500
H  45.65900 40.17200 41.30200
H  45.73800 40.27900 44.34800
H  45.91200 38.85600 43.28300
H  44.34200 39.58600 43.55200
H  42.38800 41.54100 40.89000
H  43.71500 40.42400 40.54900
H  44.99300 42.56400 39.65000
H  43.32600 43.18800 39.60400
H  50.73300 39.98500 40.96900
H  50.43800 39.85500 42.68000
H  51.96100 40.40300 42.27000
H  53.35500 45.09900 40.50200
H  54.71200 44.26800 41.20600
H  53.55900 44.90600 42.31600
H  51.04100 48.41500 41.17300
H  49.09700 49.67000 43.09900
H  52.27300 49.00700 43.02500
H  51.77500 47.40800 43.61000
H  50.86300 48.92400 44.15800
H  48.31100 49.70900 40.23800
H  49.85400 50.42700 40.50500
H  48.44700 51.74200 42.36500
H  47.46100 51.52900 40.84100
H  49.14100 52.25500 40.82600
H  43.80800 49.63500 44.03200
H  42.42800 49.05000 43.36000
H  43.61200 49.93100 42.33800
H  42.10200 44.20800 41.67700
H  41.85600 44.30300 46.93200
H  42.09300 42.66000 46.40200
H  40.60800 43.66500 45.93300
Mg -10.90800 17.32700 42.44300
C  -7.35900 16.65700 42.17000
C  -10.29000 20.51000 41.64500
C  -14.17700 17.61200 42.22500
C  -11.22000 13.79900 42.73700
N  -9.04200 18.33900 41.83300
C  -7.66900 17.98200 41.89900
C  -6.76800 19.15800 41.54000
C  -7.75100 20.35600 41.70100
C  -9.13900 19.73400 41.64000
C  -7.56200 21.13100 43.09700
C  -6.05100 19.06900 40.21600
C  -6.77800 19.30200 38.93200
H  -6.12700 18.85600 37.64300
N  -12.13700 18.94000 42.10300
C  -11.66700 20.18100 41.68000
C  -12.84300 20.96800 41.32800
C  -14.01600 20.18500 41.69800
C  -13.45500 18.82700 42.05100
C  -12.77100 22.34700 40.81200
C  -15.47000 20.66800 41.59300
O  -15.77600 21.80600 41.23300
C  -16.55400 19.71700 41.79300
N  -12.42400 15.93700 42.20500
C  -13.69100 16.35000 42.47400
C  -14.67000 15.13600 42.56100
C  -13.67200 13.99000 42.45700
C  -12.31500 14.62000 42.46200
C  -15.63100 14.98600 43.80200
C  -13.72100 12.95400 41.33800
C  -14.33700 11.61100 41.77700
N  -9.59700 15.50000 42.46100
C  -9.89400 14.17800 42.62300
C  -8.68000 13.45000 42.69500
C  -7.65900 14.39600 42.61700
C  -8.29800 15.59400 42.41800
C  -8.61800 11.92100 42.79700
C  -6.15400 14.63900 42.65000
O  -5.26100 13.81300 42.72900
C  -5.96700 16.09400 42.19300
C  -5.06400 16.78700 43.25700
O  -3.93000 17.16900 43.14200
O  -5.72600 16.79400 44.44100
C  -5.00700 17.45100 45.52600
H  -10.11700 21.58200 41.52700
H  -15.26800 17.64100 42.23200
H  -11.42800 12.74100 42.90700
H  -6.04800 19.31100 42.34500
H  -7.41400 21.08600 40.96500
H  -6.99500 20.67500 43.90700
H  -8.55700 21.17400 43.54000
H  -7.21600 22.15500 42.95600
H  -5.62000 18.07600 40.08400
H  -5.18000 19.72400 40.25800
H  -6.98800 20.36600 38.82700
H  -7.80000 18.93300 39.01600
H  -13.10500 22.18600 39.78700
H  -11.79000 22.82200 40.78700
H  -13.36000 23.08600 41.35400
H  -16.56900 19.00900 40.96400
H  -17.46900 20.30700 41.73800
H  -16.44400 19.17500 42.73200
H  -15.26500 15.05000 41.65200
H  -13.72100 13.42500 43.38800
H  -15.59800 15.92800 44.34800
H  -15.37200 14.12600 44.41900
H  -16.70500 14.86100 43.66100
H  -12.73700 12.65000 40.97900
H  -14.32900 13.37000 40.53500
H  -15.32300 11.58900 41.31300
H  -14.40300 11.62000 42.86500
H  -13.79000 10.74400 41.40600
H  -7.81700 11.58900 43.45700
H  -8.33800 11.62600 41.78600
H  -9.56100 11.45600 43.08400
H  -5.53500 16.14600 41.19400
H  -5.75000 17.28900 46.30700
H  -4.80900 18.48600 45.24600
H  -4.06600 16.91600 45.65000

