158

Mg 45.97000 2.40400 47.72800
C  43.58000 4.92400 47.20300
C  43.38200 0.05200 47.81200
C  48.23800 0.04500 47.69000
C  48.38300 4.82100 47.18100
N  43.84100 2.52100 47.62400
C  43.04200 3.63900 47.34100
C  41.50600 3.31200 47.23400
C  41.36600 1.81900 47.68000
C  42.93600 1.42100 47.66900
C  40.70800 1.59100 49.05900
C  40.91700 3.49500 45.78700
C  39.48000 3.92100 45.79700
H  38.99000 5.01500 44.83900
N  45.80100 0.28200 47.70500
C  44.67000 -0.48400 47.79800
C  45.01700 -1.90900 47.86600
C  46.44200 -1.95900 47.75800
C  46.93400 -0.53500 47.73000
C  43.92900 -2.93100 47.99200
C  47.24500 -3.22300 47.56700
O  46.67900 -4.35300 47.61500
C  48.74900 -3.20900 47.27600
N  47.95000 2.40700 47.21100
C  48.67400 1.34600 47.52300
C  50.22900 1.58200 47.50900
C  50.24000 3.12600 47.14200
C  48.77900 3.53700 47.16400
C  50.87100 1.32000 48.96800
C  50.90300 3.44300 45.71800
C  52.09300 4.44200 45.72000
N  45.99300 4.53900 47.28300
C  47.05800 5.34500 47.18800
C  46.61600 6.73600 46.94200
C  45.21200 6.60500 46.94900
C  44.89700 5.23000 47.16800
C  47.44900 7.95200 46.74500
C  43.94700 7.29500 46.81400
O  43.66100 8.45800 46.59900
C  42.88500 6.17900 46.95200
C  41.95400 6.63600 48.06300
O  42.23900 6.61500 49.27200
O  40.81300 7.22800 47.53300
C  39.69700 7.38800 48.42300
H  42.61000 -0.70600 47.96100
H  49.00300 -0.71900 47.83700
H  49.21100 5.52500 47.27900
H  40.96900 3.99300 47.89400
H  40.66500 1.30300 47.02500
H  40.41200 2.57300 49.42900
H  41.46300 1.26900 49.77600
H  39.89700 0.86500 49.10600
H  40.97200 2.51400 45.31500
H  41.57300 4.13900 45.20200
H  39.02400 4.26100 46.72700
H  38.87900 3.06300 45.49600
H  43.43200 -3.07500 47.03300
H  43.23700 -2.59800 48.76600
H  44.40000 -3.87500 48.26900
H  49.40900 -2.77300 48.02500
H  49.03200 -2.87600 46.27800
H  49.10200 -4.22900 47.12500
H  50.72600 1.04800 46.69900
H  50.89500 3.73900 47.76100
H  51.15600 2.26100 49.44000
H  51.76300 0.70000 48.88100
H  50.13400 0.86700 49.63100
H  50.09500 3.84900 45.11000
H  51.17000 2.58300 45.10500
H  52.47900 4.73000 46.69700
H  51.93500 5.34100 45.12400
H  52.88100 3.86100 45.24100
H  47.69200 8.57400 47.60700
H  46.96100 8.55600 45.98000
H  48.36200 7.59300 46.27000
H  42.38100 6.11300 45.98700
H  38.78600 7.25000 47.83900
H  39.68100 8.41600 48.78600
H  39.59500 6.74600 49.29800
Mg 35.85500 1.38700 29.55400
C  33.78500 2.22100 32.17100
C  38.54800 1.54700 31.63700
C  37.70200 0.93300 26.87700
C  33.01400 2.11300 27.32500
N  36.04100 1.69700 31.64100
C  35.09600 1.90800 32.59900
C  35.68600 2.14100 33.98600
C  37.21300 2.09000 33.73100
C  37.28800 1.82100 32.24900
C  37.99700 3.33900 34.27600
C  35.19100 1.01900 34.97200
C  34.83100 1.49100 36.43800
H  35.60800 2.66000 36.94700
N  37.84900 1.11900 29.25300
C  38.80900 1.25800 30.26400
C  40.09300 0.96900 29.71000
C  39.84800 0.67700 28.33200
C  38.38800 0.85200 28.12100
C  41.44800 1.09500 30.47300
C  40.86800 0.45900 27.20400
O  40.55500 0.29700 26.03100
C  42.31400 0.43500 27.54700
N  35.47100 1.58000 27.43500
C  36.43000 1.26700 26.55100
C  35.92500 1.24300 25.09900
C  34.43500 1.54100 25.29400
C  34.24700 1.77400 26.73100
C  36.54200 2.18600 24.05100
C  33.48500 0.35800 24.82500
C  33.23500 -0.79100 25.87100
N  33.86300 2.11800 29.61200
C  32.82400 2.30900 28.70400
C  31.62800 2.66800 29.43600
C  31.98500 2.61500 30.77300
C  33.35100 2.29800 30.80600
C  30.45700 3.01400 28.81500
C  31.54500 2.94100 32.10400
O  30.48700 3.45900 32.44700
C  32.66800 2.66000 33.10600
C  32.97700 3.85200 33.81800
O  33.44000 4.88100 33.32500
O  32.62400 3.67000 35.12000
C  32.34800 4.81000 35.93600
H  39.38100 1.58300 32.34200
H  38.25400 0.66400 25.97400
H  32.12800 2.38500 26.74700
H  35.34800 3.15600 34.19500
H  37.60200 1.23400 34.28300
H  38.63100 3.14900 35.14200
H  37.34300 4.15400 34.58400
H  38.60600 3.86900 33.54400
H  36.05000 0.37000 35.14400
H  34.41300 0.49600 34.41600
H  34.94500 0.70000 37.17900
H  33.74900 1.62400 36.42400
H  41.27400 1.27600 31.53400
H  42.05100 1.95000 30.16500
H  42.01000 0.16100 30.45600
H  42.40300 -0.33500 28.31300
H  42.60100 1.33300 28.09300
H  42.81600 0.19900 26.60800
H  36.15600 0.19600 24.90700
H  34.19000 2.46500 24.76900
H  37.21900 2.94800 24.43600
H  35.86700 2.72300 23.38500
H  37.13800 1.61600 23.33900
H  34.10000 -0.20700 24.12400
H  32.53800 0.70600 24.41200
H  33.45000 -0.62700 26.92600
H  33.99400 -1.55000 25.67800
H  32.26500 -1.26900 25.73500
H  30.65600 3.82300 28.11200
H  29.74700 3.43700 29.52600
H  30.17700 2.06500 28.35800
H  32.42900 1.83300 33.77400
H  32.97400 4.68400 36.81900
H  31.29700 4.81500 36.22600
H  32.57600 5.78900 35.51300

