158

Mg 35.59200 1.53000 30.06500
C  33.54100 2.93000 32.64600
C  38.25800 2.03200 32.35300
C  37.73900 0.92300 27.56100
C  32.94900 1.93500 27.89500
N  35.80400 2.12400 32.33700
C  34.80300 2.57600 33.14500
C  35.29300 2.64700 34.60500
C  36.85400 2.74600 34.39200
C  37.02000 2.28000 32.89600
C  37.47400 4.11700 34.70400
C  34.71700 1.53600 35.53500
C  34.75900 1.79200 37.07300
H  35.47700 3.04300 37.47900
N  37.67400 1.28300 30.01400
C  38.56300 1.61400 30.95900
C  39.88000 1.42200 30.37500
C  39.79500 1.07500 28.99900
C  38.33900 1.10100 28.78100
C  41.15600 1.50800 31.11100
C  40.86700 0.94600 27.91100
O  40.52600 0.46800 26.80700
C  42.39000 1.19100 28.04300
N  35.35500 1.35200 28.07500
C  36.38700 0.97600 27.18700
C  35.87700 0.81900 25.71700
C  34.30300 0.95300 25.92200
C  34.14800 1.44900 27.41300
C  36.54700 1.92800 24.89700
C  33.46800 -0.37200 25.71200
C  32.35800 -0.29500 24.71500
N  33.65700 2.22500 30.20300
C  32.64900 2.32400 29.21700
C  31.42400 2.84200 29.72800
C  31.72100 3.17400 31.09800
C  33.06300 2.80900 31.28700
C  30.20700 3.24900 28.97000
C  31.18200 3.64900 32.35600
O  30.13700 4.19900 32.56200
C  32.34100 3.46700 33.41300
C  32.64500 4.75100 34.09600
O  33.13800 5.66000 33.46600
O  32.36600 4.84700 35.41700
C  32.69200 6.14700 36.06300
H  39.12800 2.33700 32.94000
H  38.29300 0.83800 26.62400
H  32.08000 1.96100 27.23400
H  34.86500 3.60000 34.91800
H  37.36500 2.06900 35.07700
H  37.49900 4.61900 33.73700
H  38.52800 3.93200 34.91000
H  36.86000 4.65500 35.42700
H  35.34900 0.66700 35.35000
H  33.72000 1.36900 35.12700
H  35.18100 0.90200 37.53900
H  33.73600 1.83700 37.44900
H  41.61200 0.52600 30.98700
H  41.02500 1.78700 32.15700
H  41.80000 2.20400 30.57200
H  42.86600 0.90100 27.10700
H  42.79700 0.72100 28.93800
H  42.51800 2.26700 27.92400
H  36.13500 -0.16200 25.32000
H  33.89200 1.69900 25.24200
H  36.75000 2.81900 25.49200
H  35.86700 2.28300 24.12300
H  37.47300 1.65000 24.39500
H  33.01100 -0.72500 26.63700
H  34.23200 -1.11000 25.46800
H  32.08400 0.73500 24.48700
H  31.41300 -0.67400 25.10500
H  32.51400 -0.78100 23.75200
H  29.53300 2.40500 28.82600
H  30.48600 3.72400 28.03000
H  29.70800 4.05100 29.51500
H  31.86800 2.82800 34.15800
H  31.78200 6.71100 36.27100
H  33.48200 6.58500 35.45500
H  33.15600 5.80500 36.98800
Mg -4.88400 26.08000 25.80500
C  -3.15700 27.30700 28.65000
C  -6.38700 23.78800 28.12200
C  -5.98700 24.37600 23.28000
C  -2.92600 28.10500 23.87000
N  -4.88200 25.64900 28.06000
C  -4.14000 26.35000 28.96600
C  -4.55100 25.98500 30.41000
C  -5.35000 24.65100 30.25200
C  -5.60400 24.69600 28.72600
C  -4.62700 23.32200 30.78700
C  -5.31700 27.11300 31.14500
C  -5.08300 27.22800 32.70600
H  -4.90100 25.97000 33.56200
N  -6.16900 24.42000 25.69300
C  -6.69400 23.68400 26.75000
C  -7.59100 22.72100 26.20000
C  -7.54700 22.86800 24.78400
C  -6.55300 23.95400 24.50500
C  -8.33500 21.74800 27.14600
C  -8.32100 22.08500 23.73700
O  -8.18100 22.17300 22.51900
C  -9.54600 21.23200 24.13100
N  -4.43800 26.23800 23.80900
C  -5.02400 25.33400 22.96200
C  -4.69300 25.65700 21.49500
C  -3.84400 26.95700 21.67300
C  -3.80800 27.21900 23.21700
C  -3.84300 24.53200 20.77200
C  -4.41200 28.33400 21.05100
C  -3.49600 29.00100 19.99700
N  -3.35700 27.37600 26.12700
C  -2.67300 28.25200 25.25900
C  -1.95100 29.26400 25.92000
C  -2.06100 28.88900 27.26700
C  -2.87400 27.73400 27.36500
C  -1.09600 30.34000 25.31500
C  -1.58100 29.21000 28.59300
O  -0.85000 30.13300 28.96700
C  -2.31600 28.18500 29.60400
C  -1.14700 27.44900 30.20300
O  -0.35300 26.83100 29.55300
O  -1.06000 27.51200 31.56900
C  0.06800 26.81600 32.15000
H  -6.87100 23.18400 28.89200
H  -6.37900 23.87700 22.39100
H  -2.29100 28.66400 23.18000
H  -3.65400 25.75000 30.98300
H  -6.31200 24.73900 30.75800
H  -4.74700 23.31000 31.87000
H  -3.64800 23.48800 30.33600
H  -4.96400 22.39100 30.33100
H  -6.37800 26.90800 30.99600
H  -5.22400 27.99400 30.51100
H  -5.94000 27.75200 33.12800
H  -4.15100 27.79300 32.70800
H  -9.25100 22.21000 27.51400
H  -7.77800 21.50700 28.05100
H  -8.42200 20.78400 26.64400
H  -10.16000 21.01300 23.25800
H  -10.14400 21.73900 24.88800
H  -9.22300 20.24100 24.45200
H  -5.62700 25.94400 21.01100
H  -2.77900 26.82400 21.48200
H  -3.22300 25.00700 20.01200
H  -4.59800 23.82500 20.43000
H  -3.19800 24.10200 21.53900
H  -4.56500 29.02100 21.88200
H  -5.35100 28.26100 20.50200
H  -3.92800 29.14600 19.00600
H  -2.64600 28.34400 19.81500
H  -3.12100 29.91100 20.46400
H  -1.21500 30.19600 24.24100
H  -0.04100 30.10200 25.45300
H  -1.39300 31.32900 25.66400
H  -2.93400 28.80000 30.25800
H  -0.14300 25.83400 32.57200
H  0.34800 27.61200 32.84100
H  0.97700 26.80400 31.54900

