158

Mg 6.66400 53.53800 39.59800
C  6.46100 49.81600 39.50600
C  10.00900 53.12500 38.85300
C  6.67300 56.71300 39.33100
C  3.22000 53.42500 40.09100
N  8.07600 51.70100 39.21000
C  7.78700 50.32900 39.35800
C  9.08400 49.48700 39.14000
C  10.21800 50.52400 39.32500
C  9.42400 51.86700 39.12300
C  10.94400 50.51900 40.69700
C  9.16800 48.80500 37.72700
C  8.92500 49.75600 36.52300
H  7.65300 49.69200 35.73500
N  8.11600 54.81900 39.03900
C  9.44500 54.44800 38.70200
C  10.08800 55.60700 38.38900
C  9.16800 56.75900 38.59500
C  7.94900 56.17700 39.06900
C  11.52400 55.66400 37.82200
C  9.53400 58.22500 38.34000
O  10.64700 58.50800 37.91300
C  8.59400 59.39200 38.61200
N  5.15500 54.86200 39.51300
C  5.44800 56.15400 39.61600
C  4.16600 57.04600 39.86800
C  3.11400 55.91500 40.19900
C  3.88400 54.63900 39.96800
C  4.30600 58.12600 41.00700
C  1.72900 56.01800 39.56700
C  0.57200 55.96500 40.54500
N  5.06200 51.93300 39.57600
C  3.73700 52.14800 39.90100
C  3.04500 50.85800 40.07300
C  4.11300 49.93100 39.95100
C  5.28300 50.62800 39.63700
C  1.57400 50.65200 40.44400
C  4.39200 48.58000 40.02700
O  3.64600 47.60100 40.13200
C  5.86900 48.42300 39.72400
C  6.00900 47.60900 38.57200
O  5.77500 47.93000 37.41800
O  6.46700 46.30800 38.91000
C  6.17100 45.13900 37.97600
H  11.08700 52.98700 38.74500
H  6.70600 57.80200 39.24600
H  2.16900 53.38000 40.38500
H  9.14200 48.65900 39.84600
H  10.98600 50.53300 38.55200
H  11.98900 50.39900 40.41000
H  10.83300 49.68300 41.38800
H  10.91400 51.40200 41.33500
H  8.35400 48.08100 37.71900
H  10.11800 48.27100 37.70300
H  9.78300 49.65900 35.85700
H  9.06100 50.76700 36.90600
H  12.24100 55.79100 38.63300
H  11.55500 56.48500 37.10600
H  11.89700 54.78600 37.29400
H  9.08200 60.35900 38.73200
H  8.25300 59.07000 39.59600
H  7.72000 59.35200 37.96200
H  4.05000 57.54400 38.90500
H  3.03700 55.89700 41.28600
H  4.40500 59.16400 40.68900
H  5.21900 57.76200 41.47800
H  3.51000 57.94900 41.73000
H  1.61400 55.18800 38.87000
H  1.69700 56.98200 39.05800
H  -0.38300 55.87600 40.02600
H  0.52100 56.91100 41.08500
H  0.56600 54.96100 40.97000
H  1.51000 49.59300 40.69000
H  0.82600 51.00800 39.73600
H  1.46300 51.25900 41.34300
H  6.24100 47.88200 40.59400
H  7.11000 44.76800 37.56500
H  5.34700 45.41200 37.31800
H  5.70600 44.34900 38.56600
Mg -5.88200 24.84600 26.86300
C  -4.27900 25.93300 29.75100
C  -8.01200 22.93600 28.78400
C  -7.20800 23.59800 24.02500
C  -3.58500 26.70900 25.01400
N  -6.11900 24.50700 28.98800
C  -5.33400 25.00800 30.00600
C  -5.85800 24.57600 31.32800
C  -6.77000 23.36700 31.02500
C  -7.05400 23.67700 29.51300
C  -6.14400 21.97400 31.24700
C  -6.57800 25.73600 32.17400
C  -6.07400 25.98200 33.62100
H  -5.15600 24.98600 34.37100
N  -7.46400 23.51700 26.44400
C  -8.19300 22.83700 27.38700
C  -9.28500 22.15500 26.74500
C  -9.07300 22.36800 25.35500
C  -7.90400 23.19700 25.18700
C  -10.36600 21.33200 27.51200
C  -9.93300 21.90600 24.11700
O  -9.64800 22.12200 22.96400
C  -11.20200 21.02200 24.30500
N  -5.44500 25.12300 24.74000
C  -6.09100 24.41200 23.80500
C  -5.56500 24.64200 22.47000
C  -4.37700 25.68900 22.72600
C  -4.50000 25.91600 24.25800
C  -4.99300 23.46300 21.75200
C  -4.34300 27.04900 21.84500
C  -3.13200 27.17800 20.89500
N  -4.34200 26.16800 27.20900
C  -3.51200 26.95700 26.38300
C  -2.57400 27.62100 27.13400
C  -2.85500 27.31200 28.46600
C  -3.90900 26.39500 28.46500
C  -1.53900 28.51000 26.51900
C  -2.40600 27.56800 29.86800
O  -1.43800 28.21200 30.25500
C  -3.34400 26.58600 30.83600
C  -2.36800 25.71300 31.53100
O  -1.97300 24.65800 31.08000
O  -1.97000 26.26500 32.75000
C  -0.96500 25.57700 33.45700
H  -8.64000 22.40100 29.49900
H  -7.56400 23.11700 23.11100
H  -2.85100 27.26800 24.42900
H  -4.94900 24.33900 31.88200
H  -7.67100 23.32500 31.63700
H  -5.08200 22.18400 31.37700
H  -6.09000 21.36700 30.34400
H  -6.60300 21.41300 32.06100
H  -7.56300 25.29900 32.33800
H  -6.66500 26.61400 31.53500
H  -6.95600 26.16400 34.23500
H  -5.49900 26.90600 33.55600
H  -11.32200 21.83000 27.66900
H  -9.94100 21.11700 28.49300
H  -10.57200 20.41600 26.95800
H  -11.81600 21.50400 25.06600
H  -10.79700 20.08400 24.68200
H  -11.60100 20.90200 23.29700
H  -6.26600 25.04000 21.73700
H  -3.41400 25.18000 22.71100
H  -3.98400 23.39100 21.34600
H  -5.48800 23.41700 20.78200
H  -5.20300 22.53800 22.28900
H  -4.24000 27.83800 22.59000
H  -5.31000 27.17800 21.35800
H  -2.50700 26.30400 21.07900
H  -2.59100 28.04500 21.27400
H  -3.38300 27.30900 19.84200
H  -0.92100 27.78400 25.98900
H  -1.04200 28.95300 27.38100
H  -1.89100 29.27600 25.82800
H  -3.94000 27.13600 31.56500
H  -0.09300 26.20500 33.63900
H  -0.63800 24.67600 32.93700
H  -1.30800 25.22000 34.42800

