158

Mg 35.19400 48.65800 25.92800
C  35.49100 46.68500 28.86500
C  33.87400 51.07500 27.80700
C  34.87100 50.26900 23.15200
C  35.90400 45.62400 24.05700
N  34.59100 48.72200 27.96600
C  34.95100 47.91100 29.03000
C  34.65800 48.59600 30.38600
C  33.78100 49.83200 29.97500
C  34.15100 49.92100 28.46800
C  32.24800 49.72400 30.31300
C  36.02900 49.00700 30.99900
C  36.35400 48.41800 32.40900
H  36.17400 49.37200 33.61500
N  34.56600 50.51100 25.49500
C  34.02900 51.37600 26.44300
C  33.81800 52.63600 25.72700
C  34.21500 52.40700 24.41300
C  34.57400 51.00800 24.32300
C  33.31600 53.80600 26.48200
C  34.26800 53.41400 23.26400
O  34.50900 53.06300 22.14200
C  34.03200 54.89100 23.62000
N  35.26900 48.01700 23.89700
C  35.11700 48.91300 22.91600
C  35.11800 48.27600 21.48300
C  35.75800 46.88900 21.85700
C  35.58100 46.81800 23.37400
C  33.64000 48.21700 20.87000
C  37.24800 46.67900 21.45600
C  37.50700 45.33400 20.66500
N  35.61200 46.51900 26.35700
C  35.89500 45.47700 25.47800
C  36.11700 44.24700 26.28100
C  36.11000 44.72300 27.62300
C  35.66600 46.09800 27.57700
C  36.39200 42.86600 25.78300
C  36.23300 44.38300 29.02100
O  36.52400 43.34400 29.57100
C  35.90100 45.65000 29.89800
C  34.71700 45.16500 30.71600
O  33.53600 44.97400 30.32100
O  35.17000 44.97100 32.01400
C  34.08300 44.82600 33.07700
H  33.49300 51.83000 28.49700
H  34.81900 50.78000 22.18900
H  36.24100 44.78700 23.44200
H  34.13000 47.88900 31.02600
H  33.99800 50.80600 30.41300
H  31.62700 50.16600 29.53400
H  32.06500 50.15500 31.29700
H  32.02900 48.65800 30.36700
H  36.18400 50.08500 30.93900
H  36.88000 48.58400 30.46400
H  37.37000 48.03000 32.48300
H  35.68200 47.59300 32.64400
H  34.07900 54.57900 26.57400
H  32.81800 53.68600 27.44400
H  32.49700 54.25900 25.92500
H  34.52900 55.27400 24.51100
H  32.97300 54.95500 23.87300
H  34.12500 55.48300 22.70900
H  35.76400 48.80800 20.78500
H  35.10500 46.06600 21.56800
H  33.35800 47.21000 20.56500
H  33.46200 48.87000 20.01600
H  32.89400 48.61700 21.55700
H  37.87300 46.57800 22.34300
H  37.61300 47.57900 20.96200
H  38.47200 45.55800 20.21100
H  36.85800 45.21100 19.79700
H  37.48800 44.49000 21.35400
H  36.12100 42.81200 24.72900
H  35.84900 42.01600 26.19600
H  37.46800 42.69300 25.76500
H  36.75300 45.88700 30.53500
H  33.92500 43.77100 33.30200
H  33.12100 45.21200 32.73800
H  34.48700 45.31200 33.96500
Mg -6.37000 25.35100 26.15500
C  -5.04700 26.88200 29.09100
C  -8.11200 23.26100 28.28600
C  -7.08400 23.43800 23.49100
C  -4.22600 27.21700 24.29500
N  -6.43800 25.09300 28.44000
C  -5.91400 25.87000 29.44200
C  -6.46100 25.49000 30.83100
C  -7.30100 24.20900 30.57100
C  -7.28200 24.17200 29.01000
C  -6.86100 22.90200 31.25600
C  -7.08300 26.60600 31.65500
C  -6.72300 26.73700 33.15000
H  -6.06400 25.60500 33.86500
N  -7.54300 23.71400 25.88100
C  -8.17800 22.99700 26.88500
C  -9.10400 22.11800 26.26400
C  -8.91000 22.20500 24.87000
C  -7.81000 23.14600 24.68700
C  -10.14000 21.28500 27.05500
C  -9.64700 21.55400 23.72500
O  -9.34900 21.83400 22.59600
C  -10.62400 20.46200 24.07200
N  -5.79700 25.29600 24.25200
C  -6.21700 24.50300 23.23200
C  -5.45700 24.61700 21.95400
C  -4.86700 26.10100 22.16500
C  -4.87300 26.13600 23.73400
C  -4.47000 23.49000 21.61500
C  -5.64000 27.23300 21.47200
C  -5.15100 27.85900 20.15800
N  -4.99400 26.84300 26.56100
C  -4.19100 27.55200 25.66600
C  -3.52000 28.65100 26.38500
C  -3.78600 28.37300 27.70800
C  -4.71800 27.30700 27.76200
C  -2.69600 29.75200 25.73400
C  -3.46400 28.76600 29.02800
O  -2.67300 29.60500 29.47300
C  -4.30000 27.83500 29.91500
C  -3.26400 27.13500 30.79100
O  -2.58300 26.20500 30.49600
O  -3.34100 27.77900 31.97000
C  -2.25700 27.52200 32.88400
H  -8.73100 22.59300 28.88900
H  -7.18200 22.68200 22.71000
H  -3.74300 27.85200 23.55000
H  -5.59100 25.24700 31.44100
H  -8.26800 24.58000 30.91200
H  -7.38800 22.05300 30.81900
H  -7.14900 22.90400 32.30700
H  -5.78100 22.79600 31.35300
H  -8.17200 26.58000 31.69700
H  -6.85000 27.48700 31.05700
H  -7.60900 27.04800 33.70400
H  -6.03200 27.57800 33.10700
H  -9.88100 21.40900 28.10600
H  -10.26400 20.24200 26.76200
H  -11.08700 21.80400 26.90300
H  -10.14300 19.71400 24.70300
H  -11.06200 20.15800 23.12200
H  -11.43400 20.82600 24.70500
H  -6.11500 24.76400 21.09800
H  -3.80200 26.21100 21.96100
H  -4.48100 22.81000 22.46700
H  -3.45600 23.74200 21.30300
H  -4.89400 22.97700 20.75300
H  -5.83800 28.05300 22.16300
H  -6.66200 26.88900 21.31400
H  -4.71300 28.83400 20.37200
H  -5.87300 27.85700 19.34100
H  -4.23000 27.36400 19.85100
H  -2.07100 29.30200 24.96300
H  -2.11200 30.35000 26.43400
H  -3.42900 30.32900 25.17100
H  -4.89200 28.47300 30.57100
H  -1.28400 27.89400 32.56300
H  -2.24600 26.49000 33.23200
H  -2.53100 28.11600 33.75600

