158

Mg 1.36000 -2.16600 43.90100
C  4.61400 -0.86100 43.58000
C  0.19600 0.78900 42.42100
C  -1.73200 -3.44400 44.05800
C  2.84600 -5.23400 45.04500
N  2.34900 -0.34400 42.95200
C  3.68800 -0.01400 42.92600
C  3.86700 1.42800 42.32600
C  2.41200 2.01300 42.44200
C  1.59200 0.75500 42.53500
C  2.30500 3.07100 43.58800
C  4.53000 1.44400 40.93800
C  5.79600 2.36600 40.82200
H  6.95300 1.49900 40.45800
N  -0.55600 -1.38400 43.35200
C  -0.75500 -0.20100 42.72400
C  -2.17800 -0.11100 42.43500
C  -2.78800 -1.26900 42.86300
C  -1.70000 -2.12600 43.47700
C  -2.61700 1.08000 41.72700
C  -4.27100 -1.56500 42.70200
O  -4.98200 -0.80200 42.07800
C  -4.88100 -2.79000 43.49900
N  0.69200 -4.18600 44.20200
C  -0.69100 -4.32000 44.41100
C  -0.95400 -5.62200 45.09700
C  0.46600 -6.18300 45.48800
C  1.41700 -5.17500 44.85800
C  -1.75300 -5.44700 46.36600
C  0.66900 -7.65700 45.12100
C  1.23600 -8.63800 46.18600
N  3.32000 -2.92800 44.30000
C  3.69500 -4.10600 44.85700
C  5.09700 -4.07500 45.03300
C  5.53000 -2.79300 44.57800
C  4.38700 -2.14800 44.13900
C  6.02500 -5.19900 45.41100
C  6.66800 -1.89900 44.41400
O  7.81200 -2.07400 44.71600
C  6.13400 -0.60800 43.76000
C  6.33500 0.59700 44.66500
O  6.07600 0.63400 45.86700
O  6.89700 1.63200 44.01000
C  7.46000 2.73600 44.71900
H  -0.09900 1.77900 42.06800
H  -2.72200 -3.82700 44.31600
H  3.23500 -6.12500 45.54100
H  4.53100 1.95600 43.01000
H  2.13500 2.52700 41.52200
H  1.44100 2.74700 44.16700
H  1.96100 4.01500 43.16400
H  3.15600 3.23900 44.24900
H  3.77400 1.83300 40.25700
H  4.67600 0.42000 40.59200
H  6.11600 2.74900 41.79100
H  5.48500 3.10200 40.08100
H  -2.16200 1.17500 40.74100
H  -2.44600 2.08600 42.11000
H  -3.63400 0.94100 41.36100
H  -4.35700 -3.66600 43.11600
H  -5.92900 -2.83600 43.20300
H  -4.84100 -2.70900 44.58500
H  -1.46200 -6.28200 44.39500
H  0.70800 -6.09100 46.54600
H  -2.81900 -5.36200 46.15400
H  -1.46600 -4.58900 46.97300
H  -1.53300 -6.31300 46.99000
H  1.25600 -7.59200 44.20400
H  -0.23600 -8.06100 44.66900
H  0.78400 -9.61500 46.01600
H  1.02400 -8.32200 47.20800
H  2.31100 -8.78500 46.07300
H  6.85000 -4.75200 45.96600
H  6.35500 -5.68700 44.49300
H  5.52900 -5.91000 46.07000
H  6.69800 -0.42400 42.84600
H  7.71900 2.43800 45.73500
H  6.74700 3.55300 44.82600
H  8.33200 2.98300 44.11300
Mg 6.65200 53.06500 41.60500
C  5.74100 49.77400 41.15700
C  9.73400 52.41000 40.16900
C  7.23700 56.44800 41.27800
C  3.32200 53.78100 42.72400
N  7.60200 51.33000 40.83400
C  7.08600 50.02100 40.78200
C  8.01100 49.06600 40.21000
C  9.40400 49.88400 40.23300
C  8.88700 51.31200 40.47300
C  10.47600 49.44100 41.40400
C  7.67700 48.48200 38.82900
C  7.28400 49.38000 37.67000
H  6.64300 48.81500 36.36000
N  8.32400 54.22600 41.02700
C  9.48500 53.76500 40.41300
C  10.41000 54.89200 40.24700
C  9.71600 56.16100 40.61800
C  8.38700 55.60200 40.99100
C  11.80400 54.70900 39.70400
C  10.27500 57.58100 40.48400
O  11.39300 57.68600 40.07400
C  9.54100 58.78800 40.95000
N  5.44100 54.89900 41.97100
C  5.94700 56.12200 41.76100
C  4.92700 57.24900 42.02300
C  3.59300 56.40400 42.51500
C  4.10000 54.95900 42.47400
C  5.33000 58.28100 43.10500
C  2.34300 56.61400 41.54500
C  1.10600 57.28200 42.06500
N  4.99600 52.02400 41.98500
C  3.73200 52.43700 42.49200
C  2.94700 51.34200 42.61000
C  3.67300 50.21500 42.10800
C  4.90400 50.67700 41.70100
C  1.48500 51.36300 43.10900
C  3.53600 48.81900 41.84800
O  2.62400 48.03100 41.98400
C  4.96500 48.49500 41.21100
C  4.59000 47.82400 39.97500
O  4.14700 48.36400 38.98200
O  4.82200 46.48400 40.06900
C  4.75200 45.62200 38.92000
H  10.66100 52.03400 39.73200
H  7.42300 57.51600 41.14400
H  2.27200 53.79000 43.02600
H  8.06300 48.20900 40.88200
H  9.93400 49.66700 39.30500
H  10.50200 50.15600 42.22600
H  11.47400 49.44600 40.96600
H  10.22600 48.45800 41.80400
H  6.93800 47.69300 38.96800
H  8.63700 48.03400 38.57200
H  8.19600 49.90800 37.39200
H  6.51900 50.03400 38.08700
H  12.47500 55.13100 40.45300
H  11.94500 55.15000 38.71700
H  12.10100 53.66700 39.81800
H  10.26900 59.59800 41.00100
H  9.29900 58.56900 41.99000
H  8.61000 59.01600 40.43100
H  4.71000 57.74500 41.07600
H  3.29000 56.58600 43.54600
H  6.21700 57.89400 43.60700
H  4.57800 58.40600 43.88400
H  5.55700 59.21800 42.59500
H  2.15000 55.63400 41.10800
H  2.72300 57.34200 40.82800
H  0.85200 58.19000 41.51900
H  1.13000 57.60500 43.10500
H  0.35600 56.49200 42.02400
H  1.57400 51.55500 44.17900
H  1.02000 50.39100 42.94300
H  0.89900 52.14300 42.62300
H  5.57400 47.84900 41.84400
H  3.90900 44.94900 39.07800
H  5.67400 45.03900 38.91400
H  4.70900 46.12900 37.95600

