158

Mg 40.35000 10.29700 29.75700
C  42.52100 10.82600 32.44900
C  38.24600 8.63200 31.98600
C  38.43200 9.35100 27.21300
C  42.95200 10.98300 27.52900
N  40.40400 9.75200 31.90500
C  41.33100 10.21900 32.86800
C  40.95600 9.97600 34.29400
C  39.67400 9.08400 34.05500
C  39.41000 9.10100 32.51700
C  39.88500 7.67200 34.58900
C  40.63200 11.35100 34.97200
C  40.04400 11.16900 36.35100
H  40.83500 11.82500 37.57200
N  38.56800 9.23500 29.60500
C  37.78700 8.65400 30.61700
C  36.49300 8.27000 30.11100
C  36.52500 8.58600 28.74200
C  37.88400 9.06400 28.44500
C  35.34400 7.69600 31.04100
C  35.35100 8.45600 27.67100
O  35.48600 8.75900 26.48300
C  34.01900 7.98200 28.22600
N  40.76100 9.90100 27.66000
C  39.73900 9.65500 26.86000
C  39.94600 9.99800 25.35600
C  41.47500 10.53900 25.45100
C  41.80000 10.45800 26.96200
C  39.71200 8.97200 24.24800
C  41.58400 12.06400 24.98700
C  41.05300 13.20200 25.78100
N  42.28300 10.88200 29.86100
C  43.21800 11.21500 28.90300
C  44.53600 11.62700 29.54700
C  44.20300 11.54800 30.94900
C  42.89400 11.06300 31.11300
C  45.82400 11.99500 28.78900
C  44.70300 11.87500 32.25000
O  45.81600 12.31500 32.58500
C  43.64400 11.45000 33.33100
C  44.32500 10.54700 34.25400
O  44.99000 9.49900 34.02500
O  44.05700 11.00200 35.49000
C  44.64000 10.29700 36.66600
H  37.52300 8.25500 32.71200
H  37.77400 9.34900 26.34200
H  43.69300 11.31900 26.80100
H  41.84100 9.49300 34.70800
H  38.86700 9.51700 34.64600
H  39.17000 7.43300 35.37600
H  40.89200 7.63000 35.00400
H  39.61200 6.84100 33.93900
H  39.96200 11.97700 34.38400
H  41.63500 11.77200 35.05000
H  40.05900 10.10100 36.56900
H  39.05200 11.60600 36.23600
H  35.61900 7.96900 32.05900
H  35.09000 6.65500 30.83700
H  34.41300 8.25000 30.92600
H  33.80000 8.76400 28.95400
H  34.10800 7.00700 28.70500
H  33.23100 8.01600 27.47400
H  39.37800 10.90900 25.17000
H  42.19300 9.92000 24.91300
H  38.85200 9.16400 23.60600
H  39.59000 7.96100 24.63800
H  40.59100 8.88700 23.60800
H  41.24200 12.23800 23.96700
H  42.65100 12.17900 24.79600
H  40.85500 12.93000 26.81700
H  40.23200 13.68700 25.25300
H  41.87800 13.91400 25.75200
H  46.50000 12.41900 29.53100
H  45.60300 12.46300 27.83000
H  46.33900 11.10500 28.42800
H  43.26100 12.29300 33.90600
H  43.89400 10.25400 37.46000
H  45.54600 10.86700 36.87100
H  44.77500 9.23600 36.45600
Mg -13.20400 15.88200 41.52600
C  -10.06300 14.26300 41.22000
C  -11.89000 18.56000 39.77600
C  -16.33500 17.18700 41.12600
C  -14.52300 12.74400 42.37400
N  -11.20100 16.31500 40.67300
C  -10.06700 15.53100 40.61600
C  -8.89700 16.24300 39.89600
C  -9.57100 17.62400 39.46100
C  -11.00100 17.47800 39.98200
C  -8.87300 18.80100 40.11100
C  -8.19700 15.46200 38.64600
C  -6.67300 15.85300 38.56800
H  -6.19200 16.38900 37.29400
N  -13.98600 17.67100 40.76300
C  -13.22600 18.65500 40.14700
C  -14.05400 19.80400 39.98100
C  -15.41100 19.48800 40.29100
C  -15.29300 18.05000 40.77700
C  -13.45600 21.12200 39.45000
C  -16.59000 20.28500 40.00400
O  -16.60200 21.45600 39.51400
C  -17.98600 19.77000 40.22000
N  -15.13900 15.12000 41.67500
C  -16.26500 15.84800 41.60500
C  -17.52300 14.95500 41.81400
C  -16.98900 13.66000 42.29400
C  -15.44600 13.82300 42.11000
C  -18.67100 15.53800 42.75100
C  -17.53900 12.31800 41.59300
C  -18.15500 11.13500 42.47000
N  -12.41600 13.97300 42.03700
C  -13.08300 12.82900 42.31500
C  -12.17800 11.75400 42.56000
C  -10.98200 12.32800 42.02800
C  -11.18800 13.64400 41.72900
C  -12.42800 10.36300 43.00400
C  -9.54400 11.91500 41.76800
O  -8.93000 10.85900 42.10200
C  -8.95300 13.22000 41.23200
C  -7.78400 13.51500 42.10300
O  -7.88300 14.04200 43.19400
O  -6.61100 13.19100 41.49600
C  -5.46000 13.75500 42.22800
H  -11.57400 19.44300 39.21700
H  -17.39100 17.46300 41.08400
H  -14.91500 11.77700 42.69800
H  -8.24400 16.47200 40.73800
H  -9.57000 17.84300 38.39300
H  -9.03200 19.72300 39.55300
H  -7.81600 18.53800 40.15900
H  -9.24300 18.94800 41.12500
H  -8.55500 15.92900 37.72800
H  -8.25800 14.38200 38.51000
H  -6.19400 14.93300 38.90400
H  -6.45300 16.70900 39.20600
H  -13.13000 21.01300 38.41600
H  -12.60900 21.58500 39.95600
H  -14.22500 21.89400 39.45200
H  -18.26500 19.89000 41.26600
H  -18.12600 18.82000 39.70400
H  -18.65500 20.33900 39.57400
H  -18.05300 14.69800 40.89700
H  -17.06800 13.55400 43.37600
H  -19.64000 15.43700 42.26400
H  -18.53100 16.59200 42.99100
H  -18.69600 15.02800 43.71300
H  -16.74400 11.80800 41.04900
H  -18.39500 12.50300 40.94400
H  -17.98400 11.12000 43.54700
H  -17.61500 10.25600 42.11800
H  -19.21500 10.91800 42.34100
H  -11.52800 9.77100 43.16900
H  -13.10200 10.02200 42.21800
H  -13.01100 10.42800 43.92300
H  -8.50900 13.00000 40.26100
H  -5.14400 13.07600 43.02000
H  -5.69400 14.75400 42.59700
H  -4.72900 13.91600 41.43600

