158

Mg 43.47700 42.54500 26.35700
C  42.44700 44.54400 28.89400
C  44.91500 40.50400 28.67800
C  44.83600 40.77200 23.82900
C  42.52100 44.95500 23.99200
N  43.53000 42.52700 28.57900
C  42.89900 43.34600 29.44700
C  43.03800 42.99200 30.93900
C  44.16300 41.81700 30.74000
C  44.20900 41.56500 29.25300
C  45.54900 42.19800 31.36400
C  41.66800 42.45900 31.61500
C  41.78000 41.92900 33.01900
H  40.93600 42.59000 34.12300
N  44.47800 40.72100 26.32400
C  45.10300 40.15200 27.30900
C  45.71100 38.95100 26.87200
C  45.50300 38.83700 25.43500
C  44.90100 40.14000 25.11300
C  46.44300 37.96200 27.81800
C  45.87000 37.74900 24.35900
O  45.52900 37.75400 23.18000
C  46.54000 36.43900 24.91900
N  43.77400 42.87700 24.27500
C  44.31500 41.94000 23.39900
C  44.29500 42.37000 21.98200
C  43.32200 43.56400 22.00100
C  43.19000 43.83100 23.48100
C  45.71100 42.71900 21.62800
C  42.04900 43.35500 21.12600
C  40.77500 42.70700 21.74600
N  42.68500 44.41000 26.41000
C  42.36900 45.29300 25.37600
C  41.84400 46.50500 25.88600
C  41.88200 46.23900 27.30800
C  42.33800 44.96300 27.53900
C  41.32900 47.69500 25.13300
C  41.40800 46.85500 28.55100
O  40.98600 48.00400 28.78600
C  41.75600 45.72400 29.59300
C  42.64100 46.35900 30.56300
O  43.86000 46.49500 30.46100
O  41.84300 46.84400 31.65900
C  42.60400 47.42100 32.81900
H  45.26700 39.88400 29.50500
H  45.20800 40.12900 23.02800
H  42.20400 45.68400 23.24300
H  43.44500 43.76700 31.58900
H  43.79900 40.88600 31.17400
H  45.64400 43.24300 31.65800
H  46.33000 42.13300 30.60700
H  45.82000 41.55100 32.19900
H  41.25400 41.62100 31.05400
H  40.98600 43.30200 31.72400
H  42.78400 41.90600 33.44200
H  41.57900 40.86300 32.90800
H  47.34400 37.61400 27.31400
H  45.77300 37.10700 27.91500
H  46.63000 38.19500 28.86600
H  47.53700 36.70600 25.26900
H  46.67100 35.71900 24.11100
H  45.86400 36.07200 25.69200
H  43.89000 41.56900 21.36200
H  43.87700 44.42200 21.62400
H  46.07600 43.72800 21.81600
H  45.83300 42.63600 20.54800
H  46.38600 42.01100 22.10900
H  42.29100 42.84400 20.19400
H  41.86900 44.38500 20.81800
H  39.96400 43.43500 21.72600
H  40.98700 42.47400 22.78900
H  40.47800 41.75100 21.31500
H  41.70100 47.63100 24.11100
H  41.62000 48.54200 25.75400
H  40.23900 47.65900 25.13300
H  40.77000 45.40100 29.92700
H  43.66300 47.59800 32.63100
H  42.51200 46.77900 33.69500
H  41.97400 48.30300 32.93100
Mg 29.07700 57.86500 40.54700
C  26.39400 55.98300 39.59500
C  31.16200 55.75800 38.81200
C  31.45500 60.25300 40.60700
C  26.76300 60.33100 41.79700
N  28.75400 56.30900 39.06600
C  27.56700 55.56000 38.97200
C  27.72500 54.48100 37.91000
C  29.26300 54.20700 38.01800
C  29.83600 55.44100 38.71000
C  29.77300 52.88400 38.74600
C  27.14100 54.84300 36.59400
C  27.76800 56.06000 35.87200
H  27.88900 56.00600 34.33900
N  31.04900 57.90400 39.95200
C  31.72700 56.94800 39.31600
C  33.13300 57.18100 39.31600
C  33.25900 58.46600 39.94400
C  31.89200 58.97900 40.17500
C  34.21200 56.25900 38.78100
C  34.53900 59.11500 40.21100
O  35.56500 58.72500 39.78200
C  34.58200 60.24500 41.13900
N  29.08500 60.02000 41.07400
C  30.18200 60.76300 40.95400
C  30.02500 62.15200 41.53800
C  28.55000 62.10500 42.13700
C  28.07900 60.71800 41.68000
C  31.09600 62.53900 42.66200
C  27.67400 63.38900 41.81000
C  26.73200 63.78300 42.92100
N  27.00800 58.04100 40.83200
C  26.20300 59.08700 41.34200
C  24.88400 58.57900 41.39800
C  24.87500 57.41700 40.68100
C  26.19900 57.15100 40.33400
C  23.71900 59.21900 42.13400
C  24.08300 56.23500 40.21900
O  22.90900 55.97000 40.44000
C  25.09100 55.32300 39.34500
C  25.16100 54.00800 39.99700
O  25.45400 53.84600 41.19500
O  24.80800 53.06300 39.11400
C  24.70400 51.66700 39.61200
H  31.78900 54.93900 38.45300
H  32.32000 60.90700 40.73400
H  26.10000 61.13200 42.12900
H  27.19400 53.63400 38.34500
H  29.59300 54.16800 36.97900
H  30.42400 53.10400 39.59200
H  30.28400 52.22900 38.04000
H  28.99300 52.24100 39.15200
H  26.06900 54.99200 36.71600
H  27.28600 53.89500 36.07700
H  28.78700 56.15900 36.24600
H  27.26100 56.93400 36.27900
H  33.90500 55.21400 38.71900
H  35.12700 56.25900 39.37300
H  34.40900 56.63800 37.77800
H  34.48600 61.17100 40.57100
H  35.61600 60.17100 41.47600
H  33.91500 60.14800 41.99500
H  30.09000 62.79500 40.66000
H  28.65400 61.98800 43.21500
H  30.52700 62.63300 43.58700
H  31.63800 63.46200 42.45600
H  31.81000 61.71800 42.73000
H  27.10700 63.10600 40.92300
H  28.39100 64.16200 41.53400
H  26.88000 64.80400 43.27500
H  26.86300 63.19400 43.82900
H  25.68200 63.77500 42.62900
H  23.03400 58.40800 42.38400
H  23.25700 59.88000 41.40200
H  24.17400 59.75600 42.96600
H  24.73100 55.30400 38.31700
H  25.68200 51.26500 39.87300
H  24.32200 50.91900 38.91800
H  24.21500 51.65800 40.58700

