158

Mg 26.40700 50.19900 26.40100
C  24.23200 51.39200 29.00600
C  28.62200 49.13900 28.64000
C  28.36700 49.37100 23.83300
C  24.08700 51.58400 24.02800
N  26.35100 50.21700 28.52800
C  25.39400 50.68800 29.42100
C  25.75800 50.23500 30.86700
C  27.30700 49.89900 30.77700
C  27.41700 49.64200 29.19100
C  28.22500 51.19000 30.96100
C  24.81000 49.14900 31.36500
C  24.53600 49.01400 32.90600
H  25.57900 49.49200 33.93200
N  28.38500 49.36800 26.25900
C  29.06800 48.93300 27.31000
C  30.36500 48.54500 26.83800
C  30.31300 48.65900 25.44600
C  28.98900 49.12200 25.12100
C  31.38500 47.92700 27.75200
C  31.42500 48.48000 24.37600
O  31.36900 48.86300 23.21400
C  32.74500 47.98000 24.81200
N  26.30600 50.68300 24.18300
C  27.17600 50.01200 23.45200
C  26.63700 49.86900 21.97500
C  25.32500 50.61900 22.07400
C  25.18600 50.88500 23.52700
C  27.68700 50.38200 20.88000
C  24.21600 49.81100 21.35800
C  23.16400 50.72500 20.67100
N  24.61700 51.28800 26.45400
C  23.79600 51.81200 25.44600
C  22.60800 52.41300 26.11200
C  22.71600 52.25700 27.50900
C  23.91100 51.48200 27.60100
C  21.49900 53.10300 25.41900
C  22.18300 52.62800 28.73800
O  21.24900 53.28700 29.06100
C  23.06100 51.92300 29.82500
C  23.46100 52.90800 30.82300
O  24.30100 53.77400 30.62100
O  22.78300 52.70900 31.98400
C  23.23500 53.61200 33.11300
H  29.29800 48.64600 29.34200
H  28.94600 48.97800 22.99500
H  23.26100 51.88200 23.37900
H  25.72300 51.16800 31.43000
H  27.47600 48.96700 31.31800
H  28.97900 51.10400 31.74300
H  27.65800 52.03600 31.35100
H  28.54100 51.59000 29.99800
H  25.23300 48.19800 31.04000
H  23.85200 49.27500 30.86000
H  24.40500 47.94400 33.07000
H  23.69300 49.67700 33.09700
H  31.49400 46.90900 27.37800
H  31.08400 47.73300 28.78100
H  32.37100 48.39200 27.74600
H  32.67000 46.94200 25.13800
H  33.16100 48.64500 25.56900
H  33.38800 47.86600 23.93900
H  26.34700 48.83000 21.82100
H  25.43500 51.65400 21.75100
H  28.25100 51.08200 21.49600
H  27.16600 50.83700 20.03700
H  28.39800 49.64700 20.50300
H  23.73400 49.28200 22.18000
H  24.45700 49.01600 20.65300
H  22.20900 50.64500 21.19000
H  22.95700 50.37300 19.66000
H  23.38100 51.79300 20.64800
H  20.52900 52.91300 25.87800
H  21.46500 52.75800 24.38600
H  21.69400 54.16300 25.58200
H  22.57200 51.08300 30.31800
H  23.40100 54.66100 32.86600
H  24.22100 53.24900 33.40400
H  22.48800 53.64900 33.90600
Mg 1.12000 42.36700 25.50200
C  2.64400 42.50600 28.73900
C  -1.71100 41.09400 27.01300
C  -0.02200 41.78800 22.53900
C  4.16800 43.77200 24.22200
N  0.53700 41.83000 27.72000
C  1.28100 42.11400 28.81000
C  0.47400 41.96400 30.10600
C  -0.88700 41.40500 29.50000
C  -0.70200 41.46200 27.97300
C  -1.21700 39.89900 29.98000
C  0.40600 43.10700 31.14300
C  0.68400 42.63100 32.62100
H  -0.45100 43.00500 33.67300
N  -0.59200 41.56400 24.89900
C  -1.64800 41.19900 25.63100
C  -2.71700 40.61500 24.72100
C  -2.26700 40.86800 23.38800
C  -0.92000 41.44600 23.57600
C  -3.95100 39.83700 25.17100
C  -2.91300 40.62100 22.07400
O  -2.37300 40.90700 21.00900
C  -4.21200 39.90900 21.89700
N  1.98300 42.71900 23.62300
C  1.33400 42.23100 22.49800
C  2.13400 42.55400 21.31300
C  3.22600 43.56300 21.77600
C  3.13100 43.40600 23.32700
C  2.51600 41.45800 20.31800
C  3.03900 44.95000 21.20100
C  3.31900 45.10400 19.75300
N  2.94900 43.03400 26.26100
C  4.11500 43.52000 25.59200
C  5.17200 43.73800 26.55700
C  4.63000 43.36900 27.76100
C  3.30800 42.86700 27.56400
C  6.62100 44.15700 26.23600
C  4.98800 43.09100 29.15200
O  6.02200 43.25200 29.74100
C  3.67100 42.69600 29.87500
C  3.79400 41.56300 30.81300
O  3.88900 40.37100 30.43900
O  3.67200 42.04400 32.08300
C  3.69300 41.12000 33.17700
H  -2.74100 40.95200 27.34700
H  -0.39000 41.77400 21.51100
H  5.05700 44.21200 23.76700
H  0.97000 41.07900 30.50400
H  -1.65100 42.09200 29.86300
H  -0.59000 39.51100 30.78200
H  -1.32600 39.22200 29.13200
H  -2.23000 39.84500 30.37700
H  -0.63800 43.41400 31.20700
H  0.92400 44.01100 30.82300
H  1.51500 43.19200 33.04700
H  0.79100 41.55400 32.74400
H  -3.85100 38.90500 24.61400
H  -4.93300 40.23000 24.90600
H  -3.99500 39.69900 26.25200
H  -3.85600 38.89100 22.05500
H  -4.54100 40.08400 20.87300
H  -5.05300 40.24700 22.50200
H  1.49300 43.23800 20.75600
H  4.21200 43.21600 21.46600
H  2.62200 40.48200 20.79300
H  3.44700 41.64500 19.78300
H  1.72800 41.42300 19.56600
H  3.71000 45.61600 21.74400
H  2.05400 45.21500 21.58600
H  3.90800 46.01900 19.68500
H  2.37800 45.24400 19.22000
H  3.79100 44.22300 19.31800
H  6.98300 44.01000 25.21900
H  7.17500 43.48700 26.89500
H  6.81700 45.17900 26.56100
H  3.55200 43.52900 30.56700
H  2.81300 41.40700 33.75200
H  4.63500 41.12300 33.72500
H  3.50900 40.10200 32.83300

