158

Mg -2.30800 16.71200 27.13200
C  -2.60600 14.64900 29.93700
C  -2.58900 19.46500 28.95100
C  -2.32100 18.55600 24.28600
C  -2.81900 13.81400 25.16800
N  -2.62900 16.99700 29.23900
C  -2.56400 16.04100 30.21700
C  -2.38000 16.78700 31.56200
C  -2.38300 18.26500 31.21900
C  -2.67100 18.26100 29.69800
C  -3.35400 19.16500 32.09700
C  -1.11100 16.24700 32.36000
C  -0.54100 17.18000 33.42100
H  -0.19500 16.60500 34.82400
N  -2.43300 18.71500 26.74500
C  -2.57900 19.73900 27.61000
C  -2.64600 21.00300 26.92300
C  -2.31300 20.71200 25.57300
C  -2.43900 19.26700 25.49800
C  -2.90000 22.22900 27.62700
C  -2.03200 21.66900 24.43000
O  -1.82100 21.37500 23.25500
C  -1.74500 23.12800 24.83300
N  -2.32900 16.17800 25.03200
C  -2.32600 17.15600 24.06600
C  -2.45200 16.57300 22.65100
C  -2.55500 14.97900 22.92800
C  -2.55700 14.97200 24.44900
C  -3.54300 17.04800 21.69400
C  -1.34800 14.13700 22.31100
C  -1.50300 13.55000 20.93400
N  -2.58900 14.60800 27.40800
C  -2.76600 13.57700 26.54600
C  -2.88100 12.34300 27.23600
C  -2.75800 12.67300 28.60100
C  -2.62500 14.06200 28.65300
C  -3.04000 11.05100 26.50000
C  -2.72100 12.14900 29.91400
O  -2.70800 10.97800 30.34200
C  -2.52500 13.40300 30.89000
C  -1.27700 13.08000 31.59300
O  -0.12800 13.18100 31.13600
O  -1.50700 12.68200 32.87000
C  -0.39300 12.60400 33.78600
H  -2.61400 20.37800 29.54900
H  -2.29400 19.08300 23.32900
H  -3.09000 12.96300 24.54000
H  -3.31100 16.64500 32.10900
H  -1.35100 18.61000 31.27800
H  -2.75200 19.72200 32.81400
H  -4.12700 18.58600 32.60300
H  -3.77000 19.83200 31.34200
H  -0.38700 16.02000 31.57700
H  -1.34800 15.32900 32.89600
H  -1.10500 18.11100 33.48100
H  0.42300 17.45100 32.98900
H  -3.64600 22.85300 27.13500
H  -1.91800 22.69800 27.69300
H  -3.30900 22.05100 28.62200
H  -1.33600 23.57200 23.92600
H  -0.94900 23.13400 25.57900
H  -2.69000 23.63700 25.02400
H  -1.57800 16.85600 22.06400
H  -3.46900 14.49600 22.58300
H  -3.41700 18.11400 21.50600
H  -4.46500 16.95100 22.26800
H  -3.71100 16.53400 20.74800
H  -1.22400 13.25900 22.94500
H  -0.42800 14.72000 22.26000
H  -2.52700 13.73500 20.60900
H  -1.30900 12.47900 20.98200
H  -0.71900 13.96100 20.29900
H  -2.76500 10.22700 27.15900
H  -2.50200 10.96200 25.55700
H  -4.11600 11.08700 26.33200
H  -3.34400 13.45100 31.60900
H  -0.04000 11.58400 33.63000
H  -0.77200 12.89600 34.76500
H  0.41700 13.24700 33.44100
Mg 2.34900 -2.79900 44.46700
C  5.52000 -1.39200 44.13100
C  1.22800 0.02100 42.53200
C  -0.73500 -4.13200 44.33600
C  3.69200 -5.72500 45.43900
N  3.31200 -0.95100 43.48700
C  4.62500 -0.61900 43.48800
C  4.94300 0.67700 42.71300
C  3.48100 1.24400 42.45600
C  2.65400 0.01400 42.84800
C  3.05600 2.54300 43.17000
C  5.84500 0.41200 41.46000
C  6.78700 1.56800 41.00000
H  7.67900 1.30000 39.79600
N  0.44200 -2.09400 43.66900
C  0.25600 -0.99500 42.91800
C  -1.12200 -0.93700 42.49300
C  -1.74700 -2.07900 42.99700
C  -0.68800 -2.82900 43.69700
C  -1.82000 0.22800 41.76800
C  -3.24200 -2.45100 42.88200
O  -3.97400 -1.79100 42.16100
C  -3.85800 -3.75900 43.51100
N  1.58400 -4.67300 44.71000
C  0.30000 -4.91400 44.78100
C  0.08700 -6.46200 45.01400
C  1.48300 -6.88000 45.64300
C  2.34700 -5.72400 45.18700
C  -1.22200 -6.87500 45.81700
C  2.00300 -8.31000 45.43600
C  3.02700 -8.87400 46.55600
N  4.22000 -3.50200 44.76600
C  4.61700 -4.69500 45.21700
C  6.03800 -4.61200 45.42600
C  6.44700 -3.30400 45.15000
C  5.30400 -2.67800 44.61600
C  6.84900 -5.74100 45.99000
C  7.52700 -2.32800 45.14200
O  8.71400 -2.46800 45.41700
C  6.95800 -1.03000 44.48400
C  7.12400 0.15000 45.42500
O  6.61000 0.29300 46.50800
O  8.02900 1.08500 44.83500
C  8.35200 2.25000 45.64900
H  0.93900 0.92500 41.99200
H  -1.67300 -4.68600 44.26500
H  4.11500 -6.65100 45.83500
H  5.49400 1.40700 43.30600
H  3.33200 1.47400 41.40100
H  2.01400 2.57700 43.48700
H  3.27700 3.42000 42.56000
H  3.62400 2.76200 44.07400
H  5.12300 0.31700 40.65000
H  6.31900 -0.54200 41.69300
H  7.48000 1.69800 41.83100
H  6.25500 2.50700 40.84600
H  -1.21800 1.12700 41.63600
H  -2.60100 0.60600 42.42800
H  -2.17000 -0.05200 40.77500
H  -3.65300 -4.59000 42.83700
H  -4.91800 -3.51400 43.43700
H  -3.56900 -3.91400 44.55100
H  -0.06200 -6.99100 44.07200
H  1.40100 -6.76100 46.72300
H  -1.93800 -7.47600 45.25700
H  -1.68900 -5.91000 46.01200
H  -0.93000 -7.21700 46.81000
H  2.60500 -8.29400 44.52800
H  1.17400 -9.01000 45.33800
H  2.72000 -9.82700 46.98600
H  3.27100 -8.12100 47.30600
H  3.90300 -9.06600 45.93700
H  7.02900 -6.55000 45.28300
H  6.33400 -6.07600 46.89000
H  7.74200 -5.29300 46.42600
H  7.51600 -1.01500 43.54800
H  7.43500 2.82900 45.76300
H  9.22500 2.73500 45.21100
H  8.62400 1.80700 46.60600

