158

Mg 24.32200 -5.39600 45.89900
C  26.37000 -3.00400 44.26700
C  21.77700 -4.48800 43.78200
C  22.59400 -7.87900 47.30900
C  27.21700 -6.31900 47.86800
N  24.10100 -3.98400 44.10600
C  25.08200 -3.09400 43.68600
C  24.54600 -2.24000 42.48400
C  22.99700 -2.57100 42.45500
C  22.95700 -3.78200 43.45200
C  21.96300 -1.43800 42.74000
C  25.29700 -2.57800 41.13900
C  25.50100 -1.39900 40.18300
H  24.90000 -1.51600 38.79600
N  22.41600 -5.98300 45.63700
C  21.55300 -5.54900 44.64100
C  20.38900 -6.30800 44.73700
C  20.52200 -7.23900 45.78600
C  21.87000 -7.02700 46.35000
C  19.21600 -5.97600 43.80900
C  19.42000 -8.11100 46.21600
O  18.36500 -8.16700 45.61800
C  19.50700 -9.00300 47.42700
N  24.90200 -6.97300 47.30500
C  23.94800 -7.81200 47.76000
C  24.46400 -8.81100 48.70800
C  25.93600 -8.35800 48.94100
C  26.04100 -7.06700 48.02600
C  23.58600 -9.05300 49.94300
C  27.08000 -9.40900 48.67600
C  27.15300 -9.82800 47.19300
N  26.35000 -4.82600 46.10700
C  27.34700 -5.24800 46.99500
C  28.47600 -4.36600 46.76400
C  28.15100 -3.48200 45.72000
C  26.86800 -3.81700 45.37800
C  29.71300 -4.33500 47.56900
C  28.55300 -2.37800 44.92100
O  29.59100 -1.75400 44.99700
C  27.46300 -2.09700 43.87400
C  27.07700 -0.66300 44.01500
O  26.39300 -0.19100 44.90100
O  27.51700 0.14400 42.98500
C  27.29900 1.52800 43.18100
H  20.98100 -4.13200 43.12400
H  22.08200 -8.78500 47.63800
H  28.13200 -6.63000 48.37700
H  24.68900 -1.18100 42.69800
H  22.78200 -2.98100 41.46900
H  21.17900 -1.70500 43.44900
H  21.50000 -1.17500 41.78900
H  22.53600 -0.56100 43.04000
H  24.80100 -3.35200 40.55300
H  26.31700 -2.91200 41.32900
H  26.56200 -1.29700 39.95600
H  25.26100 -0.42400 40.60800
H  18.62600 -6.87200 43.61800
H  19.66000 -5.70000 42.85200
H  18.64400 -5.17600 44.27800
H  18.64300 -9.65700 47.54300
H  19.58800 -8.30900 48.26400
H  20.36300 -9.66700 47.31300
H  24.45000 -9.74700 48.15000
H  26.01100 -7.93200 49.94100
H  23.30600 -10.10700 49.96900
H  22.69900 -8.42000 49.91300
H  24.16900 -8.78100 50.82300
H  27.05600 -10.24300 49.37800
H  28.05700 -8.99000 48.91600
H  27.00100 -10.90700 47.17200
H  28.22600 -9.85800 47.00600
H  26.66700 -9.24100 46.41400
H  30.60400 -4.33400 46.94100
H  29.78900 -5.18300 48.24800
H  29.68300 -3.43600 48.18500
H  27.81200 -2.09500 42.84200
H  28.12800 1.87500 43.79800
H  26.30100 1.76100 43.54900
H  27.31600 1.95500 42.17800
Mg -5.52900 25.12500 25.59000
C  -4.02900 26.23200 28.46400
C  -7.34300 22.82700 27.56100
C  -6.30600 23.28900 22.79500
C  -3.15800 26.86600 23.69800
N  -5.64300 24.56600 27.78800
C  -5.12300 25.42200 28.74800
C  -5.52300 24.92700 30.15800
C  -6.45500 23.58500 29.85100
C  -6.54900 23.70000 28.25000
C  -5.76400 22.19000 30.29900
C  -6.30200 26.05400 30.91600
C  -5.79600 26.51800 32.31800
H  -5.09200 25.45000 33.21000
N  -6.81000 23.45500 25.23400
C  -7.48600 22.72700 26.11500
C  -8.25700 21.70500 25.46200
C  -8.04800 21.80800 24.12300
C  -6.99300 22.87200 23.99100
C  -9.29700 20.78500 26.13100
C  -8.67600 21.09700 22.88200
O  -8.33700 21.42400 21.77900
C  -9.89500 20.25200 22.94300
N  -4.88500 25.26400 23.57400
C  -5.36300 24.39400 22.63400
C  -4.80700 24.74500 21.24400
C  -3.85700 25.96900 21.48700
C  -4.03000 26.10700 22.98200
C  -4.13000 23.63400 20.43600
C  -4.26600 27.30100 20.78800
C  -3.09600 28.02000 20.02700
N  -3.94500 26.42400 25.96700
C  -3.04800 27.03200 25.10900
C  -2.24700 27.91100 25.96400
C  -2.57700 27.51200 27.27700
C  -3.61400 26.67400 27.21500
C  -1.24000 28.96800 25.56400
C  -2.22700 27.73700 28.68900
O  -1.42100 28.46600 29.22000
C  -3.13900 26.89900 29.44100
C  -2.30700 26.03400 30.30200
O  -1.69000 25.05800 29.86700
O  -2.22000 26.52300 31.58800
C  -1.28700 25.79900 32.48100
H  -7.99200 22.14100 28.10900
H  -6.50900 22.87600 21.80500
H  -2.35900 27.37200 23.15100
H  -4.58000 24.60200 30.59800
H  -7.31200 23.83900 30.47400
H  -6.47800 21.75100 30.99500
H  -4.82400 22.30200 30.83800
H  -5.54700 21.46600 29.51400
H  -7.38200 25.90700 30.93700
H  -6.12200 26.88300 30.23200
H  -6.66200 26.75400 32.93600
H  -5.09300 27.35100 32.30100
H  -9.37900 19.83900 25.59500
H  -10.19500 21.37800 25.95700
H  -9.15000 20.58900 27.19300
H  -9.95100 19.69900 22.00500
H  -10.70400 20.92800 23.22000
H  -9.85000 19.50200 23.73300
H  -5.69400 25.01800 20.67200
H  -2.81000 25.69600 21.36000
H  -3.04600 23.74300 20.43400
H  -4.51900 23.69500 19.41900
H  -4.38100 22.66000 20.85600
H  -4.67900 27.94600 21.56500
H  -5.05200 27.01200 20.09000
H  -2.10600 27.95000 20.47900
H  -3.32800 29.08400 19.98700
H  -3.03100 27.57000 19.03700
H  -0.51300 28.69800 24.79800
H  -0.69300 29.22300 26.47100
H  -1.78800 29.84200 25.21200
H  -3.64800 27.50000 30.19500
H  -0.26900 25.90900 32.10700
H  -1.48800 24.73000 32.55300
H  -1.29400 26.15100 33.51200

