158

Mg 1.58500 7.94900 27.58800
C  2.10800 10.02100 30.32900
C  2.01600 5.24200 29.91500
C  1.25300 5.84400 25.07200
C  1.62700 10.58700 25.41900
N  1.94700 7.68700 29.83000
C  1.88000 8.76100 30.70900
C  1.67500 8.25000 32.11900
C  2.19600 6.77900 32.01600
C  1.96400 6.50800 30.48900
C  3.47500 6.19900 32.63000
C  0.26800 8.36300 32.54100
C  -0.12100 8.43100 34.11400
H  1.14400 8.20500 35.09200
N  1.49000 5.83800 27.50000
C  1.77200 4.89500 28.53300
C  1.73800 3.57400 27.87900
C  1.37900 3.67800 26.50500
C  1.33200 5.14200 26.28500
C  2.00000 2.26000 28.61000
C  1.23700 2.57900 25.43900
O  0.95800 2.90100 24.26600
C  1.32500 1.05100 25.75400
N  1.37100 8.17400 25.62400
C  1.29600 7.20200 24.72900
C  1.01400 7.64100 23.29200
C  0.86800 9.21100 23.54400
C  1.24800 9.35200 24.93700
C  2.21400 7.46900 22.27300
C  -0.45600 9.86300 23.00600
C  -0.44400 11.13900 22.24000
N  1.96300 9.93300 27.77000
C  1.96200 10.90000 26.76500
C  2.14600 12.16000 27.39100
C  2.24200 11.90100 28.75900
C  2.05200 10.54000 28.92800
C  2.12800 13.54500 26.68000
C  2.48700 12.48000 30.10600
O  2.78100 13.60300 30.46600
C  2.33600 11.34300 31.16000
C  3.54300 11.26300 32.02200
O  4.65700 11.13700 31.54800
O  3.35500 11.48900 33.42300
C  4.57200 11.68500 34.21400
H  1.94600 4.44700 30.66000
H  1.12500 5.24000 24.17100
H  1.46400 11.45800 24.78000
H  2.31500 8.79800 32.81100
H  1.51400 6.08500 32.50800
H  4.03100 6.98800 33.13500
H  4.20700 5.90000 31.87900
H  3.33700 5.27200 33.18800
H  -0.34200 7.57300 32.10200
H  -0.16300 9.20800 32.00400
H  -0.88500 7.65900 34.20300
H  -0.66400 9.36100 34.27800
H  1.18700 1.61900 28.27000
H  1.90300 2.31200 29.69400
H  2.89600 1.74400 28.26600
H  1.38000 0.43300 24.85900
H  0.43800 0.70500 26.28600
H  2.16900 0.81900 26.40300
H  0.11400 7.13700 22.94000
H  1.59900 9.78900 22.97700
H  1.82100 7.04800 21.34700
H  2.86500 6.72100 22.72600
H  2.81600 8.37000 22.15300
H  -1.10700 10.17000 23.82500
H  -1.05600 9.12900 22.46800
H  -0.83400 10.80300 21.27900
H  0.57400 11.41900 21.97000
H  -1.01700 11.99700 22.59200
H  3.02300 13.82900 26.12800
H  1.88200 14.26500 27.46100
H  1.22100 13.41000 26.09000
H  1.52300 11.56500 31.85200
H  4.53300 12.51700 34.91800
H  5.40800 12.02700 33.60500
H  4.77400 10.73500 34.70800
Mg 0.90300 43.20600 25.62800
C  2.84100 42.99100 28.50600
C  -1.86100 42.43000 27.73700
C  -0.99400 42.55000 22.88800
C  3.69400 43.29600 23.67300
N  0.49800 43.00300 27.92100
C  1.46600 42.96300 28.87700
C  0.83500 42.74300 30.24800
C  -0.62500 42.54400 29.94500
C  -0.67300 42.63400 28.41900
C  -1.47200 41.41000 30.62200
C  1.17900 43.99600 31.14100
C  1.46600 43.71500 32.59900
H  0.89000 42.45300 33.33700
N  -1.14300 42.77100 25.36300
C  -2.11500 42.58200 26.35100
C  -3.40900 42.69800 25.72300
C  -3.19100 42.67200 24.24100
C  -1.71600 42.59300 24.11000
C  -4.71000 42.83800 26.51100
C  -4.25000 42.69400 23.18500
O  -3.94600 42.66200 22.00300
C  -5.70400 42.73500 23.52500
N  1.32700 42.82000 23.55900
C  0.35700 42.70900 22.60400
C  0.91600 42.97900 21.20900
C  2.47400 43.38300 21.51500
C  2.53600 43.11000 23.01200
C  0.77900 41.85300 20.13400
C  2.91700 44.81500 21.20200
C  4.20000 44.99400 20.49500
N  2.86800 43.27100 25.93100
C  3.89100 43.28000 25.06100
C  5.18400 43.14900 25.73100
C  4.78500 43.08100 27.11000
C  3.40000 43.17700 27.19300
C  6.56000 43.21700 25.12600
C  5.30900 42.91300 28.44300
O  6.45900 42.79100 28.78900
C  4.04600 42.97400 29.40600
C  4.13500 41.74000 30.25100
O  4.34200 40.60300 29.82100
O  3.98800 42.09800 31.59200
C  4.20300 40.99700 32.47100
H  -2.72600 42.32700 28.39600
H  -1.65100 42.45400 22.02100
H  4.59500 43.41300 23.06700
H  1.30800 41.84100 30.63600
H  -1.13500 43.45400 30.25800
H  -2.35500 41.86400 31.07100
H  -0.82400 40.91500 31.34500
H  -1.79000 40.70400 29.85400
H  0.32800 44.67600 31.10800
H  1.91200 44.71300 30.77300
H  1.02900 44.56100 33.13000
H  2.55300 43.76300 32.66200
H  -5.33400 43.66800 26.17900
H  -4.59400 42.82100 27.59500
H  -5.24900 41.93900 26.21400
H  -6.24700 42.87300 22.59000
H  -5.82200 43.67000 24.07300
H  -6.02400 41.86300 24.09600
H  0.37700 43.85600 20.85000
H  3.12800 42.71500 20.95400
H  0.16200 41.01100 20.44900
H  1.74300 41.38100 19.94800
H  0.30800 42.24400 19.23200
H  2.86100 45.38700 22.12800
H  2.13000 45.26000 20.59300
H  4.10100 45.74600 19.71300
H  4.38600 44.13000 19.85700
H  5.04700 45.28200 21.11900
H  6.69000 42.44900 24.36400
H  7.29800 42.92100 25.87200
H  6.81400 44.17100 24.66400
H  4.04800 43.80200 30.11500
H  5.23400 40.64400 32.42600
H  3.58400 40.10000 32.45400
H  4.16700 41.42200 33.47400

