158

Mg 0.63200 7.65800 26.68300
C  1.20700 9.62500 29.43000
C  0.67700 4.87100 28.69600
C  0.48600 5.68700 23.97400
C  0.89100 10.52300 24.62800
N  1.03800 7.34200 28.83500
C  1.06800 8.24200 29.81700
C  1.12600 7.54600 31.30200
C  1.21600 6.02500 30.94800
C  0.97200 6.08100 29.41300
C  2.56800 5.29400 31.33500
C  -0.07900 8.00800 32.16200
C  0.32600 8.62600 33.46500
H  -0.45600 8.05300 34.66500
N  0.39500 5.51100 26.37800
C  0.47900 4.55900 27.34100
C  0.07800 3.25700 26.71800
C  -0.04200 3.53400 25.31200
C  0.30400 4.96500 25.17700
C  -0.18800 2.05400 27.58700
C  -0.42800 2.55400 24.22100
O  -0.50500 2.96100 23.03700
C  -0.65300 1.17200 24.51300
N  0.88500 8.04700 24.54400
C  0.78500 7.02600 23.64200
C  0.97500 7.66900 22.22900
C  0.54800 9.16800 22.47900
C  0.77400 9.29400 23.97800
C  2.48200 7.51000 21.64400
C  -1.01000 9.40600 22.19400
C  -1.27200 10.26700 21.00600
N  1.06000 9.67500 26.90200
C  1.14700 10.79100 25.98400
C  1.30400 12.03200 26.72900
C  1.30300 11.62300 28.01100
C  1.18200 10.17200 28.08700
C  1.38700 13.42600 26.07700
C  1.46000 12.09700 29.39900
O  1.69600 13.19500 29.81500
C  1.38900 10.78900 30.38200
C  2.48700 10.78400 31.40000
O  3.63900 10.38300 31.20800
O  1.97300 11.46500 32.45000
C  2.89400 11.49600 33.59800
H  0.53600 4.07300 29.42800
H  0.29300 5.11300 23.06600
H  0.83000 11.36700 23.93800
H  2.01900 7.98100 31.75100
H  0.52500 5.51700 31.62100
H  3.05700 5.09900 30.38100
H  2.37600 4.39500 31.92000
H  3.27000 5.96200 31.83400
H  -0.74200 7.14900 32.26600
H  -0.72000 8.72700 31.65200
H  -0.06400 9.64300 33.48700
H  1.38800 8.72000 33.68800
H  -1.12200 1.84900 27.06300
H  -0.38500 2.27500 28.63500
H  0.48200 1.20400 27.45800
H  -0.69900 0.63900 23.56300
H  -1.57900 1.09600 25.08100
H  0.20900 0.79700 25.06500
H  0.26800 7.15500 21.57900
H  1.20700 9.85400 21.94900
H  3.05000 7.47500 22.57400
H  2.63200 8.29600 20.90400
H  2.74200 6.49100 21.35800
H  -1.51400 9.71200 23.11000
H  -1.35100 8.42200 21.87100
H  -0.90200 11.23800 21.33500
H  -2.36000 10.32400 20.98700
H  -0.87200 9.91300 20.05600
H  1.16700 14.10000 26.90500
H  0.68000 13.54600 25.25600
H  2.41800 13.56300 25.75300
H  0.50700 10.85100 31.02000
H  2.29800 11.32500 34.49400
H  3.26300 12.51500 33.71200
H  3.66000 10.72100 33.59500
Mg -1.67700 33.91400 27.89500
C  -3.62400 32.10100 30.31700
C  -0.22700 35.73300 30.49600
C  -0.28200 35.90000 25.52600
C  -3.39700 32.05900 25.49700
N  -1.80500 33.84600 30.18100
C  -2.74000 33.11200 30.88700
C  -2.46600 33.25000 32.39900
C  -1.49600 34.50700 32.43200
C  -1.11700 34.75400 30.93900
C  -2.10500 35.76600 33.10400
C  -1.84200 31.95700 33.12400
C  -2.72000 31.36900 34.22400
H  -2.10200 31.33400 35.57400
N  -0.32500 35.48200 27.95100
C  0.09400 36.13100 29.13100
C  1.06100 37.15000 28.74000
C  0.97100 37.20400 27.24000
C  0.11300 36.15300 26.84000
C  1.87400 38.06800 29.66900
C  1.70700 38.21500 26.27300
O  1.50700 38.28100 25.05200
C  2.76000 39.22700 26.71500
N  -1.92000 34.08100 25.86500
C  -1.18300 34.90000 25.06100
C  -1.48100 34.69600 23.57400
C  -2.11600 33.24600 23.71200
C  -2.59100 33.16600 25.09500
C  -2.40800 35.76000 22.96700
C  -1.06100 32.09000 23.40500
C  -1.55900 30.82200 22.68100
N  -3.28900 32.41600 27.88800
C  -3.77700 31.68900 26.77900
C  -4.60100 30.56100 27.24000
C  -4.55000 30.71300 28.65600
C  -3.74000 31.81300 28.99000
C  -5.35300 29.64900 26.38000
C  -5.08800 30.26600 29.89700
O  -5.93100 29.41200 30.17000
C  -4.56700 31.16300 31.03200
C  -5.67100 31.85300 31.83700
O  -6.16100 32.90600 31.53600
O  -5.94300 31.17000 32.96800
C  -6.95200 31.63600 33.92300
H  0.31800 36.33600 31.22600
H  0.23100 36.52200 24.79000
H  -3.89800 31.51800 24.69200
H  -3.43400 33.45700 32.85600
H  -0.74000 34.15600 33.13500
H  -1.93300 36.67400 32.52500
H  -1.78600 35.85600 34.14200
H  -3.17700 35.57000 33.10400
H  -0.83300 32.07700 33.51800
H  -1.60400 31.19700 32.38000
H  -3.10400 30.36700 34.03500
H  -3.54200 32.08200 34.27400
H  2.89600 37.71400 29.80800
H  1.44300 38.04900 30.67000
H  1.89000 39.12400 29.40000
H  2.38000 39.91800 27.46800
H  2.98500 39.90400 25.89100
H  3.62300 38.74400 27.17400
H  -0.60900 34.86700 22.94300
H  -3.02600 33.18900 23.11400
H  -2.77000 36.44000 23.73900
H  -3.22000 35.22800 22.47100
H  -2.00400 36.47700 22.25200
H  -0.53400 31.84800 24.32800
H  -0.33900 32.53800 22.72100
H  -1.45300 29.96700 23.34900
H  -0.97300 30.65500 21.77800
H  -2.63900 30.88200 22.55000
H  -5.09700 28.73000 26.90700
H  -4.89500 29.58600 25.39300
H  -6.40000 29.95400 26.35200
H  -3.96100 30.54800 31.69700
H  -6.64700 32.56700 34.40200
H  -7.24000 30.96900 34.73500
H  -7.85600 31.85800 33.35600

