158

Mg 44.24500 4.43000 46.87500
C  42.51200 7.55800 46.63200
C  41.38400 2.83100 45.89100
C  46.15800 1.77900 46.14700
C  47.30800 6.31500 47.07400
N  42.19100 5.13400 46.17300
C  41.71600 6.43700 46.24000
C  40.19400 6.45200 45.89000
C  39.79400 4.94800 45.74700
C  41.17900 4.22900 46.00000
C  38.59400 4.43600 46.64900
C  39.71700 7.51700 44.78800
C  40.68800 7.60700 43.53800
H  39.98800 7.85900 42.19700
N  43.85200 2.52400 46.26200
C  42.56900 2.09600 45.87800
C  42.70700 0.70200 45.60200
C  44.05100 0.43800 45.42500
C  44.81000 1.62500 45.94800
C  41.59100 -0.21500 45.41300
C  44.57600 -0.82400 44.86300
O  43.80000 -1.76200 44.56600
C  46.04100 -1.18700 44.77600
N  46.37700 4.10500 46.74600
C  46.88900 2.86300 46.66200
C  48.45300 2.83900 46.76100
C  48.77600 4.35300 46.87500
C  47.39500 5.01500 46.89100
C  49.03500 2.00400 47.92900
C  49.70200 4.91900 45.75800
C  50.95900 5.52600 46.29100
N  44.81300 6.48100 46.87900
C  46.11300 7.09700 47.01000
C  45.95200 8.55800 47.06300
C  44.52700 8.75400 47.02900
C  43.92400 7.50300 46.89000
C  47.06500 9.50800 47.05200
C  43.53500 9.79300 46.96400
O  43.70900 11.01100 47.09700
C  42.13300 9.09500 46.86300
C  41.35900 9.19500 48.12700
O  41.54200 8.57200 49.14300
O  40.47200 10.16000 47.94900
C  39.57900 10.36300 49.07100
H  40.47800 2.38800 45.47400
H  46.84100 0.97300 45.86800
H  48.24100 6.87100 47.19600
H  39.81800 6.75700 46.86600
H  39.57100 4.73400 44.70200
H  39.01400 3.70800 47.34300
H  37.85200 4.04500 45.95300
H  38.14200 5.24500 47.22200
H  39.36400 8.43900 45.24900
H  38.75700 7.18300 44.39700
H  41.21700 6.65400 43.54500
H  41.38300 8.42200 43.74300
H  41.50100 -0.54300 44.37800
H  40.67800 0.32600 45.66300
H  41.59800 -1.09000 46.06300
H  46.24300 -2.21200 44.46700
H  46.30600 -1.05800 45.82500
H  46.42500 -0.45500 44.06500
H  48.89800 2.46400 45.84000
H  49.21800 4.36200 47.87100
H  49.93000 1.49800 47.56800
H  48.18200 1.41500 48.26700
H  49.29600 2.62000 48.79000
H  49.14600 5.71700 45.26600
H  49.90200 4.07500 45.09900
H  50.78500 5.99800 47.25900
H  51.19100 6.27200 45.53200
H  51.77600 4.80600 46.34400
H  46.71900 10.44100 46.60900
H  48.05700 9.28500 46.66000
H  47.25200 9.78300 48.09000
H  41.47300 9.50700 46.10000
H  40.14300 10.65700 49.95600
H  38.86400 9.54200 49.13500
H  39.01000 11.24500 48.77500
Mg 35.65300 49.02100 24.84300
C  35.90100 47.15400 27.72600
C  34.24300 51.63700 26.58400
C  34.83000 50.60600 21.90800
C  36.96900 46.26600 22.97300
N  34.99100 49.28300 26.92200
C  35.25200 48.36400 27.96300
C  34.94100 48.99000 29.38700
C  34.41000 50.43100 28.97700
C  34.60400 50.50900 27.44600
C  32.94000 50.58400 29.45000
C  36.12700 49.21200 30.31300
C  35.96300 49.14100 31.91500
H  34.66700 48.92800 32.62900
N  34.52000 50.85100 24.33500
C  34.16600 51.78100 25.20000
C  33.68900 52.92200 24.43500
C  33.84300 52.64200 23.06500
C  34.48300 51.32100 23.02800
C  33.18300 54.19200 25.09500
C  33.49600 53.49000 21.94700
O  33.97000 53.24600 20.85800
C  32.72300 54.82300 22.14400
N  35.89100 48.52400 22.76600
C  35.48800 49.37100 21.76300
C  35.76500 48.69600 20.33800
C  36.61400 47.41700 20.82400
C  36.46500 47.42500 22.27100
C  34.42000 48.42600 19.60500
C  38.14200 47.38300 20.31400
C  38.92400 48.72300 20.63100
N  36.25900 47.06300 25.20400
C  36.84600 46.08800 24.39400
C  37.16800 44.92900 25.23500
C  36.86100 45.40100 26.56600
C  36.26200 46.60600 26.46700
C  37.82300 43.62200 24.82100
C  36.94200 44.95600 27.95500
O  37.27200 43.89000 28.44300
C  36.28400 46.13300 28.77800
C  35.08300 45.64600 29.45000
O  34.05900 45.33800 28.89000
O  35.27900 45.35900 30.77700
C  34.22000 44.55400 31.44600
H  33.76000 52.50600 27.03500
H  34.79200 51.04300 20.90800
H  37.29600 45.41900 22.36600
H  34.18600 48.44600 29.95400
H  34.89500 51.29000 29.44100
H  32.38000 50.98500 28.60500
H  32.83200 51.44900 30.10400
H  32.42400 49.75900 29.94000
H  36.66700 50.11100 30.01500
H  36.93200 48.55900 29.97700
H  36.34700 50.05100 32.37500
H  36.67300 48.34600 32.14600
H  33.83500 55.00700 24.78300
H  33.13500 54.16400 26.18300
H  32.15700 54.36200 24.76800
H  31.85500 54.60000 22.76400
H  32.38100 55.20300 21.18200
H  33.37700 55.55300 22.62000
H  36.27700 49.36900 19.65100
H  36.20400 46.44500 20.55100
H  34.42500 48.82900 18.59200
H  33.61400 48.78100 20.24700
H  34.34900 47.34000 19.55000
H  38.01100 47.26700 19.23800
H  38.57000 46.48100 20.75100
H  39.86900 48.63000 21.16600
H  38.40200 49.45600 21.24500
H  39.26100 49.21600 19.71900
H  37.02700 42.88500 24.92200
H  38.63500 43.43100 25.52400
H  38.16900 43.59200 23.78800
H  36.90300 46.50300 29.59600
H  33.50500 45.11800 32.04500
H  34.69200 43.90100 32.17900
H  33.57000 44.02200 30.75000

