158

Mg 2.43700 -1.08000 44.61700
C  5.91000 -0.45600 44.20200
C  1.93900 1.50400 42.47000
C  -0.70200 -2.29000 43.88400
C  3.37700 -4.45100 45.72700
N  3.75800 0.34800 43.49400
C  5.13300 0.49100 43.43500
C  5.62900 1.58200 42.38600
C  4.27100 2.26000 42.01200
C  3.23300 1.31600 42.73700
C  4.12200 3.72400 42.45100
C  6.36700 0.87000 41.20700
C  7.90200 0.90700 41.19200
H  8.79300 1.38300 40.02000
N  0.72200 -0.29700 43.60400
C  0.74400 0.79300 42.75800
C  -0.52200 0.98800 42.26200
C  -1.37000 -0.04500 42.74900
C  -0.49300 -0.98100 43.42300
C  -0.95100 2.17800 41.46600
C  -2.88100 -0.09200 42.41600
O  -3.34400 0.80100 41.76400
C  -3.63700 -1.23900 43.02200
N  1.52700 -3.09400 44.69100
C  0.20400 -3.20300 44.41100
C  -0.23100 -4.63700 44.66400
C  1.07500 -5.38700 45.07300
C  2.06500 -4.24100 45.16700
C  -1.38100 -4.83800 45.71300
C  1.53900 -6.59400 44.30900
C  0.48400 -7.70400 44.03400
N  4.22400 -2.14600 45.20300
C  4.41000 -3.41000 45.72800
C  5.80000 -3.59400 46.05100
C  6.38400 -2.39000 45.53000
C  5.42900 -1.56000 44.95200
C  6.38000 -4.87900 46.67400
C  7.64700 -1.66800 45.35800
O  8.79100 -1.93700 45.76800
C  7.40300 -0.39400 44.50000
C  7.73800 0.80900 45.33400
O  7.39000 0.94800 46.46600
O  8.59500 1.62500 44.59700
C  8.86600 2.91400 45.28300
H  1.72500 2.42400 41.92200
H  -1.68900 -2.74900 43.79200
H  3.63200 -5.43600 46.12500
H  6.25400 2.34400 42.85100
H  4.03300 2.12800 40.95600
H  5.02300 4.08600 42.94600
H  3.36300 3.77100 43.23200
H  3.80200 4.18600 41.51700
H  6.00700 1.28900 40.26800
H  6.10600 -0.18800 41.22600
H  8.05400 -0.17200 41.19600
H  8.29000 1.39700 42.08500
H  -1.74200 1.97000 40.74600
H  -0.08500 2.56900 40.93300
H  -1.32100 3.00800 42.06900
H  -4.67200 -1.05100 42.73500
H  -3.39800 -1.33700 44.08100
H  -3.29600 -2.16700 42.56300
H  -0.59300 -5.06400 43.72800
H  1.02800 -5.60600 46.14000
H  -1.51000 -4.00200 46.40100
H  -1.17100 -5.65400 46.40400
H  -2.22700 -5.05400 45.06100
H  2.32400 -7.03500 44.92400
H  2.13900 -6.32300 43.44000
H  0.86200 -8.56200 44.59000
H  0.50700 -7.76100 42.94600
H  -0.53600 -7.54400 44.38400
H  5.82800 -5.24900 47.53700
H  7.40600 -4.60700 46.92300
H  6.39800 -5.67000 45.92400
H  8.02300 -0.49100 43.60900
H  9.72600 2.88500 45.95300
H  7.99700 3.32000 45.80000
H  9.17900 3.56000 44.46300
Mg 47.30600 24.73400 27.71600
C  48.18000 27.10900 30.24100
C  46.21500 22.65100 30.15900
C  46.81300 22.42100 25.31600
C  48.82200 26.86800 25.38400
N  47.15900 25.00600 29.94700
C  47.51500 26.01200 30.73200
C  47.23100 25.75900 32.26900
C  46.76800 24.25600 32.24500
C  46.69300 23.91800 30.65300
C  47.65100 23.27500 33.08400
C  46.18100 26.67800 32.86800
C  45.50500 26.12600 34.19000
H  45.56200 26.96600 35.47700
N  46.54700 22.72400 27.72500
C  46.15600 22.08900 28.85900
C  45.75200 20.73800 28.45000
C  45.80300 20.64500 27.00900
C  46.38800 21.98400 26.61000
C  45.49800 19.64400 29.46000
C  45.52400 19.55800 26.03000
O  45.66300 19.66200 24.83100
C  45.16100 18.26000 26.67300
N  47.89200 24.62700 25.74900
C  47.49200 23.60400 24.94500
C  47.94000 23.79200 23.52700
C  48.31300 25.26500 23.49900
C  48.44900 25.61000 24.98800
C  49.16200 22.83500 23.09200
C  47.30200 26.13200 22.74400
C  47.81100 26.97400 21.51100
N  48.36500 26.64300 27.70500
C  48.90500 27.29800 26.64000
C  49.38100 28.54100 27.21400
C  49.12200 28.54400 28.61900
C  48.60900 27.23600 28.86400
C  50.06600 29.66200 26.37000
C  49.38200 29.26900 29.82100
O  50.02800 30.26500 30.09800
C  48.73700 28.28300 30.90800
C  49.64300 28.03400 32.08000
O  50.66600 27.40700 32.07900
O  49.26500 28.88600 33.06900
C  49.95400 28.86900 34.36700
H  45.84800 21.89000 30.85200
H  46.60700 21.71700 24.50700
H  49.29500 27.51000 24.63800
H  48.17500 25.85800 32.80500
H  45.72900 24.07600 32.52300
H  48.48200 23.00100 32.43400
H  47.01500 22.45600 33.42200
H  48.08400 23.89900 33.86500
H  45.52600 27.14200 32.13100
H  46.72200 27.54900 33.23900
H  45.96800 25.16400 34.41300
H  44.43900 25.97600 34.01900
H  44.47700 19.35400 29.21100
H  45.31800 20.04000 30.46000
H  46.26100 18.87300 29.35600
H  44.10900 18.18400 26.94600
H  45.84700 17.98700 27.47500
H  45.35800 17.63100 25.80500
H  47.08800 23.61400 22.87100
H  49.32900 25.47900 23.16500
H  49.44000 22.18100 23.91900
H  49.96700 23.26900 22.50000
H  48.72500 22.08000 22.43900
H  46.91000 26.89600 23.41600
H  46.36800 25.59200 22.59200
H  47.69800 28.04700 21.66200
H  47.35900 26.73600 20.54800
H  48.89000 26.93500 21.35800
H  50.09700 30.55000 27.00200
H  49.42000 29.87500 25.51800
H  51.02700 29.30600 26.00100
H  47.93000 28.86900 31.34900
H  49.24700 28.70200 35.18000
H  50.25600 29.90000 34.55000
H  50.81100 28.19500 34.35700

