158

Mg 25.22300 0.38000 29.42700
C  27.10200 -0.33000 32.44500
C  22.41300 0.56100 31.32600
C  23.39200 0.38000 26.64000
C  28.12200 -0.40200 27.59100
N  24.87800 0.16500 31.66100
C  25.78100 0.00100 32.66700
C  25.11800 0.26800 34.04300
C  23.58000 0.39300 33.74300
C  23.60600 0.39100 32.15700
C  22.63600 -0.77000 34.35000
C  25.73800 1.46700 34.75800
C  26.54700 1.04200 36.01400
H  26.29700 1.89100 37.27100
N  23.15500 0.54200 29.08000
C  22.16100 0.61900 29.94900
C  20.88800 0.69200 29.27400
C  21.15100 0.62300 27.88200
C  22.67200 0.56200 27.82800
C  19.54300 0.66500 29.98500
C  20.21000 0.77000 26.77900
O  20.46600 0.64500 25.60500
C  18.79700 1.14400 27.12100
N  25.67000 -0.00400 27.45200
C  24.79000 0.16100 26.45200
C  25.45100 0.04200 25.04400
C  26.92600 0.05000 25.42800
C  26.87700 -0.10000 26.94800
C  24.89800 -1.24000 24.33700
C  27.76000 1.27700 24.87800
C  27.91900 2.47100 25.86000
N  27.26600 -0.12200 29.91400
C  28.30700 -0.44800 29.06400
C  29.47900 -0.90400 29.87300
C  29.08600 -0.77500 31.20200
C  27.72000 -0.31100 31.18200
C  30.91000 -1.20300 29.38300
C  29.47800 -1.02600 32.57400
O  30.57600 -1.43600 33.01300
C  28.30900 -0.61700 33.44000
C  28.08000 -1.77800 34.40700
O  27.14000 -2.58700 34.38900
O  28.96400 -1.60600 35.46500
C  28.80100 -2.51100 36.67500
H  21.57600 0.68100 32.01700
H  22.81800 0.58100 25.73300
H  28.96500 -0.61700 26.93100
H  25.15800 -0.60800 34.69100
H  23.37300 1.41400 34.06500
H  22.02000 -0.98400 33.47600
H  21.97200 -0.34700 35.10400
H  23.15700 -1.60600 34.81500
H  24.92200 2.09900 35.10900
H  26.38600 2.11300 34.16700
H  27.52500 1.43600 35.73800
H  26.59300 -0.03400 36.18200
H  18.96800 1.57000 29.79100
H  19.73100 0.54500 31.05200
H  19.01400 -0.21800 29.62600
H  18.16900 1.40000 26.26800
H  18.86400 2.02500 27.76000
H  18.35500 0.27600 27.60900
H  25.15900 0.98700 24.58500
H  27.34700 -0.89900 25.09700
H  24.24700 -1.74500 25.05100
H  25.68200 -1.95600 24.09000
H  24.32800 -0.84600 23.49600
H  27.34100 1.73800 23.98400
H  28.70800 0.91400 24.48100
H  27.38700 2.48400 26.81100
H  27.63700 3.40500 25.37300
H  29.00500 2.49900 25.94500
H  31.11300 -0.53600 28.54500
H  31.10100 -2.21600 29.02800
H  31.63000 -1.10700 30.19600
H  28.62500 0.20900 34.07700
H  28.15800 -2.00700 37.39500
H  29.72200 -2.75500 37.20500
H  28.26600 -3.41900 36.39500
Mg -0.91100 34.30100 26.55500
C  -2.59600 32.52900 29.21200
C  0.54400 36.27800 28.79600
C  -0.00200 36.26800 24.04000
C  -2.76600 32.30300 24.30700
N  -1.13700 34.33400 28.71500
C  -1.75600 33.57400 29.71200
C  -1.34100 33.96700 31.07800
C  -0.42100 35.21800 30.80300
C  -0.37500 35.33900 29.30600
C  -0.94200 36.54800 31.49700
C  -0.70800 32.81800 31.98900
C  -1.47700 32.47400 33.28400
H  -0.78000 32.27500 34.63800
N  0.33300 35.93500 26.37200
C  0.76900 36.68000 27.47100
C  1.67500 37.65100 27.00200
C  1.61600 37.66400 25.59200
C  0.61300 36.59300 25.29700
C  2.51800 38.52400 28.05400
C  2.36200 38.47600 24.58500
O  2.20200 38.31900 23.38900
C  3.39900 39.41000 25.05600
N  -1.37800 34.37100 24.53800
C  -0.88300 35.27200 23.67300
C  -1.21100 34.97500 22.21500
C  -1.77000 33.55100 22.34400
C  -2.03300 33.36500 23.84600
C  -2.25100 35.97600 21.52700
C  -0.82500 32.50400 21.74700
C  0.37400 32.04900 22.59000
N  -2.37600 32.70600 26.69300
C  -3.01300 32.00400 25.67000
C  -3.98800 31.11900 26.26400
C  -3.82100 31.23200 27.66700
C  -2.84300 32.21100 27.85700
C  -4.94700 30.30400 25.57300
C  -4.18700 30.70100 28.96700
O  -5.14300 29.94500 29.23500
C  -3.36900 31.48900 30.00200
C  -4.27100 32.08100 31.06900
O  -4.93500 33.09100 30.93900
O  -4.33800 31.21800 32.14700
C  -5.29200 31.49000 33.19700
H  1.23700 36.75000 29.49500
H  0.40000 36.85800 23.21400
H  -3.21900 31.65900 23.55100
H  -2.13600 34.40000 31.68500
H  0.59500 34.96000 31.10000
H  -1.47900 37.12500 30.74400
H  -0.02800 37.11800 31.66400
H  -1.56900 36.42400 32.38000
H  0.23400 33.22500 32.35700
H  -0.45600 31.88800 31.48000
H  -1.98100 31.51500 33.16100
H  -2.34100 33.13700 33.33100
H  3.58800 38.56200 27.84700
H  2.39200 38.27800 29.10800
H  2.17200 39.55300 27.95600
H  3.39700 40.26500 24.38000
H  4.36000 38.89600 25.08200
H  3.16300 39.79800 26.04600
H  -0.24500 34.92900 21.71300
H  -2.70100 33.49200 21.78000
H  -2.60300 36.69500 22.26700
H  -3.17700 35.47800 21.24100
H  -1.77100 36.32300 20.61200
H  -0.52200 32.74900 20.72900
H  -1.50500 31.65700 21.65400
H  0.00800 31.71000 23.55800
H  1.04400 32.87800 22.82200
H  0.85100 31.28300 21.97900
H  -5.69000 31.00500 25.19300
H  -5.41300 29.50800 26.15400
H  -4.46100 29.93200 24.67100
H  -2.74200 30.71500 30.44500
H  -4.79600 31.46800 34.16700
H  -5.97000 30.63900 33.11900
H  -5.98200 32.33300 33.17100

