158

Mg 2.19200 -1.43000 44.14600
C  5.50900 -0.53500 43.36100
C  1.14000 1.35900 42.31300
C  -0.86400 -2.70100 44.17500
C  3.49800 -4.48000 45.55900
N  3.20800 0.19100 42.94900
C  4.53600 0.39500 42.83000
C  4.90800 1.63000 41.95100
C  3.44000 2.39200 41.84100
C  2.56300 1.25100 42.39900
C  3.39900 3.75800 42.51300
C  5.60400 1.16200 40.60700
C  6.69000 2.11700 40.11400
H  6.49600 2.94600 38.83000
N  0.39000 -0.71200 43.52600
C  0.14300 0.44200 42.77000
C  -1.23800 0.62900 42.59700
C  -1.87700 -0.42800 43.29000
C  -0.79000 -1.38500 43.72100
C  -1.94800 1.85100 41.90700
C  -3.34100 -0.59100 43.51500
O  -4.19300 0.19200 43.12200
C  -3.84500 -1.82300 44.19600
N  1.40200 -3.35300 44.81600
C  0.08500 -3.57800 44.64400
C  -0.25900 -5.05200 44.94900
C  1.11500 -5.48000 45.74200
C  2.06600 -4.41600 45.36300
C  -1.52200 -5.30400 45.79800
C  1.65300 -6.92700 45.39200
C  1.68100 -7.89000 46.58400
N  4.08500 -2.32300 44.47800
C  4.47200 -3.56900 45.03900
C  5.92400 -3.73500 45.00400
C  6.32600 -2.51300 44.49100
C  5.20700 -1.79100 44.08900
C  6.74600 -4.97400 45.41900
C  7.48200 -1.73700 44.10400
O  8.63100 -2.13800 44.22100
C  7.02700 -0.43700 43.43000
C  7.47800 0.78000 44.09200
O  6.98700 1.27700 45.08700
O  8.44000 1.45300 43.30000
C  8.75600 2.83200 43.62600
H  0.82800 2.22900 41.73000
H  -1.81600 -3.19800 43.97700
H  3.85000 -5.42200 45.98500
H  5.61800 2.14500 42.59700
H  3.23300 2.52000 40.77800
H  2.47000 3.89500 43.06600
H  3.32300 4.52700 41.74400
H  4.23600 4.06800 43.13800
H  4.82700 1.01300 39.85800
H  6.06400 0.18200 40.73500
H  7.53200 1.44100 39.96300
H  7.07700 2.72500 40.93200
H  -1.46100 2.42800 41.12000
H  -2.39800 2.39200 42.73900
H  -2.80000 1.43100 41.37200
H  -4.78400 -1.54600 44.67500
H  -3.19500 -2.12100 45.01900
H  -3.97700 -2.65300 43.50200
H  -0.17100 -5.64900 44.04200
H  0.92000 -5.27500 46.79400
H  -1.19900 -5.65500 46.77800
H  -2.18100 -5.98300 45.25700
H  -2.03700 -4.36600 46.00900
H  2.59000 -7.05700 44.85100
H  0.82400 -7.28600 44.78200
H  0.82500 -8.55900 46.48400
H  1.40900 -7.33700 47.48200
H  2.68300 -8.31400 46.63300
H  6.63000 -5.57000 44.51300
H  6.26900 -5.42600 46.28900
H  7.78600 -4.71700 45.61900
H  7.54100 -0.55300 42.47500
H  8.06800 3.52600 43.14300
H  9.76800 3.06400 43.29500
H  8.80500 2.99800 44.70200
Mg 41.42500 8.82600 29.16000
C  43.15200 9.77900 32.12200
C  38.83500 7.54200 31.04900
C  40.15700 7.60200 26.31000
C  44.44100 9.83300 27.37900
N  41.02700 8.65800 31.32900
C  41.83200 9.21300 32.32400
C  41.04000 9.03800 33.65300
C  39.90800 8.02600 33.33700
C  39.85900 8.07700 31.79200
C  40.18600 6.58000 33.72100
C  40.75500 10.46100 34.19000
C  40.10900 10.55100 35.62900
H  40.90500 11.31800 36.70400
N  39.73700 7.73000 28.76400
C  38.72900 7.32900 29.62100
C  37.67200 6.67600 28.89600
C  37.93400 6.84800 27.53900
C  39.33100 7.38500 27.50000
C  36.42500 6.15500 29.68300
C  37.07300 6.47900 26.28800
O  37.60500 6.49800 25.18500
C  35.62400 6.03800 26.44600
N  42.28100 8.50800 27.21200
C  41.49900 8.05200 26.19700
C  42.25900 8.13300 24.77000
C  43.55500 8.96700 25.13900
C  43.42100 9.07000 26.71300
C  42.49000 6.69400 24.16900
C  43.46300 10.35900 24.43300
C  42.59500 11.45300 25.05700
N  43.43100 9.62500 29.59200
C  44.48200 10.02400 28.75200
C  45.52700 10.62300 29.57900
C  45.04900 10.51700 30.88900
C  43.77000 9.94300 30.86100
C  46.73200 11.25400 29.05100
C  45.45000 10.75900 32.25500
O  46.44200 11.22600 32.78600
C  44.16100 10.32600 33.10600
C  44.47300 9.37500 34.20400
O  44.96900 8.23900 34.05100
O  43.95400 9.85300 35.36300
C  44.02000 8.97600 36.56500
H  38.16700 6.94900 31.67700
H  39.80200 7.10700 25.40300
H  45.30200 10.17500 26.80100
H  41.78600 8.56500 34.29100
H  39.06300 8.31700 33.96100
H  40.18300 5.83200 32.92800
H  39.37200 6.33500 34.40200
H  41.08800 6.56200 34.33300
H  39.98200 10.83900 33.52000
H  41.64500 11.09000 34.17800
H  40.10100 9.54800 36.05700
H  39.08700 10.92000 35.54800
H  36.51800 6.18300 30.76900
H  36.09500 5.21200 29.24800
H  35.64100 6.82200 29.32500
H  35.30800 5.36600 25.64800
H  35.04700 6.96200 26.48400
H  35.45600 5.48500 27.37000
H  41.66700 8.68500 24.04000
H  44.52800 8.53700 24.90300
H  42.09800 5.96200 24.87500
H  43.52900 6.40600 24.00800
H  42.12800 6.55100 23.15100
H  43.09800 10.16700 23.42400
H  44.46300 10.79300 24.42800
H  41.76300 11.48200 24.35400
H  43.07300 12.43200 25.03100
H  42.17100 11.26900 26.04400
H  47.29100 11.73700 29.85200
H  46.40400 11.95300 28.28200
H  47.27400 10.45400 28.54500
H  43.97300 11.27500 33.60800
H  43.29600 9.28800 37.31800
H  45.03100 8.92600 36.96800
H  43.74000 7.94400 36.35300

