158

Mg 48.34100 14.67800 28.03400
C  46.52000 14.96700 31.08300
C  50.63900 16.75200 29.43200
C  50.17500 14.38000 25.19000
C  45.77400 12.82000 26.76900
N  48.57700 15.72600 29.97000
C  47.74700 15.68900 31.08000
C  48.26900 16.39600 32.31700
C  49.35100 17.24000 31.63400
C  49.58400 16.53900 30.31700
C  48.89600 18.74800 31.37000
C  48.68200 15.40600 33.45600
C  47.94100 15.58800 34.78000
H  48.68400 15.39100 36.09400
N  50.19600 15.33500 27.49100
C  51.01500 16.18000 28.16900
C  52.31100 16.35500 27.45800
C  52.12100 15.78500 26.18300
C  50.75100 15.13400 26.23000
C  53.46900 17.11500 28.05800
C  53.07100 15.65100 24.93800
O  52.90000 14.93200 23.98100
C  54.30500 16.50800 24.96300
N  47.91900 13.83100 26.20800
C  48.86600 13.78400 25.16100
C  48.30600 13.01800 23.93500
C  47.00000 12.41400 24.53700
C  46.85700 13.04400 25.90000
C  48.13900 13.92800 22.63900
C  47.01300 10.84500 24.48600
C  48.18300 10.14600 25.17700
N  46.52800 14.06600 28.69300
C  45.58200 13.26400 28.04500
C  44.39800 13.10600 28.91700
C  44.72700 13.67800 30.09100
C  46.01600 14.23700 29.95300
C  43.31600 12.19500 28.60000
C  44.27200 13.94200 31.51100
O  43.26500 13.53100 32.13900
C  45.50600 14.68600 32.23900
C  44.80600 15.84900 32.79600
O  44.64200 16.90400 32.23900
O  44.53000 15.62300 34.09900
C  44.05700 16.84700 34.76400
H  51.34300 17.45100 29.88700
H  50.53400 14.38900 24.15800
H  44.99800 12.19600 26.32000
H  47.48600 17.02600 32.73900
H  50.29400 17.16300 32.17700
H  48.53300 18.75300 30.34200
H  49.74800 19.41100 31.51200
H  48.11400 19.06700 32.05900
H  49.76600 15.49700 33.53000
H  48.47100 14.34800 33.29800
H  47.19200 14.81800 34.96700
H  47.37000 16.51600 34.77900
H  53.36000 18.19800 28.11800
H  54.43900 16.89800 27.61100
H  53.45200 16.82800 29.10900
H  54.88600 16.54400 24.04100
H  54.99500 16.04400 25.66700
H  54.01800 17.53800 25.17600
H  48.98300 12.18100 23.76300
H  46.10400 12.61800 23.95100
H  48.51700 13.41800 21.75300
H  48.72000 14.84600 22.72500
H  47.10800 14.22800 22.45100
H  46.91900 10.54200 23.44300
H  46.09800 10.54300 24.99500
H  47.93900 9.47800 26.00300
H  48.88800 10.75700 25.74100
H  48.87600 9.72500 24.44900
H  42.73400 11.85500 29.45600
H  43.58000 11.28800 28.05600
H  42.66700 12.83200 27.99900
H  45.86900 14.02400 33.02500
H  43.29400 17.35200 34.17200
H  44.82500 17.61900 34.70500
H  43.77900 16.79600 35.81700
Mg 47.00000 34.15200 27.51800
C  45.48700 32.41600 30.02400
C  47.39700 36.91500 29.74200
C  48.01300 35.93300 24.99800
C  46.48200 31.46500 25.33700
N  46.53900 34.58900 29.64000
C  46.00900 33.66100 30.50500
C  46.11100 34.23700 31.96900
C  46.35700 35.79900 31.70300
C  46.79500 35.77700 30.22100
C  45.21000 36.70500 32.00400
C  47.26700 33.58100 32.69800
C  47.37500 33.76300 34.29900
H  46.38600 34.80600 34.92300
N  47.60400 36.16800 27.44700
C  47.71100 37.12100 28.41400
C  48.26200 38.29900 27.79000
C  48.41400 38.08800 26.39500
C  48.01200 36.70300 26.23900
C  48.61200 39.46100 28.60900
C  48.93800 39.07200 25.35700
O  48.98100 38.81200 24.14200
C  49.25300 40.54300 25.73800
N  47.19900 33.65500 25.45600
C  47.61700 34.65800 24.67600
C  47.89900 34.15900 23.18300
C  47.54800 32.73400 23.26900
C  47.05500 32.57500 24.78300
C  46.98000 34.91300 22.10000
C  48.66400 31.64500 22.91700
C  48.16100 30.24000 22.58200
N  46.14900 32.32800 27.65300
C  46.01700 31.30700 26.71700
C  45.38500 30.15500 27.28800
C  45.12700 30.57500 28.62300
C  45.60100 31.89300 28.73900
C  45.19700 28.79200 26.71100
C  44.62600 30.11100 29.90000
O  44.28100 29.01200 30.33900
C  44.56000 31.47800 30.71800
C  44.77700 31.16700 32.24500
O  45.80500 30.72600 32.79300
O  43.64400 31.53500 32.82900
C  43.53200 31.34900 34.22000
H  47.57200 37.68300 30.49900
H  48.42600 36.42100 24.11300
H  46.34300 30.55900 24.74300
H  45.18700 33.97600 32.48400
H  47.16800 36.07800 32.37600
H  45.35200 37.11900 33.00200
H  44.26100 36.19800 31.82900
H  45.22000 37.57300 31.34400
H  48.08000 34.15100 32.24900
H  47.35300 32.51600 32.48300
H  48.40600 34.04600 34.51200
H  47.05900 32.85900 34.82000
H  48.29600 40.43300 28.23100
H  49.69600 39.49800 28.71600
H  48.15900 39.51500 29.59900
H  48.34900 40.91500 26.22000
H  49.33600 41.06400 24.78400
H  50.17200 40.73200 26.29300
H  48.92100 34.40700 22.89600
H  46.73600 32.43700 22.60500
H  47.59000 35.42700 21.35800
H  46.40700 35.73800 22.52400
H  46.32900 34.23700 21.54500
H  49.28200 31.52400 23.80600
H  49.35500 32.15400 22.24500
H  48.71700 29.49500 23.15100
H  48.40800 29.97600 21.55400
H  47.08000 30.13300 22.66900
H  46.06700 28.16700 26.91300
H  45.09900 28.88800 25.62900
H  44.22600 28.34800 26.93200
H  43.55100 31.87600 30.62100
H  42.60400 30.80200 34.38400
H  43.47000 32.31500 34.72200
H  44.32400 30.73800 34.65300

