158

Mg -2.12500 17.60300 25.68300
C  -2.39300 15.20800 28.43000
C  -2.56700 20.02100 27.94500
C  -1.87200 19.71300 23.19300
C  -1.94900 14.82200 23.51900
N  -2.45400 17.52900 27.93100
C  -2.52900 16.51900 28.91800
C  -2.97100 16.98600 30.28200
C  -3.05200 18.54100 29.99000
C  -2.63000 18.72800 28.56300
C  -4.47300 19.25500 30.33500
C  -2.14100 16.52100 31.59100
C  -2.95100 16.09800 32.82300
H  -2.25300 15.28300 33.99900
N  -2.15400 19.62400 25.57800
C  -2.37500 20.42400 26.60400
C  -2.37700 21.79200 26.16800
C  -2.25000 21.75100 24.74100
C  -2.09600 20.34500 24.41700
C  -2.61500 22.91900 26.97400
C  -2.32900 22.86600 23.67900
O  -2.38500 22.64200 22.47500
C  -2.24600 24.27200 24.12300
N  -1.83200 17.26000 23.66500
C  -1.69300 18.30600 22.84100
C  -1.50200 17.80900 21.37000
C  -1.35900 16.23700 21.54300
C  -1.66800 16.06700 23.01000
C  -2.60100 18.29600 20.40600
C  0.05800 15.68500 21.22800
C  -0.00800 14.39100 20.42800
N  -2.18500 15.45200 25.82600
C  -2.16600 14.46700 24.86600
C  -2.50500 13.17600 25.47700
C  -2.50800 13.43600 26.87300
C  -2.33900 14.81400 27.03200
C  -2.74700 11.88700 24.77600
C  -2.50500 12.82500 28.19800
O  -2.57500 11.64400 28.48600
C  -2.36900 13.91600 29.20500
C  -1.17400 13.66000 29.96600
O  -0.06900 14.07600 29.66400
O  -1.41700 12.86700 31.07000
C  -0.29300 12.56700 31.85300
H  -2.88800 20.86300 28.56200
H  -1.76800 20.33000 22.29800
H  -1.81700 14.11300 22.69900
H  -3.98000 16.66500 30.54100
H  -2.26700 19.07700 30.52500
H  -4.37800 19.87100 31.22900
H  -5.26200 18.53300 30.54500
H  -4.80600 19.79100 29.44700
H  -1.68200 17.46100 31.89700
H  -1.40700 15.76300 31.31800
H  -3.80800 15.52500 32.46800
H  -3.26900 17.02100 33.30700
H  -3.47400 23.37700 26.48300
H  -1.71800 23.51800 27.12600
H  -3.04900 22.58100 27.91500
H  -1.33900 24.32700 24.72600
H  -3.11800 24.69600 24.62000
H  -2.07700 24.88800 23.24000
H  -0.59900 18.28700 20.98900
H  -2.18100 15.80300 20.97300
H  -2.23600 19.21400 19.94400
H  -3.48900 18.49300 21.00700
H  -2.80200 17.59100 19.60000
H  0.59200 15.30900 22.10100
H  0.73900 16.43600 20.82600
H  0.36400 14.55600 19.41600
H  -1.03300 14.02100 20.40700
H  0.64600 13.67800 20.93200
H  -2.31800 11.98300 23.77800
H  -3.82400 11.72800 24.82100
H  -2.17800 11.10600 25.27900
H  -3.20500 13.93400 29.90500
H  -0.64700 11.78100 32.52000
H  -0.02700 13.41900 32.48000
H  0.46700 11.98700 31.32900
Mg 6.32200 54.12400 40.83100
C  6.12300 50.49800 40.72900
C  9.65700 53.83500 40.00800
C  6.30500 57.42600 40.54600
C  2.75700 54.03300 40.83500
N  7.64600 52.35100 40.29200
C  7.42600 50.97800 40.33800
C  8.65700 50.20200 39.97800
C  9.74900 51.23400 40.20100
C  9.01400 52.54900 40.21600
C  10.61200 51.01200 41.48600
C  8.70100 49.41300 38.64700
C  8.80300 50.27800 37.25800
H  7.55000 50.29200 36.38300
N  7.78000 55.39400 40.32100
C  9.13900 55.08600 40.05600
C  9.86000 56.31300 39.84800
C  8.89300 57.37500 40.18300
C  7.60100 56.75500 40.37800
C  11.38800 56.44100 39.56400
C  9.17200 58.84600 40.13700
O  10.32500 59.18100 39.90800
C  8.07600 59.98100 40.31800
N  4.75900 55.50200 40.64400
C  5.03900 56.86700 40.67100
C  3.83000 57.66700 41.07100
C  2.66200 56.53000 40.76900
C  3.46300 55.26900 40.66100
C  3.83600 58.07900 42.60200
C  2.02700 56.82300 39.32100
C  0.55500 57.35200 39.38900
N  4.68100 52.63000 40.97700
C  3.33300 52.77000 40.97800
C  2.69200 51.47500 41.21700
C  3.85600 50.59400 41.14000
C  5.01600 51.34000 40.99800
C  1.22600 51.24000 41.27200
C  4.24100 49.19000 41.23600
O  3.56400 48.19400 41.49300
C  5.70600 49.06600 40.90500
C  5.65300 48.26100 39.69200
O  5.25600 48.70300 38.59700
O  6.06600 47.03900 39.97900
C  5.85900 46.01900 38.93700
H  10.73300 53.65300 39.95600
H  6.17800 58.49600 40.72300
H  1.68500 54.12700 41.02100
H  8.66500 49.51700 40.82600
H  10.47800 51.19300 39.39200
H  11.64600 51.18800 41.19300
H  10.68500 49.99000 41.86000
H  10.30100 51.61300 42.34100
H  7.74800 48.89900 38.52000
H  9.55400 48.73600 38.60900
H  9.65300 49.89900 36.69000
H  8.98300 51.28900 37.62300
H  11.63500 56.90200 38.60800
H  11.87500 55.47500 39.69900
H  11.62900 57.08900 40.40700
H  7.24000 59.90300 39.62300
H  8.70400 60.85100 40.12500
H  7.83100 59.99400 41.38000
H  3.74600 58.55700 40.44800
H  1.90600 56.48300 41.55300
H  3.18900 57.46300 43.22600
H  3.63800 59.15100 42.57700
H  4.88300 57.95400 42.87700
H  2.06200 55.86600 38.80000
H  2.61100 57.50600 38.70500
H  0.38500 58.33100 39.83700
H  -0.11400 56.67400 39.92000
H  0.16800 57.41300 38.37200
H  1.08200 50.60400 40.39900
H  0.70500 52.19600 41.33200
H  0.98900 50.73800 42.20900
H  6.30700 48.59300 41.68200
H  6.60400 45.26600 39.19400
H  6.20400 46.46100 38.00200
H  4.80400 45.75000 38.98600

