158

Mg 47.42900 25.40700 28.69500
C  48.34600 27.54800 31.06500
C  46.49500 23.04500 31.08300
C  46.87400 23.12100 26.28100
C  49.07400 27.39700 26.18600
N  47.49200 25.28500 30.75400
C  47.77200 26.39700 31.53200
C  47.40700 26.17700 33.02900
C  47.07100 24.65100 32.94400
C  46.93100 24.31400 31.47100
C  48.05100 23.74600 33.74900
C  46.26600 27.09000 33.59500
C  45.75600 26.83800 35.03700
H  45.46000 27.85600 36.11600
N  46.61800 23.39200 28.68100
C  46.25400 22.62700 29.76600
C  45.92000 21.33400 29.30600
C  45.81200 21.43200 27.91800
C  46.45600 22.71000 27.55300
C  45.57700 20.20100 30.21700
C  45.28600 20.38100 26.96500
O  45.28900 20.56700 25.74900
C  44.48300 19.17200 27.56900
N  47.87000 25.30100 26.51200
C  47.41600 24.30700 25.76800
C  47.56100 24.51400 24.22900
C  48.14600 25.93300 24.25200
C  48.40700 26.28100 25.73400
C  48.43600 23.46600 23.42200
C  47.02800 26.92400 23.72000
C  47.64700 28.29900 23.18800
N  48.62800 27.02400 28.63900
C  49.22700 27.78600 27.54200
C  49.77900 28.94100 28.08600
C  49.50400 28.97200 29.49400
C  48.77600 27.74100 29.76300
C  50.67400 29.91100 27.30600
C  49.65800 29.68500 30.70300
O  50.27700 30.69300 30.95400
C  48.79200 28.85500 31.75600
C  49.60200 28.81300 32.99800
O  50.69700 28.26200 33.06400
O  48.94000 29.36800 34.07300
C  49.65500 29.43700 35.40100
H  46.19100 22.32000 31.84100
H  46.69500 22.39700 25.48400
H  49.33800 28.16100 25.45200
H  48.36300 26.36200 33.52000
H  46.17000 24.52300 33.54300
H  47.61300 23.48900 34.71400
H  48.96400 24.32700 33.88500
H  48.15800 22.83400 33.16300
H  45.45300 26.89700 32.89500
H  46.66900 28.10200 33.57800
H  46.48800 26.17100 35.49200
H  44.82400 26.31700 34.81700
H  46.00900 19.27700 29.83200
H  44.50000 20.03300 30.21900
H  46.01700 20.30300 31.20900
H  43.91500 18.55700 26.87100
H  43.76600 19.58700 28.27700
H  45.12800 18.41800 28.02000
H  46.60100 24.48000 23.71400
H  49.10600 26.01300 23.74100
H  49.24100 23.99300 22.90800
H  47.79000 23.00800 22.67300
H  48.84300 22.70200 24.08400
H  46.39600 27.15600 24.57700
H  46.46600 26.45700 22.91100
H  47.31700 28.39900 22.15400
H  48.72500 28.18500 23.07500
H  47.18900 29.13500 23.71700
H  51.53300 29.39900 26.87400
H  51.22900 30.38200 28.11700
H  50.14900 30.66100 26.71600
H  47.90800 29.46400 31.94900
H  50.06400 30.40400 35.69200
H  50.42000 28.66200 35.44000
H  48.89400 29.09500 36.10300
Mg -2.19100 35.05000 26.95200
C  -3.59900 33.18200 29.66200
C  -1.12700 37.32400 29.49000
C  -1.07200 37.06500 24.59200
C  -3.77500 33.07600 24.67500
N  -2.31700 35.18300 29.32300
C  -2.88500 34.29400 30.19000
C  -2.74400 34.80600 31.69000
C  -2.05900 36.22900 31.52200
C  -1.85700 36.30900 30.04100
C  -2.79100 37.49800 32.17500
C  -2.01500 33.77600 32.61500
C  -2.85200 33.37900 33.81200
H  -2.10600 32.78400 35.02400
N  -1.09800 36.86200 27.08000
C  -0.78000 37.59200 28.15100
C  0.17200 38.60200 27.71700
C  0.19100 38.59800 26.26700
C  -0.71200 37.55300 25.89000
C  0.94500 39.45500 28.64900
C  0.92500 39.41900 25.22600
O  0.65600 39.38800 24.03600
C  2.08800 40.37900 25.65300
N  -2.41500 35.03900 24.90700
C  -1.89200 35.99500 24.15400
C  -2.01200 35.61800 22.65000
C  -2.83700 34.38300 22.68300
C  -2.97500 34.08100 24.19800
C  -2.51600 36.69500 21.65000
C  -2.42000 33.22000 21.79900
C  -1.68700 32.04600 22.40000
N  -3.54000 33.52400 27.09200
C  -4.03400 32.73300 26.03300
C  -4.94800 31.75700 26.50800
C  -4.70600 31.89100 27.93100
C  -3.85900 32.90200 28.24600
C  -5.76400 30.87000 25.69200
C  -5.05000 31.23600 29.25900
O  -5.68800 30.24900 29.55900
C  -4.33900 32.14800 30.33800
C  -5.35300 32.64300 31.28500
O  -6.00000 33.69400 31.14400
O  -5.58500 31.76400 32.30400
C  -6.63400 32.15700 33.25700
H  -0.87800 38.11000 30.20600
H  -0.68700 37.67100 23.76900
H  -4.27100 32.39200 23.98400
H  -3.74600 34.84000 32.11900
H  -1.03400 36.35300 31.87400
H  -3.25500 38.06000 31.36500
H  -2.00300 38.16700 32.52200
H  -3.47900 37.26700 32.98900
H  -1.04800 34.18500 32.90800
H  -1.88500 32.90100 31.97700
H  -3.57200 32.62200 33.50300
H  -3.43900 34.22200 34.17800
H  0.84800 39.32400 29.72700
H  0.50700 40.44200 28.50400
H  2.00400 39.55200 28.41300
H  3.01400 39.88200 25.94300
H  1.75800 41.12200 26.37900
H  2.40500 40.88900 24.74400
H  -0.99600 35.34800 22.36300
H  -3.79000 34.65500 22.22900
H  -2.75100 37.57500 22.25000
H  -3.36700 36.32800 21.07700
H  -1.72700 36.87500 20.92100
H  -1.81400 33.44100 20.92000
H  -3.38200 32.87100 21.42100
H  -0.90300 31.79000 21.68600
H  -2.36800 31.21600 22.58500
H  -1.15200 32.26200 23.32500
H  -6.41300 31.33300 24.94900
H  -6.49100 30.34500 26.31200
H  -5.15900 30.02700 25.35900
H  -3.58700 31.59700 30.90100
H  -7.62400 32.45400 32.90900
H  -6.38200 33.08000 33.77900
H  -6.67200 31.38600 34.02600

