158

Mg -1.30900 17.67800 27.20900
C  -2.04200 15.44800 29.91400
C  -2.08800 20.30700 29.23400
C  -1.20000 19.68200 24.52100
C  -1.12200 14.80200 25.18300
N  -1.99000 17.84300 29.35300
C  -2.09000 16.83400 30.28300
C  -2.30300 17.43400 31.63000
C  -2.54800 18.96100 31.44300
C  -2.17100 19.06700 29.86700
C  -3.94300 19.54100 31.78300
C  -1.17700 17.11400 32.67100
C  -1.55800 16.60500 34.07600
H  -0.39200 16.74200 35.09200
N  -1.53600 19.73000 26.91900
C  -1.74800 20.62100 27.89500
C  -1.79900 21.97900 27.33500
C  -1.44200 21.84800 25.98300
C  -1.41300 20.34300 25.73800
C  -2.17200 23.23900 28.05800
C  -1.32200 22.85500 24.82700
O  -1.01100 22.62000 23.64200
C  -1.46400 24.31100 25.19800
N  -1.09600 17.33700 25.17000
C  -1.06500 18.29400 24.26600
C  -0.81400 17.77900 22.83600
C  -0.47800 16.28200 23.15000
C  -0.87500 16.10800 24.59100
C  -2.02400 18.01200 21.90500
C  1.01900 15.85600 22.84200
C  1.98900 16.55800 23.75800
N  -1.52900 15.60500 27.45100
C  -1.50800 14.55700 26.52900
C  -1.77000 13.28100 27.16200
C  -2.01200 13.61100 28.47500
C  -1.89100 15.04600 28.59300
C  -1.78700 11.96200 26.42300
C  -2.33600 13.05600 29.71700
O  -2.46300 11.82000 29.98800
C  -2.52700 14.25400 30.68200
C  -1.61100 13.88500 31.86600
O  -0.35500 13.86700 31.88500
O  -2.36200 13.37600 32.83900
C  -1.61300 12.39300 33.71500
H  -2.17400 21.13300 29.94300
H  -1.19200 20.36100 23.66500
H  -1.06500 13.97600 24.47100
H  -3.21400 17.04400 32.08400
H  -1.86100 19.52500 32.07400
H  -4.70900 18.82300 32.07500
H  -4.27400 19.96100 30.83300
H  -3.79300 20.28200 32.56800
H  -0.48500 17.93600 32.85500
H  -0.55000 16.41700 32.11500
H  -1.82700 15.54900 34.04700
H  -2.37500 17.29400 34.28600
H  -1.18900 23.66100 28.26400
H  -2.80500 23.04500 28.92400
H  -2.73100 23.95700 27.45700
H  -2.51100 24.60800 25.26000
H  -1.08500 24.95300 24.40300
H  -0.85900 24.32100 26.10500
H  -0.04900 18.47400 22.48800
H  -1.11300 15.57100 22.62200
H  -1.65800 17.95900 20.87900
H  -2.44200 18.98400 22.16300
H  -2.70800 17.16300 21.90600
H  1.15100 16.16900 21.80700
H  1.15200 14.78000 22.95500
H  1.53800 17.06200 24.61300
H  2.49300 17.29300 23.13100
H  2.76000 15.90400 24.16400
H  -0.86500 11.41500 26.61800
H  -1.93400 12.25300 25.38300
H  -2.67400 11.37500 26.65900
H  -3.60400 14.31700 30.83600
H  -1.28600 11.49200 33.19600
H  -2.26500 11.94300 34.46400
H  -0.75400 12.84700 34.20800
Mg 9.57100 48.44500 25.99000
C  7.11100 48.99400 28.36200
C  11.95300 49.47100 28.22300
C  11.85900 47.96800 23.68200
C  7.05500 48.22800 23.54300
N  9.54500 49.08100 28.08100
C  8.41800 49.07600 28.90100
C  8.85500 49.31800 30.37100
C  10.28200 49.95100 30.11300
C  10.62900 49.46100 28.73100
C  10.45500 51.49200 30.25400
C  8.79300 47.97300 31.10400
C  9.45200 47.82400 32.42800
H  8.64300 47.36600 33.69200
N  11.66200 48.58700 25.96700
C  12.46900 49.09900 26.93900
C  13.87700 49.11300 26.50000
C  13.80300 48.58600 25.13800
C  12.40000 48.28900 24.91800
C  15.12700 49.41600 27.31700
C  14.92400 48.23400 24.16300
O  14.84100 47.64200 23.12800
C  16.34600 48.69900 24.53400
N  9.46900 48.25600 23.95500
C  10.56300 47.93800 23.20700
C  10.29300 47.57700 21.72800
C  8.73200 47.83500 21.64200
C  8.34400 48.07900 23.13200
C  11.02600 48.31700 20.68100
C  7.97900 46.75300 20.81700
C  7.19800 47.10600 19.64800
N  7.48400 48.38600 25.94200
C  6.60500 48.33600 24.89300
C  5.25500 48.34800 25.37600
C  5.43000 48.58500 26.74900
C  6.80400 48.66000 27.01500
C  4.04200 48.06100 24.50100
C  4.65400 48.78400 27.99800
O  3.47800 48.80000 28.17300
C  5.71500 49.25700 29.03500
C  5.57700 48.42000 30.24800
O  5.29300 47.26200 30.26900
O  5.36100 49.21800 31.27600
C  4.83900 48.70300 32.60600
H  12.70000 49.83900 28.93000
H  12.57800 47.75900 22.88700
H  6.32500 48.04400 22.75200
H  8.19400 50.03100 30.86400
H  10.87200 49.53700 30.93000
H  9.62200 52.04000 30.69300
H  10.48200 51.84400 29.22300
H  11.32800 51.69000 30.87500
H  9.21500 47.28300 30.37400
H  7.78000 47.60500 31.26500
H  9.94600 48.72500 32.79200
H  10.25600 47.09800 32.31000
H  15.82000 50.05900 26.77300
H  15.61400 48.46700 27.54100
H  14.88000 49.92300 28.25000
H  16.67400 48.28200 25.48600
H  16.39800 49.78800 24.53900
H  17.06400 48.30400 23.81400
H  10.60700 46.53400 21.68800
H  8.63000 48.77900 21.10500
H  12.10200 48.21400 20.82100
H  10.89700 49.38900 20.83600
H  10.64400 48.03400 19.70100
H  7.24000 46.31000 21.48400
H  8.61500 45.89400 20.60100
H  6.13000 46.89000 19.67300
H  7.66200 46.63600 18.78100
H  7.24800 48.18500 19.49700
H  3.53700 48.98000 24.20200
H  3.21500 47.58200 25.02400
H  4.36800 47.50200 23.62400
H  5.63100 50.31600 29.28000
H  4.12700 49.44200 32.97400
H  5.67600 48.72600 33.30500
H  4.26800 47.77700 32.65800

