158

Mg 24.82600 1.64900 30.15100
C  26.95200 1.04900 32.79300
C  22.10800 1.53400 32.26700
C  22.79800 1.71700 27.33500
C  27.49000 1.00400 27.86300
N  24.54600 1.29100 32.36800
C  25.57300 1.30100 33.23600
C  25.08900 1.64800 34.61500
C  23.53600 1.55700 34.48800
C  23.35600 1.49600 32.96400
C  22.78500 0.32100 35.12500
C  25.60500 3.03400 35.05400
C  26.76100 2.99900 36.09100
H  26.42500 3.94300 37.29900
N  22.70700 1.58400 29.86200
C  21.79900 1.47500 30.81900
C  20.46400 1.47100 30.24800
C  20.63500 1.58700 28.84000
C  22.09700 1.71400 28.63900
C  19.22300 1.28200 31.09700
C  19.50100 1.77700 27.74200
O  19.65500 2.23600 26.59600
C  18.11500 1.25900 28.08700
N  25.10200 1.56700 27.91800
C  24.14000 1.64900 27.02000
C  24.63700 1.74900 25.62200
C  26.18400 1.64800 25.81500
C  26.26900 1.43800 27.29200
C  24.05000 0.81500 24.56100
C  26.93800 2.86900 25.15500
C  26.96500 4.14600 26.05200
N  26.89700 1.07600 30.23700
C  27.78700 0.93600 29.23800
C  29.10100 0.71700 29.88100
C  28.81000 0.68800 31.26700
C  27.40000 0.88000 31.46000
C  30.45700 0.62000 29.18000
C  29.36900 0.61200 32.65300
O  30.55700 0.59200 32.98800
C  28.17200 0.91800 33.66100
C  28.05500 -0.23000 34.57900
O  27.54700 -1.26700 34.36000
O  28.64400 0.04500 35.77200
C  28.36100 -0.93800 36.88600
H  21.26700 1.67400 32.94900
H  22.19800 1.74600 26.42400
H  28.29400 0.91300 27.12900
H  25.34300 0.89100 35.35800
H  22.97400 2.44600 34.77400
H  23.37400 -0.35000 35.75000
H  22.30500 -0.31600 34.38100
H  22.04800 0.78400 35.78100
H  24.76600 3.65500 35.36800
H  25.92800 3.64700 34.21200
H  27.66200 3.42400 35.64900
H  27.00300 1.97800 36.38500
H  18.47800 2.00000 30.75600
H  19.42000 1.56200 32.13200
H  18.81400 0.27500 31.18300
H  18.06400 0.28700 28.57900
H  17.59600 1.28800 27.12900
H  17.70700 2.04700 28.72000
H  24.51900 2.76300 25.23800
H  26.42200 0.67500 25.38400
H  23.53300 1.28800 23.72700
H  23.45500 0.10900 25.14000
H  24.86300 0.21600 24.15000
H  26.61000 3.13200 24.14900
H  27.96900 2.54100 25.02700
H  26.33800 4.08000 26.94200
H  26.60000 4.92500 25.38300
H  27.99000 4.42700 26.29600
H  30.54200 1.32900 28.35600
H  30.57800 -0.38200 28.76800
H  31.17800 0.88300 29.95400
H  28.40800 1.82300 34.22100
H  27.44800 -0.56200 37.34800
H  29.24900 -0.92200 37.51900
H  28.15600 -1.93700 36.50100
Mg 7.97700 53.72800 40.51300
C  7.08200 50.38800 40.15000
C  11.14400 52.89600 39.27700
C  8.65000 56.97000 40.03900
C  4.55600 54.52900 40.92600
N  8.87200 51.90100 39.69100
C  8.36200 50.65200 39.71300
C  9.34500 49.60800 39.08500
C  10.68400 50.36300 39.31800
C  10.20800 51.85000 39.36300
C  11.44000 50.19700 40.65200
C  9.14300 49.18300 37.62100
C  8.09500 49.87100 36.70900
H  7.52600 48.98700 35.59600
N  9.71100 54.85800 39.85000
C  10.93000 54.27700 39.54600
C  11.93000 55.30600 39.56700
C  11.26600 56.51700 39.65100
C  9.83200 56.19500 39.84600
C  13.44600 55.02200 39.60100
C  11.92100 57.89700 39.67800
O  13.11500 57.99600 39.84300
C  11.10800 59.11400 39.62800
N  6.69300 55.44700 40.47900
C  7.25300 56.70900 40.29800
C  6.22200 57.84300 40.55600
C  4.86800 57.00300 40.85100
C  5.37200 55.57900 40.77800
C  6.63400 58.91100 41.59800
C  3.65100 57.33500 39.88200
C  2.28200 57.22300 40.55400
N  6.19800 52.73000 40.68500
C  4.91300 53.21400 41.02700
C  4.06500 52.09200 41.17300
C  4.91100 51.02000 40.96100
C  6.17300 51.42400 40.63200
C  2.66600 51.95600 41.66000
C  4.93900 49.56200 40.96700
O  4.10700 48.69900 41.21400
C  6.35900 49.03300 40.44700
C  6.21100 48.11200 39.25300
O  5.63300 48.51000 38.19500
O  6.49800 46.79600 39.47000
C  6.31600 45.85500 38.40500
H  12.15700 52.54500 39.07100
H  8.76400 58.04700 39.90000
H  3.49200 54.54700 41.17100
H  9.35400 48.66200 39.62800
H  11.45300 50.27200 38.55000
H  10.98800 49.25900 40.97300
H  11.29700 51.02300 41.35000
H  12.50800 50.05900 40.48600
H  9.00900 48.10400 37.53200
H  10.13200 49.35200 37.19500
H  8.48600 50.72300 36.15300
H  7.21600 50.16300 37.28400
H  13.88300 55.61600 38.79700
H  13.71100 53.98200 39.41300
H  13.92800 55.33600 40.52700
H  11.68100 60.02700 39.79200
H  10.31100 59.01500 40.36400
H  10.57100 59.18100 38.68200
H  6.14400 58.24000 39.54400
H  4.55600 57.11200 41.89000
H  6.46500 59.93500 41.26300
H  7.62600 58.67300 41.98100
H  5.87000 58.95300 42.37500
H  3.67300 56.58000 39.09600
H  3.75700 58.38000 39.59300
H  2.31000 57.34800 41.63600
H  1.86000 56.22000 40.49000
H  1.73600 57.97300 39.98100
H  2.27400 50.94600 41.54500
H  2.14500 52.82100 41.25000
H  2.70900 52.01600 42.74700
H  6.79500 48.46900 41.27200
H  6.70500 46.37100 37.52700
H  5.27200 45.54800 38.46800
H  6.90600 44.96000 38.60600

