158

Mg 6.11200 53.25300 41.68400
C  5.78600 49.65600 41.56600
C  9.50700 52.59700 40.83200
C  6.42300 56.32200 40.74900
C  2.73200 53.40400 41.97700
N  7.39000 51.32100 40.98500
C  7.06100 50.04700 41.06500
C  8.19700 49.13200 40.78600
C  9.41600 50.05300 41.12800
C  8.72900 51.41000 41.08200
C  10.13400 49.93200 42.49900
C  8.11600 48.55000 39.30100
C  8.07000 49.52200 38.07400
H  6.91600 49.42300 37.11100
N  7.70300 54.33200 40.99300
C  9.03400 53.93500 40.76700
C  9.79800 55.05300 40.41300
C  8.93200 56.18400 40.50800
C  7.59700 55.67000 40.72000
C  11.26900 54.94400 40.14400
C  9.45700 57.63600 40.26700
O  10.60100 57.90500 39.88000
C  8.42900 58.74300 40.28500
N  4.77200 54.61700 41.10200
C  5.09000 55.90700 40.90600
C  3.91600 56.90600 41.11400
C  2.78300 55.88200 41.51000
C  3.44500 54.53900 41.49000
C  4.21500 57.98900 42.16300
C  1.40700 55.97400 40.80700
C  0.68200 57.34800 40.90800
N  4.55500 51.87600 41.93500
C  3.20500 52.10100 42.14400
C  2.56500 50.92200 42.54000
C  3.55600 49.92100 42.35900
C  4.71400 50.57300 41.89400
C  1.09400 50.72900 42.91600
C  3.78700 48.54100 42.46800
O  3.09700 47.64100 42.89200
C  5.20500 48.29000 41.78200
C  4.97300 47.60000 40.58100
O  4.34200 48.05900 39.57600
O  5.38100 46.28300 40.69500
C  5.03800 45.44300 39.51200
H  10.54800 52.30700 40.67800
H  6.38800 57.41300 40.72900
H  1.65200 53.49800 42.10600
H  8.03500 48.31300 41.48600
H  10.19400 50.04500 40.36400
H  9.94200 50.76800 43.17100
H  11.21400 49.86600 42.36800
H  9.75900 49.09400 43.08800
H  7.29600 47.83500 39.24200
H  8.91100 47.83500 39.09100
H  8.95700 49.14200 37.56700
H  8.40600 50.50400 38.40600
H  11.48300 54.07800 39.51800
H  11.81600 54.87100 41.08400
H  11.68500 55.81200 39.63300
H  7.59200 58.50300 39.62900
H  8.84500 59.74600 40.18900
H  8.26100 58.71500 41.36100
H  3.68800 57.44900 40.19600
H  2.67300 56.10800 42.57100
H  3.34600 58.28400 42.75000
H  4.41500 58.85300 41.53000
H  5.09200 57.66900 42.72700
H  0.76400 55.24500 41.30000
H  1.61600 55.69400 39.77500
H  0.92800 57.99300 41.75200
H  -0.40200 57.26900 40.99600
H  0.92700 57.84700 39.97100
H  0.54100 51.46400 42.33100
H  1.00400 50.76200 44.00200
H  0.67200 49.78000 42.58300
H  5.87300 47.78600 42.48100
H  3.95500 45.46100 39.38700
H  5.31400 44.40400 39.69000
H  5.40300 45.79600 38.54700
Mg -11.72600 15.98000 41.64900
C  -8.56900 14.88600 40.89200
C  -11.15700 18.99900 40.15500
C  -15.01700 16.65200 41.83600
C  -12.41200 12.63600 42.67100
N  -10.04100 16.68300 40.37100
C  -8.79100 16.19300 40.50400
C  -7.78100 17.21800 39.94200
C  -8.62500 18.48900 39.68100
C  -10.07300 18.08400 40.25700
C  -8.05800 19.80200 40.38200
C  -7.01100 16.70500 38.68000
C  -5.62000 17.23500 38.69200
H  -5.34000 18.33600 37.70700
N  -12.91100 17.64700 41.00700
C  -12.48600 18.81500 40.57200
C  -13.59600 19.66300 40.31200
C  -14.77800 19.00000 40.76900
C  -14.24600 17.71300 41.27800
C  -13.44600 20.99600 39.57700
C  -16.24600 19.53800 40.57800
O  -16.43000 20.68500 40.15800
C  -17.44000 18.66800 40.88900
N  -13.44200 14.74400 42.24600
C  -14.69600 15.37900 42.26600
C  -15.78200 14.34400 42.62100
C  -14.98000 13.00400 42.70500
C  -13.50400 13.47700 42.64100
C  -16.50800 14.71400 43.93800
C  -15.17200 11.98400 41.45400
C  -15.45600 10.55000 41.95500
N  -10.73600 14.14300 41.82600
C  -11.05500 12.90800 42.26400
C  -9.93700 11.99900 42.23900
C  -8.80400 12.75500 41.79900
C  -9.43000 14.01200 41.45100
C  -9.90900 10.55200 42.57400
C  -7.44600 12.79500 41.63400
O  -6.53300 11.97900 41.92100
C  -7.17100 14.11700 40.88500
C  -6.16000 14.85100 41.70100
O  -6.22400 15.22600 42.84400
O  -4.98600 14.93200 40.90200
C  -3.79500 15.17900 41.77800
H  -10.92700 19.97500 39.72400
H  -16.10500 16.73500 41.86600
H  -12.67400 11.64200 43.04200
H  -7.14300 17.37000 40.81300
H  -8.66600 18.73100 38.61900
H  -8.10800 20.64700 39.69500
H  -7.07800 19.67200 40.84300
H  -8.83600 20.07400 41.09500
H  -7.48600 17.04400 37.75900
H  -7.10300 15.62000 38.64000
H  -5.05200 16.32700 38.48800
H  -5.37200 17.55900 39.70300
H  -12.57000 21.04900 38.93100
H  -13.24100 21.73800 40.34900
H  -14.34400 21.28500 39.03000
H  -18.30100 19.15800 40.43300
H  -17.46800 18.46600 41.96000
H  -17.33100 17.68300 40.43600
H  -16.48900 14.33300 41.79200
H  -15.37400 12.59300 43.63500
H  -16.90500 15.72700 43.87300
H  -15.91200 14.59800 44.84400
H  -17.24600 13.91600 44.00600
H  -14.25500 11.96000 40.86500
H  -15.94200 12.45700 40.84500
H  -16.28000 10.24300 41.31200
H  -15.56600 10.49800 43.03900
H  -14.52800 10.05300 41.67300
H  -10.71000 10.34900 43.28500
H  -8.94800 10.38500 43.06000
H  -10.13500 9.98000 41.67400
H  -6.84100 14.07900 39.84600
H  -2.90500 15.31000 41.16200
H  -3.63200 14.42400 42.54600
H  -3.98900 16.06300 42.38600

