158

Mg 48.21300 25.86800 27.84600
C  48.92400 28.06600 30.25800
C  47.11600 23.44700 30.14500
C  47.58200 23.58900 25.27900
C  49.50100 28.06700 25.44300
N  47.88100 25.79400 29.87600
C  48.29600 26.79800 30.68300
C  48.00900 26.51900 32.18300
C  47.75400 24.96700 32.12700
C  47.55600 24.70900 30.63800
C  48.67300 24.01400 32.90600
C  46.78600 27.42100 32.67700
C  46.16500 27.00400 33.99500
H  46.04000 28.05600 35.14200
N  47.44400 23.83100 27.74500
C  47.09000 23.03900 28.77700
C  46.55700 21.72000 28.31600
C  46.74200 21.77800 26.93200
C  47.26700 23.13800 26.56200
C  45.88400 20.71400 29.19000
C  46.43700 20.60800 25.95600
O  46.65100 20.63900 24.79400
C  45.97500 19.35000 26.46600
N  48.59600 25.84600 25.65500
C  48.09600 24.84200 24.84600
C  48.09100 25.28600 23.39200
C  48.85800 26.57200 23.39600
C  49.04200 26.87400 24.91900
C  48.60500 24.24500 22.37500
C  48.21400 27.74500 22.61900
C  48.89800 28.28500 21.38400
N  49.09900 27.66600 27.81200
C  49.59500 28.44800 26.77700
C  50.10700 29.70900 27.31500
C  49.80100 29.65100 28.70000
C  49.25600 28.37300 28.93300
C  50.66400 30.96800 26.60200
C  49.91300 30.34500 29.98200
O  50.27000 31.50900 30.17100
C  49.34800 29.35600 31.06500
C  50.38200 29.03800 32.14500
O  51.44300 28.47300 32.02800
O  49.92600 29.61200 33.34200
C  50.74600 29.36500 34.54000
H  46.79100 22.72400 30.89600
H  47.30700 22.95600 24.43300
H  49.77100 28.84800 24.73000
H  48.88900 26.77600 32.77300
H  46.80200 24.73800 32.60600
H  49.03900 23.18300 32.30300
H  48.21500 23.60200 33.80500
H  49.52700 24.56400 33.30400
H  46.03400 27.49400 31.89200
H  47.24100 28.39300 32.86900
H  46.70100 26.15000 34.40900
H  45.19600 26.57700 33.73600
H  46.56000 19.86200 29.25700
H  44.98100 20.38100 28.67900
H  45.63200 21.07100 30.18900
H  45.90500 18.57900 25.69900
H  45.00300 19.43300 26.95200
H  46.76300 18.99800 27.13200
H  47.11300 25.48600 22.95400
H  49.85100 26.52500 22.94900
H  49.05800 23.39400 22.88500
H  49.37300 24.63200 21.70600
H  47.76800 23.74800 21.88500
H  48.07400 28.59600 23.28600
H  47.24800 27.42700 22.22800
H  49.63400 27.65500 20.88300
H  49.33300 29.18200 21.82500
H  48.17400 28.53100 20.60700
H  50.13100 31.91600 26.68400
H  50.56100 30.80200 25.52900
H  51.69900 31.23200 26.81400
H  48.44800 29.82300 31.46500
H  51.04800 30.36200 34.86100
H  51.61500 28.71800 34.41700
H  50.11200 28.88900 35.28700
Mg -12.41200 17.38900 41.49500
C  -9.25800 15.65400 40.82800
C  -10.91400 20.15400 40.12700
C  -15.45700 18.76200 41.58300
C  -13.78700 14.25100 42.23000
N  -10.22400 17.79000 40.65400
C  -9.17500 17.01500 40.53200
C  -8.02300 17.83400 39.84800
C  -8.52200 19.28500 39.92700
C  -9.96200 19.08800 40.20200
C  -7.90700 20.06700 41.09400
C  -7.79000 17.36000 38.36000
C  -6.38600 17.00400 37.88400
H  -6.31500 15.73800 37.08200
N  -13.08800 19.29100 41.03600
C  -12.30900 20.28700 40.42000
C  -13.16700 21.48200 40.33600
C  -14.52600 21.14900 40.67700
C  -14.42300 19.71700 41.14200
C  -12.59500 22.87500 39.89100
C  -15.73000 21.91800 40.57500
O  -15.71600 23.08600 40.22100
C  -17.20900 21.33800 40.92600
N  -14.38900 16.54900 41.63100
C  -15.52200 17.34100 41.74000
C  -16.74400 16.55300 42.14500
C  -16.13100 15.19700 42.52400
C  -14.67300 15.36500 42.15300
C  -17.55600 17.17000 43.28700
C  -16.76500 14.10100 41.62100
C  -17.12000 12.86400 42.37300
N  -11.66900 15.38000 41.48300
C  -12.34200 14.27200 41.94400
C  -11.53000 13.10000 41.81000
C  -10.28300 13.61700 41.48400
C  -10.42600 14.96800 41.25200
C  -11.97500 11.72300 42.16100
C  -8.87400 13.24900 41.28000
O  -8.18000 12.22700 41.33100
C  -8.14700 14.59600 40.85200
C  -7.15600 14.93200 41.91200
O  -7.48900 15.27100 43.00700
O  -5.90300 14.79000 41.47600
C  -4.88300 15.24000 42.45400
H  -10.48900 21.14400 39.95100
H  -16.51300 19.04100 41.57300
H  -14.35600 13.36400 42.51900
H  -7.05600 17.61800 40.30100
H  -8.29400 19.80700 38.99800
H  -6.94300 19.69800 41.44500
H  -8.68700 20.04600 41.85400
H  -7.83300 21.13700 40.90000
H  -8.14400 18.03400 37.58000
H  -8.49400 16.52800 38.38400
H  -5.62400 16.90600 38.65700
H  -6.03100 17.84800 37.29200
H  -11.92400 22.73100 39.04400
H  -11.79200 22.98800 40.61900
H  -13.34300 23.66800 39.88200
H  -17.28000 20.49400 40.24000
H  -17.99000 22.03600 40.62400
H  -17.22400 21.10800 41.99100
H  -17.16200 16.48900 41.14000
H  -16.20400 14.97800 43.59000
H  -17.65600 16.61700 44.22100
H  -18.59300 17.16700 42.95000
H  -17.35800 18.23400 43.41700
H  -15.96700 13.75600 40.96400
H  -17.68100 14.37300 41.09700
H  -17.02100 13.03600 43.44500
H  -16.41200 12.07600 42.11700
H  -18.14400 12.53900 42.18800
H  -12.62900 11.35400 41.37100
H  -12.52800 11.71900 43.10100
H  -11.23600 10.92600 42.23800
H  -7.61300 14.57500 39.90200
H  -4.06100 14.52600 42.40300
H  -5.26600 15.39100 43.46400
H  -4.59100 16.24200 42.14200

