158

Mg 1.64200 8.54500 27.00800
C  2.18500 10.25800 29.96100
C  1.65100 5.58300 28.71500
C  1.41400 6.91500 24.04500
C  2.30600 11.54100 25.26400
N  1.85700 8.01900 29.03000
C  1.97000 8.90700 30.13000
C  1.85000 8.19400 31.48100
C  2.11500 6.73400 30.99700
C  1.81100 6.74400 29.46700
C  3.40500 6.14000 31.32800
C  0.43800 8.55100 32.15100
C  0.44600 8.81300 33.68600
H  1.70600 8.36800 34.41900
N  1.32000 6.55500 26.49800
C  1.36100 5.49000 27.32400
C  0.96000 4.26300 26.59600
C  0.94800 4.60600 25.21600
C  1.27800 6.06700 25.21500
C  0.61600 3.00200 27.26100
C  0.70900 3.71200 23.99400
O  0.48700 4.07000 22.81300
C  0.76300 2.23000 24.18300
N  1.72500 9.07800 24.99500
C  1.61900 8.26000 23.88600
C  1.55800 8.95800 22.58100
C  1.55000 10.44100 23.07400
C  1.98700 10.35200 24.53500
C  2.80400 8.64300 21.72000
C  0.21800 11.28100 22.82600
C  0.29100 12.20000 21.58100
N  2.26100 10.50200 27.45200
C  2.47800 11.61300 26.66700
C  2.77200 12.79300 27.48400
C  2.69300 12.30900 28.78700
C  2.41100 10.95300 28.73100
C  3.01400 14.19100 26.96000
C  2.79400 12.65600 30.19100
O  3.17300 13.67700 30.64800
C  2.47000 11.34400 31.01800
C  3.64200 11.18600 31.83700
O  4.55700 10.47300 31.56500
O  3.37600 11.80600 33.05200
C  4.18900 11.40300 34.15600
H  1.70500 4.55900 29.09000
H  1.21900 6.38200 23.11100
H  2.48600 12.47900 24.73600
H  2.65900 8.50000 32.14500
H  1.42500 6.11400 31.56900
H  4.21200 6.37100 30.63200
H  3.32000 5.05800 31.42100
H  3.79100 6.47400 32.29100
H  -0.10100 7.61200 32.02500
H  -0.11100 9.38200 31.70900
H  -0.42300 8.35700 34.15900
H  0.29700 9.88400 33.82400
H  0.18900 3.31700 28.21300
H  1.47300 2.39500 27.55100
H  -0.25000 2.52700 26.79900
H  1.70200 1.88200 24.61300
H  0.74100 1.75900 23.20000
H  -0.05800 1.87700 24.80600
H  0.62800 8.58700 22.14900
H  2.38300 11.03800 22.70400
H  2.88600 9.37900 20.92000
H  2.73900 7.61900 21.35300
H  3.72100 8.94900 22.22400
H  -0.09100 11.92100 23.65200
H  -0.58300 10.55200 22.70500
H  1.19500 11.92100 21.04000
H  0.46200 13.26300 21.75000
H  -0.66000 12.15300 21.04900
H  3.51500 13.97900 26.01600
H  3.75000 14.69800 27.58400
H  2.09000 14.76800 26.91800
H  1.61800 11.64700 31.62600
H  4.94300 12.19000 34.18900
H  4.54200 10.38500 33.99300
H  3.69600 11.46600 35.12700
Mg 6.41100 54.69600 40.88900
C  6.05000 51.14900 40.80600
C  9.51700 54.42700 39.99900
C  6.43100 58.12200 40.52000
C  3.00700 54.81800 41.73100
N  7.61600 52.99800 40.38800
C  7.31700 51.66200 40.39600
C  8.41900 50.79500 39.78800
C  9.52100 51.91300 39.60200
C  8.91900 53.17600 40.11700
C  10.84400 51.60700 40.32300
C  8.17900 50.15300 38.35100
C  7.18400 50.88200 37.29900
H  7.56600 51.06300 35.84400
N  7.81300 56.10000 40.38700
C  9.07400 55.77600 40.01200
C  9.79800 56.89100 39.61300
C  8.90400 58.02000 39.73500
C  7.61300 57.45500 40.20600
C  11.28000 56.80000 39.24500
C  9.30800 59.52000 39.33300
O  10.42300 59.70300 38.84100
C  8.41600 60.60900 39.66900
N  4.90200 56.21000 41.00600
C  5.13800 57.57100 40.80700
C  3.86100 58.40200 41.07000
C  2.78900 57.22700 41.23500
C  3.58800 55.99100 41.32000
C  3.82200 59.37500 42.25700
C  1.66600 56.96400 40.04900
C  0.23300 57.20600 40.59500
N  4.83200 53.34400 41.22900
C  3.58300 53.53300 41.77900
C  2.93700 52.27100 42.12100
C  3.90200 51.31200 41.76400
C  5.01500 52.01100 41.31100
C  1.59400 52.08100 42.83900
C  4.17100 49.89500 41.73200
O  3.51100 49.01200 42.18500
C  5.53900 49.70900 41.10100
C  5.27900 48.81300 39.96600
O  4.95100 49.15000 38.85900
O  5.57800 47.51800 40.30600
C  5.29400 46.51500 39.30400
H  10.57700 54.37300 39.74200
H  6.32500 59.20300 40.39900
H  2.02900 54.91700 42.20800
H  8.59800 49.99500 40.50700
H  9.65100 52.08900 38.53400
H  10.84300 52.29500 41.16900
H  11.57500 51.71700 39.52200
H  10.81400 50.58900 40.71100
H  7.74300 49.16900 38.52600
H  9.16200 49.89100 37.95900
H  7.06900 51.89500 37.68300
H  6.22200 50.36900 37.28100
H  11.35200 56.06600 38.44200
H  11.63300 56.22800 40.10300
H  11.92700 57.67600 39.20400
H  8.86600 61.59800 39.59100
H  8.13200 60.47700 40.71300
H  7.61900 60.67000 38.92800
H  3.82500 59.03600 40.18400
H  2.31500 57.24200 42.21700
H  2.86600 59.42600 42.77800
H  3.92000 60.35000 41.78100
H  4.62200 59.14200 42.96000
H  1.70000 55.92000 39.73900
H  1.97800 57.55200 39.18600
H  0.29400 57.85500 41.46800
H  -0.28500 56.28000 40.84300
H  -0.28200 57.73000 39.79000
H  1.36700 53.04600 43.29000
H  1.85100 51.44200 43.68400
H  0.86700 51.55900 42.21700
H  6.26900 49.20700 41.73600
H  5.78800 45.61600 39.67300
H  5.79800 46.75600 38.36800
H  4.22300 46.39700 39.14400

