158

Mg 25.38000 1.91800 29.45400
C  27.16800 1.38500 32.42900
C  22.48400 1.93700 31.36300
C  23.58400 1.97900 26.60400
C  28.24000 1.07300 27.64200
N  24.91300 1.64600 31.69600
C  25.78600 1.68600 32.75000
C  25.11100 1.98500 34.11300
C  23.62900 2.10900 33.68500
C  23.67200 1.96700 32.13000
C  22.64300 1.08100 34.32700
C  25.73900 3.21200 34.85600
C  25.99400 3.03400 36.44900
H  25.48700 4.00000 37.48300
N  23.38300 1.85700 29.08300
C  22.27600 1.85700 30.01000
C  21.06300 1.82300 29.25000
C  21.39300 1.68400 27.84700
C  22.85100 1.79800 27.79500
C  19.75600 1.70100 30.04000
C  20.42200 1.46800 26.69100
O  20.84100 1.39800 25.54000
C  18.92800 1.37000 26.85700
N  25.89300 1.58100 27.39600
C  24.96400 1.82400 26.45100
C  25.67200 1.82100 25.05800
C  27.18100 1.56100 25.43400
C  27.11900 1.48100 26.93300
C  25.11400 0.87500 24.00300
C  28.20200 2.78700 25.06000
C  29.64700 2.39000 24.44700
N  27.34500 1.42900 29.88400
C  28.38200 1.12100 29.06600
C  29.57800 0.81400 29.83200
C  29.17000 0.93600 31.16300
C  27.79600 1.30200 31.18000
C  30.85300 0.42600 29.20200
C  29.57100 0.69900 32.59900
O  30.60200 0.19500 33.04900
C  28.32000 1.16200 33.46900
C  27.96900 0.12500 34.46900
O  27.15200 -0.76400 34.35200
O  28.77400 0.30100 35.57400
C  28.38900 -0.60900 36.69500
H  21.59100 2.19100 31.93800
H  23.08500 2.13700 25.64500
H  29.12100 0.74800 27.08500
H  25.26000 1.17900 34.83100
H  23.14300 3.06000 33.90400
H  23.02300 0.44700 35.12900
H  22.38300 0.39200 33.52400
H  21.66900 1.50400 34.57300
H  25.04500 4.01900 34.61800
H  26.70600 3.42500 34.40100
H  27.07500 2.89500 36.43100
H  25.59700 2.04800 36.69000
H  18.92200 2.25900 29.61300
H  19.88300 2.05700 31.06200
H  19.38300 0.67900 30.10700
H  18.42700 1.04300 25.94600
H  18.52700 2.34200 27.14300
H  18.85100 0.59700 27.62100
H  25.50000 2.84900 24.73900
H  27.50800 0.61100 25.01200
H  24.24400 0.32700 24.36600
H  25.87500 0.12200 23.79900
H  24.80300 1.48800 23.15800
H  28.21800 3.41000 25.95400
H  27.80000 3.40900 24.26100
H  29.76900 1.31400 24.57300
H  30.45500 2.83100 25.03000
H  29.73500 2.68500 23.40100
H  31.21400 -0.48500 29.68100
H  31.49000 1.25600 29.50900
H  30.76200 0.25100 28.13000
H  28.48300 2.09000 34.01600
H  28.85000 -1.59100 36.59000
H  27.33300 -0.81100 36.87800
H  28.71500 -0.19200 37.64800
Mg 35.06900 2.99500 29.88000
C  32.86200 4.28400 32.36500
C  37.31300 2.58600 32.13800
C  37.04900 1.88400 27.40700
C  32.43700 3.45600 27.59100
N  34.99400 3.40800 32.04800
C  34.03500 3.92800 32.88600
C  34.55200 3.76500 34.35800
C  36.07100 3.45100 34.24000
C  36.14500 3.12200 32.73400
C  37.11000 4.55800 34.52600
C  33.73300 2.69100 35.10000
C  33.30800 3.05800 36.54500
H  33.87200 4.25600 37.19500
N  36.90700 2.29300 29.75200
C  37.74500 2.19600 30.85500
C  38.90800 1.56800 30.51500
C  38.89400 1.35700 29.09900
C  37.59400 1.83900 28.69000
C  40.08100 1.22600 31.43300
C  39.98200 0.68000 28.28900
O  39.87200 0.51400 27.08200
C  41.28700 0.03300 28.92800
N  34.83100 2.83700 27.71700
C  35.82600 2.40800 26.89600
C  35.25500 2.32400 25.41800
C  33.71300 2.39500 25.64800
C  33.63000 2.95400 27.04100
C  35.75700 3.46700 24.45400
C  32.91900 1.05600 25.39900
C  33.10400 0.57600 23.94700
N  33.04200 3.75600 29.90300
C  32.08900 3.87500 28.83600
C  30.88000 4.40200 29.37300
C  31.11600 4.53600 30.76800
C  32.45300 4.15200 31.02300
C  29.55800 4.63900 28.59100
C  30.43100 4.90500 31.98800
O  29.33400 5.31700 32.28400
C  31.60300 4.73800 33.16100
C  31.54500 6.13800 33.75700
O  32.27400 7.07200 33.40700
O  30.72800 6.12300 34.88500
C  30.79100 7.22500 35.84200
H  38.17300 2.63800 32.80900
H  37.69000 1.56900 26.58100
H  31.65900 3.42300 26.82600
H  34.31800 4.73200 34.80300
H  36.28800 2.57600 34.85200
H  37.86400 4.13900 35.19300
H  36.54900 5.35600 35.01200
H  37.49500 4.95500 33.58600
H  34.27300 1.75000 35.21000
H  32.88100 2.38200 34.49400
H  33.52600 2.28100 37.27800
H  32.22700 3.18200 36.47700
H  40.34200 0.16900 31.40300
H  39.94500 1.51700 32.47400
H  40.97300 1.80900 31.20300
H  41.92500 0.75700 29.43400
H  41.93500 -0.49100 28.22500
H  41.01200 -0.70600 29.68100
H  35.52800 1.33400 25.05500
H  33.25300 3.19100 25.06200
H  34.98900 4.07300 23.97400
H  36.36100 3.06300 23.64200
H  36.37600 4.16900 25.01400
H  31.85200 1.17900 25.58200
H  33.28400 0.35000 26.14400
H  33.66500 1.35700 23.43300
H  32.22000 0.51100 23.31200
H  33.69000 -0.34200 23.99000
H  29.02500 3.70600 28.41000
H  29.75300 5.12500 27.63500
H  28.93100 5.34300 29.13900
H  31.34900 3.95400 33.87400
H  31.00000 6.70000 36.77300
H  29.82500 7.71900 35.94700
H  31.57400 7.97500 35.73200

