158

Mg 8.23300 47.70300 26.11800
C  5.93300 47.61000 28.79200
C  10.68200 48.44200 28.37500
C  10.37200 48.45900 23.56800
C  5.51600 47.85100 23.92600
N  8.25800 48.11600 28.39300
C  7.22900 47.96900 29.28700
C  7.77600 48.11600 30.71900
C  9.29800 48.69900 30.53500
C  9.45400 48.47500 29.02500
C  9.52900 50.23600 31.00500
C  7.56300 46.93300 31.74300
C  8.69600 46.66100 32.82300
H  8.18700 45.95200 34.10800
N  10.28900 48.08100 25.98300
C  11.08300 48.29900 27.03100
C  12.50200 48.32500 26.51100
C  12.41300 48.22500 25.05400
C  10.97500 48.29700 24.82000
C  13.71400 48.61500 27.35300
C  13.47100 48.13000 23.98500
O  13.33500 48.20300 22.71400
C  14.89200 48.02400 24.46100
N  7.98300 48.25700 24.07600
C  9.04200 48.46100 23.28400
C  8.59400 48.53200 21.88400
C  7.03900 48.30200 21.93700
C  6.79800 48.04300 23.39000
C  9.08700 49.78200 21.18000
C  6.50900 47.25700 20.93500
C  6.53100 47.64200 19.49600
N  6.07500 47.77200 26.30100
C  5.16700 47.71200 25.29200
C  3.88900 47.51400 25.91200
C  4.14000 47.47200 27.31100
C  5.49900 47.63600 27.47100
C  2.62500 47.45200 25.18500
C  3.48600 47.25700 28.56400
O  2.28900 46.99300 28.91900
C  4.65500 47.47900 29.66700
C  4.69100 46.26900 30.43800
O  5.09100 45.15800 30.12700
O  4.25600 46.66700 31.66200
C  4.22100 45.54100 32.68900
H  11.44100 48.76900 29.08800
H  11.04500 48.79900 22.77800
H  4.72600 47.91100 23.17500
H  7.11300 48.91100 31.05800
H  10.15400 48.11500 30.87300
H  8.64900 50.61400 31.52500
H  9.77200 50.75800 30.07900
H  10.45100 50.23900 31.58600
H  7.38000 46.00000 31.20900
H  6.63900 47.05600 32.30800
H  9.34600 47.52600 32.95400
H  9.30800 45.86400 32.40000
H  14.24400 49.51800 27.05100
H  14.40300 47.77100 27.31500
H  13.53100 48.76300 28.41700
H  15.52100 47.80200 23.59900
H  14.96900 47.21700 25.18900
H  15.18700 49.00800 24.82400
H  9.03500 47.65400 21.41400
H  6.60300 49.25800 21.64600
H  8.24600 50.22800 20.64900
H  9.85600 49.48800 20.46600
H  9.63000 50.47500 21.82400
H  5.54100 46.88300 21.27100
H  7.21100 46.44200 21.11200
H  7.39000 47.21700 18.97700
H  6.62700 48.72300 19.39600
H  5.58900 47.38100 19.01400
H  2.23400 48.46600 25.27100
H  2.01800 46.66500 25.63100
H  2.72000 47.32600 24.10600
H  4.41500 48.38400 30.22300
H  4.76400 45.95700 33.53800
H  4.67500 44.60500 32.36400
H  3.18500 45.31400 32.94100
Mg -9.56700 18.34700 42.11600
C  -6.20800 17.58900 42.27600
C  -8.73100 21.67100 41.45300
C  -12.80600 18.86100 41.21000
C  -10.16400 14.79500 42.39400
N  -7.72700 19.48000 41.74500
C  -6.49500 18.97000 42.01900
C  -5.44500 19.99100 41.73200
C  -6.20300 21.35500 41.81700
C  -7.70600 20.79300 41.77100
C  -6.00300 22.34900 42.96800
C  -4.60900 19.89500 40.30100
C  -5.34000 19.28200 39.18300
H  -5.07400 19.78700 37.69000
N  -10.68200 20.03700 41.49100
C  -10.12400 21.29800 41.29600
C  -11.21300 22.21700 40.94400
C  -12.46400 21.50200 40.85800
C  -12.03000 20.07900 41.19800
C  -10.98500 23.71200 40.80500
C  -13.80700 22.08000 40.51200
O  -13.90300 23.28900 40.42400
C  -15.00000 21.22300 40.29100
N  -11.14500 17.00400 41.66500
C  -12.41000 17.48600 41.50200
C  -13.48000 16.37800 41.44500
C  -12.56000 15.08400 41.63800
C  -11.16400 15.62900 41.93900
C  -14.59100 16.47600 42.50500
C  -12.65200 14.09100 40.43800
C  -12.57900 12.57900 40.72100
N  -8.47600 16.45000 42.49600
C  -8.77000 15.13500 42.56900
C  -7.53700 14.32200 42.90600
C  -6.57200 15.35800 42.74000
C  -7.15400 16.59700 42.52800
C  -7.39500 12.91400 43.12600
C  -5.13800 15.43000 42.75100
O  -4.26400 14.58500 42.86700
C  -4.83800 16.90100 42.47000
C  -3.99900 17.35400 43.62100
O  -2.95400 17.99400 43.53000
O  -4.51200 16.94700 44.82600
C  -3.76200 17.26800 46.04100
H  -8.43300 22.70300 41.25200
H  -13.83800 19.06800 40.91800
H  -10.34000 13.73400 42.58500
H  -4.76300 19.91100 42.57800
H  -6.13300 21.84200 40.84400
H  -6.87400 22.79100 43.45100
H  -5.41700 23.19800 42.61500
H  -5.55500 21.80000 43.79600
H  -3.72000 19.31600 40.54700
H  -4.27300 20.87200 39.95200
H  -6.37400 19.43500 39.49000
H  -5.03400 18.23600 39.16000
H  -11.51800 24.05600 39.91800
H  -9.94000 24.00900 40.72300
H  -11.35400 24.25700 41.67300
H  -15.28300 20.67400 41.18900
H  -14.84700 20.49600 39.49300
H  -15.86700 21.84100 40.05300
H  -14.04600 16.33100 40.51500
H  -12.77100 14.50100 42.53400
H  -14.72900 17.55600 42.55300
H  -14.18900 16.08800 43.44200
H  -15.55200 16.10500 42.14900
H  -11.74900 14.37600 39.89700
H  -13.52300 14.26100 39.80500
H  -13.27600 12.11300 40.02500
H  -12.91900 12.36100 41.73400
H  -11.62600 12.05400 40.64800
H  -6.56500 12.56900 42.50900
H  -8.32800 12.38700 42.92500
H  -7.11500 12.71200 44.15900
H  -4.33200 16.84700 41.50600
H  -3.66200 16.35400 46.62600
H  -4.35100 18.02900 46.55300
H  -2.77600 17.68700 45.84100

