158

Mg 47.22900 34.30300 27.25000
C  45.58400 33.20100 30.14400
C  47.93000 37.27700 29.02100
C  48.27300 35.84900 24.46300
C  45.94500 31.69900 25.60300
N  46.88800 35.08400 29.35700
C  46.27400 34.39500 30.39200
C  46.34300 35.23500 31.70000
C  46.78100 36.61200 31.12400
C  47.19000 36.33300 29.72600
C  45.82200 37.81000 31.29000
C  47.34700 34.56900 32.63400
C  46.90200 34.50500 34.09600
H  47.99200 34.59800 35.18000
N  48.25100 36.18700 26.85100
C  48.47700 37.22400 27.73900
C  49.18100 38.26200 27.03800
C  49.21100 37.88600 25.64700
C  48.61300 36.60800 25.60100
C  49.73100 39.52000 27.67700
C  49.81800 38.55100 24.45800
O  49.97700 37.99300 23.36200
C  50.31700 39.96100 24.67800
N  47.09600 33.90100 25.29800
C  47.75800 34.58800 24.32700
C  47.58700 33.93700 23.03500
C  46.94100 32.52800 23.29200
C  46.62700 32.69400 24.79100
C  46.94500 34.64100 21.86100
C  47.77100 31.28000 22.86100
C  48.88900 30.96500 23.78900
N  46.06900 32.76500 27.77100
C  45.62200 31.71500 26.99100
C  44.95200 30.68900 27.76000
C  44.79500 31.32200 28.99100
C  45.58400 32.50900 28.95700
C  44.35200 29.40700 27.26600
C  44.17800 31.21700 30.24700
O  43.43400 30.36200 30.68800
C  44.55400 32.43300 31.03200
C  45.06400 31.94100 32.33100
O  46.14200 31.49800 32.61000
O  43.95100 31.82100 33.13200
C  44.08100 30.89900 34.28900
H  48.20300 38.17900 29.57300
H  48.71300 36.20100 23.52800
H  45.62000 30.81400 25.05300
H  45.32400 35.27500 32.08300
H  47.68200 36.94600 31.63900
H  45.29800 37.53300 32.20500
H  45.17800 37.92300 30.41800
H  46.30300 38.77900 31.42000
H  48.29900 35.09400 32.71100
H  47.57200 33.58100 32.23200
H  46.40000 33.54100 34.17600
H  46.28400 35.39000 34.25300
H  49.02500 40.29500 27.37600
H  50.75300 39.83200 27.46300
H  49.58100 39.46600 28.75500
H  49.62700 40.59300 25.23700
H  50.41200 40.34600 23.66200
H  51.29100 39.92000 25.16400
H  48.63800 33.77100 22.79700
H  45.94300 32.48000 22.85600
H  46.22300 35.28300 22.36500
H  46.47400 33.89100 21.22700
H  47.51400 35.42100 21.35400
H  48.04900 31.36000 21.81000
H  46.98300 30.52700 22.88700
H  48.94300 31.69500 24.59700
H  49.82600 30.76700 23.26900
H  48.62400 30.08000 24.36800
H  44.11000 28.84400 28.16800
H  44.87300 28.78000 26.54200
H  43.35500 29.62600 26.88300
H  43.66300 33.03100 31.22300
H  43.17700 30.34400 34.54200
H  44.14500 31.60800 35.11400
H  45.01500 30.33700 34.30400
Mg 9.07400 47.61100 27.79800
C  7.03400 47.36900 30.56000
C  11.80400 48.28400 29.71100
C  10.76600 48.39400 24.96200
C  6.09500 47.55600 25.83200
N  9.40300 47.85700 29.89000
C  8.43200 47.49100 30.83800
C  9.03600 47.55800 32.31500
C  10.51200 48.09900 32.00700
C  10.57400 48.01300 30.42600
C  10.72300 49.55400 32.58900
C  9.18000 46.21800 33.06500
C  8.81500 46.31900 34.55400
H  9.54100 45.27600 35.44500
N  11.08600 48.18000 27.38500
C  12.08200 48.29000 28.29700
C  13.35800 48.51600 27.65700
C  13.11500 48.57200 26.17400
C  11.60400 48.43500 26.11900
C  14.65800 48.44900 28.48100
C  13.99800 48.63200 24.97000
O  13.61900 48.71900 23.80600
C  15.46200 48.59100 25.16500
N  8.53700 47.91700 25.73400
C  9.43300 48.19900 24.77100
C  8.82700 48.13000 23.31600
C  7.28900 47.91500 23.64100
C  7.29000 47.74400 25.12200
C  9.17800 49.31700 22.36500
C  6.56600 46.80900 22.82200
C  6.26700 47.18400 21.29200
N  7.02200 47.45100 28.09600
C  5.97600 47.43600 27.18600
C  4.63700 47.37700 27.89000
C  5.04500 47.26000 29.25200
C  6.44400 47.35400 29.25200
C  3.27900 47.24600 27.38800
C  4.58600 47.14600 30.60200
O  3.42000 46.95900 30.98500
C  5.88000 47.10000 31.52100
C  5.85100 45.74000 32.13300
O  6.45500 44.77500 31.73400
O  5.14600 45.83000 33.35600
C  5.43100 44.72800 34.31800
H  12.67200 48.48500 30.34200
H  11.36200 48.65600 24.08500
H  5.27500 47.49400 25.11300
H  8.38800 48.19200 32.92100
H  11.29400 47.50600 32.48200
H  9.96300 49.95500 33.25900
H  10.92400 50.20300 31.73600
H  11.69200 49.54700 33.08800
H  10.18800 45.86000 32.85400
H  8.44100 45.54400 32.63400
H  7.73900 46.22300 34.70400
H  9.12700 47.31500 34.86700
H  15.38000 47.75300 28.05400
H  14.49200 48.30600 29.54800
H  15.16500 49.41400 28.46600
H  15.75700 47.56600 25.38900
H  15.69400 49.05800 26.12200
H  16.11500 49.04900 24.42100
H  9.04600 47.18500 22.81800
H  6.88600 48.91900 23.51400
H  9.54700 50.15500 22.95700
H  8.22000 49.49700 21.87600
H  9.89300 48.94100 21.63300
H  5.60300 46.50600 23.23300
H  7.15700 45.90700 22.98300
H  6.41300 48.26400 21.30500
H  5.24900 46.86400 21.07000
H  6.97900 46.75200 20.58900
H  2.52700 47.05200 28.15300
H  3.23200 46.51000 26.58500
H  3.12800 48.23300 26.95100
H  5.76200 47.89800 32.25400
H  6.45400 44.35000 34.31900
H  4.70700 43.91400 34.29600
H  5.26200 45.20100 35.28600

