158

Mg 24.71200 -6.29700 46.10700
C  26.75600 -4.02000 44.28900
C  22.05900 -5.42500 44.00700
C  23.01300 -9.10300 47.06600
C  27.53000 -7.39400 47.67600
N  24.45400 -4.76900 44.38500
C  25.35900 -3.84600 43.95000
C  24.70700 -2.97600 42.81000
C  23.19900 -3.38200 42.99900
C  23.18700 -4.65400 43.78200
C  22.27500 -2.31900 43.62600
C  25.24900 -3.09900 41.36200
C  25.98900 -1.89500 40.70300
H  25.73000 -1.76000 39.16600
N  22.80000 -7.13500 45.58300
C  21.85800 -6.57800 44.75700
C  20.61600 -7.33200 44.81400
C  20.86500 -8.38400 45.82500
C  22.24300 -8.29300 46.18100
C  19.40900 -7.22100 43.95200
C  19.91200 -9.38600 46.24400
O  18.74500 -9.41200 45.82200
C  20.20900 -10.37400 47.36800
N  25.19500 -8.08400 47.11500
C  24.34000 -9.02600 47.51400
C  25.10700 -10.11300 48.35100
C  26.53600 -9.63400 48.24000
C  26.42200 -8.25100 47.67500
C  24.57400 -10.12200 49.81900
C  27.49900 -10.62300 47.39700
C  28.73200 -11.17500 48.13000
N  26.71700 -5.60000 46.24200
C  27.68100 -6.18700 47.01000
C  28.95800 -5.62200 46.56500
C  28.60700 -4.79400 45.52900
C  27.25400 -4.77900 45.36400
C  30.33600 -5.93400 47.04800
C  29.18700 -3.96900 44.45200
O  30.32400 -3.60900 44.20200
C  27.96800 -3.24600 43.75000
C  27.92900 -1.81000 44.16200
O  27.76300 -0.94400 43.34900
O  27.98700 -1.68800 45.50800
C  27.43900 -0.42600 46.09200
H  21.18900 -5.03300 43.47600
H  22.54200 -9.96500 47.54300
H  28.50800 -7.65000 48.08900
H  24.86500 -1.93000 43.07000
H  22.70200 -3.79200 42.12100
H  22.78000 -1.39100 43.89600
H  21.94600 -2.82700 44.53300
H  21.47100 -2.30200 42.89100
H  24.40800 -3.35000 40.71700
H  25.89400 -3.97400 41.44200
H  27.06400 -1.99000 40.85900
H  25.81800 -0.99100 41.28800
H  19.61800 -6.81400 42.96200
H  18.70700 -6.55100 44.44800
H  18.87900 -8.14800 43.73300
H  20.89100 -11.14200 47.00500
H  19.18400 -10.72000 47.50400
H  20.65400 -9.85200 48.21600
H  25.07900 -11.08300 47.85500
H  27.02500 -9.61300 49.21300
H  25.19000 -9.57000 50.52900
H  24.36900 -11.09700 50.26100
H  23.61800 -9.60200 49.76800
H  27.78200 -10.11500 46.47500
H  26.95900 -11.45800 46.95300
H  28.34600 -12.16800 48.35900
H  28.82400 -10.60900 49.05700
H  29.65200 -11.11900 47.55000
H  30.79500 -6.78400 46.54200
H  30.28800 -5.95100 48.13700
H  31.11200 -5.18300 46.90200
H  28.07300 -3.37600 42.67300
H  26.93000 -0.63900 47.03200
H  26.70200 0.05700 45.45000
H  28.23200 0.29400 46.29300
Mg 47.52100 24.72500 29.29600
C  48.15100 27.24700 31.77700
C  46.86000 22.46900 31.74000
C  47.13600 22.34300 26.92900
C  49.27600 26.68500 27.03900
N  47.54000 24.86000 31.49000
C  47.54400 25.99900 32.28000
C  47.04100 25.69000 33.68100
C  47.00500 24.09300 33.74700
C  47.24100 23.77400 32.25200
C  48.04300 23.38100 34.68200
C  45.73600 26.46000 34.09400
C  45.56800 27.11900 35.44600
H  46.18700 26.63400 36.75700
N  46.84600 22.86100 29.31600
C  46.64600 22.07700 30.44500
C  46.10600 20.70800 30.04800
C  46.12300 20.72100 28.61100
C  46.65100 22.04200 28.22800
C  45.63400 19.69000 31.12600
C  45.61700 19.71700 27.61200
O  45.48400 19.94100 26.40100
C  45.05700 18.42900 28.12700
N  48.16300 24.54400 27.21500
C  47.85300 23.44000 26.44500
C  48.47100 23.55300 25.11300
C  49.03700 24.96500 25.09800
C  48.87300 25.46800 26.54900
C  49.47400 22.40100 24.82000
C  48.34400 25.98300 24.09100
C  46.89900 26.23900 24.10200
N  48.50300 26.53600 29.32900
C  49.11800 27.21500 28.28500
C  49.57200 28.54300 28.77700
C  49.22000 28.57900 30.10100
C  48.61100 27.34200 30.39000
C  50.28800 29.54600 27.96000
C  49.10900 29.41200 31.33700
O  49.32900 30.60000 31.48600
C  48.47600 28.55200 32.41700
C  49.54100 28.37500 33.48900
O  50.67200 27.96600 33.47700
O  48.94000 28.75100 34.68300
C  49.91200 28.71200 35.84300
H  46.46800 21.79900 32.50800
H  47.22300 21.47700 26.27000
H  49.76400 27.29800 26.27900
H  47.81900 26.04400 34.35700
H  46.00800 23.87500 34.13000
H  47.59900 22.98600 35.59500
H  48.81800 24.06100 35.03500
H  48.51100 22.53700 34.17500
H  44.95400 25.70100 34.06700
H  45.62000 27.13900 33.24900
H  44.48700 26.97600 35.45900
H  45.80600 28.18300 35.45600
H  44.86500 20.14400 31.75100
H  46.49500 19.54300 31.77800
H  45.33100 18.75700 30.65100
H  45.84300 18.01200 28.75700
H  44.78900 17.71300 27.35000
H  44.20200 18.62400 28.77400
H  47.74900 23.41300 24.30800
H  50.09700 24.99700 24.84700
H  50.12500 22.33600 25.69200
H  50.06200 22.60100 23.92400
H  49.02900 21.42100 24.64700
H  48.47000 25.45700 23.14500
H  48.90600 26.91600 24.04600
H  46.48100 25.76100 24.98700
H  46.37600 25.83200 23.23700
H  46.69100 27.30500 24.01100
H  50.77300 30.22600 28.66100
H  49.56700 30.04800 27.31500
H  50.92500 28.92000 27.33500
H  47.51800 28.94000 32.76100
H  49.27000 28.66900 36.72300
H  50.44700 29.65900 35.91400
H  50.61000 27.88400 35.97000

