158

Mg 40.50600 9.09800 29.33500
C  42.36400 10.25900 32.15900
C  38.19300 7.75400 31.62100
C  38.87200 7.74600 26.71900
C  43.29000 9.98800 27.30300
N  40.34500 9.01500 31.65500
C  41.19100 9.59900 32.58900
C  40.74800 9.29100 34.06600
C  39.41700 8.49800 33.87400
C  39.26400 8.39600 32.28900
C  39.32900 7.08300 34.53600
C  40.50800 10.61100 34.91400
C  41.37000 10.78500 36.17600
H  40.84000 11.83600 37.16800
N  38.79100 7.89500 29.19500
C  37.97500 7.44300 30.23300
C  36.85500 6.64800 29.72900
C  36.97800 6.65200 28.24700
C  38.18500 7.49800 27.95800
C  35.66700 6.20000 30.55700
C  36.07200 5.93800 27.24900
O  36.35300 5.93700 26.04300
C  34.86100 5.17200 27.79600
N  41.12800 8.70100 27.32400
C  40.17500 8.21700 26.40900
C  40.45400 8.65700 24.96200
C  41.80200 9.47200 25.15700
C  42.18900 9.33000 26.65900
C  40.56700 7.54200 23.87300
C  41.54500 11.04700 24.77300
C  42.71500 11.74600 24.03200
N  42.41400 10.08100 29.60900
C  43.44100 10.25600 28.69800
C  44.46700 11.02400 29.34300
C  44.11400 11.00800 30.68500
C  42.83100 10.40600 30.80800
C  45.62200 11.67100 28.69600
C  44.56500 11.44500 32.03300
O  45.65100 11.98600 32.29400
C  43.45900 10.92800 33.02200
C  44.04900 9.99400 33.98500
O  44.22600 8.77000 33.77300
O  44.50100 10.67300 35.03300
C  45.07500 9.85700 36.10400
H  37.43800 7.34200 32.29400
H  38.32800 7.54700 25.79300
H  44.11900 10.41200 26.73300
H  41.48000 8.62200 34.51800
H  38.49700 8.96600 34.22200
H  38.70300 6.41600 33.94300
H  38.88800 7.23300 35.52200
H  40.31800 6.62500 34.57700
H  39.46900 10.79400 35.18800
H  40.62500 11.45700 34.23600
H  42.35700 11.13700 35.87700
H  41.35200 9.83700 36.71400
H  34.76600 6.77500 30.34200
H  35.84200 6.42800 31.60900
H  35.44700 5.14900 30.36900
H  35.20600 4.40400 28.48800
H  34.26100 4.86200 26.94000
H  34.12400 5.81700 28.27500
H  39.66700 9.38000 24.75100
H  42.69300 9.02000 24.72100
H  41.44800 7.57200 23.23100
H  39.75800 7.61900 23.14700
H  40.47900 6.58400 24.38500
H  41.28800 11.50000 25.73100
H  40.68600 11.17600 24.11400
H  42.25500 12.31400 23.22300
H  43.35200 10.92400 23.70400
H  43.31200 12.33200 24.73000
H  46.24200 10.93100 28.19100
H  46.12500 12.44000 29.28200
H  45.05000 12.28200 27.99600
H  43.00000 11.80300 33.48300
H  44.20300 9.40300 36.57400
H  45.65500 10.41900 36.83600
H  45.57000 9.01600 35.61800
Mg 49.67200 45.49800 42.88400
C  46.15800 45.88500 41.89200
C  49.54100 42.43400 41.50900
C  52.94300 45.37900 43.19300
C  49.70800 48.98500 43.12800
N  47.99000 44.36200 41.72300
C  46.65900 44.61700 41.53300
C  45.91800 43.47200 40.90200
C  46.97900 42.30800 41.05400
C  48.28700 43.08500 41.45800
C  46.61100 41.29500 42.15600
C  45.67700 43.77900 39.38800
C  44.59800 42.97000 38.72100
H  44.69900 42.76300 37.21600
N  51.05700 44.03000 42.48600
C  50.81000 42.80100 41.94900
C  51.99600 41.95200 42.02900
C  53.03100 42.73400 42.56100
C  52.38900 44.11800 42.78500
C  52.12200 40.52600 41.47300
C  54.37800 42.23500 42.86600
O  54.68300 41.07900 42.54500
C  55.37800 43.10400 43.49000
N  51.16200 46.99000 43.12100
C  52.44700 46.69600 43.26900
C  53.29400 47.98500 43.62800
C  52.23100 49.18300 43.41300
C  50.91900 48.37800 43.25200
C  53.90400 48.05500 45.09500
C  52.40900 50.28200 42.31900
C  52.44800 51.75400 42.74700
N  48.23500 47.12100 42.81200
C  48.46900 48.44600 42.93600
C  47.22000 49.20200 42.90900
C  46.28800 48.17500 42.58500
C  46.97500 47.00000 42.36100
C  46.97700 50.70300 43.11800
C  44.86700 47.92000 42.42100
O  43.88500 48.62100 42.64500
C  44.71500 46.39600 41.88600
C  43.78800 45.56700 42.58700
O  42.73100 45.08900 42.16100
O  44.30700 45.30200 43.87600
C  43.56300 44.33300 44.64000
H  49.53700 41.41100 41.12700
H  54.01400 45.33700 43.40200
H  49.71900 50.04700 43.38100
H  44.94900 43.38400 41.39400
H  47.24100 41.81400 40.11900
H  47.26600 41.18700 43.02000
H  46.55700 40.30200 41.70900
H  45.66700 41.67700 42.54600
H  46.57300 43.65500 38.78000
H  45.38300 44.82200 39.27400
H  43.66400 43.51900 38.83900
H  44.44800 41.99100 39.17700
H  52.86200 40.41500 40.68100
H  51.18900 40.26100 40.97500
H  52.29900 39.79100 42.25900
H  54.93500 43.72000 44.27300
H  55.90800 43.67200 42.72500
H  56.03900 42.39200 43.98300
H  54.09700 47.95000 42.89200
H  52.01200 49.59300 44.39900
H  54.94700 47.74400 45.04100
H  53.31700 47.31900 45.64400
H  53.85500 49.01300 45.61400
H  51.68100 50.17200 41.51500
H  53.34900 49.94100 41.88500
H  52.00000 52.30100 41.91700
H  53.49600 52.00400 42.91300
H  51.98800 51.87700 43.72800
H  47.47700 51.00200 44.03900
H  45.89400 50.82300 43.16400
H  47.36600 51.16600 42.21200
H  44.23200 46.49600 40.91400
H  43.88700 44.40800 45.67700
H  43.51700 43.28600 44.33900
H  42.52400 44.66300 44.66000

