158

Mg 52.97300 23.97700 44.52800
C  50.30600 26.15500 43.70000
C  51.19100 21.40800 43.15000
C  55.74100 22.15100 44.52700
C  54.61100 26.71700 45.83900
N  51.10300 23.93100 43.25000
C  50.22200 24.90800 43.08800
C  48.99500 24.29100 42.34500
C  49.04500 22.83700 42.81200
C  50.55600 22.67200 43.06300
C  48.16900 22.43900 43.99300
C  48.93800 24.64700 40.82300
C  50.28400 25.06600 40.21100
H  50.25600 25.81800 38.84400
N  53.36200 21.94800 43.89600
C  52.50300 21.04600 43.44700
C  53.11900 19.72000 43.40800
C  54.48600 19.92000 43.83200
C  54.59500 21.39200 44.07100
C  52.35200 18.46200 43.08300
C  55.54400 18.86600 44.03600
O  55.27400 17.67900 43.83600
C  56.91800 19.14700 44.53100
N  55.00200 24.50600 44.77600
C  55.91000 23.49800 44.89400
C  57.22900 24.09000 45.55800
C  56.95000 25.61400 45.74000
C  55.42600 25.64900 45.35700
C  57.58500 23.47400 46.95000
C  57.75000 26.57000 44.87000
C  58.80300 27.39400 45.69400
N  52.49900 25.97300 44.95100
C  53.24700 26.92100 45.57100
C  52.46300 28.15000 45.69500
C  51.25200 27.86100 44.97800
C  51.33200 26.53500 44.57500
C  52.80700 29.49100 46.24800
C  50.02700 28.45800 44.47800
O  49.63000 29.61600 44.59300
C  49.36100 27.31800 43.72500
C  48.96500 27.74400 42.36000
O  49.72000 28.29100 41.58700
O  47.61400 27.39700 42.17800
C  46.99700 27.77500 40.93400
H  50.55600 20.56800 42.85900
H  56.64300 21.54200 44.61700
H  55.01500 27.62900 46.28400
H  48.07300 24.71000 42.74700
H  48.68600 22.19900 42.00400
H  47.38500 23.19500 43.96800
H  48.68700 22.29700 44.94100
H  47.62800 21.53300 43.71800
H  48.16800 25.39300 40.62900
H  48.77900 23.75500 40.21600
H  50.84400 24.13100 40.19600
H  50.60500 25.82800 40.92100
H  52.96800 18.14300 42.24300
H  51.32500 18.77700 42.89700
H  52.27800 17.72000 43.87900
H  56.75000 19.60300 45.50700
H  57.45000 19.63100 43.71200
H  57.43600 18.19800 44.67400
H  57.95500 23.93600 44.76000
H  56.93700 25.90600 46.79000
H  56.62400 23.05200 47.24600
H  57.95600 24.16800 47.70400
H  58.25400 22.62800 46.79600
H  57.23300 27.31600 44.26600
H  58.41100 26.01300 44.20600
H  58.80400 27.04200 46.72500
H  58.45100 28.41600 45.83400
H  59.82000 27.29700 45.31300
H  52.06400 29.72000 47.01200
H  52.80000 30.25000 45.46600
H  53.82400 29.63200 46.61300
H  48.44100 27.02000 44.22900
H  46.71000 28.82600 40.92100
H  46.04600 27.27200 40.76200
H  47.66800 27.44600 40.14000
Mg -11.84100 38.36300 42.18600
C  -9.58900 35.98100 40.96600
C  -9.73700 40.88000 40.84000
C  -14.29100 40.53900 42.60600
C  -13.79500 35.73900 43.29000
N  -9.97100 38.43200 40.88900
C  -9.20300 37.32200 40.67900
C  -7.93400 37.79100 39.86400
C  -7.81900 39.37000 40.21700
C  -9.22200 39.55700 40.75500
C  -6.68600 39.87300 41.24100
C  -8.10300 37.37800 38.36500
C  -6.96800 36.47700 37.97200
H  -6.33800 36.89500 36.64200
N  -11.98400 40.42600 41.78200
C  -11.00100 41.28000 41.30500
C  -11.52700 42.63900 41.38700
C  -12.87200 42.56200 41.78100
C  -13.11400 41.15100 42.11800
C  -10.73100 43.83300 41.03200
C  -13.78300 43.76800 42.05900
O  -13.37900 44.88000 41.75400
C  -15.23600 43.74000 42.63700
N  -13.74000 38.17000 42.93800
C  -14.56900 39.27600 43.02500
C  -15.84500 38.78600 43.81000
C  -15.81400 37.20800 43.65900
C  -14.34700 37.00900 43.25200
C  -15.87800 39.38500 45.21400
C  -16.77600 36.73200 42.52600
C  -17.95500 35.86400 42.91700
N  -11.70900 36.30600 42.18800
C  -12.54100 35.35500 42.79000
C  -11.84300 34.06700 42.84100
C  -10.71400 34.28400 42.04700
C  -10.68600 35.63400 41.68500
C  -12.30800 32.76900 43.43900
C  -9.55600 33.60800 41.48700
O  -9.21700 32.41200 41.56800
C  -8.78800 34.69300 40.66500
C  -7.40500 34.70200 41.03400
O  -6.91700 35.40800 41.91100
O  -6.73300 33.80300 40.25800
C  -5.33100 33.45500 40.64700
H  -9.02200 41.69300 40.69900
H  -15.14100 41.20400 42.77100
H  -14.46500 34.90100 43.49200
H  -7.13500 37.23500 40.35300
H  -7.81600 40.03700 39.35600
H  -6.07000 40.66700 40.81900
H  -6.07900 39.05400 41.62600
H  -7.17700 40.34700 42.09100
H  -8.00500 38.21800 37.67700
H  -9.07400 36.89800 38.25200
H  -7.37800 35.46800 37.91000
H  -6.12000 36.39000 38.65200
H  -11.26900 44.33900 40.23000
H  -9.81000 43.42600 40.61600
H  -10.52900 44.38000 41.95300
H  -15.85700 43.20900 41.91600
H  -15.63200 44.74700 42.76600
H  -15.31700 43.30500 43.63300
H  -16.73200 39.14900 43.29100
H  -16.09800 36.72400 44.59300
H  -16.75100 40.01900 45.36900
H  -14.98200 40.00000 45.28900
H  -15.83100 38.60800 45.97700
H  -16.09600 36.35300 41.76300
H  -17.20700 37.64000 42.10400
H  -18.15600 34.99300 42.29200
H  -18.93500 36.34100 42.91900
H  -17.84800 35.56400 43.95900
H  -12.74900 32.02700 42.77400
H  -13.02900 33.13600 44.16900
H  -11.58100 32.39100 44.15800
H  -8.84100 34.52800 39.58900
H  -5.28500 33.46600 41.73600
H  -4.63500 34.14500 40.16900
H  -5.19700 32.42400 40.31900

