158

Mg 43.11100 42.67900 26.57900
C  42.32800 44.70700 29.14600
C  44.29400 40.31400 28.89000
C  44.19100 40.88700 24.01100
C  42.31400 45.35500 24.37200
N  43.32500 42.48800 28.80000
C  42.78300 43.47300 29.61000
C  42.85600 43.01500 31.08700
C  43.77500 41.66500 30.97500
C  43.81600 41.43400 29.47900
C  45.21200 41.76400 31.62700
C  41.46300 42.86400 31.71900
C  41.38400 42.07100 32.99800
H  40.51800 42.50300 34.10500
N  44.08400 40.86800 26.45000
C  44.40400 40.00700 27.53500
C  45.00500 38.80400 26.96900
C  44.83300 38.89300 25.52600
C  44.36800 40.23700 25.26800
C  45.53500 37.66100 27.81900
C  45.17400 37.85500 24.48000
O  44.83600 38.05000 23.28900
C  45.72400 36.56100 24.82800
N  43.34000 43.09800 24.52100
C  43.75300 42.16300 23.64500
C  43.63500 42.59300 22.19400
C  42.74000 43.89900 22.33200
C  42.71400 44.12000 23.80300
C  45.03400 42.86300 21.68900
C  41.24600 43.69700 21.82300
C  40.40900 42.67300 22.60400
N  42.48300 44.70800 26.61700
C  42.22300 45.66400 25.70000
C  41.67800 46.83900 26.38700
C  41.70400 46.47800 27.73300
C  42.27500 45.20900 27.83600
C  41.19200 48.07900 25.67000
C  41.33700 46.86100 29.06300
O  40.79200 47.87200 29.42100
C  41.77300 45.77900 30.04600
C  42.78400 46.30600 31.03200
O  43.94500 46.57500 30.88900
O  42.18100 46.48600 32.27800
C  42.94200 47.21300 33.28200
H  44.65500 39.60600 29.63900
H  44.50900 40.33100 23.12600
H  42.03700 46.11200 23.63600
H  43.39600 43.68400 31.75700
H  43.23300 40.83000 31.41900
H  45.21900 40.97700 32.38100
H  45.40500 42.70900 32.13300
H  46.02700 41.63700 30.91400
H  40.83600 42.30300 31.02700
H  40.93100 43.77600 31.99000
H  42.37700 41.85700 33.39300
H  40.89400 41.12600 32.76200
H  45.62200 37.95800 28.86400
H  46.55200 37.49400 27.46400
H  44.96700 36.73500 27.71700
H  46.21200 36.26700 23.89800
H  45.12700 35.70100 25.13300
H  46.60400 36.57600 25.46900
H  43.04300 41.81400 21.71300
H  43.17600 44.71600 21.75600
H  45.14000 42.35000 20.73300
H  45.86300 42.42200 22.24300
H  45.18100 43.94200 21.63200
H  41.37500 43.43300 20.77400
H  40.91500 44.73500 21.83800
H  39.75400 42.07500 21.97000
H  39.74300 43.14500 23.32600
H  41.03500 42.04700 23.24000
H  41.96600 48.30700 24.93800
H  41.09500 48.93700 26.33500
H  40.26400 47.84200 25.15000
H  40.89000 45.38600 30.55000
H  43.72000 47.92500 33.00300
H  43.29400 46.43200 33.95500
H  42.44400 47.94900 33.91300
Mg -0.37200 33.61200 27.06500
C  -2.44000 31.95800 29.44700
C  0.95000 35.43100 29.65400
C  0.72700 35.84400 24.84600
C  -2.29100 32.04800 24.59400
N  -0.75200 33.73600 29.24900
C  -1.50100 32.85000 30.03400
C  -1.37600 33.14500 31.52400
C  -0.32300 34.34600 31.57900
C  -0.04200 34.54100 30.03800
C  -0.65100 35.72400 32.35600
C  -0.93800 31.92800 32.37000
C  -1.81500 31.54800 33.55700
H  -1.15100 31.88700 34.93500
N  0.89200 35.32000 27.20700
C  1.39200 35.82500 28.40000
C  2.22200 37.02700 27.92700
C  2.22900 37.01100 26.48800
C  1.23400 36.04900 26.11300
C  2.67400 38.07600 28.88500
C  3.03700 37.88000 25.58300
O  2.88900 37.90500 24.35000
C  4.11700 38.71700 26.07200
N  -0.58500 33.89700 25.05200
C  -0.13700 34.92600 24.40900
C  -0.52000 34.89400 22.92900
C  -1.20800 33.50700 22.80000
C  -1.31900 33.02200 24.23700
C  -1.31900 36.05300 22.35800
C  -0.58200 32.49000 21.82900
C  0.39700 31.40200 22.47100
N  -2.00000 32.16700 26.96300
C  -2.62800 31.61900 25.90100
C  -3.53500 30.58400 26.34400
C  -3.51400 30.68800 27.71000
C  -2.55500 31.67500 28.06400
C  -4.36000 29.70100 25.33500
C  -4.20900 30.21800 28.87300
O  -5.15700 29.49100 29.07600
C  -3.38000 30.91000 30.06600
C  -4.43500 31.63600 30.80600
O  -4.88800 32.73000 30.40400
O  -4.84600 30.91200 31.86300
C  -5.87100 31.59200 32.67400
H  1.44800 35.87500 30.51800
H  1.03900 36.59300 24.11500
H  -2.85100 31.53600 23.80900
H  -2.35000 33.48300 31.87600
H  0.62800 34.05600 32.02700
H  0.08700 35.90200 33.13700
H  -1.52100 35.51700 32.97900
H  -0.67400 36.66700 31.80900
H  0.09300 32.19400 32.60200
H  -0.88700 31.01900 31.76900
H  -1.82000 30.46800 33.41200
H  -2.83100 31.93100 33.47100
H  3.74500 38.03700 29.08600
H  2.14200 37.87000 29.81300
H  2.47100 39.07800 28.50900
H  4.75100 39.26000 25.37200
H  4.70900 37.95100 26.57300
H  3.74900 39.43900 26.80200
H  0.45900 34.70400 22.49000
H  -2.18900 33.66700 22.35200
H  -0.76500 36.56400 21.57100
H  -1.46600 36.83400 23.10400
H  -2.28300 35.66700 22.02500
H  -0.05700 33.03000 21.04100
H  -1.39600 32.07800 21.23400
H  -0.17900 30.49300 22.64400
H  0.77700 31.75000 23.43100
H  1.17300 31.11000 21.76300
H  -3.68500 29.45200 24.51600
H  -5.13600 30.32200 24.88700
H  -4.79600 28.85500 25.86700
H  -2.89900 30.33200 30.85500
H  -6.55700 32.25400 32.14500
H  -5.41400 32.17200 33.47600
H  -6.56200 30.86800 33.10500

