158

Mg 44.32900 3.97600 46.64300
C  42.23500 6.75700 46.03100
C  41.56200 1.90000 46.00800
C  46.48600 1.40800 46.48000
C  47.02500 6.22800 46.52800
N  42.27000 4.26700 45.89200
C  41.66000 5.51200 45.70000
C  40.23700 5.42200 45.14800
C  39.93800 3.89800 45.38000
C  41.32400 3.28400 45.76700
C  38.90800 3.67800 46.52400
C  40.15000 5.77400 43.58900
C  38.88800 5.32800 42.79900
H  38.62100 6.22800 41.60100
N  44.09300 1.86000 46.45700
C  42.87800 1.23600 46.20500
C  43.13600 -0.19200 46.23700
C  44.51900 -0.39600 46.46600
C  45.09800 0.95000 46.51800
C  42.06900 -1.27500 46.00900
C  45.22100 -1.75600 46.46600
O  44.60700 -2.75600 46.42900
C  46.74400 -1.97200 46.78500
N  46.52300 3.84100 46.23200
C  47.13900 2.63800 46.48800
C  48.71600 2.80600 46.51700
C  48.88000 4.35800 46.56600
C  47.39400 4.85800 46.45700
C  49.39200 2.11100 47.67300
C  49.78400 4.96300 45.47700
C  51.24300 4.85900 45.71700
N  44.62500 6.08800 46.46000
C  45.74000 6.81800 46.53000
C  45.48200 8.22200 46.56500
C  44.07600 8.24900 46.35800
C  43.62600 6.96400 46.26600
C  46.46200 9.34700 46.57200
C  42.90900 9.16100 46.19800
O  42.80400 10.36300 46.33600
C  41.63400 8.17300 46.04100
C  40.74900 8.30600 47.22000
O  40.45700 7.43000 48.01400
O  40.02800 9.47200 47.25900
C  39.11000 9.71800 48.41100
H  40.67400 1.26800 45.92800
H  47.34900 0.74000 46.51300
H  47.85400 6.92900 46.64700
H  39.59000 6.03800 45.77300
H  39.69000 3.32300 44.48800
H  38.23900 2.86700 46.23500
H  38.27600 4.50600 46.84500
H  39.56200 3.33100 47.32400
H  41.09300 5.48000 43.13000
H  40.33300 6.84800 43.54200
H  38.00300 5.44000 43.42600
H  39.03400 4.32000 42.41000
H  42.33600 -1.95100 45.19700
H  41.11300 -0.94700 45.60100
H  41.97800 -1.93200 46.87400
H  47.41500 -1.72000 45.96400
H  46.76500 -3.03400 47.03200
H  46.97900 -1.38500 47.67200
H  49.18700 2.40400 45.62000
H  49.27500 4.63900 47.54200
H  48.69700 1.56200 48.30700
H  49.99100 2.76400 48.30800
H  50.07600 1.37800 47.24400
H  49.52900 5.98400 45.19400
H  49.64400 4.46300 44.51900
H  51.88400 5.73600 45.81300
H  51.57800 4.30300 44.84100
H  51.36100 4.14200 46.52900
H  47.05100 9.57700 47.46000
H  46.06700 10.28700 46.18600
H  47.15400 9.19800 45.74300
H  41.15100 8.50000 45.12000
H  38.68300 10.72100 48.43800
H  39.81100 9.71300 49.24600
H  38.27800 9.01500 48.37700
Mg 0.51500 43.35000 25.29500
C  2.55400 42.89200 28.25800
C  -2.25100 42.31800 27.20600
C  -1.25300 43.32200 22.51800
C  3.44700 43.91400 23.49100
N  0.23100 42.51200 27.52300
C  1.21600 42.57700 28.49200
C  0.47100 42.13700 29.75900
C  -0.96700 41.94800 29.45400
C  -1.01300 42.25000 28.03600
C  -1.47100 40.47600 29.71700
C  0.81300 43.14700 30.88600
C  1.32700 42.55100 32.26400
H  0.58000 41.30600 32.75600
N  -1.50400 43.01500 24.92200
C  -2.46500 42.57000 25.80800
C  -3.71500 42.44700 25.03500
C  -3.42200 42.79600 23.65100
C  -2.02300 43.01000 23.65900
C  -5.04400 42.12600 25.72000
C  -4.39800 42.90500 22.50800
O  -4.18100 43.29300 21.33600
C  -5.78200 42.47600 22.68800
N  1.05800 43.47700 23.27000
C  0.05000 43.59600 22.35500
C  0.55100 44.16000 21.00900
C  2.07400 44.51800 21.31400
C  2.21500 43.96000 22.77200
C  0.36500 43.09300 19.87800
C  2.55000 46.02500 21.41400
C  1.80100 47.05900 22.26700
N  2.56100 43.52600 25.71900
C  3.62400 43.69000 24.86300
C  4.86700 43.64100 25.61900
C  4.45800 43.35000 26.93700
C  3.09100 43.26100 26.94900
C  6.27500 43.64800 25.10900
C  5.01400 43.01400 28.20600
O  6.11600 42.86000 28.66000
C  3.75000 42.72800 29.19500
C  3.96000 41.46500 29.95700
O  3.49400 40.35000 29.63100
O  4.80700 41.58800 31.03100
C  4.82600 40.53800 31.97900
H  -3.17900 42.13100 27.75100
H  -1.81200 43.23900 21.58300
H  4.37100 44.27500 23.03600
H  0.80600 41.13200 30.01700
H  -1.53700 42.63600 30.07700
H  -0.83500 39.84400 30.33700
H  -1.49600 39.93100 28.77300
H  -2.46700 40.57100 30.14700
H  -0.06500 43.77600 31.03500
H  1.55100 43.88400 30.57000
H  1.31700 43.33000 33.02700
H  2.32600 42.16200 32.07200
H  -4.87600 41.68000 26.70000
H  -5.77700 41.48000 25.23700
H  -5.58500 43.07000 25.79100
H  -6.45200 42.65700 21.84800
H  -6.09000 43.18000 23.46100
H  -5.77500 41.46300 23.09100
H  -0.05200 45.02500 20.73100
H  2.73100 43.97600 20.63500
H  0.43900 42.05000 20.18600
H  1.13100 43.27300 19.12500
H  -0.62600 43.32900 19.48900
H  2.19100 46.32400 20.42900
H  3.63300 46.14500 21.46000
H  2.47200 47.35100 23.07500
H  0.81900 46.73300 22.60900
H  1.43000 47.91500 21.70400
H  6.97200 43.51000 25.93600
H  6.46400 44.56500 24.55100
H  6.38200 42.74000 24.51700
H  3.67600 43.50300 29.95800
H  5.38700 40.82200 32.86900
H  5.30500 39.63900 31.59100
H  3.91600 40.13100 32.42000

