158

Mg 40.53500 9.62100 29.67600
C  42.47400 10.77000 32.25800
C  38.18400 8.40200 31.96600
C  38.83400 8.13300 27.15100
C  43.15700 10.44700 27.42200
N  40.32100 9.69300 31.85000
C  41.22700 10.19600 32.73000
C  40.73600 10.20700 34.19100
C  39.53600 9.18500 34.10700
C  39.31500 9.10400 32.58700
C  39.67200 7.74100 34.62500
C  40.43700 11.69200 34.68400
C  40.85100 12.13700 36.04700
H  39.61100 12.59600 36.91700
N  38.69400 8.49100 29.59900
C  37.83600 8.17400 30.61500
C  36.68300 7.48600 30.08300
C  36.93400 7.26100 28.74800
C  38.25900 7.93600 28.41700
C  35.53600 6.84200 30.88400
C  36.20400 6.43900 27.70900
O  36.65600 6.29900 26.52800
C  34.85400 5.85100 28.02500
N  41.04600 9.29600 27.61000
C  40.06100 8.71100 26.80500
C  40.53900 8.72800 25.33400
C  41.63400 9.81100 25.33900
C  41.98600 9.83000 26.84700
C  41.04300 7.39900 24.85200
C  41.17900 11.20200 24.75400
C  40.67000 12.20300 25.74700
N  42.45900 10.43700 29.81100
C  43.39300 10.74300 28.76400
C  44.58900 11.34900 29.39700
C  44.17200 11.39300 30.74800
C  42.92600 10.85400 30.94300
C  45.86900 11.85600 28.72900
C  44.60000 11.97300 32.01700
O  45.62000 12.60000 32.32200
C  43.53000 11.58000 33.07400
C  44.25000 10.74600 34.07000
O  44.81000 9.66100 33.76700
O  44.30200 11.37500 35.31400
C  45.09600 10.69900 36.43700
H  37.44600 8.14300 32.72800
H  38.28700 7.73600 26.29300
H  43.86400 10.88300 26.71300
H  41.46100 9.85200 34.92400
H  38.66100 9.62400 34.58400
H  39.83200 6.97700 33.86400
H  38.77600 7.43500 35.16500
H  40.52200 7.72600 35.30700
H  39.36100 11.77000 34.52500
H  40.90500 12.43400 34.03800
H  41.40300 13.05900 35.86100
H  41.47200 11.45800 36.63200
H  35.77800 7.03600 31.92900
H  35.35500 5.77100 30.79600
H  34.54100 7.25000 30.70400
H  34.12600 6.60300 28.33000
H  34.92700 5.04700 28.75800
H  34.35900 5.46600 27.13400
H  39.71300 9.14900 24.76200
H  42.58700 9.62500 24.84300
H  41.44600 6.83100 25.69100
H  41.73700 7.57500 24.03000
H  40.13400 6.91600 24.49500
H  40.47800 11.11600 23.92400
H  42.09300 11.48100 24.23000
H  41.49500 12.65200 26.29900
H  39.92800 11.70800 26.37400
H  40.18600 13.09200 25.34200
H  45.74300 12.76000 28.13200
H  46.10300 11.05000 28.03300
H  46.60300 11.97400 29.52500
H  43.20100 12.46000 33.62700
H  44.39800 10.40500 37.22100
H  45.72600 11.44900 36.91600
H  45.59900 9.81400 36.04700
Mg 0.95200 42.74900 26.09400
C  2.20900 42.77300 29.35900
C  -2.07300 41.78900 27.54600
C  -0.14400 41.70300 23.11900
C  4.04600 43.48600 24.86400
N  0.22000 42.43400 28.34700
C  0.87200 42.46800 29.45900
C  -0.02400 42.43600 30.66400
C  -1.47200 42.15100 29.99400
C  -1.08900 42.06400 28.51900
C  -2.08200 40.84300 30.52800
C  0.08700 43.59600 31.69600
C  0.45500 43.15800 33.21600
H  -0.59100 43.72800 34.19800
N  -0.92200 42.05200 25.35300
C  -2.01800 41.73000 26.08300
C  -3.13700 41.26100 25.23100
C  -2.63100 41.30500 23.90400
C  -1.18200 41.69000 24.07200
C  -4.61200 40.99200 25.65400
C  -3.34300 41.11800 22.54300
O  -2.68800 41.23000 21.52500
C  -4.89800 40.90200 22.30900
N  1.80500 42.77400 24.29800
C  1.16500 42.18200 23.19400
C  2.10500 42.04400 22.04800
C  3.33600 42.99800 22.48000
C  3.11800 43.03600 23.98000
C  2.46400 40.59800 21.58100
C  3.46100 44.41400 21.71800
C  4.07500 44.31300 20.32600
N  2.83400 43.09600 26.89300
C  4.00800 43.40800 26.23800
C  5.06500 43.45400 27.21200
C  4.43500 43.23900 28.45200
C  3.08400 43.04200 28.23100
C  6.56000 43.48300 26.93300
C  4.65200 42.99000 29.86600
O  5.67600 42.90900 30.49100
C  3.21400 42.82200 30.54400
C  3.17200 41.59900 31.39900
O  3.03600 40.44300 31.03400
O  3.39800 41.92900 32.78700
C  3.34500 40.74500 33.65200
H  -3.07000 41.58000 27.93900
H  -0.49800 41.36400 22.14300
H  4.94800 43.74400 24.30500
H  0.20600 41.56000 31.27100
H  -2.18600 42.95100 30.18800
H  -3.13900 41.04800 30.70000
H  -1.66700 40.56800 31.49800
H  -1.88700 39.99500 29.87200
H  -0.78900 44.24000 31.77500
H  0.87600 44.26700 31.35800
H  1.38600 43.68200 33.43000
H  0.63600 42.09100 33.34600
H  -4.76400 41.26100 26.70000
H  -5.03800 40.00500 25.47900
H  -5.24600 41.78200 25.25100
H  -5.41000 41.82000 22.59500
H  -5.02400 40.19100 23.12600
H  -5.13100 40.42500 21.35700
H  1.55700 42.40700 21.17900
H  4.21900 42.37200 22.35500
H  2.55700 39.87400 22.39000
H  3.41500 40.63500 21.04900
H  1.72900 40.27600 20.84300
H  3.93300 45.19500 22.31300
H  2.43100 44.75000 21.59400
H  4.42400 43.30700 20.09300
H  4.94800 44.96600 20.33400
H  3.41200 44.65000 19.52900
H  6.80800 44.54400 26.95500
H  6.76400 43.04200 25.95700
H  7.02600 42.96900 27.77400
H  3.16500 43.72100 31.15800
H  2.51300 40.11200 33.34600
H  3.30300 41.15000 34.66400
H  4.25400 40.14400 33.63700

