158

Mg 6.72600 54.37700 41.45900
C  5.92900 50.90700 41.29600
C  9.71700 53.78900 40.08600
C  7.28000 57.66400 41.46500
C  3.28200 54.92200 42.52100
N  7.66100 52.51500 40.53700
C  7.22500 51.20900 40.79500
C  8.28700 50.23400 40.30300
C  9.56700 51.21100 40.32800
C  8.98200 52.62700 40.28100
C  10.43000 51.10000 41.57000
C  8.06700 49.58900 38.82900
C  7.21400 50.39200 37.82100
H  6.57700 49.67800 36.65500
N  8.30400 55.60400 40.77600
C  9.43000 55.18700 40.22000
C  10.33100 56.31300 40.09400
C  9.66500 57.45300 40.58700
C  8.38900 56.98000 41.00400
C  11.70200 56.33200 39.53500
C  10.20200 58.92600 40.52800
O  11.22300 59.31100 39.97500
C  9.31700 60.02800 41.07600
N  5.35800 56.06900 41.76900
C  5.90100 57.28500 41.76900
C  4.82500 58.39500 42.11800
C  3.52200 57.50300 42.34000
C  4.08400 56.05000 42.24800
C  5.30500 59.35700 43.25600
C  2.34700 57.85800 41.35200
C  0.91900 57.38800 41.74700
N  4.95800 53.21200 41.94500
C  3.70300 53.62000 42.37000
C  2.90100 52.43000 42.59500
C  3.70600 51.35700 42.33000
C  4.94700 51.83800 41.75500
C  1.44200 52.41000 43.11400
C  3.77400 49.88900 42.27300
O  2.93500 49.11600 42.65800
C  5.22700 49.58000 41.52300
C  5.04700 48.70000 40.39300
O  4.40900 48.94500 39.33800
O  5.80100 47.57300 40.70800
C  5.70400 46.54300 39.64900
H  10.76300 53.62800 39.81500
H  7.42400 58.73100 41.64300
H  2.26700 55.12700 42.86500
H  8.41100 49.41000 41.00500
H  10.13500 51.09500 39.40500
H  10.08500 50.20500 42.08700
H  10.39700 51.94000 42.26400
H  11.47600 50.94800 41.30200
H  7.60900 48.62300 39.04200
H  9.03900 49.47900 38.34900
H  7.97100 50.98900 37.31200
H  6.56700 51.10100 38.33600
H  11.97400 55.36400 39.11400
H  12.42700 56.64700 40.28600
H  11.71900 56.99200 38.66700
H  9.91300 60.94000 41.05900
H  9.03700 59.82600 42.11000
H  8.37400 60.17000 40.54900
H  4.68200 59.02700 41.24200
H  3.23800 57.59700 43.38800
H  4.84600 59.13400 44.21900
H  5.02800 60.35300 42.91100
H  6.36800 59.27400 43.48300
H  2.56400 57.32700 40.42500
H  2.38700 58.94200 41.24800
H  0.56300 56.81900 40.88800
H  0.26000 58.20700 42.03200
H  0.90800 56.75800 42.63600
H  0.94500 51.57900 42.61500
H  0.94000 53.33800 42.84100
H  1.43800 52.19200 44.18200
H  5.82500 49.08500 42.28900
H  6.08000 46.93300 38.70400
H  4.66600 46.22100 39.56100
H  6.37400 45.69800 39.80600
Mg -1.84500 34.60100 27.51000
C  -3.56600 32.82600 29.75400
C  -0.68200 36.72200 29.87600
C  -0.67800 36.72500 25.01700
C  -3.41300 32.71900 24.86200
N  -2.31500 34.92400 29.49100
C  -2.83200 33.88000 30.28800
C  -2.80500 34.27700 31.79700
C  -2.03500 35.67100 31.72400
C  -1.65900 35.80900 30.26100
C  -3.01100 36.87200 32.25600
C  -2.08000 33.19600 32.61500
C  -2.79300 32.68000 33.92700
H  -1.87400 32.56400 35.16100
N  -0.71600 36.34000 27.49400
C  -0.23600 37.01200 28.57800
C  0.75400 38.02300 28.26500
C  0.69600 38.05800 26.81900
C  -0.28500 37.02400 26.37200
C  1.54800 38.89500 29.27300
C  1.40300 39.13400 25.95000
O  1.38400 39.08000 24.71300
C  2.26200 40.18500 26.60600
N  -2.24500 34.83100 25.29400
C  -1.54700 35.72900 24.52100
C  -1.69900 35.48600 23.09000
C  -2.34500 34.10500 23.04500
C  -2.71200 33.85600 24.45000
C  -2.43100 36.63000 22.27200
C  -1.66900 32.90900 22.35500
C  -0.38100 32.42300 22.95400
N  -3.22900 33.01700 27.31000
C  -3.66400 32.29400 26.18400
C  -4.59600 31.22300 26.63800
C  -4.48700 31.34400 28.07600
C  -3.69000 32.45700 28.36200
C  -5.39000 30.31400 25.84400
C  -4.84900 30.74600 29.37300
O  -5.54400 29.73000 29.64100
C  -4.19800 31.64000 30.47200
C  -5.24800 32.04500 31.47300
O  -5.87500 33.06800 31.44400
O  -5.55000 31.00400 32.31000
C  -6.29800 31.35600 33.53900
H  -0.17600 37.16400 30.73600
H  -0.26400 37.36700 24.23700
H  -3.84900 32.05400 24.11400
H  -3.81000 34.31200 32.21700
H  -1.09800 35.63000 32.28000
H  -3.62200 37.30300 31.46300
H  -2.44500 37.68100 32.71900
H  -3.61700 36.48200 33.07400
H  -1.08400 33.53000 32.90500
H  -1.84800 32.27600 32.07900
H  -3.21100 31.70800 33.66500
H  -3.65000 33.32700 34.11800
H  1.57300 38.50000 30.28900
H  1.13600 39.89400 29.41600
H  2.57000 38.98100 28.90500
H  1.83500 40.73100 27.44700
H  2.54600 40.87400 25.81000
H  3.18500 39.64700 26.82500
H  -0.69800 35.37300 22.67400
H  -3.34700 34.28500 22.65500
H  -3.45100 36.47200 21.92400
H  -1.89800 36.84100 21.34500
H  -2.32500 37.52900 22.88000
H  -1.57100 33.23200 21.31900
H  -2.41800 32.12100 22.27600
H  0.27300 32.56100 22.09200
H  -0.51100 31.38700 23.26800
H  -0.17200 32.96300 23.87700
H  -4.84900 29.44600 25.46700
H  -5.60500 30.73100 24.86100
H  -6.27500 30.18300 26.46700
H  -3.54100 31.09400 31.14900
H  -5.90900 32.20000 34.10900
H  -6.20700 30.43500 34.11400
H  -7.33000 31.67500 33.39200

