158

Mg 8.60200 48.62600 25.21200
C  6.79800 48.75000 28.15900
C  11.36800 50.07000 26.94400
C  10.45400 48.23500 22.54000
C  5.73000 47.67700 23.52300
N  8.96100 49.52600 27.26200
C  8.05200 49.36700 28.29400
C  8.65400 50.01100 29.55600
C  9.91700 50.66700 28.98800
C  10.14200 50.07900 27.66000
C  9.79800 52.23400 28.99600
C  8.96200 48.86700 30.62100
C  10.08000 49.07300 31.63700
H  9.87800 48.52200 33.07700
N  10.61200 49.09200 24.80900
C  11.52300 49.70700 25.55300
C  12.81000 49.77900 24.85400
C  12.66300 49.11800 23.61800
C  11.20200 48.73500 23.65800
C  13.98700 50.44500 25.46600
C  13.65300 48.78900 22.56600
O  13.38500 48.16100 21.55600
C  15.09900 49.15900 22.70500
N  8.13600 48.05900 23.36700
C  9.10000 47.86000 22.38400
C  8.53800 47.30300 21.13400
C  7.08500 46.98200 21.49500
C  6.97200 47.60900 22.84900
C  8.84000 48.15900 19.92100
C  6.80800 45.43100 21.60800
C  7.94200 44.54100 22.15400
N  6.66400 48.20700 25.64800
C  5.61300 47.89000 24.88000
C  4.43000 47.76300 25.67600
C  4.87900 47.94800 26.97700
C  6.23200 48.32600 26.90400
C  3.10800 47.24600 25.21200
C  4.39000 47.96400 28.38500
O  3.33000 47.62200 28.89000
C  5.72300 48.38200 29.16200
C  6.16200 47.14800 29.93200
O  6.75900 46.22600 29.43900
O  5.92800 47.25400 31.26100
C  6.44100 46.18100 32.08800
H  12.25800 50.42300 27.46900
H  11.03100 47.97400 21.65000
H  4.85000 47.36700 22.95600
H  8.00700 50.75400 30.02300
H  10.87900 50.64400 29.49900
H  9.85800 52.54200 27.95200
H  10.59300 52.72700 29.55500
H  8.84300 52.65200 29.31500
H  8.91200 47.89700 30.12600
H  8.07300 48.86500 31.25200
H  10.63700 50.01000 31.65500
H  10.83200 48.35700 31.30500
H  14.57400 50.92900 24.68600
H  14.74000 49.78100 25.89100
H  13.80400 51.21900 26.21200
H  15.08600 50.22600 22.48000
H  15.66100 48.63000 21.93500
H  15.59200 48.94000 23.65200
H  9.15800 46.40900 21.06500
H  6.49100 47.58300 20.80700
H  7.83800 48.41600 19.57800
H  9.39800 47.48200 19.27500
H  9.38500 49.08300 20.11600
H  6.56500 45.16800 20.57900
H  5.91900 45.23800 22.20800
H  8.52200 45.07200 22.91000
H  8.47800 44.06200 21.33500
H  7.45800 43.72400 22.69000
H  2.98300 47.51200 24.16200
H  2.42100 47.71000 25.91900
H  3.05200 46.15800 25.23100
H  5.58700 49.25100 29.80600
H  5.96100 46.49800 33.01400
H  7.52500 46.10500 32.17300
H  6.04500 45.20000 31.82600
Mg -5.62400 25.07000 26.42800
C  -3.92600 26.15700 29.31800
C  -7.55900 23.06600 28.56900
C  -7.06000 23.65400 23.70300
C  -3.40100 26.91700 24.49400
N  -5.76400 24.67700 28.68500
C  -4.97600 25.33500 29.64900
C  -5.38300 24.94300 31.05600
C  -6.29500 23.73500 30.76700
C  -6.54200 23.79200 29.22600
C  -5.69000 22.45600 31.21700
C  -6.01000 26.16600 31.86800
C  -5.39600 26.51300 33.18700
H  -4.76400 25.38200 34.03500
N  -7.10800 23.57000 26.18600
C  -7.82300 22.97700 27.19600
C  -8.80900 22.08600 26.65100
C  -8.61800 22.20400 25.16300
C  -7.52300 23.16300 24.94200
C  -9.86800 21.44300 27.49700
C  -9.30000 21.35700 24.06900
O  -9.04300 21.52600 22.88600
C  -10.51800 20.51600 24.43800
N  -5.19200 25.15600 24.39700
C  -6.01100 24.55700 23.49800
C  -5.71800 25.07800 22.08500
C  -4.52800 26.14200 22.29600
C  -4.38700 26.07400 23.80300
C  -5.24100 23.92300 21.10100
C  -4.80400 27.53300 21.74800
C  -3.76600 28.00900 20.76900
N  -3.95600 26.28400 26.72300
C  -3.15900 27.00700 25.84900
C  -2.22800 27.80300 26.54900
C  -2.47700 27.45600 27.88900
C  -3.57900 26.58800 27.95900
C  -1.16900 28.79000 26.05200
C  -2.04600 27.79300 29.21900
O  -1.16700 28.51600 29.59800
C  -2.89200 26.86700 30.18900
C  -1.92300 26.00800 30.91700
O  -1.53100 24.92400 30.56200
O  -1.50700 26.66900 32.07600
C  -0.44900 26.02500 32.86900
H  -8.25100 22.61700 29.28500
H  -7.60000 23.45700 22.77400
H  -2.81500 27.60300 23.87900
H  -4.55100 24.50700 31.60900
H  -7.30700 23.78300 31.16800
H  -6.37600 22.14300 32.00400
H  -4.70900 22.54500 31.68300
H  -5.60600 21.60900 30.53600
H  -7.05200 25.89900 32.04400
H  -5.89200 27.03400 31.22000
H  -6.20600 26.98600 33.74200
H  -4.67500 27.30400 32.98400
H  -10.11500 21.92500 28.44200
H  -9.59300 20.42700 27.78000
H  -10.84500 21.53300 27.02200
H  -10.32000 19.76600 25.20400
H  -10.72000 19.97100 23.51600
H  -11.28500 21.25500 24.66900
H  -6.57800 25.54200 21.60200
H  -3.50100 25.85000 22.07400
H  -5.68900 23.94900 20.10800
H  -5.46000 22.91300 21.44800
H  -4.16600 24.00700 20.93800
H  -4.74200 28.19000 22.61600
H  -5.77400 27.68400 21.27400
H  -3.89200 27.74200 19.71900
H  -2.77200 27.69800 21.09200
H  -3.80300 29.09600 20.69800
H  -0.59500 28.27100 25.28400
H  -0.58900 29.01400 26.94800
H  -1.72600 29.64500 25.67100
H  -3.31700 27.53100 30.94100
H  0.49900 26.10700 32.33700
H  -0.79000 25.05500 33.23100
H  -0.44900 26.75700 33.67700

