158

Mg -2.31500 17.24400 27.28200
C  -2.82900 15.39700 30.15600
C  -2.82600 20.12600 29.22200
C  -2.44200 19.13700 24.53500
C  -2.29700 14.33100 25.39900
N  -2.71800 17.63400 29.50600
C  -2.77700 16.75000 30.51000
C  -2.89300 17.43200 31.79000
C  -3.11900 18.88200 31.46800
C  -2.77200 18.87200 29.99300
C  -4.39800 19.55600 31.98000
C  -1.70200 17.19300 32.76000
C  -1.50600 18.05600 34.07800
H  -1.14100 17.39100 35.42700
N  -2.49900 19.35500 26.98400
C  -2.80800 20.31100 27.84200
C  -2.91700 21.56700 27.16300
C  -2.51400 21.35400 25.77600
C  -2.43000 19.86600 25.70400
C  -3.24100 22.86200 27.98000
C  -2.42100 22.36300 24.63100
O  -2.20500 22.02400 23.50500
C  -2.61800 23.81100 24.92200
N  -2.46400 16.67900 25.24300
C  -2.48600 17.68700 24.34400
C  -2.50800 17.07600 22.89600
C  -2.11200 15.63200 23.21500
C  -2.36000 15.47900 24.65600
C  -3.96800 17.28800 22.26500
C  -0.71500 15.20700 22.83300
C  0.41600 16.11700 23.17200
N  -2.40900 15.20400 27.66300
C  -2.41300 14.18600 26.80600
C  -2.58100 12.92000 27.52500
C  -2.69500 13.35300 28.85300
C  -2.59300 14.72300 28.90400
C  -2.80800 11.50200 26.99200
C  -3.05400 12.90100 30.20000
O  -3.38000 11.83100 30.77900
C  -2.93700 14.16900 31.07900
C  -1.73000 13.86500 31.83800
O  -0.62300 14.24600 31.52300
O  -2.01300 13.43500 33.04800
C  -0.92000 13.41100 34.09900
H  -3.03700 20.99800 29.84400
H  -2.47500 19.68100 23.58900
H  -1.98700 13.45400 24.82700
H  -3.80700 17.14400 32.30900
H  -2.27400 19.42400 31.89300
H  -4.12900 20.32400 32.70600
H  -4.97400 18.83300 32.55800
H  -5.04300 19.91500 31.17900
H  -0.79800 17.29200 32.16000
H  -1.69200 16.21300 33.23700
H  -2.26600 18.82900 34.19300
H  -0.57000 18.56000 33.83800
H  -3.65000 22.68100 28.97400
H  -3.95900 23.47500 27.43500
H  -2.38900 23.52300 28.14100
H  -2.32300 24.33600 24.01300
H  -2.02300 24.09500 25.79000
H  -3.69700 23.89400 25.05200
H  -1.80500 17.61800 22.26300
H  -2.73400 14.84500 22.78800
H  -4.54100 17.97500 22.88700
H  -4.57300 16.39100 22.39200
H  -3.81400 17.50700 21.20800
H  -0.76900 15.16100 21.74600
H  -0.45700 14.17700 23.08100
H  -0.08100 16.64100 23.98800
H  0.77900 16.81100 22.41500
H  1.24300 15.54100 23.58700
H  -3.85000 11.40100 27.29400
H  -2.10400 10.92300 27.58900
H  -2.73100 11.38400 25.91100
H  -3.81700 14.24000 31.71700
H  -0.87600 14.33600 34.67300
H  0.12000 13.32300 33.78300
H  -0.86500 12.64000 34.86700
Mg -2.28200 34.36000 27.61300
C  -3.88900 32.54800 30.11900
C  -0.80200 36.27100 30.12300
C  -0.84800 36.26700 25.15300
C  -4.17300 32.60200 25.19500
N  -2.38000 34.37800 29.82200
C  -3.16800 33.63700 30.65000
C  -2.91700 33.91600 32.22900
C  -2.04900 35.21900 32.10400
C  -1.61800 35.27500 30.60700
C  -2.58700 36.63800 32.50100
C  -2.34500 32.67700 33.00000
C  -3.08800 32.14600 34.27600
H  -2.33200 32.14700 35.63500
N  -1.04600 36.07000 27.66700
C  -0.51600 36.66700 28.75900
C  0.38700 37.69800 28.34100
C  0.48500 37.67400 26.89500
C  -0.52200 36.66400 26.49900
C  1.15500 38.54800 29.29400
C  1.34900 38.54900 25.98900
O  1.34700 38.40600 24.75700
C  2.00400 39.74800 26.47600
N  -2.51800 34.48800 25.46900
C  -1.75700 35.28700 24.71000
C  -2.15000 35.12600 23.25400
C  -2.93000 33.78600 23.25800
C  -3.23100 33.60800 24.73700
C  -3.00700 36.36000 22.81600
C  -2.05600 32.68600 22.77500
C  -2.22400 32.27800 21.31600
N  -3.62000 32.84000 27.57500
C  -4.36800 32.26000 26.51200
C  -5.24400 31.26600 27.03500
C  -5.08100 31.31700 28.45300
C  -4.08900 32.29200 28.75100
C  -6.14000 30.39000 26.18700
C  -5.60500 30.79600 29.71800
O  -6.36600 29.89500 29.98500
C  -4.82000 31.58600 30.83800
C  -5.87400 32.19000 31.73500
O  -6.76600 32.95400 31.36800
O  -5.67100 31.73000 33.02800
C  -6.82600 31.76400 33.90900
H  -0.38900 36.90200 30.91200
H  -0.45100 36.83800 24.31000
H  -4.81200 32.21700 24.39700
H  -3.89700 34.23100 32.58600
H  -1.25900 35.08400 32.84300
H  -1.79400 37.14200 33.05400
H  -3.46000 36.61900 33.15300
H  -2.79000 37.12000 31.54400
H  -1.36600 32.91000 33.41800
H  -2.20200 31.79800 32.37100
H  -3.31000 31.10500 34.04400
H  -3.99300 32.73400 34.43200
H  0.53400 38.75800 30.16500
H  1.56700 39.50000 28.95800
H  1.97700 37.94600 29.68000
H  1.35400 40.38200 27.07900
H  2.38200 40.31200 25.62400
H  2.81100 39.34300 27.08700
H  -1.29700 35.11300 22.57600
H  -3.93100 33.87600 22.83700
H  -2.59100 36.93600 21.99000
H  -3.06500 37.01700 23.68500
H  -3.98800 35.99200 22.51500
H  -2.09200 31.87600 23.50400
H  -1.00400 32.96900 22.81800
H  -1.26700 32.56200 20.87900
H  -3.07800 32.81800 20.90700
H  -2.47500 31.22500 21.19000
H  -5.42400 29.75100 25.67100
H  -6.56700 30.94600 25.35200
H  -6.80600 29.86100 26.86900
H  -4.24200 30.78800 31.30400
H  -7.07800 30.85300 34.45200
H  -7.66900 31.98700 33.25500
H  -6.74300 32.60600 34.59600

