158

Mg 24.49700 -5.53000 45.92300
C  26.83800 -3.32200 44.47100
C  22.04400 -4.13200 43.84700
C  22.53700 -8.10400 46.57900
C  27.14300 -6.89300 47.72300
N  24.45400 -3.93400 44.28700
C  25.53500 -3.15800 43.92500
C  25.11400 -2.21200 42.78900
C  23.58100 -2.25200 42.78900
C  23.34500 -3.48700 43.68000
C  22.86200 -0.93800 43.22400
C  25.72700 -2.62600 41.47600
C  26.44300 -1.62400 40.57100
H  26.22000 -1.86400 39.08000
N  22.45200 -5.99100 45.38900
C  21.68500 -5.29600 44.50800
C  20.39800 -5.90800 44.50000
C  20.50500 -7.19200 45.19400
C  21.86200 -7.10500 45.80400
C  19.32200 -5.31000 43.63800
C  19.44400 -8.29100 45.24500
O  18.42300 -8.23300 44.63000
C  19.69200 -9.60500 45.88300
N  24.89600 -7.33400 46.76700
C  23.82800 -8.14900 47.06400
C  24.27000 -9.22000 48.10100
C  25.65300 -8.74800 48.58000
C  25.91400 -7.56100 47.66000
C  23.16300 -9.66500 49.20800
C  26.89200 -9.79200 48.60700
C  27.76100 -9.76600 49.89300
N  26.54900 -5.19400 46.11900
C  27.49600 -5.84100 46.88300
C  28.77400 -5.19400 46.66600
C  28.60600 -4.23100 45.79200
C  27.22100 -4.26100 45.44900
C  30.01600 -5.68600 47.27000
C  29.26900 -3.19700 45.02800
O  30.37000 -2.67600 45.09600
C  28.12300 -2.60300 44.10100
C  28.02100 -1.13700 44.35600
O  28.00500 -0.57600 45.44500
O  27.92200 -0.49000 43.10500
C  27.46700 0.88000 43.17000
H  21.31700 -3.58700 43.24200
H  21.88700 -8.87800 46.99300
H  28.02300 -7.26200 48.25300
H  25.42000 -1.21200 43.09600
H  23.21000 -2.54200 41.80500
H  23.31400 -0.07100 42.74300
H  23.03100 -0.81100 44.29300
H  21.80500 -0.96600 42.96000
H  25.03800 -3.23600 40.89200
H  26.42000 -3.43900 41.69500
H  27.51400 -1.77200 40.71000
H  26.15200 -0.61500 40.86200
H  19.53700 -5.58400 42.60500
H  19.31300 -4.22600 43.75100
H  18.30400 -5.59700 43.90100
H  19.05700 -10.41000 45.51400
H  19.69700 -9.58200 46.97300
H  20.70300 -9.94800 45.66300
H  24.36200 -10.10800 47.47500
H  25.47000 -8.29100 49.55300
H  22.36200 -8.92600 49.23900
H  23.67700 -9.82500 50.15500
H  22.69900 -10.62100 48.96300
H  27.44800 -9.41800 47.74800
H  26.64300 -10.84000 48.44100
H  27.89700 -10.78300 50.26000
H  27.48700 -9.17400 50.76600
H  28.72400 -9.44600 49.49400
H  30.16100 -6.76500 47.22300
H  30.05000 -5.32100 48.29700
H  30.83300 -5.24700 46.69800
H  28.40400 -2.79300 43.06500
H  26.53300 0.84300 43.73000
H  27.29100 1.20400 42.14500
H  28.09100 1.67700 43.57400
Mg 17.15100 53.23800 26.58300
C  19.23300 51.56900 28.74700
C  14.72700 53.28700 28.99500
C  15.14400 54.46500 24.29800
C  19.33400 52.21900 23.88000
N  17.00300 52.55000 28.68400
C  18.01600 51.97800 29.37400
C  17.59500 51.94100 30.89800
C  16.04200 52.26300 30.84400
C  15.89500 52.70000 29.44600
C  15.09800 51.13200 31.32300
C  18.43900 52.98900 31.76800
C  19.12100 52.51700 33.03200
H  18.16800 51.93100 34.08800
N  15.28300 54.05800 26.72600
C  14.43600 53.87900 27.76500
C  13.12100 54.46000 27.39500
C  13.19000 54.82800 26.05200
C  14.59400 54.49000 25.63300
C  11.87600 54.19400 28.19900
C  12.19400 55.42300 25.16500
O  12.50100 55.66200 24.02400
C  10.82300 55.71700 25.66700
N  17.15000 53.23100 24.44200
C  16.31100 53.97900 23.81700
C  16.52300 54.05000 22.23900
C  17.92700 53.45200 22.11000
C  18.22100 53.00100 23.59200
C  15.46700 53.22700 21.41500
C  19.01600 54.28200 21.41700
C  19.48200 55.49700 22.23200
N  18.94300 52.20300 26.35000
C  19.76100 51.91400 25.21800
C  20.89100 51.19400 25.61600
C  20.76800 51.09800 27.03400
C  19.57100 51.66300 27.40300
C  21.95200 50.71900 24.66100
C  21.44900 50.48800 28.19200
O  22.51100 49.90600 28.43600
C  20.43300 50.91600 29.38600
C  20.13200 49.65000 30.14300
O  19.34500 48.73300 29.81500
O  20.70600 49.79500 31.37700
C  20.52900 48.83000 32.44100
H  13.96000 53.30500 29.77100
H  14.59600 54.94900 23.48700
H  19.92000 52.02900 22.97800
H  17.76300 50.91700 31.23100
H  15.78600 53.17600 31.38100
H  14.35400 51.69200 31.89000
H  15.67600 50.41600 31.90700
H  14.63800 50.67300 30.44800
H  17.76700 53.77500 32.11400
H  19.15100 53.50100 31.12100
H  19.75100 53.30300 33.44900
H  19.77300 51.67900 32.78700
H  11.61500 55.05300 28.81800
H  12.04600 53.33600 28.85000
H  11.02400 53.97700 27.55600
H  10.26700 56.18600 24.85500
H  10.89100 56.37600 26.53300
H  10.33000 54.74900 25.75000
H  16.44300 55.12500 22.08000
H  17.88200 52.49600 21.58900
H  15.92100 52.53700 20.70400
H  14.94500 53.93300 20.76900
H  14.75600 52.72900 22.07400
H  18.77800 54.59900 20.40100
H  19.91100 53.70400 21.18500
H  19.85400 56.32200 21.62500
H  20.23800 55.10000 22.91000
H  18.67200 55.95800 22.79700
H  21.92000 51.39900 23.81000
H  21.84200 49.65300 24.46100
H  22.91900 50.73400 25.16600
H  20.93700 51.62500 30.04200
H  19.46500 48.62500 32.55500
H  20.83600 49.42900 33.29900
H  21.03100 47.88700 32.22600

