158

Mg 48.46100 45.37100 42.29900
C  45.14300 45.73900 41.01700
C  48.37900 42.06200 41.29200
C  51.79800 45.48300 42.25200
C  48.39300 48.81500 43.04400
N  46.82900 44.05400 41.42300
C  45.61100 44.44400 40.97400
C  44.94800 43.30500 40.28100
C  45.87500 42.04000 40.70600
C  47.11300 42.71600 41.12600
C  45.34500 41.05600 41.75500
C  44.79300 43.50500 38.73100
C  43.67300 42.69800 38.01200
H  44.11000 41.45900 37.21700
N  49.91900 43.95800 41.88700
C  49.67900 42.69000 41.56000
C  50.93700 41.92500 41.45300
C  51.97900 42.90200 41.74900
C  51.27800 44.15600 42.02300
C  51.09900 40.47700 41.21300
C  53.42700 42.55900 41.87500
O  53.84700 41.41800 41.72600
C  54.42800 43.64900 42.16100
N  49.92500 46.96300 42.52700
C  51.26200 46.71100 42.47300
C  52.06800 47.96700 42.71900
C  50.96700 49.01400 43.20000
C  49.68300 48.22800 42.87800
C  53.26200 47.79400 43.79800
C  51.27400 50.45900 42.71800
C  51.23400 51.50500 43.76600
N  47.04000 46.96300 42.18000
C  47.18300 48.25500 42.51700
C  45.92000 48.91700 42.27500
C  45.05200 47.97100 41.67000
C  45.79300 46.82000 41.65900
C  45.51800 50.31300 42.55700
C  43.81200 47.73400 41.06200
O  42.91600 48.52100 40.77400
C  43.83000 46.28800 40.42000
C  42.48600 45.63300 40.84500
O  41.61500 45.23100 40.11400
O  42.55400 45.35900 42.13000
C  41.30600 44.95900 42.75500
H  48.33600 41.07700 40.82300
H  52.88800 45.52000 42.20900
H  48.39400 49.85800 43.36800
H  43.99300 43.22800 40.80200
H  45.94300 41.46100 39.78500
H  44.49000 41.55700 42.20900
H  46.08300 40.93100 42.54700
H  45.04100 40.09800 41.33200
H  45.72600 43.16900 38.27900
H  44.77600 44.57400 38.52000
H  43.08100 43.31900 37.33900
H  43.02500 42.30100 38.79300
H  51.65100 40.31500 40.28700
H  50.11800 40.00300 41.24700
H  51.67200 39.93200 41.96200
H  54.49100 44.44600 41.42000
H  55.43600 43.29200 42.36900
H  54.07700 44.00600 43.13000
H  52.44900 48.29800 41.75200
H  51.00200 49.01900 44.28900
H  53.40900 46.75200 44.08000
H  53.06300 48.34100 44.72000
H  54.10500 48.14700 43.20400
H  50.67900 50.71300 41.84100
H  52.21500 50.58400 42.18200
H  51.69900 51.16300 44.69100
H  50.22000 51.86300 43.94400
H  51.84900 52.37500 43.53700
H  46.27000 51.02900 42.22300
H  45.50000 50.32900 43.64700
H  44.50600 50.62600 42.30200
H  43.74300 46.35500 39.33600
H  40.41400 45.02900 42.13200
H  41.22400 45.40700 43.74600
H  41.53200 43.90300 42.90600
Mg 17.08700 51.84200 26.34500
C  18.62900 50.14600 29.04300
C  14.73200 53.14900 28.52300
C  15.63200 53.28500 23.84100
C  19.22900 49.98400 24.14400
N  16.75100 51.55700 28.49200
C  17.50700 50.94000 29.42600
C  16.95600 51.26400 30.93700
C  15.60700 51.97700 30.62700
C  15.69000 52.28300 29.08500
C  14.28500 51.23600 31.13700
C  17.95600 52.27100 31.70500
C  18.08500 51.93500 33.26700
H  17.10000 51.09000 34.13700
N  15.33800 53.08700 26.19900
C  14.57700 53.57100 27.20700
C  13.70200 54.61300 26.66700
C  13.98300 54.71600 25.23300
C  14.96300 53.64300 25.00500
C  12.74600 55.34700 27.50400
C  13.45000 55.63200 24.16900
O  13.89600 55.55600 22.99000
C  12.45100 56.68900 24.56500
N  17.32900 51.54400 24.27800
C  16.61500 52.33800 23.44100
C  17.04500 52.15200 21.94000
C  18.18200 51.13200 22.09800
C  18.23300 50.81700 23.56000
C  15.89900 51.63100 21.00500
C  19.52200 51.54000 21.52200
C  20.32200 52.61100 22.19600
N  18.67800 50.43400 26.46500
C  19.43000 49.75500 25.52000
C  20.44700 49.06500 26.23900
C  20.13200 49.15900 27.63700
C  19.01200 49.93600 27.67700
C  21.62300 48.33400 25.66000
C  20.60100 48.77200 28.98000
O  21.63500 48.26100 29.40800
C  19.57700 49.42700 29.99000
C  18.96700 48.41700 30.83600
O  18.10900 47.59800 30.56600
O  19.59600 48.33400 32.12000
C  19.11800 47.33200 33.07700
H  14.12500 53.62000 29.30000
H  15.29200 53.75700 22.91700
H  19.85100 49.43900 23.43100
H  16.74200 50.32000 31.43700
H  15.61100 52.92500 31.16500
H  13.64600 51.29400 30.25600
H  13.72100 51.95000 31.73700
H  14.28400 50.26600 31.63600
H  17.65300 53.31000 31.57700
H  18.91200 51.90000 31.33400
H  18.14900 52.92000 33.72700
H  19.04400 51.44400 33.43400
H  13.05600 56.33700 27.83700
H  12.57200 54.94600 28.50200
H  11.76700 55.48300 27.04400
H  11.50700 56.20600 24.81600
H  12.36700 57.40500 23.74800
H  12.84800 57.18700 25.45000
H  17.45600 53.12500 21.66700
H  17.99300 50.18700 21.58700
H  16.03400 52.34600 20.19300
H  14.94300 51.62100 21.52900
H  16.17500 50.63800 20.65000
H  19.15700 51.99100 20.59900
H  20.02700 50.62200 21.22200
H  21.32700 52.21700 22.34600
H  19.99300 53.00200 23.15900
H  20.24500 53.39900 21.44700
H  21.25900 47.70400 24.84900
H  22.21400 47.73100 26.35000
H  22.28200 49.09100 25.23400
H  20.14700 50.13300 30.59500
H  19.37600 47.67500 34.07900
H  19.59600 46.35300 33.02700
H  18.03800 47.20700 33.00300

