158

Mg 49.50800 44.67900 42.83600
C  46.21400 45.24200 41.79800
C  49.22200 41.48100 41.65500
C  52.87900 44.48000 42.84000
C  49.88000 48.27100 43.03100
N  47.93100 43.51500 41.89200
C  46.65400 43.89900 41.64000
C  45.75700 42.74700 40.96700
C  46.63700 41.53600 41.29500
C  48.01800 42.15900 41.66200
C  46.08500 40.44500 42.25000
C  45.30800 42.98900 39.47900
C  43.84000 43.18000 39.11700
H  43.48800 42.97100 37.64200
N  50.85400 43.16000 42.49500
C  50.55200 41.92500 41.99700
C  51.78200 41.16700 41.81700
C  52.80600 41.97200 42.32400
C  52.21200 43.24900 42.63700
C  51.87200 39.90700 41.01000
C  54.26300 41.54200 42.57100
O  54.56700 40.40100 42.24700
C  55.33100 42.36900 43.21600
N  51.13300 46.19200 43.02000
C  52.40200 45.81300 43.15200
C  53.35800 46.98700 43.35700
C  52.37900 48.24100 43.56700
C  51.04500 47.56100 43.19700
C  54.35400 46.79200 44.55800
C  52.68800 49.38300 42.59100
C  53.09900 50.66700 43.29800
N  48.25700 46.46400 42.65600
C  48.61300 47.82600 42.70900
C  47.34400 48.62400 42.47000
C  46.37100 47.61800 42.13100
C  47.01200 46.35000 42.16800
C  47.35900 50.19500 42.42300
C  45.03500 47.37400 41.68800
O  44.09500 48.13500 41.40500
C  44.85800 45.85700 41.47500
C  43.84200 45.50300 42.37300
O  43.91600 45.72200 43.55700
O  42.75800 44.90300 41.68400
C  41.58700 44.55200 42.48600
H  49.14200 40.44400 41.32200
H  53.96500 44.38900 42.77800
H  49.88300 49.35600 43.15300
H  44.83400 42.86200 41.53700
H  46.95100 41.06000 40.36600
H  46.03900 39.52600 41.66600
H  45.14100 40.79600 42.66700
H  46.76700 40.35400 43.09600
H  45.69600 42.26800 38.75900
H  45.74600 43.91500 39.10700
H  43.49700 44.14300 39.49500
H  43.34900 42.34400 39.61600
H  52.40700 39.12000 41.54100
H  52.60200 40.08500 40.22000
H  50.84300 39.67300 40.73800
H  55.71900 43.16400 42.57900
H  56.14600 41.79600 43.65800
H  54.84200 42.88400 44.04200
H  53.99900 47.25000 42.51500
H  52.37900 48.56800 44.60700
H  55.38100 46.84000 44.19800
H  54.07900 45.80500 44.93200
H  54.25800 47.53500 45.35000
H  51.90600 49.57500 41.85600
H  53.57300 49.12300 42.01000
H  52.88800 50.68800 44.36700
H  52.54100 51.49100 42.85200
H  54.16400 50.88200 43.20900
H  46.33300 50.56200 42.40700
H  47.82500 50.38700 41.45600
H  47.86900 50.79000 43.18000
H  44.51800 45.70000 40.45200
H  41.66800 43.56600 42.94300
H  40.64700 44.39000 41.95800
H  41.36600 45.35300 43.19000
Mg 9.20600 48.76800 26.27200
C  7.10300 48.92600 28.99500
C  11.73800 49.99300 28.14300
C  11.15900 48.76300 23.51500
C  6.39400 48.12900 24.18800
N  9.30500 49.54600 28.30300
C  8.36300 49.40600 29.25800
C  8.82100 49.88400 30.66500
C  10.30000 50.44300 30.29700
C  10.45800 50.00400 28.80800
C  10.43200 51.96700 30.48700
C  8.78900 48.80900 31.81700
C  9.80400 48.66400 32.91300
H  9.54300 47.62200 34.04700
N  11.24300 49.21100 25.89400
C  12.09800 49.74100 26.82000
C  13.40300 49.84000 26.13800
C  13.27500 49.40400 24.81300
C  11.82200 49.08800 24.68500
C  14.67000 50.09600 26.90300
C  14.29500 49.15200 23.66600
O  14.01900 48.64600 22.52700
C  15.78400 49.41600 23.93500
N  8.79700 48.67200 24.11300
C  9.82600 48.51800 23.24800
C  9.26600 47.99200 21.85800
C  7.79400 47.71400 22.19800
C  7.60100 48.28400 23.53800
C  9.44400 49.05100 20.64700
C  7.43400 46.18000 22.02100
C  6.13300 45.97900 21.35000
N  7.17100 48.37800 26.46300
C  6.15800 48.17600 25.56100
C  4.87700 48.02500 26.29500
C  5.23300 48.26800 27.67000
C  6.61300 48.48100 27.70200
C  3.59200 47.94400 25.68100
C  4.64600 48.27800 29.04100
O  3.55000 48.00200 29.41900
C  5.84200 48.67100 29.93400
C  5.92500 47.60200 30.84000
O  6.59200 46.61000 30.67500
O  5.10300 47.77300 31.92000
C  4.96500 46.64700 32.90100
H  12.51400 50.33100 28.83300
H  11.78600 48.50400 22.65900
H  5.49100 47.83400 23.65000
H  8.28800 50.70200 31.14900
H  11.02600 49.87900 30.88300
H  9.41800 52.36600 30.51700
H  11.09500 52.56400 29.86100
H  10.85200 52.03500 31.49000
H  8.75100 47.76600 31.50100
H  7.88400 48.84500 32.42300
H  9.91500 49.62000 33.42500
H  10.71400 48.31800 32.42300
H  14.46300 49.90500 27.95600
H  15.10700 51.06900 26.67600
H  15.44700 49.37300 26.65600
H  16.41300 49.23700 23.06300
H  16.18700 48.73800 24.68700
H  15.82500 50.41100 24.37800
H  9.77100 47.09400 21.50300
H  7.09400 48.22800 21.53900
H  10.03500 49.91600 20.94600
H  8.60300 49.69500 20.39000
H  9.97200 48.66300 19.77500
H  7.30700 45.80300 23.03600
H  8.33100 45.72200 21.60200
H  5.61400 45.06600 21.64200
H  6.23600 45.91800 20.26700
H  5.44400 46.78900 21.58500
H  3.27400 46.91900 25.87500
H  3.81100 48.12400 24.62900
H  3.00000 48.75600 26.10300
H  5.53300 49.61300 30.38700
H  4.00600 46.27400 32.54000
H  4.83000 47.03400 33.91100
H  5.71300 45.85900 32.98200

