158

Mg 35.45400 1.61000 28.85300
C  33.39400 2.78900 31.35700
C  38.09300 1.28500 31.06100
C  37.59300 0.70900 26.23600
C  32.86000 2.01300 26.56400
N  35.71300 2.01500 30.90900
C  34.69100 2.45300 31.76400
C  35.20200 2.45700 33.18200
C  36.70500 2.17700 33.06000
C  36.89700 1.81200 31.56300
C  37.52900 3.42500 33.32200
C  34.48000 1.41400 34.05500
C  34.20600 1.86400 35.49200
H  34.81200 3.14800 36.02400
N  37.47400 0.85500 28.70100
C  38.38600 0.85500 29.69700
C  39.61500 0.43000 29.14700
C  39.55700 0.30100 27.75700
C  38.14000 0.60200 27.48000
C  40.78700 0.13400 29.96100
C  40.71500 -0.06300 26.73400
O  40.46900 -0.11600 25.51800
C  42.12300 -0.12600 27.12300
N  35.28000 1.35400 26.71500
C  36.29200 1.11700 25.86700
C  35.83400 1.30200 24.43900
C  34.22700 1.29100 24.60100
C  34.05400 1.57300 26.06900
C  36.34200 2.68100 23.82100
C  33.41100 0.01800 24.08200
C  32.85000 -0.98200 25.06600
N  33.51300 2.26000 28.91100
C  32.55200 2.37600 27.88300
C  31.26400 2.86800 28.42800
C  31.55300 3.05300 29.83400
C  32.92400 2.64400 30.02800
C  30.00000 3.05200 27.70400
C  30.99300 3.41700 31.10100
O  29.83200 3.75700 31.33400
C  32.22200 3.25400 32.19700
C  32.32700 4.65600 32.73800
O  32.94800 5.58600 32.19000
O  31.48700 4.76800 33.81200
C  31.50800 6.02900 34.56100
H  39.00800 1.27200 31.65700
H  38.31500 0.56300 25.43000
H  31.98200 2.09100 25.91800
H  35.10300 3.50800 33.45500
H  37.08200 1.51400 33.83900
H  37.05400 4.36100 33.02500
H  38.45700 3.46600 32.75200
H  37.70500 3.60900 34.38200
H  34.98500 0.44800 34.07200
H  33.50000 1.16500 33.64900
H  34.55200 1.05600 36.13600
H  33.15000 1.83100 35.76000
H  40.53200 -0.22700 30.95700
H  41.40500 1.03200 29.94800
H  41.36600 -0.62400 29.43400
H  42.43800 -1.05400 27.60100
H  42.23200 0.75600 27.75300
H  42.68700 0.10200 26.21900
H  36.12200 0.48500 23.77800
H  33.79600 2.15700 24.09800
H  36.89900 2.36400 22.93900
H  37.05900 3.09500 24.53000
H  35.64100 3.48700 23.60300
H  34.06700 -0.52100 23.39900
H  32.70900 0.41500 23.34900
H  32.79700 -0.48100 26.03300
H  33.32700 -1.93600 25.29000
H  31.83500 -1.25200 24.77600
H  29.14500 2.42700 27.96100
H  30.09300 2.95900 26.62200
H  29.65000 4.05200 27.95900
H  31.80200 2.61700 32.97500
H  32.35800 6.68300 34.36400
H  31.50100 5.99600 35.65000
H  30.66300 6.62900 34.22400
Mg 47.33600 44.54500 44.11300
C  43.91400 44.20000 43.59600
C  47.65900 41.16400 43.05900
C  50.69000 44.94400 43.88600
C  46.85800 48.03300 44.41100
N  45.87700 42.94800 43.49400
C  44.56900 42.98000 43.43300
C  43.92300 41.73700 42.91800
C  45.09100 40.76800 43.26000
C  46.32100 41.69300 43.27000
C  45.04800 39.95100 44.63100
C  43.65400 41.78800 41.36700
C  42.28500 41.38400 40.87900
H  42.18500 40.93600 39.36500
N  48.95800 43.20500 43.53400
C  48.88000 41.89600 43.16900
C  50.20200 41.35400 42.92100
C  51.06000 42.46600 43.09700
C  50.26600 43.57400 43.59900
C  50.39800 39.88200 42.58400
C  52.58400 42.44900 42.77100
O  53.07000 41.48000 42.15900
C  53.46700 43.56700 43.10400
N  48.58700 46.27000 44.07300
C  49.90100 46.14000 44.05100
C  50.61600 47.47900 44.05400
C  49.39800 48.40400 44.41000
C  48.19000 47.54400 44.25500
C  51.87800 47.62800 44.87600
C  49.28900 49.77900 43.67400
C  49.21800 51.01000 44.67200
N  45.74800 45.92600 44.12000
C  45.68600 47.25900 44.35000
C  44.29000 47.72900 44.29400
C  43.57300 46.52800 44.02500
C  44.50400 45.48300 43.93200
C  43.83400 49.02600 44.66600
C  42.25600 45.99100 43.91200
O  41.17000 46.56000 43.98800
C  42.43200 44.47100 43.43400
C  41.48800 43.62300 44.18100
O  40.33000 43.49200 43.90400
O  42.02400 43.11200 45.34900
C  41.02900 42.43500 46.19500
H  47.61200 40.09300 42.85000
H  51.75800 45.05200 44.09200
H  46.60000 49.06900 44.63900
H  43.06800 41.56500 43.57300
H  45.15600 40.08200 42.41500
H  45.47300 40.60600 45.39200
H  45.56000 38.99600 44.51600
H  43.99200 39.74000 44.80100
H  44.42200 41.28600 40.77700
H  43.69200 42.85300 41.13800
H  41.61800 42.23600 41.01000
H  41.89300 40.56200 41.47800
H  50.57200 39.91100 41.50800
H  49.52800 39.23900 42.71400
H  51.22400 39.43300 43.13500
H  52.96500 44.36100 42.55100
H  54.44100 43.37900 42.65200
H  53.49100 43.63300 44.19200
H  50.84300 47.66500 43.00400
H  49.49500 48.50000 45.49100
H  52.32000 46.67100 45.15600
H  51.64300 48.34800 45.65900
H  52.60000 48.01100 44.15400
H  48.39000 49.75700 43.05800
H  50.13300 49.81700 42.98600
H  49.30300 50.62400 45.68700
H  48.23900 51.44000 44.45800
H  49.90200 51.83000 44.45200
H  44.30400 49.69000 43.94000
H  44.08800 49.24200 45.70400
H  42.75100 49.07200 44.55100
H  42.07400 44.41600 42.40600
H  40.46000 41.67300 45.66200
H  40.28000 43.09700 46.63000
H  41.57900 41.99500 47.02600

