158

Mg 0.94800 8.79500 26.73700
C  1.41700 10.73300 29.46200
C  1.28900 6.02900 28.64200
C  0.77300 7.02800 23.90200
C  0.59400 11.76700 24.84000
N  1.46400 8.43300 28.86100
C  1.42900 9.39800 29.82300
C  1.26300 8.81200 31.24300
C  1.62400 7.28800 30.87200
C  1.41800 7.21000 29.37400
C  2.97100 6.72600 31.51600
C  -0.08900 9.08400 31.85700
C  -0.23100 9.22200 33.35300
H  0.94300 8.74500 34.26200
N  1.02700 6.79600 26.32900
C  1.15100 5.81500 27.27700
C  1.22200 4.54700 26.64700
C  1.10400 4.78100 25.20700
C  0.93800 6.21800 25.07900
C  1.26000 3.22500 27.46000
C  0.90600 3.80200 23.98900
O  0.74100 4.13200 22.81500
C  1.13200 2.31000 24.23700
N  0.66400 9.36300 24.72800
C  0.64000 8.40900 23.72600
C  0.48300 8.97800 22.30200
C  0.22800 10.47600 22.62200
C  0.49100 10.56900 24.15800
C  1.68900 8.72500 21.39400
C  -1.22100 10.98800 22.24900
C  -1.34000 12.06200 21.17000
N  1.13100 10.79700 27.04000
C  0.95600 11.90500 26.19800
C  1.16100 13.13600 26.97000
C  1.35700 12.70300 28.25600
C  1.31200 11.31700 28.23600
C  1.11300 14.56100 26.42300
C  1.64900 13.11000 29.53100
O  1.95500 14.18700 29.93700
C  1.40100 11.86000 30.45100
C  2.46700 11.83100 31.49900
O  3.61700 11.51900 31.24400
O  1.90100 12.06300 32.69600
C  2.76800 11.94200 33.90700
H  1.44000 5.14000 29.25900
H  0.73600 6.65300 22.87800
H  0.56400 12.68200 24.24600
H  2.13600 9.12900 31.81400
H  0.82500 6.69600 31.31800
H  2.70100 5.88900 32.16100
H  3.53500 7.53600 31.97800
H  3.60200 6.35700 30.70700
H  -0.84000 8.34300 31.58300
H  -0.53100 9.95400 31.37100
H  -1.13300 8.69400 33.66500
H  -0.52300 10.23600 33.62600
H  1.27600 2.34400 26.82000
H  0.34700 3.21700 28.05500
H  2.14500 3.27700 28.09500
H  0.23600 1.89000 24.69300
H  2.06400 2.30800 24.80200
H  1.27000 1.76200 23.30500
H  -0.39300 8.50600 21.85600
H  0.97000 11.07500 22.09500
H  2.59400 8.45100 21.93700
H  1.92200 9.60100 20.78900
H  1.42100 7.88900 20.74800
H  -1.71900 11.24200 23.18500
H  -1.83100 10.17600 21.85200
H  -0.61600 11.86900 20.37800
H  -1.11900 12.96200 21.74400
H  -2.31300 12.19000 20.69600
H  1.90500 14.65600 25.67900
H  1.01000 15.36400 27.15300
H  0.11600 14.60200 25.98600
H  0.50200 12.00200 31.05100
H  3.15400 12.96100 33.92500
H  3.53700 11.17300 33.83100
H  2.17300 11.73500 34.79600
Mg 28.13400 56.26700 40.27100
C  25.63000 53.74200 39.82700
C  30.47400 54.06600 39.43500
C  30.13500 58.80000 40.55600
C  25.21100 58.48200 40.62900
N  27.96900 54.30400 39.44300
C  26.90600 53.42600 39.38700
C  27.38300 52.03900 38.82200
C  28.94900 52.04600 39.08100
C  29.18800 53.57000 39.45200
C  29.44300 51.11500 40.20800
C  27.01600 51.83700 37.33500
C  26.79300 53.03900 36.37600
H  27.40800 52.83300 34.98000
N  30.08600 56.39000 39.93700
C  30.91200 55.38200 39.66300
C  32.25600 55.90900 39.61900
C  32.13600 57.31100 39.86500
C  30.71700 57.51800 40.15900
C  33.40400 54.97300 39.25000
C  33.25800 58.29600 39.63500
O  34.38800 57.92700 39.64000
C  33.00200 59.72300 39.36800
N  27.73700 58.29500 40.47300
C  28.81100 59.10500 40.72900
C  28.31100 60.57400 40.93800
C  26.80400 60.46100 40.56800
C  26.54200 58.97300 40.60700
C  28.62200 61.15900 42.23900
C  26.28900 61.12300 39.18900
C  25.16300 62.17100 39.32800
N  25.87200 56.14400 40.41000
C  24.93200 57.13300 40.55500
C  23.61000 56.53900 40.56700
C  23.82400 55.15500 40.42800
C  25.20200 55.01000 40.20800
C  22.31400 57.06300 40.78900
C  23.28300 53.77900 40.41500
O  22.17800 53.35500 40.72600
C  24.42100 52.84200 39.96300
C  24.51800 51.74800 40.96200
O  24.34700 50.53300 40.67600
O  25.04500 52.22100 42.15500
C  25.53100 51.18900 43.06600
H  31.15900 53.21700 39.38200
H  30.74500 59.67400 40.79400
H  24.35300 59.14400 40.76600
H  26.86100 51.33100 39.46500
H  29.60000 51.82200 38.23600
H  29.87800 51.83400 40.90200
H  30.25300 50.46300 39.87900
H  28.66200 50.55900 40.72600
H  26.15100 51.17700 37.26900
H  27.79500 51.16600 36.97300
H  27.30000 53.90500 36.80200
H  25.73700 53.29700 36.29900
H  33.78700 55.18000 38.25100
H  33.00300 53.96300 39.33900
H  34.18000 55.10500 40.00300
H  32.73400 60.27900 40.26700
H  32.10400 59.79900 38.75500
H  33.84200 60.11300 38.79400
H  28.88700 61.04100 40.14000
H  26.24900 60.87500 41.41000
H  29.62400 61.58500 42.19300
H  28.62600 60.36400 42.98400
H  27.92800 61.96600 42.47600
H  26.09200 60.28800 38.51600
H  27.10000 61.65700 38.69400
H  24.41700 62.10600 38.53600
H  25.71700 63.10900 39.29300
H  24.69500 62.15500 40.31300
H  21.57200 56.51900 40.20400
H  22.28000 58.13000 40.56700
H  21.98800 56.89400 41.81500
H  24.11100 52.33900 39.04800
H  24.81100 50.98600 43.86000
H  26.39700 51.58700 43.59500
H  25.79100 50.23200 42.61500

