158

Mg 49.27500 46.26100 42.55200
C  45.85600 46.89800 41.91300
C  48.88100 43.26200 40.95100
C  52.51400 46.00900 42.69700
C  49.49400 49.70300 43.66400
N  47.46900 45.27600 41.34800
C  46.19200 45.66700 41.31800
C  45.40900 44.61700 40.39400
C  46.45700 43.46900 40.15600
C  47.69400 43.96400 40.92600
C  45.99000 42.03000 40.57200
C  44.89900 45.36000 39.01800
C  43.45300 45.25900 38.57300
H  43.24500 45.07600 37.01800
N  50.54700 44.83000 41.91900
C  50.14700 43.65700 41.37200
C  51.32200 42.81000 41.16100
C  52.41400 43.54500 41.70700
C  51.86900 44.85300 42.15700
C  51.23100 41.39700 40.66900
C  53.87500 43.10200 41.80400
O  54.14300 42.01700 41.26600
C  54.97400 43.80100 42.49100
N  50.74400 47.72200 43.13700
C  52.09500 47.26600 43.13600
C  53.04200 48.36600 43.63000
C  52.04500 49.53300 43.99100
C  50.70000 49.02200 43.56800
C  53.90200 47.84400 44.79300
C  52.46600 50.89200 43.53300
C  52.51100 51.16600 42.02500
N  47.96300 47.93300 42.85300
C  48.18700 49.17900 43.42200
C  46.88500 49.82600 43.71800
C  45.98500 49.00900 43.05100
C  46.68100 47.90200 42.49100
C  46.63100 51.13700 44.45500
C  44.60300 48.86000 42.84600
O  43.69600 49.51000 43.22100
C  44.43500 47.53600 41.96900
C  43.52900 46.66400 42.71300
O  43.80800 46.28300 43.86100
O  42.49700 46.13600 41.95400
C  41.83500 45.00800 42.59300
H  48.85900 42.24800 40.54400
H  53.59000 45.84800 42.79300
H  49.62100 50.71900 44.04500
H  44.57700 44.27200 41.00800
H  46.75000 43.46300 39.10700
H  45.91100 41.25400 39.81200
H  45.14900 42.06500 41.26500
H  46.81500 41.54300 41.09100
H  45.37700 44.82100 38.19900
H  45.17500 46.41400 39.00100
H  43.04100 46.23300 38.83600
H  42.96100 44.43700 39.09200
H  51.31300 41.45100 39.58400
H  50.28300 40.89900 40.87300
H  52.09100 40.81200 40.99400
H  54.78600 43.93600 43.55600
H  55.13100 44.65800 41.83500
H  55.87800 43.19700 42.40600
H  53.73600 48.67900 42.85000
H  52.06900 49.57300 45.08000
H  53.45200 46.96700 45.25800
H  54.00600 48.57100 45.59700
H  54.91500 47.61000 44.46600
H  53.43200 51.05100 44.01100
H  51.89400 51.72200 43.94900
H  52.45300 50.22400 41.48100
H  53.51600 51.50600 41.77300
H  51.71600 51.82400 41.67400
H  47.33100 51.45100 45.22900
H  45.68900 51.02100 44.99100
H  46.42500 52.00800 43.83300
H  43.94600 47.69400 41.00700
H  41.87300 44.29400 41.77100
H  40.76500 45.07000 42.79000
H  42.37000 44.50700 43.40000
Mg 9.83800 48.16600 25.92100
C  8.22500 48.01200 29.04100
C  12.66100 49.19800 27.54200
C  11.43900 48.33700 22.94500
C  6.91200 47.04900 24.35900
N  10.28500 48.76600 28.02500
C  9.50000 48.52600 29.11100
C  10.21200 48.94800 30.37600
C  11.53100 49.54000 29.82100
C  11.51300 49.13800 28.36800
C  11.58100 51.11000 29.86500
C  10.41000 47.89600 31.52900
C  9.75200 48.38900 32.84200
H  9.48300 47.32500 33.94700
N  11.77100 48.66500 25.31000
C  12.88400 49.02600 26.15100
C  14.10600 49.03900 25.38500
C  13.66900 48.82600 24.03200
C  12.19700 48.61200 24.02500
C  15.52500 49.23900 25.94300
C  14.55200 48.86700 22.85300
O  14.09400 48.84200 21.74100
C  16.07400 48.89600 23.03700
N  9.15500 47.93800 23.88000
C  10.07500 48.02200 22.83200
C  9.30000 47.76800 21.49300
C  8.22000 46.81600 22.03700
C  7.99400 47.34400 23.47300
C  8.86400 49.08000 20.83700
C  8.62200 45.34500 22.20500
C  8.66600 44.56900 20.84900
N  7.94600 47.81900 26.47600
C  6.85900 47.35700 25.76800
C  5.68700 47.13100 26.61600
C  6.15800 47.38100 27.94900
C  7.53900 47.78900 27.78400
C  4.37300 46.59300 26.17400
C  5.88300 47.28900 29.37700
O  4.82100 47.10500 29.97600
C  7.23300 47.62700 30.15600
C  7.53400 46.33300 30.83900
O  8.06100 45.34500 30.37700
O  6.94900 46.34300 32.08600
C  7.05500 45.05400 32.81600
H  13.55600 49.44000 28.11800
H  11.76800 48.15500 21.92000
H  6.06400 46.42100 24.08100
H  9.63500 49.77300 30.79300
H  12.40500 49.06900 30.27100
H  10.63500 51.60900 30.07600
H  11.79800 51.53900 28.88700
H  12.38800 51.40800 30.53500
H  11.46500 47.65200 31.65600
H  9.95900 46.91500 31.38200
H  8.74200 48.78500 32.73400
H  10.38100 49.16900 33.27100
H  16.23700 48.47400 25.63400
H  15.42300 49.06800 27.01400
H  15.84900 50.26600 25.77200
H  16.54800 47.98700 23.40700
H  16.32200 49.84000 23.52200
H  16.40400 49.16100 22.03300
H  9.95300 47.17400 20.85500
H  7.23300 46.92000 21.58600
H  9.44500 49.96700 21.09100
H  7.84300 49.38700 21.06600
H  8.97000 48.91500 19.76500
H  7.95400 44.86100 22.91800
H  9.58900 45.22500 22.69200
H  8.05900 43.66400 20.86500
H  9.70000 44.31600 20.61300
H  8.29900 45.09200 19.96600
H  3.79000 46.52400 27.09200
H  4.50300 45.57800 25.79700
H  3.91800 47.33800 25.52200
H  7.12400 48.35600 30.95800
H  6.51600 45.22200 33.74900
H  8.10700 44.86700 33.03500
H  6.56500 44.17200 32.40400

