158

Mg 46.99300 24.26000 28.38400
C  47.64100 26.74100 30.77500
C  46.17900 22.05000 30.70400
C  46.56300 21.89800 25.88700
C  48.23300 26.54100 26.02100
N  46.99000 24.39700 30.50600
C  47.11500 25.55000 31.31400
C  46.75100 25.26100 32.81200
C  46.41200 23.71100 32.75700
C  46.54700 23.32100 31.24100
C  47.36100 22.74100 33.48000
C  45.52800 26.07800 33.24800
C  44.93400 25.58600 34.57500
H  44.72800 26.64400 35.70000
N  46.49500 22.23000 28.34000
C  46.17400 21.49700 29.38500
C  45.81900 20.12000 28.98600
C  45.89000 20.05400 27.54600
C  46.39500 21.44300 27.21800
C  45.52100 19.08300 30.08700
C  45.60000 18.86000 26.69500
O  45.67000 18.92100 25.46700
C  44.93500 17.66600 27.28600
N  47.46000 24.14600 26.30700
C  47.07400 23.14800 25.49600
C  47.19200 23.63400 24.02500
C  47.43800 25.15700 24.05300
C  47.69000 25.31000 25.53500
C  48.10200 22.78000 23.12000
C  46.22900 26.14100 23.55800
C  44.81600 25.80800 24.11400
N  47.90600 26.17500 28.37100
C  48.31300 26.95500 27.34900
C  48.79100 28.24200 27.77900
C  48.49000 28.26500 29.19300
C  47.98600 26.95700 29.44400
C  49.36500 29.28400 26.92600
C  48.49500 29.05900 30.40500
O  48.86700 30.22500 30.53000
C  47.88600 28.09400 31.48000
C  48.79000 27.85300 32.69700
O  49.93800 27.42100 32.60200
O  48.19100 28.12800 33.87900
C  48.84700 27.63800 35.07800
H  45.87000 21.39200 31.51900
H  46.37200 21.24300 25.03500
H  48.48800 27.28300 25.26100
H  47.56300 25.52000 33.49200
H  45.38400 23.51700 33.06300
H  46.73800 21.99400 33.97200
H  47.89400 23.33200 34.22400
H  48.09900 22.20200 32.88500
H  44.79200 26.06700 32.44300
H  45.80300 27.10200 33.50100
H  45.47500 24.73200 34.98300
H  43.90300 25.27300 34.41100
H  44.49100 18.72500 30.08500
H  45.54600 19.49900 31.09500
H  46.23300 18.26600 29.96700
H  44.13100 18.07400 27.89900
H  45.62500 17.18600 27.98000
H  44.48800 16.92300 26.62600
H  46.17900 23.49800 23.64400
H  48.33900 25.34300 23.46900
H  47.64700 22.21800 22.30500
H  48.54600 22.03400 23.77900
H  48.91100 23.40200 22.73600
H  46.15300 26.02900 22.47700
H  46.55900 27.13700 23.85100
H  44.16100 25.36800 23.36200
H  44.45100 26.79500 24.40000
H  44.81500 25.20200 25.02000
H  48.56100 29.95500 26.62200
H  49.78000 28.86800 26.00800
H  50.18900 29.79000 27.42900
H  46.99900 28.52400 31.94600
H  49.92800 27.66100 34.93300
H  48.55500 26.62200 35.34100
H  48.55700 28.23100 35.94600
Mg 47.35400 44.85600 43.03000
C  43.88600 44.47400 42.83800
C  47.61400 41.43900 42.60300
C  50.56500 45.30800 42.25300
C  46.85800 48.38300 42.65100
N  45.88100 43.18900 42.86300
C  44.54300 43.24400 42.83600
C  43.93400 41.89200 42.55300
C  45.11800 40.94000 42.79000
C  46.28300 41.85300 42.66400
C  45.15100 39.95800 44.02100
C  43.30500 41.67100 41.10300
C  44.22200 41.98000 39.91100
H  44.91300 40.86400 39.17700
N  48.86600 43.56600 42.64900
C  48.81700 42.15600 42.60500
C  50.18100 41.62700 42.41100
C  51.06700 42.72100 42.15000
C  50.17400 43.93400 42.32800
C  50.51300 40.16300 42.45500
C  52.56700 42.64900 41.71600
O  53.13400 41.56300 41.57300
C  53.36400 43.85500 41.35100
N  48.49500 46.52900 42.35500
C  49.86600 46.47900 42.29100
C  50.58500 47.87300 42.09100
C  49.30200 48.82500 42.10800
C  48.12200 47.89200 42.46000
C  51.68200 48.14200 43.20700
C  49.00300 49.65400 40.83300
C  49.37200 51.16200 40.89800
N  45.69500 46.17600 42.91900
C  45.67500 47.57600 42.82300
C  44.32100 47.98200 42.78300
C  43.47500 46.81300 42.85200
C  44.41000 45.77700 42.87400
C  43.86700 49.32000 42.35300
C  42.18200 46.24900 42.87200
O  41.08900 46.79800 42.93300
C  42.40300 44.69400 42.89300
C  41.75700 44.29300 44.15800
O  42.33300 44.33800 45.23800
O  40.45700 43.83500 43.93100
C  39.68400 43.39500 45.13400
H  47.83400 40.38500 42.41700
H  51.63300 45.49500 42.12000
H  46.78600 49.46900 42.56500
H  43.10400 41.78100 43.25000
H  45.13500 40.32100 41.89300
H  45.94900 40.16900 44.73200
H  45.32600 38.94300 43.66200
H  44.16800 39.88600 44.48600
H  42.37700 42.22000 40.94600
H  42.97500 40.63700 40.99700
H  45.08400 42.60100 40.15500
H  43.71700 42.67400 39.23800
H  49.92400 39.64900 43.21400
H  51.56400 39.97300 42.67300
H  50.30700 39.77000 41.45900
H  52.74700 44.43500 40.66400
H  54.31000 43.59700 40.87700
H  53.56200 44.48800 42.21700
H  51.07400 47.84200 41.11700
H  49.34000 49.53400 42.93500
H  51.80500 47.21900 43.77300
H  51.46900 48.83400 44.02200
H  52.61400 48.36700 42.68900
H  47.92000 49.61600 40.71900
H  49.58000 49.32000 39.97100
H  49.76100 51.60100 41.81700
H  48.47800 51.72000 40.61900
H  50.11100 51.38300 40.12800
H  43.07700 49.17300 41.61700
H  44.69500 49.86100 41.89400
H  43.54300 49.90100 43.21700
H  41.84200 44.16000 42.12600
H  39.49000 44.20300 45.83900
H  40.27300 42.62100 45.62600
H  38.66200 43.10400 44.89200

