158

Mg 34.83100 2.47100 29.36600
C  32.38100 3.80500 31.63400
C  37.28500 2.92300 31.83800
C  37.15600 1.95800 27.03700
C  32.32000 2.50100 26.92700
N  34.82600 3.34000 31.43900
C  33.66100 3.55400 32.17100
C  33.98400 3.66500 33.70700
C  35.53500 3.55700 33.67400
C  35.91100 3.22500 32.25900
C  36.22400 4.84800 34.21200
C  33.28800 2.53900 34.54800
C  32.92600 2.80100 36.05900
H  33.97100 3.44000 36.93500
N  36.85200 2.31900 29.40200
C  37.67300 2.53500 30.52500
C  39.02400 2.14600 30.06100
C  39.00800 1.99900 28.65200
C  37.61500 2.13400 28.29500
C  40.18100 1.87900 31.00900
C  40.16900 1.62800 27.70300
O  39.98700 1.57100 26.48100
C  41.63600 1.33400 28.08000
N  34.78200 2.37800 27.22800
C  35.87900 2.06300 26.48000
C  35.47400 1.68100 25.04300
C  33.92200 1.54500 25.11900
C  33.62300 2.09500 26.52800
C  35.77500 2.71400 23.96500
C  33.41400 0.08900 24.94400
C  33.17800 -0.72900 26.21100
N  32.78500 3.01900 29.25700
C  31.92600 2.97700 28.16800
C  30.65200 3.53600 28.57400
C  30.76600 3.91300 29.96200
C  32.07200 3.53500 30.29300
C  29.38000 3.73800 27.67800
C  30.12000 4.40000 31.22000
O  28.99700 4.71500 31.43400
C  31.18700 4.32000 32.31900
C  31.50000 5.67200 32.94000
O  31.65700 6.70000 32.29000
O  31.31800 5.69400 34.32300
C  31.65700 6.88700 35.07800
H  38.08000 2.81300 32.57800
H  37.81300 1.53700 26.27300
H  31.51700 2.33000 26.20800
H  33.62200 4.58700 34.16100
H  35.84700 2.70600 34.28000
H  36.81600 4.47100 35.04600
H  35.61200 5.64000 34.64300
H  36.94700 5.30500 33.53700
H  33.90100 1.64200 34.46300
H  32.42900 2.16000 33.99600
H  32.66500 1.82500 36.46700
H  32.03200 3.42000 35.99100
H  39.83400 2.00800 32.03400
H  41.04400 2.51000 30.79700
H  40.55000 0.85400 31.01600
H  42.06300 1.88800 28.91600
H  42.16100 1.69800 27.19700
H  41.88100 0.29400 28.29500
H  35.91500 0.74100 24.71300
H  33.42800 2.23900 24.43900
H  36.77000 2.36800 23.68300
H  35.90500 3.76200 24.23400
H  35.07800 2.69400 23.12700
H  34.07900 -0.47700 24.29200
H  32.46300 0.21800 24.42700
H  33.78800 -0.29700 27.00500
H  33.48300 -1.77100 26.11400
H  32.11800 -0.65100 26.45300
H  28.50700 3.23300 28.09100
H  29.58800 3.60500 26.61600
H  29.13400 4.79400 27.56500
H  30.94600 3.68800 33.17400
H  31.46800 7.83900 34.58000
H  32.65400 6.86100 35.51700
H  30.94600 6.93400 35.90300
Mg -5.62100 25.71800 25.99400
C  -3.85100 26.83300 28.88400
C  -7.39600 23.71000 27.82300
C  -6.47400 24.16500 23.11500
C  -3.40100 27.78700 24.08700
N  -5.67000 25.34600 28.12800
C  -4.87900 25.87500 29.10000
C  -5.41000 25.51700 30.43000
C  -6.44700 24.30100 30.10400
C  -6.61200 24.53300 28.64000
C  -5.93500 22.87300 30.42400
C  -6.14400 26.78900 31.01800
C  -5.78200 27.11900 32.38300
H  -5.24400 26.03600 33.33400
N  -6.83000 24.25800 25.52900
C  -7.48300 23.50400 26.45300
C  -8.23600 22.40800 25.86600
C  -7.97600 22.48900 24.49900
C  -7.08000 23.67200 24.31900
C  -9.21200 21.51800 26.59200
C  -8.42800 21.58400 23.37100
O  -8.14500 21.83500 22.23700
C  -9.40000 20.35200 23.59200
N  -5.15500 26.07200 23.85200
C  -5.63900 25.29700 22.84200
C  -5.06100 25.69800 21.44300
C  -4.14000 26.91300 21.78400
C  -4.23100 26.93900 23.33100
C  -4.39900 24.46900 20.80700
C  -4.54400 28.30500 21.17000
C  -3.35800 29.25000 20.74400
N  -3.95000 27.01700 26.28000
C  -3.25000 27.84400 25.43900
C  -2.22400 28.51600 26.23100
C  -2.44100 28.06500 27.53500
C  -3.53800 27.23400 27.52600
C  -1.03100 29.36200 25.82100
C  -1.90800 28.20900 28.90500
O  -0.89400 28.88400 29.27500
C  -2.95600 27.52000 29.87900
C  -2.05600 26.60700 30.58000
O  -1.53000 25.59600 30.08300
O  -1.78200 27.23000 31.79100
C  -0.77500 26.40800 32.42900
H  -8.07800 23.28400 28.56200
H  -6.69000 23.58900 22.21400
H  -2.68000 28.41300 23.55800
H  -4.67300 25.00200 31.04700
H  -7.36300 24.35100 30.69300
H  -5.13600 22.80000 31.16200
H  -5.71700 22.33000 29.50400
H  -6.75900 22.25000 30.77200
H  -7.21000 26.58300 30.92200
H  -6.00200 27.66500 30.38600
H  -6.68000 27.41000 32.92700
H  -4.97500 27.83200 32.21000
H  -10.19000 21.57500 26.11400
H  -9.30300 21.83800 27.63000
H  -8.90900 20.47500 26.68200
H  -9.00000 19.77400 24.42500
H  -9.37900 19.79900 22.65300
H  -10.38300 20.71800 23.88900
H  -6.00100 25.98600 20.97200
H  -3.07700 26.77500 21.58500
H  -5.08700 24.16900 20.01600
H  -4.27600 23.63100 21.49300
H  -3.38500 24.66600 20.45800
H  -5.09100 28.75800 21.99700
H  -5.36900 28.15400 20.47400
H  -2.35900 29.04500 21.12900
H  -3.36800 30.28900 21.07600
H  -3.24500 29.29000 19.66100
H  -0.63100 28.92200 24.90700
H  -0.23100 29.37900 26.56100
H  -1.40100 30.33900 25.51200
H  -3.36400 28.16500 30.65700
H  0.19800 26.59800 31.97700
H  -1.08700 25.36800 32.53200
H  -0.71800 26.63300 33.49400

