158

Mg 48.42300 15.62600 28.32300
C  46.54000 15.52300 31.30100
C  50.70600 17.60300 30.07200
C  50.01800 15.98700 25.30600
C  45.79500 14.06800 26.64400
N  48.62000 16.43400 30.42400
C  47.67900 16.24100 31.50500
C  48.29000 16.90000 32.78800
C  49.44600 17.77400 32.25100
C  49.58000 17.30700 30.79300
C  49.26600 19.31100 32.43800
C  48.73100 15.80300 33.85200
C  48.06500 15.75500 35.22000
H  47.85300 17.16500 35.81000
N  50.15700 16.56800 27.79600
C  50.94200 17.33700 28.64400
C  52.03500 17.77100 27.88300
C  51.84600 17.49900 26.49100
C  50.58700 16.67300 26.48900
C  53.11600 18.52300 28.53400
C  52.73000 17.91100 25.25000
O  52.50000 17.58700 24.06800
C  53.90300 18.83100 25.43100
N  47.97200 15.08600 26.24100
C  48.86500 15.24000 25.26900
C  48.44700 14.56800 23.93200
C  46.99100 13.99500 24.29200
C  46.89200 14.37800 25.78600
C  48.32800 15.51000 22.65500
C  46.80600 12.49700 24.19800
C  47.54300 11.61300 25.22000
N  46.60300 14.92700 28.79800
C  45.61300 14.31000 28.02800
C  44.44100 13.97600 28.79500
C  44.77000 14.49900 30.06500
C  46.08500 15.06300 30.04200
C  43.25400 13.23000 28.34200
C  44.29500 14.51800 31.41300
O  43.24200 14.05800 31.85800
C  45.36500 15.23000 32.26100
C  44.86600 16.52600 32.80500
O  44.55500 17.51000 32.20100
O  44.66400 16.34900 34.16800
C  43.77300 17.39000 34.73300
H  51.47000 18.17600 30.60300
H  50.48400 16.10000 24.32500
H  44.94100 13.56600 26.18700
H  47.49800 17.56900 33.12700
H  50.32800 17.45200 32.80500
H  48.48300 19.69300 33.09300
H  49.21100 19.84700 31.49000
H  50.19100 19.67900 32.88200
H  49.81000 15.84500 34.00000
H  48.60300 14.83100 33.37400
H  48.67200 15.16600 35.90800
H  47.11500 15.27400 34.98600
H  52.96100 19.59600 28.41300
H  54.04400 18.36000 27.98600
H  53.29900 18.22300 29.56600
H  53.69800 19.82500 25.83000
H  54.44400 18.84300 24.48600
H  54.60300 18.37600 26.13100
H  49.23400 13.85600 23.68500
H  46.10100 14.34300 23.76800
H  47.27100 15.56800 22.39900
H  48.93100 15.11000 21.84000
H  48.56000 16.55200 22.87500
H  47.14700 12.24400 23.19400
H  45.75800 12.23200 24.06100
H  48.03000 10.76000 24.74800
H  46.77600 11.26100 25.91000
H  48.28400 12.15000 25.81300
H  42.36900 13.37500 28.96100
H  43.58400 12.19200 28.30900
H  43.09100 13.57700 27.32200
H  45.77300 14.58200 33.03700
H  44.43200 18.25400 34.82000
H  43.53000 16.95500 35.70200
H  42.86700 17.49400 34.13600
Mg 16.96100 51.78300 26.32300
C  18.73200 50.49000 29.03300
C  14.49700 52.77500 28.53000
C  14.91100 52.48700 23.69400
C  19.16700 50.18900 24.17900
N  16.73200 51.54000 28.53400
C  17.60100 51.10400 29.51400
C  17.11200 51.56200 30.95700
C  15.62500 51.87300 30.64900
C  15.65300 52.19000 29.13600
C  14.64100 50.69700 31.02700
C  17.87400 52.78000 31.50000
C  18.21800 52.61400 33.00900
H  17.19500 51.80900 33.86200
N  15.08100 52.62300 26.16700
C  14.24200 52.99100 27.17600
C  12.97600 53.63400 26.62700
C  13.14900 53.58100 25.21500
C  14.35300 52.82500 24.95100
C  11.93400 54.28900 27.44300
C  12.24500 54.16200 24.06700
O  12.47500 54.12400 22.91900
C  10.88900 54.80400 24.47800
N  17.03200 51.52700 24.24400
C  16.14500 51.94800 23.33200
C  16.59100 51.78400 21.94300
C  17.96400 51.05500 22.07700
C  18.06300 50.83800 23.59400
C  15.62800 50.88700 21.12800
C  19.16800 51.81300 21.43400
C  20.37500 50.85100 20.91900
N  18.72200 50.71300 26.48300
C  19.55300 50.06700 25.56300
C  20.66300 49.41200 26.21800
C  20.41800 49.62600 27.55000
C  19.15900 50.31800 27.69600
C  21.79400 48.59300 25.69000
C  20.88200 49.29200 28.85000
O  21.87400 48.64500 29.16500
C  19.88300 49.86900 29.82900
C  19.47100 48.80000 30.85600
O  18.96600 47.69400 30.60900
O  19.82400 49.26600 32.13500
C  19.57400 48.48100 33.40500
H  13.76600 53.10600 29.27100
H  14.17300 52.47600 22.88900
H  19.86800 49.58800 23.59600
H  17.28500 50.67000 31.55900
H  15.26200 52.72400 31.22500
H  15.06100 50.11900 31.84900
H  14.55100 50.13300 30.09800
H  13.67600 51.03900 31.40200
H  17.37500 53.72700 31.29500
H  18.86700 52.77500 31.05100
H  18.25900 53.61200 33.44700
H  19.22700 52.22300 33.14100
H  12.14600 54.31900 28.51200
H  11.10900 53.57700 27.46400
H  11.69600 55.27200 27.03500
H  10.95500 55.78600 24.94800
H  10.39000 54.02200 25.05000
H  10.42200 54.80100 23.49300
H  16.72400 52.72900 21.41700
H  17.97800 50.07100 21.61000
H  14.86300 50.40300 21.73500
H  16.20300 50.24900 20.45700
H  15.08700 51.47600 20.38700
H  19.68900 52.44400 22.15400
H  18.91100 52.31300 20.50000
H  20.28900 49.86900 21.38400
H  21.32400 51.33200 21.15700
H  20.30900 50.80300 19.83200
H  22.43500 49.39200 25.31600
H  21.47600 47.95000 24.86900
H  22.14400 47.95300 26.49900
H  20.42200 50.62800 30.39700
H  18.55100 48.14500 33.23400
H  19.57000 49.12800 34.28200
H  20.31400 47.68100 33.43300

