158

Mg 0.74000 8.04300 26.06900
C  1.39800 10.26400 28.53500
C  1.21900 5.49100 28.07400
C  0.24900 6.03600 23.28700
C  0.52700 10.76600 23.77900
N  1.17700 7.99200 28.11800
C  1.34000 8.94000 29.02200
C  1.53400 8.34200 30.51100
C  1.55800 6.84500 30.25600
C  1.28400 6.75000 28.67200
C  2.91500 6.09600 30.70400
C  0.42000 8.91900 31.33600
C  0.19700 8.45000 32.80800
H  1.43200 8.12500 33.58400
N  0.65200 6.04100 25.71900
C  0.89700 5.12300 26.73000
C  0.78200 3.81700 26.26300
C  0.51300 3.93700 24.81000
C  0.45800 5.40800 24.52300
C  0.99200 2.59200 27.18400
C  0.46900 2.86900 23.79100
O  0.10700 2.95100 22.63400
C  0.67600 1.54100 24.25400
N  0.48300 8.40700 23.85100
C  0.32800 7.40100 22.99200
C  -0.13700 7.82900 21.57700
C  -0.39000 9.37700 21.78800
C  0.19700 9.57000 23.23400
C  0.90500 7.52100 20.50900
C  -1.85300 9.93100 21.68300
C  -2.24100 11.01200 20.69400
N  1.08700 10.06500 26.09600
C  0.97400 11.09500 25.11100
C  1.35300 12.32100 25.66100
C  1.50900 12.12400 27.04600
C  1.35900 10.70400 27.24000
C  1.43100 13.58900 24.98100
C  1.84600 12.72400 28.34700
O  2.28100 13.84000 28.59100
C  1.58800 11.58300 29.34600
C  2.81900 11.60500 30.19700
O  4.01500 11.39700 29.92700
O  2.47600 11.85500 31.50600
C  3.65400 11.97100 32.37600
H  1.41700 4.63700 28.72600
H  -0.04400 5.29500 22.54100
H  0.25500 11.58700 23.11300
H  2.48100 8.72200 30.89400
H  0.76600 6.35900 30.82500
H  2.66000 5.25300 31.34700
H  3.59200 6.76700 31.23300
H  3.41400 5.59900 29.87200
H  -0.52900 8.76800 30.82200
H  0.56400 9.99900 31.36700
H  -0.55300 7.66300 32.88900
H  -0.21300 9.35200 33.26200
H  1.04900 2.79700 28.25300
H  1.90200 2.08700 26.85900
H  0.19400 1.88100 26.97300
H  1.63900 1.46300 24.76000
H  0.68800 0.82200 23.43400
H  -0.09400 1.21500 24.95300
H  -1.08300 7.34000 21.34600
H  0.27100 10.01600 21.20200
H  0.89800 6.49900 20.12900
H  1.93700 7.69900 20.81100
H  0.79500 8.20100 19.66400
H  -2.13800 10.25200 22.68400
H  -2.47300 9.03700 21.60100
H  -3.15900 10.79600 20.14700
H  -1.52100 11.15600 19.88900
H  -2.20200 11.96100 21.22900
H  0.49000 14.11300 24.81600
H  1.84200 13.38200 23.99300
H  2.11800 14.19500 25.57200
H  0.66000 11.80800 29.87100
H  4.28100 11.08800 32.24900
H  3.41800 12.00000 33.44000
H  4.23100 12.89000 32.27700
Mg 35.48500 2.83200 30.51500
C  33.09200 3.83700 32.85100
C  37.85700 2.77300 32.97800
C  37.72000 1.97700 28.24200
C  33.08800 3.36900 27.93400
N  35.41300 3.20800 32.70900
C  34.31100 3.47700 33.44800
C  34.63100 3.12900 34.97000
C  36.24300 3.33900 34.94100
C  36.54300 3.05800 33.50300
C  36.76800 4.74700 35.39100
C  34.06600 1.73100 35.34700
C  33.99900 1.40000 36.83200
H  34.74400 2.17200 37.81700
N  37.51900 2.38700 30.59500
C  38.33900 2.41300 31.70200
C  39.65300 2.03100 31.34000
C  39.59700 1.75400 29.95400
C  38.27300 2.07000 29.50800
C  40.74000 1.94000 32.35700
C  40.73200 1.22800 29.00800
O  40.66900 1.09200 27.80000
C  41.92300 0.71100 29.58800
N  35.34000 2.52400 28.44300
C  36.44400 2.22200 27.71100
C  36.16400 2.23800 26.18700
C  34.62200 2.46600 26.19800
C  34.35000 2.89300 27.60300
C  37.02000 3.33800 25.43700
C  33.67900 1.26400 25.81500
C  32.55500 1.52100 24.75700
N  33.51000 3.56700 30.37200
C  32.68100 3.70700 29.26900
C  31.35900 4.25600 29.70900
C  31.51000 4.31800 31.11600
C  32.79600 3.81800 31.48900
C  30.18300 4.67900 28.90900
C  30.85600 4.68400 32.28900
O  29.76600 5.22500 32.49900
C  31.73600 4.12900 33.47000
C  31.95900 5.20000 34.45100
O  32.56600 6.25400 34.32700
O  31.08800 4.82900 35.49800
C  31.00800 5.77500 36.55900
H  38.64500 2.90300 33.72400
H  38.51600 1.86500 27.50200
H  32.42200 3.53300 27.08400
H  34.13700 3.86100 35.60900
H  36.70100 2.55000 35.53700
H  35.90000 5.17400 35.89300
H  37.11400 5.20800 34.46600
H  37.67000 4.61300 35.98900
H  34.59400 0.90000 34.87800
H  33.07000 1.78000 34.90700
H  34.13000 0.32700 36.97300
H  32.96300 1.59000 37.11400
H  40.57200 0.98200 32.85000
H  40.79700 2.73900 33.09600
H  41.71300 1.98000 31.86900
H  42.44800 0.07200 28.87900
H  41.69500 0.19400 30.52000
H  42.55800 1.55000 29.87300
H  36.30600 1.20400 25.87200
H  34.45800 3.31600 25.53500
H  36.40900 4.06900 24.90800
H  37.58600 2.91900 24.60500
H  37.59800 3.92300 26.15300
H  33.27100 0.68000 26.64000
H  34.24400 0.46500 25.33500
H  32.86400 1.19800 23.76300
H  32.35700 2.59300 24.77100
H  31.65700 0.99600 25.08200
H  29.55600 5.33400 29.51300
H  29.64500 3.75800 28.68600
H  30.49800 5.20200 28.00600
H  31.30400 3.25300 33.95500
H  30.45900 5.36200 37.40600
H  30.56400 6.74100 36.31900
H  32.04800 5.92700 36.84700

