158

Mg -1.65300 18.22800 27.67300
C  -2.37700 16.12600 30.43500
C  -2.59400 20.82000 29.63400
C  -1.42200 20.14300 24.93700
C  -1.62800 15.31400 25.70800
N  -2.42800 18.39900 29.79500
C  -2.38600 17.45000 30.79000
C  -2.54800 17.97200 32.20800
C  -2.90900 19.48600 31.85400
C  -2.64700 19.59800 30.36700
C  -4.44100 19.89100 32.20000
C  -1.32900 17.78700 33.12400
C  -1.81200 17.29600 34.48700
H  -0.82200 17.28400 35.66400
N  -1.82700 20.21900 27.38400
C  -2.23200 21.08600 28.28800
C  -2.14700 22.48200 27.72400
C  -1.85100 22.31800 26.32600
C  -1.75000 20.85700 26.12000
C  -2.39200 23.76800 28.51600
C  -1.58500 23.36500 25.32100
O  -1.37900 23.16600 24.10700
C  -1.21900 24.66800 25.82600
N  -1.49000 17.83800 25.56300
C  -1.31900 18.80100 24.67100
C  -1.34700 18.20400 23.23000
C  -1.09200 16.68200 23.51900
C  -1.47500 16.57300 25.08000
C  -2.60500 18.46500 22.38500
C  0.31000 16.05100 23.19400
C  1.45600 16.59200 24.00500
N  -1.76600 16.10900 28.01700
C  -1.75000 15.08400 27.11700
C  -1.80400 13.88500 27.78000
C  -2.07900 14.21500 29.11000
C  -2.05400 15.61500 29.19300
C  -1.90600 12.58000 27.20300
C  -2.36500 13.58400 30.35100
O  -2.52300 12.42900 30.67000
C  -2.48800 14.86000 31.34600
C  -1.45800 14.51100 32.37200
O  -0.28300 14.83100 32.31200
O  -2.09000 13.71500 33.28800
C  -1.36700 13.12200 34.38200
H  -2.75400 21.71300 30.24100
H  -1.37200 20.73700 24.02200
H  -1.77800 14.46200 25.04200
H  -3.41200 17.46400 32.63700
H  -2.18300 20.15200 32.32000
H  -4.99100 19.15200 32.78200
H  -5.04000 19.98000 31.29400
H  -4.43400 20.81800 32.77400
H  -0.93500 18.77800 33.34600
H  -0.60400 17.07800 32.72300
H  -2.19400 16.28100 34.38000
H  -2.57500 18.02200 34.76700
H  -1.41300 24.10900 28.85200
H  -3.03700 23.63800 29.38500
H  -2.88600 24.46700 27.84100
H  -0.62500 24.43500 26.71000
H  -2.18300 25.11100 26.07500
H  -0.69800 25.27800 25.08700
H  -0.42100 18.51900 22.75000
H  -1.86200 16.07300 23.04600
H  -3.29700 17.64500 22.57400
H  -2.29700 18.55600 21.34300
H  -3.03600 19.42700 22.66100
H  0.52100 16.13900 22.12800
H  0.30500 14.97600 23.37800
H  1.12600 17.45700 24.58000
H  2.21100 16.85400 23.26400
H  1.86300 15.80800 24.64400
H  -0.94200 12.20700 26.85800
H  -2.45900 12.64100 26.26500
H  -2.44000 11.97800 27.93800
H  -3.47700 14.87500 31.80500
H  -0.35300 12.94300 34.02400
H  -1.74500 12.15000 34.69700
H  -1.46700 13.80400 35.22600
Mg 46.18500 4.35300 47.02100
C  44.09500 7.09200 46.70000
C  43.49600 2.41400 46.07400
C  48.31700 1.72300 46.79200
C  49.03100 6.45900 47.02200
N  44.06700 4.74200 46.45100
C  43.46300 5.93800 46.33200
C  41.90800 5.75300 46.25600
C  41.74100 4.25200 46.03100
C  43.18100 3.75100 46.27500
C  40.72300 3.47300 46.91100
C  41.19100 6.59700 45.08900
C  42.02600 6.65100 43.74800
H  41.34900 6.11700 42.46300
N  45.95100 2.30600 46.64100
C  44.75900 1.69900 46.16300
C  44.93300 0.27500 45.97900
C  46.33000 0.04600 46.24300
C  46.98700 1.38000 46.64200
C  43.85000 -0.68000 45.54100
C  46.94800 -1.38200 46.14700
O  46.24100 -2.28700 45.80200
C  48.37600 -1.53800 46.44000
N  48.40300 4.12700 47.12000
C  48.97300 2.94200 46.93700
C  50.46400 2.93800 47.01100
C  50.75200 4.50300 46.85500
C  49.32400 5.11100 47.12300
C  50.96500 2.26800 48.31300
C  51.34500 5.01200 45.45200
C  51.67300 4.02700 44.35600
N  46.52400 6.31500 47.10300
C  47.70700 7.04400 47.05900
C  47.31700 8.44700 47.08300
C  45.90100 8.52400 47.04700
C  45.51900 7.23000 46.96400
C  48.26600 9.63000 46.91200
C  44.75800 9.38200 46.96300
O  44.67000 10.62100 46.92600
C  43.48100 8.47400 46.75500
C  42.55800 8.56500 47.85300
O  42.46400 7.80400 48.83600
O  41.75500 9.70300 47.73000
C  40.91300 10.07400 48.83100
H  42.69400 1.80700 45.65000
H  49.01900 0.89600 46.66500
H  49.88500 7.13800 46.99100
H  41.36700 6.05600 47.15300
H  41.67500 4.01400 44.96900
H  39.84900 4.03800 47.23400
H  41.21600 3.12800 47.82000
H  40.28200 2.59900 46.43000
H  40.98600 7.60200 45.45800
H  40.25800 6.04500 44.97500
H  42.89800 6.00800 43.86100
H  42.44500 7.63800 43.55100
H  44.03100 -1.23300 44.61900
H  42.88500 -0.19500 45.39700
H  43.78800 -1.43600 46.32400
H  48.53500 -1.19200 47.46100
H  48.95500 -0.99900 45.69000
H  48.60800 -2.59300 46.29100
H  50.95500 2.30600 46.27200
H  51.40200 4.82200 47.66900
H  51.69000 2.85900 48.87100
H  51.46000 1.33500 48.04300
H  50.12000 2.10500 48.98200
H  52.24400 5.51700 45.80700
H  50.71800 5.81300 45.06100
H  52.66400 3.66700 44.63200
H  51.63800 4.41800 43.33900
H  50.91500 3.24900 44.45100
H  49.24100 9.53500 47.38900
H  47.85500 10.59400 47.21100
H  48.47500 9.62900 45.84200
H  42.84100 8.82100 45.94400
H  41.07200 9.58300 49.79100
H  39.86100 9.95000 48.57200
H  40.99700 11.15100 48.97500

