158

Mg 36.46200 48.73100 24.90000
C  36.19300 46.84000 27.72200
C  34.81200 51.43100 26.65000
C  35.83900 50.24200 21.92000
C  37.53900 45.89900 23.16400
N  35.61400 49.10700 26.96700
C  35.73100 48.19000 27.98500
C  35.39400 48.82200 29.38100
C  34.80700 50.17800 28.95800
C  35.06800 50.26900 27.41900
C  33.37500 50.46300 29.44200
C  36.47600 48.96800 30.47100
C  36.22600 48.99600 31.95400
H  34.80400 48.93700 32.46200
N  35.60900 50.62300 24.35900
C  35.07600 51.57700 25.24900
C  34.71400 52.79000 24.47300
C  34.95100 52.51500 23.09600
C  35.41700 51.04400 23.02500
C  34.11900 54.05500 25.03900
C  34.76300 53.40700 21.83800
O  35.13700 53.06400 20.69700
C  34.10600 54.75300 21.96700
N  36.60700 48.13300 22.83200
C  36.42800 48.98500 21.79000
C  36.75600 48.31300 20.44400
C  37.65400 47.15600 20.98700
C  37.17700 47.04200 22.39400
C  35.51800 47.88900 19.69700
C  39.21400 47.32900 20.73900
C  39.88200 48.72200 20.64100
N  36.74900 46.75100 25.26100
C  37.24600 45.68600 24.49400
C  37.36700 44.44300 25.25200
C  36.91400 44.86700 26.53300
C  36.57800 46.25800 26.46300
C  37.87600 43.02800 24.85500
C  36.64400 44.44500 27.87700
O  36.80200 43.29600 28.39200
C  36.20400 45.74000 28.69300
C  34.96300 45.45500 29.42600
O  33.80600 45.59200 29.02300
O  35.30800 44.99600 30.67500
C  34.29800 44.76300 31.69500
H  34.47500 52.29100 27.23200
H  35.62400 50.81600 21.01600
H  37.95500 45.05000 22.61800
H  34.57500 48.20000 29.74100
H  35.39400 51.00300 29.36100
H  32.65800 50.65700 28.64400
H  33.48900 51.27900 30.15500
H  32.89200 49.66500 30.00700
H  37.07200 49.86100 30.28400
H  37.33400 48.31300 30.31900
H  36.57900 49.96100 32.31800
H  36.87600 48.32600 32.51800
H  34.61900 54.91500 24.59200
H  34.44400 54.17900 26.07200
H  33.04800 54.02100 24.83800
H  33.16400 54.68700 22.51000
H  33.63500 55.05800 21.03300
H  34.83800 55.42600 22.41500
H  37.28700 48.98200 19.76700
H  37.33600 46.20000 20.57100
H  35.80800 47.05100 19.06300
H  35.09100 48.73300 19.15500
H  34.90400 47.50800 20.51300
H  39.44100 46.94700 19.74400
H  39.75000 46.65800 21.41000
H  40.52300 48.79800 19.76200
H  40.50400 48.83000 21.52900
H  39.17700 49.54300 20.77100
H  38.79500 42.67800 25.32500
H  37.96700 43.00300 23.76900
H  37.14700 42.26200 25.11900
H  36.99300 45.87200 29.43300
H  34.21900 43.68800 31.85500
H  33.30400 45.14900 31.46800
H  34.58400 45.09700 32.69200
Mg -12.21100 37.49500 41.84900
C  -10.32200 34.80800 40.45500
C  -10.11900 39.61100 40.36500
C  -14.46300 39.89400 42.66500
C  -14.55900 35.01000 42.86800
N  -10.48600 37.22600 40.64100
C  -9.85600 36.06300 40.07800
C  -8.66100 36.40000 39.12500
C  -8.52000 37.91800 39.33400
C  -9.79100 38.26000 40.23200
C  -7.15900 38.47600 39.84500
C  -8.71600 35.81300 37.68600
C  -7.41200 35.18000 37.00700
H  -6.71500 35.93600 35.96900
N  -12.23500 39.49900 41.62100
C  -11.23800 40.17000 41.03200
C  -11.58000 41.58300 41.11900
C  -12.73600 41.71500 41.85300
C  -13.22500 40.36700 42.07000
C  -10.75800 42.67100 40.50200
C  -13.53900 43.03900 42.18300
O  -13.18000 44.17400 41.74800
C  -14.71800 43.00200 43.07900
N  -14.34000 37.49500 42.35000
C  -15.02700 38.57100 42.85500
C  -16.34200 38.25200 43.45800
C  -16.26100 36.72200 43.62200
C  -15.02400 36.37200 42.78800
C  -16.74700 39.07700 44.71500
C  -17.50700 35.99200 43.09800
C  -18.19600 34.85700 43.98600
N  -12.42300 35.37300 41.71600
C  -13.36300 34.47100 42.32900
C  -12.87100 33.08000 42.31500
C  -11.72300 33.20500 41.48500
C  -11.46000 34.62000 41.22100
C  -13.45800 31.77300 42.84700
C  -10.65500 32.42200 40.93600
O  -10.52600 31.23100 40.99400
C  -9.72100 33.39600 40.16500
C  -8.23600 33.27200 40.47300
O  -7.44900 32.50900 39.89900
O  -8.05800 33.99800 41.65200
C  -6.80200 33.81200 42.41800
H  -9.38300 40.28400 39.92100
H  -15.22400 40.60300 43.00000
H  -15.24200 34.33600 43.38900
H  -7.76300 36.02200 39.61400
H  -8.66100 38.43300 38.38400
H  -6.50900 37.67000 39.50500
H  -7.26300 38.71400 40.90300
H  -6.99200 39.48500 39.46900
H  -9.11300 36.55900 36.99800
H  -9.34200 34.92000 37.68000
H  -7.58800 34.18200 36.60500
H  -6.65000 35.07200 37.78000
H  -10.63400 43.46900 41.23400
H  -11.21600 42.95400 39.55400
H  -9.74000 42.34700 40.28400
H  -15.57400 42.62300 42.52200
H  -14.85300 43.95800 43.58400
H  -14.53900 42.30800 43.90100
H  -17.18000 38.48200 42.80000
H  -15.97400 36.50400 44.65100
H  -16.11100 39.87800 45.09200
H  -16.89900 38.44300 45.58800
H  -17.76400 39.46200 44.64000
H  -17.14400 35.50100 42.19500
H  -18.25900 36.75800 42.90900
H  -19.27400 34.87700 43.82200
H  -17.97800 35.05600 45.03500
H  -17.71600 33.90300 43.76700
H  -14.49900 31.77300 42.52400
H  -13.37900 31.82800 43.93300
H  -12.91000 30.88800 42.52400
H  -10.02400 32.89100 39.24700
H  -6.78400 34.64500 43.12000
H  -6.03700 33.95500 41.65500
H  -6.62400 32.93000 43.03400

