158

Mg 48.51900 34.62500 26.32500
C  46.47200 33.55800 28.95400
C  49.07800 37.49500 28.13000
C  50.04500 35.99900 23.67600
C  47.42400 32.06600 24.30800
N  47.77300 35.46300 28.34800
C  47.10000 34.76800 29.35200
C  47.42400 35.44500 30.73700
C  47.83700 36.86900 30.24600
C  48.36500 36.53700 28.81500
C  46.69900 37.99500 30.13500
C  48.53500 34.64700 31.52400
C  48.38800 34.42200 33.07200
H  47.42300 35.50200 33.71100
N  49.49300 36.42800 26.00000
C  49.67500 37.43500 26.89000
C  50.46600 38.53300 26.30200
C  50.73800 38.11300 24.99600
C  50.00500 36.84000 24.85400
C  50.77900 39.80400 27.09500
C  51.52000 38.81900 23.95900
O  51.39900 38.64300 22.77200
C  52.30800 40.00800 24.36900
N  48.85700 34.00400 24.35600
C  49.46200 34.70000 23.42100
C  49.44100 34.05200 22.06300
C  48.82200 32.62300 22.37600
C  48.40100 32.90600 23.77300
C  48.75500 34.92400 21.01100
C  49.76800 31.36700 22.20900
C  49.39200 30.33300 21.15700
N  47.24000 33.09100 26.54900
C  46.91000 32.08100 25.65600
C  45.96800 31.21600 26.32600
C  45.80900 31.74300 27.59600
C  46.50100 32.95000 27.68100
C  45.41800 29.89700 25.68600
C  45.10500 31.49200 28.86700
O  44.32900 30.58400 29.22300
C  45.58700 32.58600 29.85500
C  46.35000 31.87500 30.87100
O  47.44900 31.42100 30.69300
O  45.63500 31.81200 32.02600
C  46.32700 30.98700 33.01300
H  49.33900 38.38200 28.71200
H  50.46800 36.46800 22.78600
H  47.15000 31.16200 23.76000
H  46.47900 35.50400 31.27600
H  48.59500 37.33300 30.87600
H  46.27200 38.10400 29.13800
H  47.12600 38.95600 30.42300
H  46.02000 37.68800 30.93100
H  49.50300 35.05400 31.23200
H  48.52600 33.63500 31.11900
H  49.35700 34.57200 33.55000
H  48.01300 33.43100 33.32800
H  51.76700 39.71800 27.54600
H  50.07900 40.02300 27.90200
H  50.63200 40.66600 26.44500
H  51.66800 40.88500 24.46600
H  53.10300 40.13300 23.63400
H  52.69500 39.76200 25.35900
H  50.48800 33.92100 21.78900
H  47.92500 32.49500 21.77100
H  48.02100 34.36100 20.43500
H  49.30000 35.55800 20.31200
H  48.21500 35.67700 21.58500
H  49.78200 30.89200 23.19000
H  50.78000 31.71300 21.99600
H  50.22300 30.47700 20.46700
H  48.44700 30.51100 20.64300
H  49.46800 29.32700 21.56900
H  44.86200 29.43200 26.50000
H  46.30100 29.27700 25.53400
H  44.80300 30.01300 24.79300
H  44.79900 33.09500 30.41000
H  45.81200 31.05600 33.97100
H  47.34700 31.29300 33.24400
H  46.29100 29.94000 32.71200
Mg -1.63100 34.88000 27.94500
C  -3.67900 32.93100 29.86700
C  -0.76800 36.65900 30.66600
C  0.08100 36.87800 25.86600
C  -2.79700 33.04500 25.04000
N  -2.39600 35.01200 29.93700
C  -3.05100 33.99300 30.56300
C  -2.99600 34.18000 32.09000
C  -2.28300 35.54400 32.30900
C  -1.81200 35.82100 30.91000
C  -3.13100 36.72200 32.89200
C  -2.20900 32.99500 32.77500
C  -2.90500 32.45400 34.05000
H  -2.19700 32.44500 35.42400
N  -0.48700 36.54400 28.21900
C  -0.23100 37.10000 29.42900
C  0.70600 38.11200 29.25600
C  0.92500 38.22300 27.88800
C  0.15500 37.20200 27.23500
C  1.19900 38.81200 30.52900
C  1.83400 39.23400 27.22900
O  2.04300 39.39700 26.04100
C  2.58400 40.12000 28.17700
N  -1.33300 34.83700 25.77900
C  -0.53500 35.84200 25.20000
C  -0.36600 35.52600 23.69300
C  -1.35900 34.35700 23.35900
C  -1.82300 34.02500 24.79900
C  -0.63900 36.77500 22.76100
C  -0.70700 33.07800 22.74800
C  -1.61000 32.29300 21.76500
N  -2.91100 33.35300 27.48300
C  -3.31100 32.72700 26.31000
C  -4.35800 31.75200 26.61500
C  -4.38200 31.75600 28.01400
C  -3.58000 32.74500 28.49700
C  -5.13900 31.08600 25.61500
C  -5.04300 31.04800 29.11000
O  -5.85000 30.14000 29.05300
C  -4.60300 31.87200 30.34100
C  -5.78000 32.51400 30.96200
O  -6.62300 33.18400 30.43900
O  -5.90400 32.00500 32.25000
C  -6.94900 32.57300 33.15200
H  -0.45700 37.15900 31.58600
H  0.79600 37.46700 25.28800
H  -3.12400 32.52600 24.13600
H  -4.01100 34.32600 32.45900
H  -1.47600 35.43300 33.03400
H  -3.66300 36.18700 33.67900
H  -3.66300 37.16500 32.05000
H  -2.49500 37.43200 33.42100
H  -1.17200 33.25100 32.99600
H  -2.00600 32.17900 32.08100
H  -3.08100 31.41200 33.78100
H  -3.85600 32.96000 34.21700
H  1.86500 38.10600 31.02500
H  0.40100 38.92500 31.26200
H  1.69900 39.78000 30.49300
H  3.13600 39.54700 28.92100
H  1.86000 40.85000 28.53900
H  3.20000 40.82800 27.62200
H  0.66600 35.24000 23.49000
H  -2.22800 34.68500 22.78800
H  -1.48200 36.60600 22.09100
H  0.23400 37.06500 22.17800
H  -0.96000 37.61800 23.37200
H  -0.47600 32.46300 23.61800
H  0.22500 33.35300 22.25500
H  -1.79700 31.35000 22.27900
H  -1.13400 31.94400 20.84900
H  -2.59200 32.71200 21.54800
H  -4.47800 30.51700 24.96100
H  -5.76000 31.83000 25.11700
H  -5.82300 30.37000 26.07100
H  -4.15400 31.31500 31.16400
H  -6.71200 33.42800 33.78600
H  -7.35000 31.75200 33.74600
H  -7.83000 32.90500 32.60100

