158

Mg 7.17600 53.94100 42.34700
C  6.84600 50.51800 41.99200
C  10.39200 53.71700 41.21900
C  7.36900 57.29600 42.26300
C  3.94200 54.12700 43.57900
N  8.35900 52.35700 41.55600
C  7.98300 51.06500 41.43600
C  9.04400 50.29900 40.72300
C  10.29300 51.21300 40.87100
C  9.63700 52.56100 41.24600
C  11.27800 50.76900 41.95100
C  8.71900 49.85100 39.27300
C  7.77000 50.81000 38.50200
H  7.79100 50.62300 36.93700
N  8.71200 55.34600 41.80400
C  9.98800 55.04600 41.38200
C  10.76100 56.28500 41.22100
C  9.88300 57.33200 41.57700
C  8.59000 56.70100 41.86700
C  12.21800 56.22900 40.89700
C  10.14900 58.81000 41.53000
O  11.26700 59.15400 41.23200
C  9.14200 59.83100 42.05700
N  5.71600 55.46300 42.60000
C  6.09300 56.72500 42.48900
C  4.90400 57.60100 42.79200
C  3.72700 56.62600 43.14800
C  4.51600 55.32300 43.11200
C  5.30600 58.68500 43.92100
C  2.46100 56.59700 42.17700
C  2.44100 55.73600 40.86400
N  5.63900 52.63700 42.83100
C  4.40800 52.79300 43.37400
C  3.86400 51.44700 43.77500
C  4.82000 50.56200 43.22400
C  5.86100 51.32400 42.64600
C  2.70000 51.13300 44.58300
C  5.18600 49.19800 43.09500
O  4.69800 48.23700 43.62300
C  6.47100 49.06000 42.22700
C  6.04300 48.30200 40.97000
O  5.06200 48.63000 40.26700
O  6.84200 47.26600 40.60000
C  6.45200 46.62500 39.39500
H  11.47200 53.66100 41.06400
H  7.45700 58.38000 42.16900
H  2.94400 54.15300 44.02100
H  9.21300 49.36400 41.25700
H  10.79900 51.37600 39.91900
H  12.10700 50.36100 41.37300
H  10.74400 50.03700 42.55700
H  11.60600 51.55900 42.62800
H  8.30900 48.84500 39.36100
H  9.62900 49.79100 38.67500
H  8.03600 51.84900 38.70000
H  6.78600 50.65400 38.94500
H  12.43300 56.91500 40.07700
H  12.54100 55.20900 40.68700
H  12.80800 56.55200 41.75400
H  9.63100 60.78700 42.24300
H  8.93700 59.38900 43.03200
H  8.38100 59.99200 41.29400
H  4.60400 58.09100 41.86600
H  3.36700 56.75000 44.16900
H  4.57500 58.58100 44.72300
H  5.12500 59.66100 43.47100
H  6.33000 58.59600 44.28600
H  2.24400 57.61700 41.86000
H  1.63200 56.27700 42.80700
H  2.15600 56.40700 40.05400
H  1.74900 54.90500 40.72700
H  3.45900 55.40300 40.66300
H  2.40500 50.08700 44.51200
H  1.88200 51.75000 44.21300
H  2.88900 51.35000 45.63500
H  7.16400 48.42800 42.78200
H  6.21400 47.41000 38.67700
H  5.58600 46.02900 39.68300
H  7.18300 46.00900 38.87200
Mg 9.29400 48.75700 26.02600
C  7.00200 48.73900 28.77300
C  11.72800 49.81600 28.17300
C  11.35400 48.72900 23.29400
C  6.54200 48.47000 23.84400
N  9.30000 49.34400 28.27900
C  8.33700 49.11300 29.21400
C  8.82200 49.43500 30.61700
C  10.31500 49.95100 30.32400
C  10.46000 49.75400 28.81300
C  10.77100 51.31700 30.90100
C  8.65300 48.24100 31.61300
C  9.57900 48.13700 32.84100
H  9.01000 47.42200 34.02900
N  11.26500 49.14200 25.78000
C  12.05300 49.62200 26.81100
C  13.38600 49.64400 26.26200
C  13.37300 49.18900 24.87200
C  11.96600 49.00900 24.57700
C  14.60200 50.15700 27.00200
C  14.55300 49.05700 23.85500
O  14.37900 48.84700 22.67500
C  15.89600 49.42800 24.26000
N  8.99400 48.63400 23.88200
C  10.01600 48.52100 22.94800
C  9.51900 48.28400 21.54900
C  8.01400 48.30400 21.75200
C  7.80300 48.49900 23.21200
C  10.10300 49.32600 20.55000
C  7.37500 46.94300 21.17100
C  6.15100 47.09700 20.17700
N  7.27300 48.71300 26.20300
C  6.32900 48.51300 25.24200
C  4.98900 48.41500 25.79100
C  5.25300 48.33800 27.16900
C  6.62600 48.63300 27.42100
C  3.64800 48.24200 25.24200
C  4.56400 48.22900 28.44000
O  3.37700 48.06500 28.66300
C  5.67900 48.52300 29.54600
C  5.83900 47.33100 30.42900
O  6.35200 46.28000 30.12600
O  5.20000 47.53100 31.63900
C  5.21300 46.44100 32.58700
H  12.50400 50.06800 28.89900
H  11.93500 48.62200 22.37600
H  5.67700 48.29600 23.20000
H  8.18900 50.24700 30.97400
H  11.03400 49.30500 30.82900
H  11.40800 51.31700 31.78600
H  9.83800 51.76000 31.24900
H  11.18200 52.07400 30.23300
H  8.48300 47.33500 31.03200
H  7.71000 48.46300 32.11200
H  9.71700 49.18800 33.09700
H  10.52300 47.66800 32.56600
H  14.37900 50.28100 28.06100
H  14.90700 51.11900 26.59000
H  15.44000 49.46000 26.95900
H  16.29700 48.70300 24.96800
H  15.84600 50.35000 24.84000
H  16.41400 49.60500 23.31700
H  9.82000 47.26500 21.30700
H  7.57000 49.01900 21.06000
H  10.72200 50.08400 21.03100
H  9.34200 49.85800 19.97900
H  10.57100 48.77600 19.73400
H  6.99700 46.35500 22.00700
H  8.01500 46.26900 20.60000
H  5.83900 48.13000 20.01900
H  5.28100 46.53500 20.51700
H  6.40900 46.67300 19.20700
H  3.01200 49.09900 25.46500
H  3.33600 47.42300 25.89000
H  3.75600 48.07500 24.17100
H  5.49900 49.44000 30.10700
H  4.92400 46.79800 33.57500
H  6.14500 45.88600 32.69400
H  4.42800 45.73600 32.31200

