158

Mg 44.58000 4.21600 45.80900
C  43.14800 7.30900 45.82900
C  41.42100 2.78800 45.32000
C  46.07400 1.30900 44.91700
C  47.69000 5.76000 45.85100
N  42.46700 5.01200 45.71900
C  42.12800 6.33500 45.66500
C  40.60500 6.52900 45.57000
C  40.14000 5.05900 45.47300
C  41.38900 4.18500 45.55300
C  39.06100 4.67700 46.57000
C  40.18300 7.36200 44.26200
C  41.06700 7.43100 42.94200
H  40.42600 7.98100 41.65800
N  43.86100 2.28400 45.19500
C  42.52600 1.96300 45.06000
C  42.52700 0.52800 44.68700
C  43.80200 0.08400 44.58700
C  44.65800 1.21500 44.92000
C  41.26400 -0.28100 44.35800
C  44.23200 -1.30800 44.19800
O  43.42700 -2.19400 43.92600
C  45.64100 -1.75900 43.92800
N  46.60100 3.63200 45.45200
C  46.95900 2.34000 45.25800
C  48.48500 2.16800 45.43900
C  49.02900 3.65400 45.52000
C  47.70000 4.37800 45.54800
C  48.85900 1.21700 46.61100
C  50.09500 4.14800 44.53000
C  51.42900 4.62300 45.09800
N  45.27700 6.08900 45.84100
C  46.55800 6.58900 45.88300
C  46.52100 8.00800 45.94500
C  45.20800 8.34400 45.96000
C  44.49700 7.13700 45.87900
C  47.69100 8.88700 46.12700
C  44.32500 9.38000 46.20000
O  44.53100 10.58600 46.38700
C  42.89900 8.79600 45.98700
C  42.06800 9.13500 47.17700
O  42.12000 8.53900 48.23700
O  41.25100 10.20900 46.83000
C  40.46900 10.58200 47.97900
H  40.49800 2.21800 45.19400
H  46.54300 0.34100 44.73300
H  48.69500 6.18500 45.88900
H  40.23100 6.94000 46.50700
H  39.76700 4.80000 44.48200
H  38.84200 5.55400 47.17900
H  39.56500 3.92800 47.18200
H  38.15400 4.37100 46.04900
H  40.12900 8.40400 44.57600
H  39.13800 7.06800 44.15900
H  41.50500 6.44600 42.78400
H  41.92800 8.04900 43.19500
H  41.26900 -0.59600 43.31400
H  40.33000 0.17200 44.68900
H  41.28600 -1.27200 44.81200
H  45.72600 -2.80300 43.62800
H  46.17800 -1.62000 44.86700
H  46.01700 -1.09800 43.14800
H  48.93400 1.72000 44.55200
H  49.47400 3.72900 46.51200
H  48.05100 0.94300 47.29000
H  49.63800 1.73600 47.16800
H  49.27100 0.37400 46.05600
H  49.75500 4.98900 43.92600
H  50.38000 3.41300 43.77700
H  52.22600 4.11500 44.55500
H  51.65300 4.49700 46.15700
H  51.52300 5.67700 44.83500
H  48.54100 8.43000 46.63300
H  47.39800 9.80300 46.64100
H  48.04300 9.21800 45.15000
H  42.33700 9.24900 45.17100
H  39.81300 11.37700 47.62600
H  41.08200 10.83900 48.84300
H  39.94200 9.69600 48.33400
Mg 29.43600 58.03400 41.09400
C  26.51300 56.50200 39.71400
C  31.29100 55.36800 39.84600
C  32.18100 59.90900 41.46100
C  27.37000 60.79400 41.88600
N  28.97300 56.27100 39.95500
C  27.74100 55.91000 39.42200
C  27.98600 54.67400 38.61800
C  29.19400 54.03900 39.19300
C  29.87500 55.25800 39.72800
C  28.85100 53.05700 40.38600
C  28.00700 55.03600 37.09400
C  27.03000 54.34200 36.12600
H  26.40300 55.17600 35.06600
N  31.50100 57.70200 40.79100
C  32.04400 56.54500 40.24400
C  33.45900 56.64900 40.22200
C  33.81500 57.94800 40.70400
C  32.50900 58.58800 41.02600
C  34.33700 55.54500 39.62400
C  35.10000 58.51600 40.75600
O  35.99800 57.89800 40.27400
C  35.39700 59.89200 41.17400
N  29.66900 60.12400 41.37600
C  30.95100 60.59900 41.61200
C  30.94700 62.04400 42.14900
C  29.43300 62.34700 42.24100
C  28.74100 61.02800 41.85400
C  31.75800 62.18000 43.46800
C  28.92600 63.45800 41.33100
C  28.00100 64.50500 41.96300
N  27.37200 58.52700 41.02900
C  26.68000 59.64000 41.48600
C  25.24700 59.47100 41.24600
C  25.19900 58.22100 40.55300
C  26.43400 57.66600 40.48200
C  24.27600 60.55900 41.53500
C  24.27500 57.24800 39.91600
O  23.09000 57.28400 39.97200
C  25.14600 56.06300 39.29900
C  24.69600 54.74200 39.73700
O  24.70600 54.29500 40.86900
O  24.32800 53.99000 38.56800
C  23.87200 52.59800 38.83300
H  31.72800 54.48600 39.37400
H  33.07300 60.48100 41.72600
H  26.82400 61.66500 42.25300
H  27.09800 54.05700 38.75300
H  29.85700 53.63800 38.42700
H  29.55500 53.25600 41.19400
H  28.83300 52.02700 40.03000
H  27.94900 53.24400 40.96900
H  28.97900 54.67500 36.75700
H  28.06600 56.11100 36.92700
H  26.23100 53.92300 36.73700
H  27.56500 53.52300 35.64600
H  33.76800 54.61900 39.53600
H  35.12700 55.41600 40.36400
H  34.74100 55.96800 38.70400
H  34.90800 60.67000 40.58800
H  36.47600 60.03000 41.23700
H  35.02600 60.06800 42.18400
H  31.42700 62.72500 41.44600
H  29.18800 62.56700 43.28000
H  32.44900 63.01800 43.38200
H  32.43900 61.34300 43.62900
H  31.08200 62.30400 44.31400
H  28.36800 63.06300 40.48200
H  29.73700 64.05600 40.91600
H  28.50200 65.43200 41.68500
H  27.86800 64.42500 43.04100
H  27.03900 64.54400 41.45100
H  23.99200 61.03100 40.59500
H  24.63700 61.36700 42.17300
H  23.38600 60.20300 42.05400
H  25.13900 56.15300 38.21300
H  24.63700 52.02500 39.35600
H  23.47100 52.08300 37.96000
H  23.03900 52.68000 39.53100

