158

Mg 26.56000 49.52700 25.83000
C  24.47000 50.79300 28.36000
C  28.74100 48.49200 28.10700
C  28.65800 49.02300 23.23900
C  24.42400 51.01800 23.50000
N  26.51600 49.50300 28.10300
C  25.59200 50.12400 28.97300
C  26.05100 50.03100 30.41700
C  27.49100 49.36700 30.21900
C  27.57100 49.05000 28.72400
C  28.61500 50.27300 30.79100
C  25.06800 49.21900 31.30400
C  24.77500 49.81600 32.68200
H  25.94400 50.40000 33.49100
N  28.42200 48.81200 25.69500
C  29.13300 48.33000 26.77800
C  30.37300 47.91700 26.22400
C  30.44500 48.17000 24.82300
C  29.13300 48.63800 24.47900
C  31.48600 47.36400 27.12100
C  31.58100 48.10900 23.82200
O  31.51000 48.54000 22.71400
C  32.86800 47.59800 24.28400
N  26.58600 50.10900 23.68800
C  27.49800 49.65300 22.85300
C  27.09600 49.89600 21.35700
C  25.61900 50.32700 21.49800
C  25.56900 50.51800 22.94600
C  28.03900 50.87200 20.54900
C  24.46900 49.39600 21.00000
C  23.21000 50.05300 20.30800
N  24.70500 50.56700 25.86800
C  24.00600 51.09000 24.87000
C  22.75600 51.71300 25.33900
C  22.94600 51.69900 26.73000
C  24.11600 50.95500 26.98200
C  21.91100 52.61500 24.60400
C  22.40300 52.19900 27.95000
O  21.45900 52.98200 28.07900
C  23.32700 51.64400 29.12700
C  23.91100 52.86500 29.82600
O  24.94200 53.35300 29.61300
O  23.21700 53.05100 30.99500
C  24.03100 53.79000 32.02700
H  29.39200 48.02900 28.85200
H  29.27900 48.92800 22.34500
H  23.63600 51.29300 22.79500
H  26.14800 51.06000 30.76100
H  27.50900 48.39600 30.71300
H  29.29100 50.75500 30.08400
H  29.26600 49.76200 31.50100
H  28.25000 51.11900 31.37200
H  25.29600 48.15400 31.36500
H  24.13000 49.29700 30.75500
H  24.29400 49.07600 33.32100
H  23.96700 50.49800 32.41400
H  31.85600 46.43400 26.68800
H  31.20000 47.12600 28.14500
H  32.32100 48.06400 27.15500
H  32.69300 46.56300 24.57500
H  33.12200 48.10200 25.21700
H  33.62500 47.52600 23.50200
H  27.10600 48.93200 20.84900
H  25.47500 51.27300 20.97500
H  28.81200 51.23600 21.22600
H  27.47100 51.60700 19.97800
H  28.64100 50.22000 19.91700
H  24.19900 48.68500 21.78100
H  25.02100 48.72800 20.33900
H  23.13400 49.90300 19.23100
H  23.13400 51.07100 20.68700
H  22.36200 49.50600 20.71900
H  22.57500 53.41700 24.28000
H  21.31500 53.14600 25.34600
H  21.41400 52.08800 23.79000
H  22.70900 51.01600 29.76900
H  23.62100 53.65500 33.02800
H  23.97900 54.86800 31.87900
H  25.09400 53.55000 32.00500
Mg 0.69300 42.34300 25.54600
C  2.36700 42.54200 28.73700
C  -2.02700 41.10200 27.16600
C  -0.62000 41.74300 22.56300
C  3.79900 43.06400 24.04800
N  0.22600 42.00300 27.67900
C  1.01800 42.18500 28.80600
C  0.18100 41.93600 30.09700
C  -1.18700 41.34500 29.48500
C  -0.99500 41.48200 28.00100
C  -1.38100 39.88400 29.95000
C  -0.02200 43.22800 31.03300
C  0.34900 42.98500 32.50500
H  0.03400 41.66400 33.07400
N  -1.08600 41.46900 24.96700
C  -2.13800 41.10800 25.77000
C  -3.24300 40.72100 24.98400
C  -2.82600 40.95100 23.59600
C  -1.46700 41.32500 23.64100
C  -4.53000 40.10000 25.57900
C  -3.67200 40.94300 22.35000
O  -3.18000 41.14900 21.21000
C  -5.18000 40.78700 22.50700
N  1.45800 42.43400 23.60300
C  0.69900 42.24800 22.57300
C  1.51900 42.48400 21.26500
C  2.87400 42.98400 21.76000
C  2.70600 42.84600 23.25600
C  1.46300 41.29000 20.23900
C  3.27800 44.41100 21.42800
C  4.37800 44.57500 20.28500
N  2.58700 42.81100 26.20600
C  3.77600 43.08500 25.51000
C  4.92500 43.37200 26.39000
C  4.36400 43.14400 27.63400
C  3.00300 42.81600 27.49100
C  6.29600 43.86200 26.06200
C  4.63900 43.18500 29.06500
O  5.61000 43.57100 29.66400
C  3.39100 42.83100 29.85200
C  3.71700 41.64800 30.55600
O  4.09300 40.60100 30.01200
O  3.62100 41.86400 31.90100
C  4.21000 40.83200 32.75700
H  -2.90800 40.63000 27.60500
H  -1.03100 41.71100 21.55100
H  4.75000 43.26800 23.55100
H  0.65400 41.16100 30.70000
H  -1.92300 41.96000 30.00200
H  -2.46700 39.89500 30.04500
H  -0.86200 39.61400 30.87000
H  -1.21000 39.16400 29.14900
H  -1.07500 43.50600 31.08100
H  0.53400 44.14700 30.84500
H  -0.20500 43.70000 33.11400
H  1.39700 43.16100 32.74800
H  -4.24600 39.36300 26.33100
H  -5.00700 39.51100 24.79600
H  -5.21800 40.82000 26.02200
H  -5.61000 40.95700 21.52000
H  -5.61600 41.46000 23.24500
H  -5.44000 39.74200 22.67800
H  0.89100 43.25300 20.81600
H  3.63000 42.22900 21.54400
H  1.22600 40.30300 20.63700
H  2.42100 41.10700 19.75200
H  0.76700 41.47800 19.42200
H  3.70700 44.88000 22.31400
H  2.39400 44.98400 21.15000
H  3.91200 44.12600 19.40800
H  5.30900 44.11800 20.61900
H  4.55100 45.61800 20.02000
H  6.25400 44.42200 25.12800
H  6.88300 42.94500 26.01500
H  6.74600 44.52200 26.80400
H  3.10400 43.64900 30.51400
H  4.27500 39.89600 32.20200
H  3.53600 40.68200 33.60000
H  5.15400 41.23200 33.12800

