158

Mg 49.47600 35.64500 27.40800
C  47.58400 34.02400 29.90000
C  49.88700 38.27400 29.52300
C  50.88100 37.35100 24.84100
C  48.47400 33.10500 25.23300
N  48.81000 36.03300 29.48200
C  48.21600 35.21700 30.36700
C  48.26400 35.78500 31.77500
C  48.68600 37.24800 31.47900
C  49.20900 37.19300 30.11100
C  47.61600 38.31100 31.78500
C  49.30800 35.04900 32.66700
C  49.03100 34.97100 34.15900
H  48.01400 35.91100 34.82300
N  50.37400 37.45000 27.23900
C  50.41100 38.46500 28.23000
C  51.04200 39.64300 27.67400
C  51.41800 39.39400 26.36000
C  50.88000 38.03600 26.09900
C  51.15500 40.82900 28.56300
C  52.09400 40.21300 25.37900
O  52.42400 39.90300 24.19800
C  52.42700 41.65000 25.81500
N  49.66400 35.28400 25.37000
C  50.24700 36.14800 24.50100
C  50.17800 35.65400 23.05200
C  49.51300 34.27500 23.18100
C  49.27300 34.15200 24.73600
C  49.35900 36.67400 22.15300
C  50.36800 33.09800 22.63300
C  51.87600 33.05400 23.04000
N  48.38500 33.81500 27.56100
C  48.06500 32.94800 26.57900
C  47.11200 31.94200 27.07900
C  46.80500 32.42400 28.34600
C  47.68800 33.44400 28.61900
C  46.34900 30.95700 26.23000
C  45.93100 32.13400 29.45500
O  45.00300 31.28800 29.62200
C  46.47600 33.23200 30.57000
C  46.92600 32.35100 31.63100
O  48.03200 31.91200 31.75900
O  45.84000 32.12500 32.44300
C  46.10000 31.23000 33.56800
H  50.12800 39.08600 30.21200
H  51.39500 37.73900 23.95900
H  47.99600 32.43800 24.51200
H  47.28600 35.67500 32.24500
H  49.54100 37.53100 32.09200
H  46.68500 37.74500 31.82800
H  47.45000 38.90900 30.88900
H  47.77800 38.94200 32.65900
H  50.27200 35.53200 32.50600
H  49.45600 34.00100 32.40800
H  49.93000 35.17000 34.74300
H  48.87500 33.92800 34.43400
H  52.04400 40.84000 29.19300
H  50.37700 40.90900 29.32300
H  51.02100 41.74300 27.98400
H  53.00700 41.51100 26.72700
H  51.59800 42.34400 25.95500
H  52.95600 42.04800 24.94900
H  51.18000 35.55600 22.63300
H  48.50800 34.24800 22.76000
H  50.09700 36.94000 21.39600
H  49.08900 37.56700 22.71600
H  48.45800 36.29000 21.67600
H  50.36100 33.15800 21.54400
H  49.80100 32.19500 22.85600
H  52.04900 33.54400 23.99800
H  52.53200 33.63900 22.39600
H  52.32600 32.06200 23.01100
H  45.39400 30.63900 26.64700
H  46.96600 30.21200 25.72900
H  45.93000 31.59000 25.44700
H  45.75700 33.97600 30.91300
H  46.48300 30.28700 33.17800
H  45.21700 31.20400 34.20600
H  46.86300 31.65200 34.22200
Mg 43.19800 41.44500 26.41400
C  42.29100 43.77600 28.85400
C  44.37200 39.43900 28.84800
C  44.07800 39.28200 23.98800
C  42.43900 43.82900 23.96600
N  43.39900 41.63900 28.66000
C  42.74100 42.56300 29.41400
C  42.82100 42.15600 30.91800
C  43.58500 40.82400 30.78500
C  43.87500 40.67000 29.34300
C  44.90300 40.59100 31.65100
C  41.40000 42.08800 31.57300
C  41.25100 42.89900 32.84900
H  40.71300 42.12100 34.10500
N  44.19500 39.62400 26.42700
C  44.58700 38.92900 27.55300
C  45.27400 37.67000 27.07500
C  45.12500 37.63400 25.65600
C  44.47300 38.86000 25.25200
C  45.76700 36.60500 28.02200
C  45.59900 36.52700 24.60900
O  45.68500 36.72100 23.38700
C  45.98100 35.20600 25.27300
N  43.42800 41.58800 24.26300
C  43.67700 40.50600 23.48500
C  43.42000 40.84600 21.98700
C  42.91100 42.33000 22.01300
C  42.87500 42.59700 23.54000
C  44.65900 40.67200 21.11100
C  41.56000 42.57500 21.37700
C  41.37500 43.97200 20.71700
N  42.37500 43.32400 26.39400
C  42.20300 44.17100 25.29700
C  41.57200 45.42100 25.74400
C  41.58400 45.34200 27.19500
C  42.17200 44.05200 27.51500
C  41.22800 46.52600 24.92600
C  41.45200 46.06600 28.45700
O  41.18000 47.24400 28.62700
C  41.77800 45.03200 29.60300
C  42.89500 45.59300 30.40000
O  44.09900 45.49100 30.15700
O  42.40800 46.06300 31.61000
C  43.42400 46.13600 32.71400
H  44.79000 38.76900 29.60300
H  44.05800 38.54700 23.18100
H  42.27000 44.52900 23.14500
H  43.50500 42.88600 31.35100
H  42.91400 39.98200 30.95100
H  44.80900 39.60800 32.11400
H  44.83600 41.22500 32.53500
H  45.80900 40.66000 31.04800
H  41.21700 41.03800 31.80300
H  40.78900 42.33200 30.70400
H  40.53200 43.64300 32.50700
H  42.19700 43.40800 33.03600
H  45.33200 35.60800 28.08100
H  45.87100 37.03000 29.02100
H  46.76800 36.34800 27.67500
H  45.23700 34.94100 26.02300
H  46.97200 35.38700 25.68800
H  46.01000 34.47900 24.46100
H  42.59800 40.25000 21.59000
H  43.61300 43.08200 21.65200
H  44.65400 41.54900 20.46500
H  44.50500 39.71600 20.60900
H  45.55200 40.67600 21.73600
H  40.77500 42.54300 22.13200
H  41.41900 41.79300 20.63100
H  40.64400 44.45300 21.36800
H  40.92500 43.79400 19.74100
H  42.33300 44.49100 20.69000
H  40.31500 46.94900 25.34300
H  40.94100 46.13900 23.94800
H  42.02700 47.25200 24.77200
H  40.84200 44.75800 30.09100
H  44.12200 45.30100 32.66300
H  43.02000 46.04000 33.72200
H  43.91500 47.10400 32.82200

