158

Mg 17.38500 -2.29500 28.11000
C  16.31200 -0.41400 30.80600
C  19.22900 -4.26700 30.23100
C  18.67200 -3.88800 25.41000
C  15.68800 -0.06100 25.99600
N  17.82800 -2.26000 30.27900
C  17.18600 -1.47800 31.18400
C  17.41200 -1.98700 32.61800
C  18.43500 -3.11100 32.40100
C  18.52600 -3.22000 30.85200
C  19.83700 -2.91800 33.09400
C  16.07900 -2.30000 33.34300
C  16.02300 -2.10200 34.89400
H  17.16100 -1.38600 35.61500
N  18.68100 -3.98100 27.83800
C  19.40200 -4.64500 28.83900
C  20.25900 -5.66500 28.29200
C  20.00000 -5.55100 26.90800
C  19.02700 -4.47000 26.66700
C  21.16000 -6.62500 29.06400
C  20.53300 -6.48000 25.83300
O  20.27900 -6.37600 24.63100
C  21.31800 -7.68900 26.22900
N  17.10800 -2.14600 26.04700
C  17.92800 -2.77800 25.07200
C  17.60900 -2.33500 23.67300
C  16.51000 -1.32400 23.92100
C  16.50200 -1.04800 25.43100
C  18.83500 -1.90000 22.92600
C  15.13000 -1.72900 23.16300
C  14.85900 -1.31500 21.71100
N  16.25800 -0.47400 28.29200
C  15.56500 0.19800 27.35000
C  14.66600 1.13900 27.99100
C  14.93900 0.97100 29.41600
C  15.92100 -0.08100 29.52300
C  13.87000 2.16500 27.35000
C  14.72100 1.47300 30.75100
O  13.98500 2.33800 31.16600
C  15.52500 0.52600 31.70500
C  16.46900 1.35100 32.57500
O  17.69300 1.47900 32.37000
O  15.76300 2.17400 33.42300
C  16.58400 3.00800 34.28800
H  19.90800 -4.81000 30.89100
H  19.06800 -4.24200 24.45600
H  15.17600 0.67700 25.37600
H  17.83100 -1.12600 33.13900
H  18.02100 -4.07400 32.69700
H  19.67700 -2.99200 34.17000
H  20.22600 -1.91300 32.93300
H  20.48600 -3.74900 32.81600
H  15.91900 -3.37700 33.29500
H  15.15200 -2.04000 32.83200
H  15.80900 -3.06500 35.35700
H  15.12400 -1.50300 35.04200
H  20.63800 -7.58200 29.09600
H  21.25500 -6.26200 30.08800
H  22.18100 -6.68600 28.68700
H  21.58400 -8.35100 25.40500
H  20.71200 -8.34300 26.85700
H  22.26200 -7.49100 26.73700
H  17.13800 -3.11500 23.07600
H  16.82700 -0.38500 23.46800
H  19.75000 -1.97100 23.51400
H  18.65000 -0.88800 22.56600
H  18.84000 -2.58300 22.07700
H  14.42300 -1.16700 23.77200
H  14.91700 -2.79600 23.23000
H  14.24300 -0.41600 21.69100
H  14.52900 -2.12000 21.05500
H  15.78300 -0.82500 21.40300
H  12.83100 1.83400 27.36600
H  14.13400 2.13500 26.29300
H  13.87100 3.15400 27.80700
H  14.84700 -0.01700 32.36400
H  17.64100 2.74000 34.29500
H  16.42500 2.77400 35.34000
H  16.50300 4.06900 34.05000
Mg -10.43300 38.89400 42.31800
C  -8.86900 35.92000 41.58300
C  -7.68900 40.58300 41.22600
C  -12.22400 41.75200 42.43600
C  -13.40100 37.01400 42.74500
N  -8.57800 38.22000 41.35400
C  -8.01900 36.97700 41.27400
C  -6.59500 37.01600 40.73600
C  -6.17500 38.51900 41.09500
C  -7.54800 39.15200 41.22600
C  -5.18400 38.75400 42.29600
C  -6.44300 36.64200 39.15300
C  -5.24000 35.75500 38.87700
H  -5.37600 34.69600 37.75400
N  -10.09100 40.89000 41.74400
C  -8.86400 41.35700 41.38900
C  -8.97900 42.77800 41.06100
C  -10.25400 43.15300 41.46700
C  -10.90800 41.94900 41.96400
C  -7.82300 43.62100 40.37700
C  -10.80400 44.64600 41.44700
O  -10.05600 45.54100 41.00200
C  -12.23900 45.01400 41.94500
N  -12.54500 39.33900 42.69100
C  -12.94600 40.59300 42.78100
C  -14.48600 40.62600 43.20100
C  -14.94500 39.11900 43.03700
C  -13.58800 38.41500 42.79500
C  -14.82400 41.36400 44.53400
C  -16.15200 38.86100 42.04300
C  -17.55700 38.41700 42.52600
N  -10.99800 36.87100 42.31300
C  -12.21400 36.24800 42.52700
C  -12.09800 34.78300 42.40300
C  -10.76300 34.62300 42.07100
C  -10.14900 35.90400 41.96900
C  -13.12100 33.79100 42.85000
C  -9.68400 33.64900 41.79300
O  -9.79900 32.46100 41.89900
C  -8.46800 34.49200 41.30500
C  -7.42500 34.03800 42.21400
O  -7.15600 34.52800 43.35300
O  -6.85200 32.93800 41.66400
C  -5.90200 32.19600 42.60700
H  -6.80500 41.13100 40.89500
H  -12.86200 42.61600 42.63200
H  -14.34900 36.48200 42.85100
H  -5.99200 36.37200 41.37600
H  -5.75200 39.02900 40.22900
H  -5.76300 39.23400 43.08500
H  -4.37500 39.43700 42.03900
H  -4.70700 37.86200 42.70100
H  -6.21500 37.54800 38.59100
H  -7.41700 36.28700 38.81900
H  -5.10000 35.24300 39.82900
H  -4.38100 36.30100 38.48800
H  -7.02600 42.95500 40.04500
H  -7.43300 44.44300 40.97800
H  -8.26300 44.06500 39.48400
H  -12.42700 44.67200 42.96300
H  -12.95000 44.83600 41.13800
H  -12.12400 46.09700 42.00400
H  -14.96900 41.15800 42.38100
H  -15.41500 38.69200 43.92300
H  -15.53500 42.18400 44.43100
H  -13.89300 41.87500 44.78100
H  -15.07200 40.78400 45.42200
H  -15.82200 38.19000 41.25100
H  -16.39400 39.76100 41.47700
H  -17.94500 37.50000 42.08200
H  -18.23900 39.26100 42.42300
H  -17.56100 38.32100 43.61100
H  -13.68800 33.29400 42.06200
H  -13.85900 34.20600 43.53600
H  -12.63600 33.07900 43.51800
H  -8.17600 34.26100 40.28100
H  -6.27600 32.28400 43.62700
H  -4.92400 32.67500 42.56600
H  -5.82800 31.14400 42.33200

