158

Mg 1.82200 -1.78400 43.55300
C  5.34000 -1.07100 43.01000
C  1.05100 0.97000 42.05800
C  -1.39100 -2.92000 43.51700
C  2.93600 -4.86900 44.93100
N  3.12900 -0.32200 42.51600
C  4.52400 -0.08200 42.49100
C  4.84900 1.26600 41.90400
C  3.43800 1.95200 41.60500
C  2.44700 0.83400 42.19100
C  3.28100 3.36600 42.21000
C  5.65900 1.26300 40.60400
C  5.49800 0.05300 39.70600
H  5.41400 0.31800 38.12800
N  0.03900 -1.03800 42.91400
C  -0.10700 0.15300 42.38700
C  -1.50500 0.43900 42.10000
C  -2.21100 -0.70900 42.56500
C  -1.19800 -1.63000 43.02800
C  -1.95300 1.83400 41.61600
C  -3.66500 -0.82600 42.70200
O  -4.35600 0.00500 42.15500
C  -4.33500 -1.83600 43.59200
N  0.91400 -3.67700 43.96200
C  -0.47300 -3.88700 43.96700
C  -0.82400 -5.24100 44.36200
C  0.53100 -5.72600 45.06700
C  1.56900 -4.65300 44.74300
C  -1.94700 -5.45700 45.37900
C  0.94400 -7.12400 44.57100
C  1.79400 -8.09500 45.48500
N  3.74700 -2.85600 43.96600
C  4.02300 -4.02900 44.57000
C  5.41000 -4.34800 44.68000
C  5.96500 -3.16500 44.06400
C  4.89500 -2.27900 43.68100
C  6.14000 -5.54700 45.22900
C  7.25400 -2.49100 43.70600
O  8.39200 -2.93500 43.80200
C  6.86900 -1.10900 43.02900
C  7.42900 0.12500 43.74400
O  6.81700 0.66600 44.66600
O  8.54500 0.65500 43.20400
C  9.01100 1.93600 43.59100
H  0.80300 2.00500 41.81400
H  -2.39900 -3.31100 43.36000
H  3.35000 -5.77000 45.38900
H  5.39800 1.71300 42.73300
H  3.23800 1.98200 40.53400
H  3.61900 4.14200 41.52400
H  3.84600 3.36300 43.14200
H  2.22100 3.41900 42.46000
H  6.68700 1.46400 40.90700
H  5.32200 2.10300 39.99600
H  4.79300 -0.71300 40.02900
H  6.39500 -0.56600 39.73400
H  -3.03400 1.94400 41.53000
H  -1.37100 2.09300 40.73200
H  -1.66300 2.59500 42.34100
H  -4.49100 -2.67300 42.91000
H  -5.28700 -1.44900 43.95500
H  -3.72400 -2.08900 44.45800
H  -1.06900 -5.83400 43.48000
H  0.48600 -5.82400 46.15200
H  -2.29400 -4.53600 45.84700
H  -1.74000 -6.21100 46.13800
H  -2.76300 -5.84500 44.76900
H  1.56900 -7.09600 43.67900
H  0.08600 -7.78300 44.43900
H  1.98200 -7.70200 46.48400
H  2.76400 -8.27500 45.02100
H  1.40100 -9.10600 45.59100
H  6.94900 -5.84300 44.56100
H  5.45600 -6.39200 45.30900
H  6.54800 -5.33000 46.21600
H  7.28000 -1.03800 42.02200
H  8.21500 2.66400 43.74900
H  9.72000 2.31600 42.85600
H  9.47400 2.00100 44.57500
Mg 30.57600 59.58500 38.24500
C  27.66100 57.79800 37.54700
C  32.39400 56.83200 37.26600
C  33.29400 61.50100 38.21300
C  28.56900 62.45500 38.49100
N  30.06100 57.59700 37.43100
C  28.82200 57.04700 37.22800
C  28.94500 55.66600 36.55800
C  30.42800 55.29200 36.77100
C  31.04100 56.62500 37.17000
C  30.56700 54.22100 37.93700
C  28.45500 55.78400 35.08500
C  27.15800 54.91300 34.77500
H  26.13500 55.51000 33.66700
N  32.56400 59.20300 37.87700
C  33.17100 58.00900 37.50200
C  34.62200 58.17300 37.49000
C  34.90000 59.51300 37.88000
C  33.57200 60.11000 37.98400
C  35.64300 57.03400 37.11500
C  36.27500 60.11300 38.13600
O  37.29400 59.46600 37.92400
C  36.52400 61.42100 38.56700
N  30.84200 61.65700 38.35100
C  32.04600 62.15500 38.33000
C  32.05700 63.70300 38.64400
C  30.52300 64.04900 38.68600
C  29.90700 62.62500 38.35300
C  32.72700 64.09400 40.01300
C  30.12000 65.20400 37.57100
C  31.17000 66.37500 37.38900
N  28.54100 60.03600 38.27500
C  27.88300 61.22300 38.44500
C  26.45400 61.00000 38.33600
C  26.38200 59.67800 37.99200
C  27.63600 59.10200 38.01500
C  25.28000 61.97500 38.52800
C  25.42600 58.67000 37.63400
O  24.23500 58.77800 37.51900
C  26.18100 57.37000 37.40200
C  25.82500 56.40300 38.51500
O  26.52400 56.09300 39.46700
O  24.50500 56.02100 38.34100
C  24.06100 55.01000 39.37600
H  32.97900 55.93900 37.03700
H  34.10200 62.22500 38.34400
H  28.00000 63.38300 38.57100
H  28.34200 54.97900 37.15100
H  30.92600 54.95900 35.86100
H  31.39000 54.29900 38.64800
H  30.78500 53.29500 37.40400
H  29.57900 54.09000 38.37900
H  29.27700 55.51800 34.42000
H  28.29400 56.85400 34.94800
H  26.56700 54.52100 35.60200
H  27.52200 54.04900 34.21900
H  35.17200 56.37000 36.39000
H  35.86800 56.39000 37.96500
H  36.56700 57.39500 36.66300
H  37.56000 61.51800 38.89000
H  36.03100 61.75800 39.47900
H  36.30900 62.14000 37.77700
H  32.54800 64.17400 37.79300
H  30.07600 64.40300 39.61400
H  33.31800 63.25700 40.38400
H  32.00500 64.33200 40.79500
H  33.36900 64.95200 39.81300
H  29.13000 65.52000 37.90100
H  30.01800 64.58600 36.67900
H  30.51600 67.23300 37.23500
H  31.67200 66.25500 36.42900
H  31.79400 66.43500 38.28200
H  24.94800 62.32600 37.55100
H  25.52300 62.72700 39.27900
H  24.40000 61.49100 38.95000
H  25.86900 56.99800 36.42600
H  24.00400 55.35900 40.40700
H  24.65000 54.09700 39.28700
H  23.13700 54.62300 38.94800

