158

Mg 35.01500 48.47500 25.09800
C  35.16600 46.70700 28.10500
C  33.55000 51.05700 26.82100
C  34.66400 50.07700 22.19600
C  36.27700 45.54700 23.45400
N  34.52800 48.88900 27.20500
C  34.70500 48.00700 28.25600
C  34.37000 48.65400 29.58700
C  33.62300 49.93200 29.15100
C  33.91400 49.98700 27.62500
C  32.12700 49.94900 29.50900
C  35.71900 48.97500 30.32500
C  35.73200 48.49500 31.80700
H  34.49100 48.54600 32.68100
N  34.23900 50.26600 24.58400
C  33.69400 51.23500 25.41900
C  33.38900 52.38800 24.72900
C  33.94000 52.21300 23.44500
C  34.39100 50.79800 23.33600
C  32.70100 53.57600 25.40300
C  34.06700 53.21800 22.27600
O  34.68400 52.98500 21.24500
C  33.38000 54.57600 22.46400
N  35.44100 47.90600 23.16900
C  35.07200 48.72000 22.11500
C  35.40300 48.00900 20.78000
C  36.26100 46.78400 21.15500
C  35.81100 46.62800 22.68000
C  34.09900 47.45800 20.02300
C  37.81600 46.99400 20.92900
C  38.55100 45.87500 20.14500
N  35.58000 46.54000 25.63000
C  36.04100 45.46900 24.91600
C  36.18200 44.30700 25.75900
C  35.91200 44.76800 27.03100
C  35.43900 46.10300 26.87200
C  36.73800 42.97200 25.31600
C  35.81100 44.38900 28.41900
O  35.97300 43.30700 28.95800
C  35.35300 45.60900 29.26100
C  34.10900 45.22900 29.92600
O  32.96200 45.36300 29.53800
O  34.45600 44.74100 31.14200
C  33.30900 44.42600 32.01700
H  33.07400 51.76400 27.50400
H  34.60100 50.57700 21.22700
H  36.63900 44.74000 22.81400
H  33.79600 47.93800 30.17500
H  34.11300 50.76900 29.64800
H  31.79800 48.91800 29.64000
H  31.59200 50.40700 28.67700
H  32.05200 50.58800 30.38900
H  35.74400 50.06500 30.33100
H  36.56800 48.58900 29.76200
H  36.24000 49.25300 32.40400
H  36.31400 47.58400 31.94900
H  31.80400 53.76600 24.81300
H  33.28200 54.48300 25.57100
H  32.33300 53.31500 26.39500
H  32.30500 54.44100 22.57900
H  33.47600 55.16200 21.55000
H  33.88800 55.13900 23.24700
H  35.94100 48.67400 20.10400
H  35.90700 45.86700 20.68400
H  34.11200 47.76200 18.97600
H  33.26000 47.84300 20.60300
H  33.88800 46.38900 19.99400
H  38.35800 47.22400 21.84600
H  37.89500 47.92600 20.36800
H  37.86400 45.10400 19.79500
H  39.14500 45.30100 20.85600
H  39.23600 46.23600 19.37700
H  37.65500 43.11700 24.74500
H  36.00000 42.61300 24.59900
H  36.84100 42.30100 26.16900
H  36.12200 46.07700 29.87500
H  33.58400 44.17400 33.04100
H  32.60500 43.74200 31.54400
H  32.69900 45.32300 32.12700
Mg -2.03000 35.48200 26.73600
C  -3.72400 33.72600 29.31700
C  -0.84900 37.66100 29.16900
C  -0.48000 37.03100 24.38200
C  -3.62400 33.22500 24.48100
N  -2.24200 35.66700 28.97100
C  -2.90500 34.79500 29.81100
C  -2.82800 35.19800 31.27200
C  -2.03100 36.53700 31.11100
C  -1.71300 36.67600 29.69300
C  -2.69000 37.75500 31.74000
C  -1.99600 34.18000 32.12700
C  -1.85500 34.54000 33.53800
H  -2.66500 33.64000 34.44900
N  -0.84700 37.17800 26.76400
C  -0.46500 37.96600 27.86300
C  0.40300 39.04100 27.37600
C  0.54100 38.86800 25.97000
C  -0.37400 37.64900 25.61000
C  1.07700 40.03000 28.26700
C  1.33500 39.57400 24.84900
O  1.47100 39.11300 23.74100
C  2.20800 40.78600 25.30800
N  -2.06700 35.19900 24.78300
C  -1.16100 35.85800 24.07600
C  -0.97000 35.15800 22.64200
C  -2.00300 33.95200 22.63200
C  -2.58700 34.09400 24.02500
C  -1.09400 36.21300 21.50500
C  -1.31500 32.54100 22.36100
C  -2.14000 31.59300 21.40200
N  -3.48800 33.90400 26.82300
C  -4.03200 33.11600 25.83800
C  -4.98900 32.20200 26.41600
C  -4.85100 32.42300 27.80700
C  -3.97000 33.41200 28.00300
C  -5.77900 31.17500 25.67900
C  -5.23000 31.91400 29.13600
O  -5.78900 30.87000 29.43800
C  -4.63300 32.87500 30.15500
C  -5.71200 33.67100 30.75400
O  -6.55700 34.17500 30.04900
O  -5.77300 33.54600 32.13000
C  -6.91600 34.20400 32.81200
H  -0.58000 38.38800 29.93700
H  0.05600 37.51600 23.56300
H  -3.94300 32.46200 23.76800
H  -3.82000 35.36000 31.69500
H  -1.05300 36.37900 31.56700
H  -3.72500 37.52200 31.98900
H  -2.64600 38.64700 31.11600
H  -2.31500 38.06800 32.71400
H  -0.98200 34.32200 31.75300
H  -2.47300 33.20100 32.10900
H  -2.08000 35.57800 33.78200
H  -0.80500 34.48300 33.82400
H  0.55200 40.98000 28.16800
H  2.09400 40.17500 27.90200
H  1.15200 39.82500 29.33400
H  2.42500 41.41100 24.44200
H  3.07200 40.40100 25.84900
H  1.63300 41.38600 26.01300
H  0.08300 34.88100 22.70300
H  -2.63600 34.21100 21.78400
H  -1.63500 37.09400 21.85200
H  -1.69400 35.84400 20.67400
H  -0.12200 36.51900 21.11700
H  -1.03500 32.08800 23.31200
H  -0.36000 32.73500 21.87300
H  -1.54700 31.10000 20.63100
H  -2.98100 32.12400 20.95600
H  -2.53100 30.79900 22.03700
H  -5.67300 31.32900 24.60500
H  -6.73900 31.19700 26.19400
H  -5.40400 30.18400 25.93800
H  -4.17500 32.23700 30.91100
H  -7.77800 34.15400 32.14700
H  -6.61100 35.22800 33.02800
H  -7.11000 33.63500 33.72200

