158

Mg 2.39500 -1.09200 45.00600
C  5.65000 -0.25300 43.86800
C  1.18100 1.73700 43.58400
C  -0.73800 -2.43800 45.16600
C  3.65400 -4.26000 45.95200
N  3.35400 0.45800 43.67600
C  4.70300 0.71400 43.50800
C  4.86700 2.12500 42.76000
C  3.49300 2.81900 43.01900
C  2.57800 1.65300 43.46400
C  3.45100 4.02500 43.95900
C  5.25100 1.77000 41.23100
C  6.64000 2.35300 40.88700
H  6.72600 3.34900 39.73200
N  0.47100 -0.44100 44.50000
C  0.19500 0.69800 43.97600
C  -1.21300 0.84600 43.74000
C  -1.90100 -0.33700 44.11900
C  -0.67800 -1.18300 44.57300
C  -1.87800 2.02300 43.12700
C  -3.37100 -0.63700 44.04600
O  -4.07400 0.19500 43.56700
C  -3.90200 -1.89100 44.60400
N  1.52700 -3.15600 45.61200
C  0.19100 -3.38500 45.69100
C  -0.03500 -4.91400 45.81500
C  1.42200 -5.48800 46.20600
C  2.28500 -4.27000 45.88700
C  -1.08500 -5.24800 46.89600
C  1.76400 -6.78200 45.39300
C  2.62700 -7.77400 46.21100
N  4.23700 -2.03800 44.96800
C  4.55900 -3.27300 45.45800
C  5.98500 -3.43600 45.39700
C  6.49200 -2.23000 44.77700
C  5.35100 -1.45200 44.52500
C  6.74500 -4.62100 45.80700
C  7.73900 -1.48900 44.35300
O  8.88800 -1.81400 44.36800
C  7.16000 -0.21600 43.72200
C  7.77400 0.94700 44.39700
O  8.72500 1.53300 43.95400
O  7.02900 1.31900 45.55800
C  7.52900 2.51100 46.29900
H  0.80900 2.70100 43.23100
H  -1.69500 -2.88300 45.44500
H  4.08400 -5.10400 46.49400
H  5.65200 2.55600 43.38100
H  3.15300 3.13000 42.03100
H  4.22800 3.91300 44.71400
H  2.44000 3.97400 44.36400
H  3.48400 4.99700 43.46600
H  4.48600 2.21000 40.59000
H  5.20900 0.69900 41.03200
H  7.30600 1.52800 40.63500
H  7.07700 2.88600 41.73100
H  -2.72400 2.29700 43.75700
H  -2.18800 1.63100 42.15800
H  -1.16400 2.84400 43.05600
H  -4.98900 -1.87400 44.52600
H  -3.50400 -1.89900 45.61900
H  -3.53500 -2.82200 44.17200
H  -0.34900 -5.17300 44.80400
H  1.39900 -5.69700 47.27500
H  -1.94900 -5.66000 46.37500
H  -1.43300 -4.33300 47.37600
H  -0.83700 -5.93900 47.70100
H  2.31000 -6.60700 44.46600
H  0.82800 -7.29400 45.17200
H  1.97900 -8.53700 46.64200
H  3.09200 -7.30500 47.07800
H  3.40000 -8.30200 45.65300
H  6.50100 -4.95200 46.81600
H  7.82700 -4.48900 45.79800
H  6.51000 -5.36200 45.04300
H  7.38600 -0.19900 42.65600
H  6.54600 2.96900 46.18700
H  8.29900 3.13500 45.84400
H  7.73000 2.35100 47.35900
Mg 45.67000 3.85100 47.33900
C  43.67100 6.56500 46.89400
C  42.70500 1.78800 47.35500
C  47.55900 0.98800 46.98600
C  48.48100 5.72600 46.88400
N  43.48800 4.13100 47.01900
C  42.90600 5.36600 46.86400
C  41.44300 5.23700 46.63500
C  41.11300 3.80300 47.21400
C  42.49000 3.19400 47.26200
C  40.42400 3.72100 48.55800
C  40.96600 5.52800 45.13100
C  40.00100 6.64000 44.84700
H  40.26200 7.45500 43.54300
N  45.19700 1.69800 47.10900
C  43.91500 1.08400 47.19300
C  44.13100 -0.31900 46.96800
C  45.50100 -0.57400 46.79900
C  46.16800 0.75800 46.93600
C  42.96200 -1.29200 46.89800
C  46.06800 -1.84600 46.52900
O  45.33800 -2.81700 46.53000
C  47.53100 -2.04100 46.16800
N  47.62900 3.37000 47.12100
C  48.19700 2.22700 47.04500
C  49.75900 2.35300 47.04800
C  49.99700 3.79800 46.81800
C  48.59000 4.36300 46.93900
C  50.52200 1.76800 48.26500
C  50.65700 3.99300 45.40400
C  49.71400 3.84200 44.14800
N  46.08800 5.78600 47.06400
C  47.26700 6.45900 46.91600
C  47.02100 7.87200 47.07600
C  45.62800 7.96100 47.07600
C  45.06700 6.69700 47.04000
C  48.01800 9.00000 47.10500
C  44.54500 8.90800 47.02800
O  44.57900 10.10300 47.04900
C  43.18700 8.05400 46.86300
C  42.23900 8.32600 47.90300
O  42.04700 7.62100 48.90800
O  41.48500 9.37800 47.45800
C  40.29500 9.68400 48.31200
H  41.83500 1.12800 47.33900
H  48.30700 0.19200 46.96300
H  49.41700 6.28000 46.78500
H  41.00400 5.99600 47.28200
H  40.55500 3.23200 46.47200
H  39.95200 4.65400 48.86800
H  41.02900 3.20100 49.30100
H  39.53600 3.09400 48.49000
H  40.52800 4.64000 44.67700
H  41.81300 5.65500 44.45700
H  40.05200 7.33500 45.68600
H  38.98100 6.25800 44.88300
H  43.10200 -1.86200 45.97900
H  41.96700 -0.84600 46.90600
H  42.94500 -1.89900 47.80300
H  48.21900 -1.88600 47.00000
H  47.79000 -1.23300 45.48400
H  47.73100 -3.03200 45.76000
H  50.15900 1.78200 46.21000
H  50.61800 4.20300 47.61700
H  51.22800 2.43200 48.76500
H  51.02700 0.86700 47.91700
H  49.75600 1.41300 48.95400
H  51.41300 3.26600 45.10600
H  51.10100 4.98900 45.40800
H  49.77100 4.66900 43.44000
H  48.69300 3.57700 44.42000
H  50.06000 2.94700 43.63000
H  48.82800 8.66700 46.45700
H  48.40900 9.14700 48.11200
H  47.50600 9.88000 46.71500
H  42.62500 8.14400 45.93400
H  40.20200 10.77000 48.30800
H  40.21600 9.37500 49.35500
H  39.44300 9.42500 47.68400

