158

Mg 25.61700 0.79300 29.60200
C  27.64200 0.71500 32.49800
C  22.98100 1.44900 31.75900
C  23.72500 1.10800 26.92600
C  28.32500 -0.13500 27.75800
N  25.37500 0.91300 31.96500
C  26.34500 0.98900 32.92400
C  25.75700 1.43100 34.30600
C  24.19600 1.24000 34.07200
C  24.18900 1.25800 32.47300
C  23.60500 -0.02900 34.52800
C  26.23600 2.76800 34.80400
C  26.96300 2.82400 36.15400
H  26.50700 3.79400 37.15100
N  23.59300 1.20700 29.36500
C  22.69400 1.44500 30.33200
C  21.42500 1.67100 29.73000
C  21.54400 1.42500 28.37000
C  22.97500 1.28000 28.13800
C  20.17300 1.87100 30.62600
C  20.47500 1.36800 27.18400
O  20.86500 1.46400 26.02800
C  18.99400 1.21200 27.49800
N  25.89600 0.32500 27.64800
C  25.00200 0.74800 26.67100
C  25.65000 0.71500 25.28300
C  27.16100 0.24300 25.55100
C  27.16200 0.23000 27.08200
C  24.89800 -0.08900 24.13000
C  28.18600 1.27800 25.03800
C  28.30100 1.51300 23.56600
N  27.56600 0.22200 29.95100
C  28.54300 -0.18400 29.13200
C  29.76300 -0.47700 29.87700
C  29.50700 -0.01100 31.12800
C  28.11000 0.32400 31.16800
C  31.06500 -0.84100 29.26400
C  30.08600 0.32200 32.44000
O  31.21800 0.09500 32.85900
C  28.93700 0.80000 33.31900
C  28.80000 -0.05900 34.45500
O  28.41900 -1.19200 34.37800
O  29.37400 0.43900 35.53600
C  29.56000 -0.38700 36.74400
H  22.07200 1.67500 32.32000
H  23.19900 1.18400 25.97300
H  29.11600 -0.49700 27.09800
H  26.08300 0.63600 34.97800
H  23.54900 2.07900 34.32700
H  23.18800 0.22200 35.50300
H  24.40000 -0.77400 34.48900
H  22.89600 -0.55500 33.88800
H  25.45200 3.52500 34.80000
H  26.96700 3.05800 34.04800
H  28.03200 2.91000 35.96100
H  26.72400 1.83000 36.53400
H  19.91900 0.93600 31.12600
H  19.37300 2.13000 29.93200
H  20.39400 2.66700 31.33800
H  18.66300 0.75500 26.56500
H  18.48400 2.16200 27.66100
H  18.90600 0.50300 28.32100
H  25.73400 1.77400 25.03800
H  27.47500 -0.78000 25.34600
H  24.44700 0.59800 23.41400
H  24.04400 -0.59300 24.58400
H  25.44100 -0.87600 23.60700
H  29.20500 1.03500 25.34200
H  27.88500 2.21500 25.50600
H  27.61500 0.86900 23.01600
H  29.27600 1.26900 23.14500
H  28.17800 2.56800 23.32500
H  31.56900 0.10200 29.05400
H  30.85100 -1.34800 28.32300
H  31.64700 -1.58200 29.81200
H  29.21500 1.79200 33.67600
H  29.81800 -1.44000 36.62900
H  28.73400 -0.30300 37.45000
H  30.43700 0.03400 37.23700
Mg 49.71100 44.50900 42.96600
C  46.18100 44.93600 42.14600
C  49.24900 41.13600 42.17900
C  52.97000 44.37100 42.50800
C  49.87900 47.88400 43.61500
N  47.93100 43.23800 42.05200
C  46.61000 43.60500 41.94600
C  45.77600 42.46700 41.27500
C  46.71800 41.20000 41.82300
C  48.05400 41.86400 42.07000
C  46.09300 40.59400 43.05500
C  45.74800 42.63600 39.72200
C  44.33800 42.49000 39.07300
H  44.01600 43.64000 38.12300
N  50.95800 42.95300 42.58400
C  50.56500 41.65900 42.18000
C  51.80700 40.92800 41.83200
C  52.93100 41.80600 41.99500
C  52.32300 43.08700 42.46500
C  51.76300 39.56000 41.25500
C  54.41100 41.43900 41.70300
O  54.72400 40.33500 41.23800
C  55.60900 42.47600 41.87200
N  51.25400 45.95600 43.35500
C  52.52900 45.64200 42.90700
C  53.40100 46.87800 42.95900
C  52.45000 48.00000 43.37700
C  51.11800 47.26500 43.38600
C  54.65000 46.55900 43.86700
C  52.39700 49.35000 42.56500
C  52.21800 50.62400 43.39700
N  48.32400 46.04000 43.01500
C  48.57900 47.39100 43.37800
C  47.29100 48.12300 43.34700
C  46.34900 47.21700 42.78300
C  47.03700 45.93000 42.63400
C  47.04600 49.58900 43.68100
C  44.96300 47.05000 42.40200
O  44.02600 47.83600 42.32400
C  44.80900 45.60400 41.83600
C  43.62200 44.96800 42.32800
O  42.66900 44.62800 41.60000
O  43.66500 44.86700 43.69500
C  42.46100 44.35100 44.36700
H  49.16800 40.04700 42.15900
H  54.02100 44.40300 42.21400
H  49.72200 48.94500 43.82200
H  44.79500 42.57300 41.73700
H  46.68400 40.39000 41.09400
H  45.55400 39.65800 42.91100
H  45.27900 41.23700 43.39200
H  46.83500 40.50700 43.84800
H  46.36600 41.86700 39.25800
H  46.23700 43.59700 39.56700
H  43.57800 42.59700 39.84700
H  44.25500 41.52500 38.57400
H  52.14800 39.69400 40.24400
H  50.73300 39.20400 41.27800
H  52.37800 38.88300 41.84900
H  55.53100 43.30000 41.16300
H  56.58200 42.01400 41.70500
H  55.58500 42.87100 42.88700
H  53.75800 47.05800 41.94500
H  52.70300 48.35000 44.37800
H  54.55300 45.57400 44.32200
H  54.78500 47.22700 44.71700
H  55.52400 46.43900 43.22700
H  51.52100 49.28900 41.91800
H  53.26400 49.34500 41.90500
H  51.30000 51.14200 43.11700
H  53.00000 51.37000 43.25400
H  52.15500 50.50000 44.47800
H  47.42100 49.76000 44.69000
H  46.01000 49.92500 43.69600
H  47.66900 50.24500 43.07300
H  44.76700 45.54800 40.74900
H  42.62100 43.72000 45.24100
H  41.74000 43.83600 43.73200
H  41.93200 45.20700 44.78600

