158

Mg 25.95900 0.12400 28.69900
C  27.71200 -0.36000 31.72300
C  23.04400 0.52700 30.59300
C  24.22500 0.43700 25.77800
C  28.81800 -0.69700 27.02500
N  25.47800 -0.01400 30.86800
C  26.42000 0.02700 31.91600
C  25.77300 0.34700 33.25700
C  24.18400 0.29900 32.87800
C  24.21700 0.25100 31.34200
C  23.30500 -0.85500 33.56000
C  26.34600 1.62100 34.00600
C  26.99200 1.38100 35.37700
H  26.67700 2.30600 36.55200
N  23.98100 0.45300 28.25400
C  22.89900 0.57000 29.19000
C  21.69400 0.86200 28.42200
C  21.98700 0.80000 27.01900
C  23.43800 0.59100 26.95900
C  20.38900 1.17600 29.11900
C  21.09500 1.04300 25.77200
O  21.43900 0.86900 24.58200
C  19.58500 1.40900 25.99300
N  26.45500 -0.15300 26.74000
C  25.53700 -0.07300 25.68400
C  26.22200 -0.55200 24.42900
C  27.78300 -0.60400 24.80200
C  27.69800 -0.41300 26.26600
C  25.76100 -1.87900 23.86000
C  28.69300 0.51000 24.13300
C  29.99300 -0.03200 23.52800
N  27.98000 -0.47600 29.22900
C  29.01900 -0.74200 28.43900
C  30.24100 -0.96800 29.25300
C  29.77300 -0.82400 30.54300
C  28.36800 -0.57200 30.47300
C  31.63400 -1.16900 28.77400
C  30.08700 -0.87200 31.97700
O  31.15200 -1.14100 32.57300
C  28.74700 -0.45800 32.71800
C  28.45800 -1.50200 33.82500
O  27.90400 -2.54400 33.69800
O  29.22200 -1.23300 34.95800
C  29.11300 -2.14500 36.09400
H  22.15900 0.78200 31.18000
H  23.72500 0.56100 24.81500
H  29.70200 -0.91400 26.42200
H  26.01700 -0.58900 33.75800
H  23.74800 1.22100 33.26400
H  22.77700 -1.47700 32.83800
H  22.52400 -0.21300 33.96900
H  23.86800 -1.42800 34.29700
H  25.49700 2.26100 34.24800
H  27.02100 2.13600 33.32200
H  28.06100 1.48500 35.19100
H  26.73200 0.36800 35.68400
H  20.29300 2.26100 29.14600
H  20.46600 0.86400 30.16100
H  19.58400 0.73400 28.53300
H  19.07000 0.64100 26.57100
H  19.15000 1.57900 25.00800
H  19.62100 2.36100 26.52200
H  26.16200 0.21300 23.65400
H  28.28400 -1.56900 24.71800
H  24.80000 -2.22800 24.23900
H  26.53900 -2.63000 23.99400
H  25.63800 -1.85200 22.77700
H  29.05300 1.28400 24.81000
H  28.17500 0.99400 23.30500
H  29.94600 -0.52000 22.55400
H  30.53700 -0.77700 24.10800
H  30.69100 0.80500 23.55500
H  31.87600 -2.15100 29.18000
H  32.42900 -0.48400 29.06900
H  31.73100 -1.25300 27.69200
H  28.92800 0.49600 33.21500
H  30.05000 -2.18400 36.65000
H  28.76900 -3.14300 35.82300
H  28.35300 -1.69600 36.73300
Mg 46.04300 25.05700 28.52400
C  46.90700 27.06500 31.17700
C  45.12300 22.58200 30.72600
C  46.02600 22.82000 25.93400
C  47.33900 27.50800 26.43200
N  46.31200 24.76300 30.73200
C  46.49000 25.83300 31.64300
C  45.85800 25.40500 33.02500
C  45.40000 23.93800 32.81400
C  45.59700 23.73600 31.33200
C  46.27500 22.97500 33.69300
C  44.69300 26.27700 33.53800
C  44.94100 26.83000 34.98700
H  43.73100 26.86200 35.96800
N  45.62500 22.96300 28.37000
C  45.23600 22.15800 29.37100
C  44.73300 20.89100 28.81200
C  45.04300 20.89900 27.36800
C  45.56300 22.27300 27.15600
C  44.13700 19.75200 29.68000
C  45.01300 19.70300 26.39000
O  45.44900 19.78200 25.20300
C  44.52400 18.35400 26.79800
N  46.54000 25.09800 26.50500
C  46.44300 24.10500 25.60300
C  46.71700 24.60700 24.17600
C  46.76300 26.16800 24.28700
C  46.89800 26.25900 25.86200
C  48.04400 23.87300 23.46300
C  45.58600 26.99300 23.65400
C  44.21600 26.73900 24.33900
N  46.86900 26.98600 28.68900
C  47.33200 27.85400 27.70800
C  47.80600 29.09500 28.34200
C  47.65600 28.79100 29.69900
C  47.16700 27.52700 29.85600
C  48.45200 30.34100 27.70400
C  47.92900 29.28400 31.00400
O  48.32200 30.33200 31.48900
C  47.41700 28.15400 32.00500
C  48.48400 27.76900 33.05100
O  49.36200 26.95100 32.84800
O  48.23700 28.44100 34.18900
C  49.01700 28.01800 35.38700
H  44.66300 21.93500 31.47600
H  46.14500 22.12800 25.09700
H  47.58700 28.33800 25.76600
H  46.59800 25.47000 33.82300
H  44.35800 23.71400 33.04000
H  45.70600 22.04900 33.76600
H  46.47600 23.35900 34.69400
H  47.24000 22.81000 33.21600
H  43.74000 25.74800 33.55100
H  44.66300 27.12900 32.85900
H  45.17500 27.89200 34.91300
H  45.75600 26.29100 35.47100
H  43.20800 19.36300 29.26400
H  43.74200 20.22600 30.57800
H  44.87100 19.06000 30.09300
H  43.44000 18.27000 26.87200
H  45.09500 18.13700 27.70100
H  44.84200 17.60600 26.07200
H  45.90100 24.30500 23.51900
H  47.75000 26.48600 23.95000
H  47.89600 23.69000 22.39900
H  48.31100 22.93900 23.95700
H  48.90100 24.54700 23.44700
H  45.49700 26.83200 22.58000
H  45.76400 28.06600 23.71300
H  43.63100 26.18200 23.60700
H  43.90700 27.77000 24.51300
H  44.26400 26.16200 25.26300
H  47.68700 30.84000 27.10900
H  49.27800 29.99600 27.08300
H  48.90200 31.06600 28.38200
H  46.61800 28.54100 32.63700
H  48.23600 27.81000 36.11900
H  49.49900 28.88300 35.84300
H  49.72200 27.20100 35.23300

