158

Mg 48.05600 25.57000 27.90700
C  49.03500 27.87900 30.30000
C  47.00300 23.53500 30.43400
C  47.34500 23.46500 25.53900
C  50.06500 27.47100 25.61200
N  48.05200 25.67800 30.13300
C  48.44600 26.80200 30.87500
C  47.96500 26.63300 32.36500
C  47.42700 25.15700 32.37200
C  47.47500 24.74700 30.90800
C  48.26800 24.16100 33.22600
C  46.91300 27.72100 32.82900
C  46.09500 27.41800 34.09300
H  45.88200 28.43200 35.26800
N  47.38800 23.74500 27.93300
C  46.91600 23.06800 29.09300
C  46.49000 21.73300 28.68100
C  46.44100 21.74800 27.27800
C  47.03000 23.02600 26.84700
C  46.11700 20.67700 29.67100
C  45.82700 20.72000 26.33000
O  45.96500 20.74400 25.14800
C  45.07900 19.57200 26.90800
N  48.56600 25.54500 25.83100
C  48.03600 24.62000 25.03600
C  48.37100 24.80000 23.57600
C  49.26500 26.13300 23.64500
C  49.34900 26.39300 25.13300
C  49.07200 23.58300 22.91700
C  48.64700 27.35100 22.90000
C  48.22100 27.07300 21.47300
N  49.27100 27.44300 27.85300
C  50.01700 28.03000 26.91600
C  50.64700 29.23500 27.44200
C  50.23700 29.20400 28.84300
C  49.44200 28.06400 28.98500
C  51.45700 30.17200 26.68500
C  50.36000 29.92700 30.02400
O  50.90600 30.99800 30.20100
C  49.49000 29.24300 30.99800
C  50.23500 29.08200 32.28700
O  51.23400 28.32600 32.46100
O  49.70300 29.82800 33.28200
C  50.28200 29.70800 34.59100
H  46.59700 22.75100 31.07600
H  47.10000 22.70700 24.79200
H  50.53300 28.17500 24.92000
H  48.78000 26.75900 33.07800
H  46.39900 25.20300 32.73000
H  49.07600 23.85000 32.56400
H  47.70300 23.24800 33.41300
H  48.65500 24.43600 34.20700
H  46.22100 27.80500 31.99100
H  47.45200 28.66200 32.94500
H  46.58100 26.57700 34.58700
H  45.17700 26.99500 33.68800
H  46.80200 20.82400 30.50600
H  46.24300 19.63900 29.36200
H  45.08200 20.71100 30.01100
H  44.34300 19.93200 27.62700
H  45.62400 18.82400 27.48300
H  44.61800 19.06100 26.06300
H  47.44300 24.95300 23.02500
H  50.23800 25.83900 23.25100
H  48.32200 22.84400 22.63500
H  49.76000 23.11900 23.62400
H  49.74000 23.89700 22.11500
H  49.48200 28.05200 22.91000
H  47.84700 27.78200 23.50100
H  49.07000 26.52900 21.05900
H  48.21400 28.06200 21.01500
H  47.23500 26.61100 21.43100
H  50.92100 31.05000 26.32500
H  52.00400 29.73600 25.84900
H  52.17900 30.41700 27.46400
H  48.64900 29.89000 31.25000
H  51.29400 29.31000 34.67000
H  49.62400 29.16500 35.26900
H  50.32300 30.72400 34.98300
Mg 16.70700 52.73600 26.80000
C  18.82500 50.87700 28.76500
C  14.58200 53.06300 29.48000
C  14.57700 54.22000 24.76800
C  18.49400 51.59100 23.93200
N  16.74600 52.13000 29.00400
C  17.78400 51.39300 29.57400
C  17.60300 51.30500 31.08200
C  16.08000 51.66400 31.18600
C  15.69000 52.28400 29.84500
C  15.10600 50.51200 31.59200
C  18.55300 52.29100 31.79900
C  18.96500 52.01100 33.24900
H  17.96000 51.43800 34.18900
N  14.96700 53.75000 27.11900
C  14.23500 53.73800 28.28600
C  12.96700 54.45500 28.09100
C  12.88400 54.70000 26.65100
C  14.17300 54.31300 26.14300
C  12.09800 54.66700 29.12400
C  11.70400 55.17900 25.80800
O  11.87400 55.48000 24.58900
C  10.27600 55.48500 26.38400
N  16.49900 52.79000 24.63500
C  15.56900 53.59900 24.12700
C  15.73200 53.78200 22.61700
C  17.03700 53.00600 22.30700
C  17.42400 52.47500 23.72300
C  14.47800 53.48500 21.79600
C  18.15400 53.86200 21.62600
C  18.58100 55.08000 22.45000
N  18.27600 51.47200 26.37600
C  18.97400 51.20300 25.19500
C  20.07700 50.26900 25.50700
C  20.11600 50.17700 26.93600
C  18.95600 50.90000 27.38100
C  20.95200 49.77500 24.43200
C  20.78300 49.62500 28.10600
O  21.90800 49.07800 28.12800
C  20.03200 50.15700 29.38500
C  19.65900 49.06000 30.27000
O  18.88500 48.17500 29.93100
O  20.18100 49.27000 31.51300
C  19.84700 48.34600 32.62500
H  13.79100 53.11100 30.23200
H  13.99800 54.77600 24.02800
H  19.06900 51.30800 23.04800
H  17.72900 50.26300 31.37600
H  15.88800 52.47100 31.89200
H  14.19700 50.66800 31.01200
H  14.90900 50.47700 32.66400
H  15.58100 49.55300 31.38700
H  18.01100 53.23700 31.80900
H  19.38000 52.35400 31.09100
H  19.40500 52.92300 33.65300
H  19.73100 51.25200 33.09300
H  12.71700 54.96600 29.97000
H  11.65700 53.70800 29.39600
H  11.33100 55.42700 28.97400
H  9.88300 54.51400 26.68200
H  9.65100 55.89600 25.59100
H  10.36200 56.12400 27.26300
H  15.97000 54.83300 22.45600
H  16.86300 52.08200 21.75500
H  14.61400 52.87300 20.90400
H  14.03100 54.43800 21.51500
H  13.86200 52.91700 22.49400
H  17.69800 54.21500 20.70200
H  19.11100 53.43400 21.32700
H  19.59800 55.03500 22.84000
H  18.05800 55.18800 23.40000
H  18.45500 55.99500 21.87100
H  21.73300 49.14200 24.85300
H  21.45700 50.64800 24.02000
H  20.36600 49.33400 23.62500
H  20.64000 50.77100 30.04800
H  19.41900 47.41200 32.26000
H  19.14000 48.88100 33.25800
H  20.73300 48.09500 33.20800

