158

Mg 49.42900 45.12300 42.13700
C  45.93900 44.84600 41.81500
C  49.73300 41.81700 41.79800
C  52.72400 45.56700 41.92500
C  48.96900 48.63100 41.78400
N  48.01900 43.56000 41.75900
C  46.63900 43.59500 41.75400
C  45.97200 42.26500 41.75500
C  47.16200 41.28800 41.96800
C  48.43600 42.26000 41.82300
C  47.20400 40.58100 43.39800
C  45.19000 42.07000 40.41700
C  45.67700 42.76000 39.13700
H  45.11100 42.23200 37.76300
N  51.07900 43.86000 41.98600
C  50.96100 42.52100 41.73200
C  52.24400 41.94000 41.55400
C  53.17200 42.99900 41.81300
C  52.39200 44.25200 41.92000
C  52.44200 40.55200 41.31200
C  54.67300 42.83800 41.96900
O  55.17600 41.76900 41.72800
C  55.62200 43.90800 42.36600
N  50.69600 46.83600 41.86000
C  51.99000 46.80300 41.94200
C  52.62500 48.16200 42.11500
C  51.46700 49.11200 42.10500
C  50.31200 48.16900 41.90800
C  53.49900 48.41200 43.38700
C  51.53200 50.30900 41.10100
C  51.01500 50.05600 39.65000
N  47.81600 46.53400 41.85400
C  47.79600 47.87700 41.79100
C  46.37700 48.35200 41.81400
C  45.64400 47.15800 41.80300
C  46.50100 46.11200 41.83900
C  45.86500 49.85000 41.72200
C  44.25300 46.66300 41.80800
O  43.17800 47.25300 41.71200
C  44.40600 45.13700 41.80900
C  43.65100 44.54100 43.03200
O  43.08500 43.43100 43.05500
O  43.85500 45.38200 44.16200
C  43.56600 44.66400 45.43600
H  49.80000 40.73000 41.87300
H  53.79400 45.74600 41.80000
H  48.70700 49.68900 41.85400
H  45.32100 42.24700 42.63000
H  47.18400 40.50800 41.20700
H  46.30100 40.76200 43.98100
H  48.13500 40.78900 43.92500
H  47.30600 39.51000 43.22000
H  44.13700 42.34800 40.47000
H  45.01000 40.99700 40.35600
H  46.76100 42.66400 39.08900
H  45.53200 43.83600 39.24000
H  52.25000 40.10800 42.28900
H  53.45700 40.21300 41.10400
H  51.84200 40.06000 40.54600
H  55.28700 44.34500 43.30700
H  55.53200 44.53900 41.48200
H  56.59700 43.42200 42.37300
H  53.15400 48.41400 41.19600
H  51.29500 49.48100 43.11600
H  52.82100 48.44200 44.23900
H  54.17100 49.26800 43.31100
H  54.15600 47.58100 43.64300
H  52.57800 50.60900 41.04900
H  51.03700 51.15700 41.57400
H  50.15800 50.70600 39.47800
H  50.72000 49.04200 39.37800
H  51.78800 50.36100 38.94600
H  46.16600 50.31000 42.66300
H  44.78000 49.76100 41.78100
H  46.13200 50.31100 40.77100
H  43.85200 44.58700 41.04900
H  44.06900 43.69700 45.42400
H  42.49400 44.62400 45.62800
H  43.98300 45.12800 46.33100
Mg 27.35100 50.81500 26.41800
C  25.48100 51.72100 29.29400
C  29.94700 49.82200 28.52100
C  29.03700 50.06900 23.73200
C  24.65300 52.08900 24.44400
N  27.67800 50.93800 28.66900
C  26.78000 51.27800 29.64100
C  27.33000 51.07900 31.09400
C  28.81900 50.63200 30.75600
C  28.80200 50.40500 29.19600
C  29.86600 51.75900 31.16500
C  26.51500 50.13600 32.04600
C  25.86200 50.84000 33.27100
H  26.53600 50.62100 34.53400
N  29.23200 50.11100 26.10500
C  30.13400 49.63500 27.12900
C  31.33000 49.21000 26.43300
C  31.13100 49.35500 25.03600
C  29.72100 49.89300 24.88700
C  32.46400 48.57700 27.20100
C  32.13600 48.95000 23.91300
O  31.89400 49.00700 22.68700
C  33.51700 48.47600 24.26900
N  26.95400 51.21300 24.37400
C  27.68900 50.53200 23.46100
C  27.11400 50.61500 21.98400
C  25.69700 51.13800 22.33600
C  25.80600 51.62900 23.76900
C  28.11600 51.46500 21.10600
C  24.61000 50.03600 22.29100
C  23.51400 50.16900 21.22400
N  25.55100 51.80300 26.74300
C  24.48600 52.20700 25.86000
C  23.45200 52.73800 26.62300
C  23.78600 52.50200 27.97500
C  25.04100 51.86100 27.98000
C  22.19000 53.42200 26.02600
C  23.24300 52.60500 29.31600
O  22.17600 53.12900 29.67700
C  24.33900 52.14500 30.20900
C  24.74600 53.26600 31.12600
O  25.52200 54.14900 30.84200
O  23.97600 53.14200 32.33200
C  24.25100 54.11600 33.33600
H  30.75700 49.49000 29.17300
H  29.57100 49.70800 22.85000
H  23.70900 52.22500 23.91200
H  27.19900 52.10700 31.43100
H  29.22300 49.78600 31.31100
H  30.16600 52.30100 30.26900
H  30.80700 51.38000 31.56300
H  29.40500 52.40600 31.91200
H  27.25300 49.46600 32.48700
H  25.73400 49.70000 31.42300
H  24.80000 50.59900 33.21400
H  25.97100 51.92000 33.16800
H  32.37900 47.50200 27.03800
H  32.38000 48.77200 28.27000
H  33.42500 48.93900 26.83600
H  34.00800 48.12200 23.36200
H  33.42500 47.61700 24.93400
H  33.94100 49.27300 24.88000
H  27.02700 49.61400 21.56200
H  25.46200 51.90900 21.60300
H  29.04700 51.69900 21.62200
H  27.69200 52.39000 20.71500
H  28.41500 50.84000 20.26400
H  24.08000 49.92600 23.23700
H  25.12700 49.09400 22.10900
H  23.65000 51.14800 20.76300
H  22.52000 50.31200 21.64800
H  23.56200 49.40700 20.44700
H  22.53700 54.35300 25.57700
H  21.39800 53.60300 26.75300
H  21.62100 52.83200 25.30900
H  24.03800 51.26400 30.77600
H  25.30700 54.38700 33.34200
H  23.99700 53.86900 34.36700
H  23.80400 55.09200 33.14800

