158

Mg 39.78400 9.60800 29.02300
C  41.53500 11.09600 31.84200
C  37.49600 8.54600 31.16500
C  38.49900 8.15800 26.47700
C  42.68200 10.51200 27.09900
N  39.74700 9.68400 31.29500
C  40.30400 10.50500 32.18600
C  39.64300 10.55200 33.58900
C  38.52500 9.46800 33.39500
C  38.57000 9.24700 31.88100
C  38.57200 8.21500 34.30600
C  39.21700 11.98500 33.98900
C  38.90200 12.14800 35.46000
H  39.72800 13.10000 36.36100
N  38.16400 8.57400 28.87400
C  37.31900 8.17000 29.83500
C  36.25800 7.48600 29.29300
C  36.52900 7.28200 27.90100
C  37.76200 8.04700 27.68000
C  35.08000 6.97900 30.08600
C  35.71400 6.58600 26.88100
O  36.10000 6.48100 25.75700
C  34.37800 6.02100 27.19000
N  40.47700 9.53000 27.01700
C  39.70300 8.85600 26.08700
C  40.39300 8.78100 24.72600
C  41.87800 9.29100 25.06600
C  41.65400 9.89900 26.42800
C  40.25100 7.50200 23.84100
C  42.47000 10.33400 24.06200
C  41.93200 11.80500 24.28200
N  41.71800 10.49300 29.35500
C  42.79700 10.83200 28.45800
C  43.79600 11.51100 29.16100
C  43.35000 11.61900 30.49700
C  42.10700 11.02300 30.54500
C  45.04800 12.11500 28.54400
C  43.73800 12.20600 31.70000
O  44.70600 12.87000 32.04600
C  42.55100 11.86400 32.72700
C  43.06500 11.12500 33.88800
O  43.55600 9.96900 33.95100
O  42.73000 11.86800 35.03800
C  43.04400 11.25700 36.35200
H  36.72600 8.28000 31.89200
H  38.05700 7.56100 25.67600
H  43.64600 10.53300 26.58600
H  40.41500 10.23000 34.28800
H  37.65800 10.10000 33.58800
H  39.52700 8.02100 34.79500
H  38.21900 7.39400 33.68200
H  37.85700 8.40700 35.10600
H  38.39600 12.14200 33.28900
H  40.02300 12.67100 33.72800
H  39.08200 11.15900 35.88100
H  37.85600 12.45100 35.52100
H  34.12300 7.42300 29.81000
H  35.13800 7.29100 31.12900
H  34.89400 5.90500 30.05900
H  33.64900 6.82100 27.32000
H  34.62000 5.42400 28.07000
H  33.98600 5.41000 26.37800
H  39.77100 9.47600 24.16100
H  42.67500 8.54800 25.03200
H  39.45100 7.77100 23.15100
H  40.02400 6.59600 24.40300
H  41.16200 7.29500 23.28100
H  42.18300 9.96900 23.07600
H  43.55400 10.42300 23.99400
H  42.73000 12.31200 24.82500
H  41.05400 11.84300 24.92700
H  41.68600 12.24300 23.31500
H  45.29500 11.75700 27.54500
H  45.82900 11.83100 29.25000
H  44.98500 13.20200 28.49400
H  41.99200 12.73800 33.06000
H  42.35100 11.68200 37.07900
H  44.02900 11.51500 36.74100
H  42.87800 10.18000 36.33500
Mg 49.85900 46.63300 42.63200
C  46.74700 47.56400 41.43700
C  49.55900 43.68000 40.67700
C  53.19900 45.92500 43.11100
C  50.27500 49.68600 43.97500
N  48.35700 45.84900 41.07900
C  47.11500 46.31100 40.93300
C  46.22900 45.43900 40.06700
C  47.06700 44.07100 40.18600
C  48.47800 44.57000 40.53700
C  46.45200 43.09400 41.07600
C  46.08700 46.01200 38.62700
C  44.85600 45.61600 37.81000
H  45.06800 44.33400 36.99000
N  51.11500 44.99700 42.11200
C  50.83000 43.87000 41.36600
C  51.92000 42.99500 41.37600
C  52.95700 43.54400 42.10500
C  52.44300 44.94100 42.46300
C  51.86200 41.65700 40.82000
C  54.30500 42.92500 42.42600
O  54.68400 41.86800 41.93600
C  55.21800 43.51700 43.41400
N  51.55600 47.68800 43.26500
C  52.79700 47.16900 43.48800
C  53.72400 48.25900 44.00900
C  52.74300 49.38600 44.41000
C  51.41400 48.88700 43.83300
C  54.68700 47.83100 45.18400
C  53.11800 50.80800 43.91900
C  52.97000 51.96400 44.94200
N  48.81200 48.33700 42.68200
C  49.02500 49.54400 43.37000
C  47.91200 50.40100 43.25100
C  46.98200 49.68300 42.46800
C  47.58900 48.43200 42.18200
C  47.75500 51.74100 43.95300
C  45.65500 49.67600 41.96600
O  44.70200 50.46400 42.16900
C  45.49400 48.36900 41.13500
C  44.15600 47.78100 41.41800
O  43.25100 47.69000 40.56500
O  44.16900 47.05600 42.54400
C  43.00500 46.24000 42.90500
H  49.34900 42.74900 40.14700
H  54.27600 45.76400 43.18300
H  50.41000 50.54600 44.63400
H  45.19000 45.36500 40.38900
H  47.32400 43.57700 39.24900
H  45.52400 43.48600 41.49400
H  47.08600 42.91000 41.94300
H  46.18600 42.14100 40.62000
H  46.90700 45.60200 38.03700
H  46.11600 47.09800 38.53500
H  44.66800 46.48300 37.17500
H  43.91400 45.41700 38.32100
H  52.43600 41.61800 39.89500
H  50.87800 41.22100 40.64500
H  52.30800 40.96600 41.53500
H  56.02000 42.90400 43.82500
H  54.53900 43.94100 44.15500
H  55.73000 44.35600 42.94300
H  54.41400 48.49200 43.19800
H  52.57900 49.33500 45.48600
H  54.46400 46.89400 45.69300
H  54.83200 48.59600 45.94700
H  55.69400 47.69600 44.79100
H  52.67100 50.98400 42.94100
H  54.17800 50.85700 43.66800
H  52.40000 52.79200 44.51900
H  53.94300 52.35300 45.24200
H  52.45100 51.65300 45.84800
H  48.65200 52.28800 43.66400
H  47.70700 51.53200 45.02200
H  46.90700 52.15900 43.41000
H  45.55400 48.66300 40.08700
H  43.45200 45.46400 43.52700
H  42.52900 45.70900 42.08100
H  42.36600 46.91500 43.47500

