158

Mg 26.32500 0.55200 28.36100
C  28.04900 0.40600 31.33100
C  23.47100 1.25600 30.09700
C  24.58700 0.23500 25.41500
C  29.28400 -0.36500 26.66800
N  25.81100 0.60500 30.53000
C  26.69400 0.66500 31.50200
C  26.05500 1.15300 32.81500
C  24.53500 1.23900 32.47400
C  24.59200 1.08600 30.92600
C  23.54800 0.32400 33.18900
C  26.64300 2.48000 33.40100
C  27.30500 2.32600 34.81100
H  26.75000 3.24100 36.00700
N  24.31100 0.74800 27.82800
C  23.33000 1.08100 28.74800
C  22.12000 1.21900 27.96900
C  22.36800 0.74600 26.58100
C  23.78800 0.54700 26.56100
C  20.80000 1.68800 28.54200
C  21.40700 0.61700 25.32300
O  21.79800 0.13500 24.22300
C  19.95400 1.07700 25.52300
N  26.87700 -0.15100 26.46100
C  25.95900 -0.06600 25.40700
C  26.62200 -0.35900 24.06700
C  28.14200 -0.37200 24.41400
C  28.12700 -0.23800 25.99100
C  26.19400 -1.78400 23.55100
C  29.01900 0.75400 23.77200
C  28.49200 2.16800 23.74200
N  28.26200 0.04200 28.87600
C  29.32700 -0.33500 28.11200
C  30.38100 -0.59200 29.01200
C  29.98100 -0.22300 30.27000
C  28.64200 0.08700 30.12200
C  31.69500 -1.31200 28.74500
C  30.42900 -0.11200 31.56800
O  31.51100 -0.32100 32.08800
C  29.18500 0.33100 32.36200
C  29.00900 -0.66300 33.38600
O  28.38900 -1.72100 33.23200
O  29.72900 -0.32600 34.51200
C  29.65200 -1.16400 35.60000
H  22.52900 1.40600 30.62900
H  24.03500 0.21900 24.47300
H  30.25700 -0.54200 26.20500
H  26.26700 0.27500 33.42500
H  24.17100 2.23400 32.73000
H  23.19500 -0.45800 32.51600
H  22.66800 0.92500 33.41900
H  23.98400 -0.00700 34.13200
H  25.93100 3.30400 33.40200
H  27.55700 2.81100 32.90800
H  28.35500 2.60500 34.71900
H  27.17800 1.33400 35.24400
H  20.78000 1.85900 29.61800
H  20.21400 0.76900 28.50900
H  20.33300 2.44500 27.91300
H  19.50900 0.61900 26.40600
H  19.36400 0.97500 24.61100
H  20.07000 2.10100 25.87900
H  26.35900 0.46100 23.39900
H  28.62600 -1.32400 24.19700
H  26.62500 -2.12500 22.60900
H  25.11400 -1.73600 23.41100
H  26.29900 -2.55800 24.31200
H  29.24300 0.46600 22.74500
H  30.03700 0.76700 24.16100
H  27.49100 2.18500 24.17100
H  28.46900 2.46900 22.69500
H  29.23200 2.72300 24.32000
H  32.44300 -0.52300 28.82700
H  31.55100 -1.68700 27.73200
H  31.97600 -2.15800 29.37200
H  29.49700 1.26600 32.82600
H  30.11500 -2.12800 35.38900
H  28.75100 -1.20900 36.21100
H  30.39100 -0.70600 36.25700
Mg 53.82900 24.51200 45.07500
C  51.14200 26.33200 43.94100
C  52.52000 21.64000 43.78000
C  56.71600 22.91600 45.57300
C  55.08000 27.31700 46.74100
N  52.14400 24.09400 43.82500
C  51.05400 24.95900 43.58300
C  50.06800 24.29500 42.68000
C  50.27700 22.81400 43.17200
C  51.74100 22.82600 43.65200
C  49.25300 22.42300 44.32700
C  50.43000 24.70000 41.29900
C  49.32000 24.98000 40.32300
H  49.76000 25.53100 38.96700
N  54.54200 22.55600 44.56700
C  53.86200 21.50100 44.08300
C  54.66000 20.36200 43.83900
C  55.94500 20.72400 44.39900
C  55.77000 22.15700 44.85400
C  54.15900 19.06700 43.26200
C  57.16800 19.81300 44.45700
O  57.01400 18.65100 44.04600
C  58.47600 20.18400 45.12900
N  55.75100 25.06800 45.96900
C  56.68900 24.19000 46.13100
C  57.91800 24.83700 46.63900
C  57.39400 26.26900 47.16100
C  55.98900 26.25600 46.62600
C  58.68200 24.13100 47.70400
C  58.19600 27.50600 46.62900
C  58.26900 28.75500 47.55300
N  53.33900 26.49700 45.25100
C  53.78900 27.49800 46.08200
C  52.80600 28.62600 46.11600
C  51.79500 28.22500 45.19300
C  52.18600 26.96400 44.71400
C  52.88400 29.85900 46.91200
C  50.57300 28.65600 44.67900
O  49.95100 29.77800 44.73600
C  50.03600 27.41600 43.83800
C  49.69100 27.86000 42.45200
O  50.49200 28.16600 41.58200
O  48.35000 27.78100 42.22600
C  47.73600 28.34400 41.07000
H  51.94400 20.78900 43.41100
H  57.65700 22.36800 45.48900
H  55.46000 28.14400 47.34500
H  49.07500 24.66300 42.94000
H  50.13500 22.24800 42.25200
H  48.70300 21.50200 44.13100
H  48.55100 23.21900 44.57200
H  49.75900 22.26400 45.27900
H  51.16200 23.98900 40.91500
H  50.96100 25.64900 41.37200
H  48.70300 25.71800 40.83500
H  48.78500 24.05200 40.12300
H  53.07500 19.08800 43.14300
H  54.27000 18.17300 43.87500
H  54.61100 18.81500 42.30300
H  58.48200 20.37000 46.20300
H  58.90500 21.02700 44.58800
H  59.17600 19.35900 44.99700
H  58.58500 24.93400 45.78300
H  57.44200 26.37200 48.24500
H  59.04900 23.17300 47.33700
H  57.99600 23.99000 48.53900
H  59.49500 24.82000 47.93300
H  57.73200 27.81800 45.69300
H  59.22300 27.15300 46.54200
H  57.79700 29.61500 47.07900
H  59.28400 29.14800 47.49000
H  57.93600 28.53200 48.56700
H  53.53600 29.74100 47.77700
H  51.89400 30.05200 47.32500
H  53.21300 30.73600 46.35400
H  49.15200 27.10000 44.39100
H  48.41700 28.34100 40.21900
H  47.36600 29.32100 41.38100
H  46.89600 27.70800 40.79100

