158

Mg 41.85200 41.01100 26.89200
C  41.40600 43.43400 29.36700
C  42.50900 38.75900 29.50500
C  42.70200 38.65900 24.61600
C  41.37800 43.36000 24.48800
N  41.93300 41.07600 29.20300
C  41.62800 42.18800 29.96400
C  41.69100 41.86100 31.49100
C  42.01900 40.35700 31.45700
C  42.22200 40.02700 29.97100
C  43.26300 39.90100 32.29900
C  40.37200 42.17900 32.19900
C  40.06600 41.42500 33.49800
H  39.41800 42.19900 34.57400
N  42.40800 38.95800 27.04700
C  42.61300 38.24000 28.14600
C  43.01300 36.92700 27.77800
C  43.25400 36.89400 26.35200
C  42.79800 38.21900 25.91900
C  43.38700 36.00900 28.86800
C  43.81100 35.78200 25.47000
O  43.98600 35.97400 24.24500
C  44.26000 34.50000 26.15800
N  41.86500 40.98700 24.85500
C  42.32800 39.92700 24.09900
C  42.05000 40.24600 22.68200
C  41.34300 41.60400 22.66500
C  41.51900 42.01200 24.12400
C  43.38900 40.21100 21.86800
C  39.85900 41.50400 22.25200
C  38.90500 40.28700 22.75200
N  41.38700 43.02400 26.89300
C  41.24400 43.89100 25.81600
C  41.09600 45.27500 26.23300
C  41.05900 45.11400 27.64500
C  41.30500 43.76100 27.99800
C  41.01800 46.51300 25.34000
C  40.93100 45.78700 28.88200
O  40.70400 46.95200 29.11800
C  41.02200 44.74600 30.02600
C  41.95700 45.28000 30.95600
O  43.17100 45.38400 30.76300
O  41.38800 45.57900 32.21400
C  42.46700 45.87900 33.24900
H  42.53200 38.12600 30.39500
H  43.03800 38.01400 23.80200
H  41.26600 44.12700 23.71900
H  42.53900 42.40500 31.90800
H  41.29400 39.65100 31.86300
H  44.14800 39.81800 31.66800
H  43.17600 38.95500 32.83200
H  43.34000 40.65100 33.08700
H  39.61700 42.03400 31.42700
H  40.41300 43.23500 32.46600
H  40.95000 40.97300 33.94800
H  39.41600 40.57300 33.30100
H  44.44000 36.21700 29.05400
H  43.28100 34.96200 28.58200
H  42.72200 36.14200 29.72200
H  45.20500 34.60300 26.69000
H  44.37500 33.73400 25.39100
H  43.57900 33.90400 26.76500
H  41.44300 39.45700 22.23900
H  41.76800 42.50300 22.22000
H  44.13600 39.57500 22.34300
H  43.85500 41.18600 21.73100
H  43.19500 39.78200 20.88400
H  39.62900 41.47800 21.18700
H  39.42000 42.44300 22.59100
H  38.34500 39.82400 21.94000
H  38.21400 40.75200 23.45600
H  39.32400 39.49900 23.37800
H  39.95200 46.66100 25.17000
H  41.49300 46.37200 24.36900
H  41.44400 47.35400 25.88600
H  40.04700 44.57400 30.48300
H  42.74700 46.93200 33.24800
H  43.30100 45.18400 33.14700
H  41.94200 45.65600 34.17800
Mg -1.85000 34.41600 26.76700
C  -3.46200 32.72200 29.40400
C  -0.33600 36.38100 28.96400
C  -0.63400 35.97600 24.16200
C  -3.68800 32.26900 24.49500
N  -1.94700 34.50300 28.97100
C  -2.62900 33.77400 29.85800
C  -2.27700 34.22900 31.29000
C  -1.41600 35.51400 31.07800
C  -1.20400 35.46200 29.54300
C  -2.09800 36.84400 31.61200
C  -1.44500 33.14000 32.05900
C  -1.36600 33.36500 33.55100
H  -1.91800 32.34900 34.54700
N  -0.81100 36.09700 26.59700
C  -0.15700 36.69400 27.58300
C  0.72000 37.70200 27.04500
C  0.66400 37.60700 25.68700
C  -0.33500 36.53600 25.38700
C  1.56200 38.56400 27.88800
C  1.34100 38.49500 24.59600
O  0.98900 38.58400 23.43100
C  2.39400 39.51400 24.90400
N  -2.22500 34.28400 24.66400
C  -1.52300 34.98600 23.76300
C  -1.74600 34.55700 22.25700
C  -2.68200 33.29400 22.45000
C  -2.82400 33.22300 24.01900
C  -2.51300 35.73500 21.36500
C  -2.04300 31.89300 21.95100
C  -0.57400 31.63900 22.54200
N  -3.31800 32.70300 26.87500
C  -3.93000 31.97500 25.87800
C  -4.76400 30.99200 26.53600
C  -4.68300 31.28900 27.93000
C  -3.69400 32.24800 28.10100
C  -5.57700 29.90200 25.84000
C  -5.03900 30.87500 29.19100
O  -5.72100 29.94700 29.65600
C  -4.29400 31.77100 30.23200
C  -5.29200 32.27800 31.24000
O  -6.18200 33.09000 30.93200
O  -5.15400 31.67600 32.43400
C  -6.13000 31.97800 33.52600
H  0.21600 36.89000 29.75600
H  -0.03100 36.44200 23.38000
H  -4.09700 31.51100 23.82300
H  -3.17400 34.45700 31.86600
H  -0.44400 35.41100 31.56200
H  -2.17900 37.55700 30.79200
H  -1.58700 37.36900 32.42000
H  -3.14200 36.75700 31.91300
H  -0.45500 33.19500 31.60700
H  -1.94400 32.19400 31.84500
H  -1.65900 34.38300 33.80900
H  -0.29200 33.36900 33.73600
H  1.49800 38.24900 28.93000
H  1.28000 39.60400 27.72600
H  2.52400 38.36500 27.41600
H  3.31400 39.03200 25.23700
H  1.91400 40.08400 25.70000
H  2.63800 40.12700 24.03700
H  -0.73900 34.42600 21.86200
H  -3.68600 33.41700 22.04300
H  -3.27700 36.12300 22.03800
H  -2.77800 35.16800 20.47200
H  -1.84700 36.55700 21.10400
H  -2.11900 31.98100 20.86700
H  -2.68200 31.02800 22.13100
H  -0.56200 31.96200 23.58300
H  0.11500 32.23600 21.94300
H  -0.22000 30.61800 22.69100
H  -5.95200 29.15200 26.53800
H  -5.03400 29.52000 24.97600
H  -6.47600 30.39000 25.46400
H  -3.74300 30.93900 30.67100
H  -6.94200 31.25200 33.58600
H  -6.61500 32.93600 33.34400
H  -5.57800 32.02600 34.46400

