158

Mg 0.80800 7.07800 25.63500
C  1.35000 9.02000 28.40100
C  0.82500 4.28000 27.55100
C  -0.43200 5.27900 23.05800
C  1.16100 9.81800 23.56600
N  1.06900 6.66800 27.71000
C  1.17000 7.66200 28.70000
C  1.16500 6.99900 30.07000
C  1.27500 5.45500 29.75100
C  1.02900 5.46700 28.21900
C  2.62400 4.78700 30.13600
C  -0.12000 7.39000 30.88300
C  0.20100 7.77900 32.38800
H  1.43200 7.31800 33.10200
N  0.37700 5.03200 25.28500
C  0.42500 4.08100 26.26100
C  0.09500 2.82500 25.62000
C  -0.41400 3.12700 24.33800
C  -0.22300 4.54900 24.15600
C  0.35700 1.52400 26.32000
C  -1.12400 2.20900 23.32100
O  -1.45300 2.43500 22.15400
C  -1.62200 0.84900 23.83300
N  0.62600 7.45200 23.59100
C  -0.00900 6.55700 22.75400
C  -0.18600 7.14200 21.39100
C  0.28000 8.62200 21.58200
C  0.82000 8.63900 22.99500
C  0.58800 6.41600 20.23600
C  -0.85400 9.70500 21.34300
C  -0.69400 10.55300 20.07500
N  1.36000 9.00900 25.86600
C  1.34300 10.07900 24.95300
C  1.52900 11.33100 25.67700
C  1.60700 10.90700 26.96800
C  1.43000 9.52900 27.05300
C  1.56700 12.72800 25.08800
C  1.83300 11.44700 28.36800
O  2.19200 12.60200 28.70900
C  1.55800 10.22800 29.29700
C  2.56400 10.07900 30.39600
O  3.63800 9.53000 30.35700
O  2.24700 11.01500 31.31000
C  3.32700 11.33800 32.22000
H  0.82200 3.40300 28.20000
H  -0.97000 4.79800 22.23900
H  1.20700 10.69300 22.91400
H  2.03600 7.30300 30.65000
H  0.46800 4.93200 30.26500
H  2.41400 3.77800 30.49000
H  3.16100 5.26000 30.95800
H  3.37600 4.70500 29.35100
H  -0.86000 6.59800 30.76600
H  -0.45100 8.27500 30.34000
H  -0.73000 7.48500 32.87200
H  0.19900 8.86800 32.42700
H  -0.57600 1.15700 26.74700
H  1.17500 1.56200 27.04000
H  0.74600 0.86000 25.54800
H  -0.81300 0.12600 23.73200
H  -2.32300 0.49000 23.08000
H  -2.15200 0.93500 24.78100
H  -1.27000 7.14100 21.27300
H  1.20100 8.89200 21.06500
H  1.40100 6.06100 20.86800
H  0.79300 7.10900 19.42000
H  0.06100 5.50200 19.96300
H  -0.96700 10.42300 22.15500
H  -1.84300 9.24500 21.35100
H  -1.69700 10.64300 19.65800
H  -0.09800 9.96800 19.37400
H  -0.25100 11.51000 20.34900
H  1.99000 12.72400 24.08400
H  2.13400 13.26100 25.85200
H  0.57900 13.15500 24.91600
H  0.63400 10.40700 29.84600
H  2.90400 11.99400 32.98100
H  4.29800 11.58900 31.79300
H  3.46300 10.35500 32.67200
Mg 9.50200 48.07400 25.94400
C  7.37500 48.10300 28.70600
C  12.00500 49.24300 27.98900
C  11.60500 48.05100 23.33600
C  6.77200 47.47600 23.85100
N  9.72100 48.58000 28.10900
C  8.67100 48.52200 29.07400
C  9.19400 48.87800 30.40900
C  10.44800 49.77300 30.11500
C  10.75900 49.20900 28.68000
C  10.37200 51.30300 30.33000
C  9.45600 47.66500 31.40200
C  9.68200 47.94700 32.91100
H  9.34300 46.87200 33.98600
N  11.55300 48.52300 25.71600
C  12.47400 48.90000 26.70100
C  13.82200 48.92500 26.08200
C  13.69600 48.51500 24.70200
C  12.26200 48.32200 24.57700
C  15.07100 49.25900 26.91900
C  14.78200 48.19600 23.68000
O  14.56900 48.00300 22.54200
C  16.20000 48.23400 24.13900
N  9.26200 47.89200 23.90100
C  10.27400 47.93000 23.01200
C  9.91200 47.36600 21.62500
C  8.39700 47.16200 21.81000
C  8.11800 47.47900 23.29100
C  10.38400 48.14500 20.32500
C  7.72100 45.88500 21.20300
C  6.79700 46.13800 19.96500
N  7.46100 47.85000 26.22800
C  6.45900 47.62300 25.24100
C  5.18900 47.45400 25.82100
C  5.50000 47.70200 27.23100
C  6.89100 47.88100 27.40900
C  3.90800 47.23200 25.16700
C  4.97600 47.71400 28.56100
O  3.88900 47.36000 28.89100
C  6.17100 48.14000 29.55300
C  6.12300 47.07700 30.57300
O  6.53700 45.96400 30.44200
O  5.49400 47.60000 31.66900
C  5.45900 46.72700 32.78700
H  12.74600 49.69900 28.64900
H  12.28400 47.88800 22.49700
H  5.91600 47.27000 23.20400
H  8.52400 49.42600 31.07000
H  11.25400 49.56200 30.81800
H  11.13900 51.63900 31.02900
H  9.45700 51.64300 30.81500
H  10.47600 51.72000 29.32800
H  10.50600 47.42700 31.23300
H  8.90700 46.75900 31.14400
H  9.03100 48.75600 33.24300
H  10.61800 48.49400 33.02100
H  14.92700 49.49400 27.97300
H  15.48400 50.16100 26.46800
H  15.78400 48.43500 26.94600
H  16.13800 47.51100 24.95200
H  16.48800 49.27100 24.31400
H  16.95100 47.87800 23.43400
H  10.32300 46.35700 21.57800
H  7.91400 48.04700 21.39500
H  9.64300 48.93000 20.17400
H  10.28100 47.45100 19.49100
H  11.44200 48.37000 20.45600
H  7.04600 45.37000 21.88600
H  8.51200 45.20500 20.88600
H  7.18600 45.48800 19.18200
H  6.83700 47.18500 19.66300
H  5.77400 45.84500 20.20000
H  3.41000 46.45800 25.75200
H  3.92900 46.99600 24.10300
H  3.41500 48.19500 25.29700
H  6.07700 49.14100 29.97500
H  6.06700 45.82300 32.75500
H  4.42100 46.47900 33.01100
H  5.90100 47.33700 33.57500

