158

Mg 8.78700 47.86600 26.99100
C  7.28800 47.54500 30.16000
C  11.76400 48.41500 28.52700
C  9.89900 48.85200 24.09000
C  5.46800 47.64300 25.65900
N  9.43700 47.97700 29.16300
C  8.68600 47.68900 30.22800
C  9.55000 47.80200 31.52300
C  10.95900 48.35200 30.98900
C  10.72300 48.26100 29.47500
C  11.42800 49.82300 31.44300
C  9.68800 46.53100 32.43400
C  9.48300 46.90300 33.91300
H  9.64100 45.84300 34.94800
N  10.56700 48.33900 26.35400
C  11.69400 48.58600 27.16200
C  12.79700 48.75100 26.24600
C  12.32400 48.79100 24.95200
C  10.89600 48.76000 25.04400
C  14.23700 48.69000 26.74700
C  13.09700 48.82600 23.55200
O  12.51400 48.90300 22.45900
C  14.58700 48.83000 23.59100
N  7.86000 48.03200 25.10200
C  8.54700 48.60500 24.07300
C  7.63100 48.92000 22.86500
C  6.23100 48.44600 23.35300
C  6.52400 47.96400 24.79900
C  7.74700 50.39000 22.34400
C  5.63800 47.37200 22.36800
C  5.12000 47.83700 21.03700
N  6.78800 47.62900 27.68600
C  5.61300 47.53900 27.04000
C  4.55300 47.49800 28.04300
C  5.20200 47.52900 29.24100
C  6.56900 47.64400 28.97700
C  3.07800 47.33700 27.76100
C  4.90900 47.56300 30.63000
O  3.85600 47.48000 31.19800
C  6.29900 47.43900 31.27600
C  6.33400 46.11100 31.95100
O  6.64400 45.01800 31.46400
O  5.96000 46.32800 33.17900
C  6.14300 45.23100 34.12700
H  12.73700 48.60000 28.98500
H  10.27000 49.19900 23.12400
H  4.45700 47.76600 25.26500
H  9.14400 48.60200 32.14100
H  11.75300 47.61800 31.12600
H  12.48700 49.79900 31.69900
H  10.89200 50.13800 32.33700
H  11.18300 50.60600 30.72500
H  10.67600 46.08300 32.32800
H  8.91600 45.83000 32.11400
H  8.49000 47.33500 34.03800
H  10.26500 47.63100 34.12700
H  14.59800 49.64300 26.36000
H  14.83600 47.82500 26.46400
H  14.25100 48.65800 27.83600
H  14.99300 49.58000 24.27000
H  15.03500 48.98000 22.60800
H  14.86600 47.83300 23.93100
H  7.94200 48.29100 22.03100
H  5.59400 49.32600 23.45100
H  8.32100 51.06000 22.98500
H  6.76200 50.73200 22.02600
H  8.17000 50.39400 21.33900
H  4.76900 46.96900 22.88800
H  6.28600 46.51300 22.19700
H  5.39300 48.88700 20.92700
H  4.03100 47.79200 21.01100
H  5.63800 47.30000 20.24200
H  2.64300 46.71900 28.54600
H  2.90400 46.76300 26.85100
H  2.76000 48.38000 27.75600
H  6.42400 48.27800 31.96100
H  6.27500 45.64900 35.12500
H  7.02500 44.63100 33.90600
H  5.30600 44.55600 34.30800
Mg -1.11600 43.88800 26.29800
C  1.48700 43.54100 28.68000
C  -3.33100 42.89700 28.71100
C  -3.45000 43.28100 23.94700
C  1.35400 44.03700 23.76600
N  -0.92500 43.34000 28.43900
C  0.19000 43.33500 29.22000
C  -0.14000 43.23100 30.77800
C  -1.56300 42.55700 30.59900
C  -1.99900 42.84500 29.15100
C  -1.62300 41.10300 31.02800
C  -0.05800 44.66900 31.37500
C  -0.03700 44.84800 32.93800
H  -0.17000 43.59600 33.75200
N  -3.21300 43.52400 26.34100
C  -3.92400 43.07100 27.43500
C  -5.34200 42.86700 27.07000
C  -5.34300 42.86800 25.57800
C  -3.95700 43.22100 25.22600
C  -6.38900 42.46700 28.08500
C  -6.45900 42.36800 24.58100
O  -6.42200 42.41400 23.39000
C  -7.74200 41.75900 25.11900
N  -1.03900 43.73100 24.14100
C  -2.14800 43.46700 23.41600
C  -1.81600 43.62700 21.88800
C  -0.35400 44.15500 21.92200
C  -0.01500 43.96700 23.34700
C  -1.89700 42.31300 21.06300
C  -0.09200 45.65800 21.61500
C  0.69900 45.98800 20.33800
N  1.01300 43.88500 26.20300
C  1.85400 43.97500 25.12300
C  3.22900 43.98200 25.55800
C  3.13000 43.82000 26.97800
C  1.79600 43.83000 27.33500
C  4.51500 44.05400 24.79700
C  3.90800 43.61300 28.15900
O  5.15700 43.50600 28.35400
C  2.83300 43.54700 29.33500
C  3.20800 42.44600 30.18700
O  2.51300 41.48600 30.36900
O  4.37600 42.78900 30.90300
C  4.52500 42.00200 32.12800
H  -3.94300 42.33300 29.41800
H  -4.20400 43.08400 23.18200
H  2.17300 44.28700 23.08800
H  0.54600 42.55600 31.28900
H  -2.30900 42.91200 31.30900
H  -2.02800 40.57200 30.16600
H  -2.42100 41.04700 31.76800
H  -0.69800 40.61800 31.34100
H  -0.86100 45.33600 31.06200
H  0.90100 45.04000 31.01400
H  -0.86700 45.51900 33.15700
H  0.83700 45.43600 33.21700
H  -6.27200 43.24500 28.83900
H  -6.16200 41.45000 28.40400
H  -7.41100 42.53000 27.71000
H  -7.34200 40.99300 25.78300
H  -8.40100 41.18100 24.47100
H  -8.31700 42.52500 25.64000
H  -2.38500 44.45800 21.46900
H  0.32200 43.54400 21.32400
H  -0.95100 41.77500 20.99600
H  -2.27000 42.45900 20.04900
H  -2.55300 41.63400 21.60700
H  0.30800 46.20600 22.46800
H  -1.03800 46.16600 21.42400
H  1.54400 46.62900 20.58800
H  -0.09200 46.44600 19.74300
H  1.02100 45.12400 19.75700
H  4.61700 45.05800 24.38500
H  4.31200 43.38600 23.96000
H  5.32400 43.60700 25.37500
H  2.92400 44.46400 29.91700
H  4.54000 42.78800 32.88300
H  5.47700 41.48900 31.98800
H  3.80200 41.21500 32.34000

