158

Mg 9.93600 47.97200 26.30200
C  8.01700 48.09800 29.17800
C  12.55500 49.47800 28.04700
C  11.92400 47.28900 23.73000
C  7.11600 47.15800 24.40200
N  10.20600 48.67700 28.33800
C  9.38000 48.44300 29.44700
C  9.94900 49.01000 30.74700
C  11.12800 49.82300 30.23300
C  11.35300 49.36100 28.73200
C  10.96500 51.36000 30.46200
C  10.42200 47.92800 31.85800
C  9.81700 48.30900 33.30400
H  9.73100 47.17200 34.31900
N  12.01200 48.18000 26.01500
C  12.89000 48.79900 26.87000
C  14.18900 48.55400 26.39600
C  14.07500 48.02900 25.01700
C  12.65800 47.84600 24.83900
C  15.40900 49.13900 27.15100
C  15.18000 47.67200 23.98200
O  14.91500 47.33100 22.86000
C  16.66600 47.75700 24.38100
N  9.59100 47.52100 24.28700
C  10.57000 47.15900 23.39700
C  10.05900 46.54400 22.08200
C  8.55200 46.50000 22.32800
C  8.38300 47.03100 23.75300
C  10.41500 47.38600 20.82700
C  8.00400 45.05200 22.15700
C  8.42000 44.02300 23.26500
N  7.94700 47.93400 26.63600
C  6.93300 47.43000 25.77200
C  5.74700 47.22700 26.53300
C  6.07900 47.53500 27.90800
C  7.44700 47.91600 27.90100
C  4.44000 46.76800 26.02400
C  5.56800 47.71100 29.29000
O  4.45300 47.73900 29.80300
C  6.83600 47.94600 30.17500
C  7.17900 46.79100 31.08400
O  7.96200 45.86900 30.84500
O  6.41700 47.01400 32.20000
C  6.22200 45.85800 33.07700
H  13.27400 49.97000 28.70600
H  12.59500 47.05200 22.90100
H  6.33600 46.76900 23.74400
H  9.20900 49.70200 31.15000
H  12.02500 49.44300 30.72200
H  11.07700 51.78800 29.46600
H  11.65600 51.70000 31.23400
H  9.94100 51.59400 30.75200
H  11.50000 47.90200 32.01100
H  10.09000 46.98100 31.43300
H  8.79000 48.67100 33.25900
H  10.46700 49.11200 33.65200
H  15.14500 49.45300 28.16100
H  15.99100 49.81100 26.52100
H  16.10800 48.32200 27.33200
H  16.76200 47.33900 25.38300
H  17.10000 48.73700 24.57700
H  17.24800 47.25600 23.60700
H  10.60800 45.60300 22.13100
H  8.09800 47.12000 21.55400
H  11.44900 47.28700 20.49700
H  10.15500 48.40400 21.11700
H  9.77200 47.05800 20.01100
H  8.19900 44.71400 21.14000
H  6.92500 45.13000 22.29600
H  8.61900 44.47700 24.23600
H  9.34500 43.53300 22.96100
H  7.56200 43.35200 23.31200
H  3.82300 47.50700 25.51300
H  3.87800 46.50900 26.92100
H  4.56200 45.85500 25.44200
H  6.70700 48.85000 30.77000
H  5.17000 45.58300 33.00400
H  6.58500 46.13000 34.06900
H  6.77200 44.97900 32.74100
Mg 1.49800 42.58200 26.57100
C  3.12300 42.75900 29.65000
C  -1.37900 41.61500 28.24500
C  0.12500 41.87600 23.66800
C  4.56700 43.10600 25.06600
N  0.95000 42.31400 28.61500
C  1.73400 42.51900 29.73300
C  0.86600 42.29700 31.03100
C  -0.38700 41.73500 30.52700
C  -0.32400 41.89500 29.02800
C  -0.77300 40.34700 31.11500
C  0.82300 43.69300 31.73100
C  1.12700 43.65300 33.25900
H  0.83800 42.35400 34.00600
N  -0.45700 41.92500 26.01700
C  -1.46200 41.54500 26.83100
C  -2.50600 40.95300 26.00500
C  -2.12600 41.07600 24.63800
C  -0.78000 41.64400 24.73600
C  -3.60500 40.21500 26.61800
C  -2.81200 40.68200 23.37100
O  -2.27500 40.78800 22.23400
C  -4.28900 40.18900 23.48600
N  2.38300 42.35400 24.65700
C  1.50100 42.14300 23.61400
C  2.25400 42.09000 22.26500
C  3.62900 42.68500 22.64100
C  3.56500 42.74400 24.20900
C  2.47700 40.63800 21.67300
C  3.85800 44.15500 22.01700
C  2.84200 45.24700 22.45700
N  3.51100 43.07900 27.16700
C  4.60300 43.19300 26.46800
C  5.67000 43.55300 27.34600
C  5.14800 43.40300 28.59300
C  3.77300 43.13500 28.47300
C  7.09400 43.83100 26.96200
C  5.46400 43.30800 30.05400
O  6.56300 43.44600 30.60300
C  4.11400 43.04500 30.72400
C  4.33500 42.09200 31.74500
O  4.04800 40.95100 31.57100
O  4.68700 42.66300 32.96400
C  4.93300 41.61500 33.97300
H  -2.27100 41.36400 28.82300
H  -0.21900 41.77800 22.63600
H  5.56100 43.27600 24.64700
H  1.29400 41.66700 31.81100
H  -1.20700 42.42000 30.74400
H  -0.97600 39.75700 30.22100
H  -1.73100 40.42800 31.62700
H  -0.05800 39.88700 31.79700
H  -0.16100 44.12200 31.53700
H  1.56500 44.33200 31.25200
H  0.69800 44.56800 33.66800
H  2.17700 43.94800 33.25900
H  -4.50300 40.37600 26.02100
H  -3.84400 40.45600 27.65400
H  -3.35900 39.15600 26.68700
H  -4.98700 40.89300 23.93800
H  -4.42000 39.18400 23.88600
H  -4.69200 40.10600 22.47600
H  1.90400 42.77300 21.49100
H  4.56200 42.12200 22.60500
H  3.50700 40.28400 21.72200
H  2.08400 40.67000 20.65700
H  1.86900 39.87000 22.15200
H  3.81500 43.98400 20.94100
H  4.87200 44.43600 22.30200
H  2.40000 45.05400 23.43400
H  2.07900 45.31100 21.68000
H  3.42200 46.16800 22.51800
H  7.15500 44.91500 26.86600
H  7.29000 43.37800 25.99000
H  7.76100 43.36600 27.68700
H  3.81700 44.01900 31.11200
H  5.96100 41.29700 33.79600
H  4.26100 40.78200 33.76700
H  4.68200 42.03800 34.94600

