158

Mg 24.62100 -5.52800 45.36000
C  27.17900 -3.42900 44.07000
C  22.47900 -4.05100 43.26100
C  22.66000 -8.18300 45.71100
C  27.17300 -7.12600 47.24500
N  24.88400 -3.96700 43.81100
C  25.94300 -3.15700 43.49900
C  25.55700 -2.05100 42.53600
C  23.98300 -2.10100 42.54900
C  23.74700 -3.43700 43.29300
C  23.28700 -0.88800 43.34100
C  26.19300 -2.42300 41.19000
C  26.84500 -1.25600 40.38300
H  26.25900 -1.05000 38.98400
N  22.79100 -6.00700 44.60000
C  22.00100 -5.22300 43.79000
C  20.69200 -5.86200 43.60100
C  20.68300 -7.09100 44.37100
C  22.07000 -7.18200 44.95700
C  19.58600 -5.37700 42.71200
C  19.46600 -8.03500 44.53200
O  18.32400 -7.71000 44.09600
C  19.61200 -9.32500 45.20800
N  24.88600 -7.32200 46.33900
C  23.85800 -8.23600 46.35700
C  24.18100 -9.49000 47.21000
C  25.62600 -9.20100 47.61800
C  25.93700 -7.79200 47.05100
C  23.24100 -9.77400 48.42300
C  26.64000 -10.22600 47.00600
C  26.82300 -11.51100 47.85300
N  26.71000 -5.25800 45.72500
C  27.57700 -6.01300 46.50000
C  28.85000 -5.41700 46.56400
C  28.81600 -4.35000 45.59300
C  27.46500 -4.30700 45.12400
C  29.99900 -5.82800 47.32800
C  29.59200 -3.31900 45.03500
O  30.75600 -2.98900 45.12800
C  28.61600 -2.68900 43.98500
C  28.52400 -1.25900 44.23900
O  28.08500 -0.70700 45.28700
O  28.85400 -0.45900 43.17000
C  28.79000 1.00800 43.30600
H  21.73300 -3.58400 42.61500
H  22.02200 -9.05300 45.87900
H  27.86500 -7.63900 47.91600
H  25.84600 -1.06500 42.90000
H  23.61700 -2.25400 41.53400
H  22.65800 -0.41700 42.58500
H  23.87800 -0.02500 43.65000
H  22.60800 -1.23400 44.12100
H  25.46600 -3.05200 40.67700
H  26.96100 -3.17900 41.35200
H  27.90400 -1.49200 40.27400
H  26.67200 -0.35100 40.96500
H  19.25800 -6.31600 42.26700
H  20.14500 -4.90700 41.90300
H  18.85900 -4.70700 43.17000
H  18.62500 -9.77100 45.33000
H  19.97600 -8.95500 46.16700
H  20.24600 -9.91800 44.54900
H  24.04200 -10.40500 46.63500
H  25.82500 -8.96300 48.66300
H  22.71700 -10.70400 48.20300
H  22.59100 -8.92300 48.62700
H  23.94500 -9.95900 49.23400
H  27.64700 -9.80800 46.98600
H  26.34800 -10.29700 45.95800
H  27.88800 -11.45000 48.07600
H  26.49300 -12.42300 47.35600
H  26.36100 -11.40900 48.83600
H  29.77400 -5.28500 48.24600
H  30.92100 -5.39200 46.94600
H  30.06300 -6.90600 47.47700
H  29.00100 -2.67800 42.96500
H  29.70600 1.27900 43.83100
H  27.96200 1.40400 43.89400
H  28.76700 1.40400 42.29100
Mg 55.41600 24.42800 45.35700
C  52.63900 26.38600 44.67400
C  53.62300 21.61400 44.50400
C  58.28500 22.66400 45.40500
C  57.10300 27.41300 46.24100
N  53.39100 24.03300 44.55400
C  52.42100 25.00100 44.41200
C  51.15600 24.35500 43.96100
C  51.32400 22.80400 44.25900
C  52.87100 22.77100 44.45200
C  50.73500 22.25500 45.64600
C  50.56900 24.64400 42.50400
C  49.00700 24.59900 42.29400
H  48.45500 24.12200 40.86800
N  55.97000 22.39800 44.92200
C  55.04600 21.37600 44.68200
C  55.75700 20.21700 44.33500
C  57.14600 20.43900 44.64600
C  57.22200 21.87100 45.01600
C  55.02100 19.06700 43.74400
C  58.17500 19.41300 44.69000
O  57.93100 18.23000 44.37400
C  59.58900 19.76000 45.11000
N  57.35800 24.89600 45.67700
C  58.38200 23.98400 45.73500
C  59.66900 24.65000 46.21800
C  59.31200 26.15700 46.24800
C  57.85700 26.20300 45.96000
C  60.27300 24.09700 47.51600
C  60.14200 27.11400 45.26200
C  61.38700 27.67200 45.82400
N  54.95600 26.48900 45.57500
C  55.71900 27.59000 45.92400
C  54.89400 28.81900 45.94000
C  53.67400 28.36600 45.41900
C  53.79600 26.98500 45.19500
C  55.37100 30.11600 46.52600
C  52.33700 28.82800 45.03700
O  51.74800 29.88200 45.16800
C  51.65100 27.54700 44.45800
C  51.45200 27.75800 43.01400
O  52.28600 27.70300 42.08400
O  50.12600 27.95000 42.78600
C  49.88500 28.92100 41.71000
H  53.04000 20.69900 44.38400
H  59.23000 22.13600 45.55400
H  57.56600 28.36500 46.50700
H  50.40400 24.78100 44.62600
H  50.86100 22.18000 43.49500
H  50.08400 23.04300 46.02700
H  51.47800 22.00300 46.40300
H  50.11600 21.37700 45.46400
H  50.88100 23.75100 41.96300
H  50.83700 25.52400 41.91900
H  48.73700 25.64700 42.42600
H  48.59100 23.98600 43.09400
H  54.47300 18.41400 44.42400
H  55.63000 18.38700 43.14900
H  54.27000 19.44300 43.04900
H  59.95600 20.39500 44.30300
H  60.24000 18.88600 45.07400
H  59.53000 20.16600 46.11900
H  60.30700 24.42800 45.36300
H  59.43300 26.49600 47.27700
H  59.91200 23.06900 47.48000
H  59.89000 24.62100 48.39200
H  61.35400 24.19200 47.41200
H  59.39500 27.84400 44.94900
H  60.47000 26.42800 44.48000
H  61.54400 27.32300 46.84500
H  61.35200 28.76100 45.78200
H  62.28300 27.33700 45.30200
H  56.28000 30.45000 46.02500
H  55.47700 29.91100 47.59100
H  54.57700 30.86300 46.52400
H  50.76000 27.29400 45.03300
H  50.59500 29.74200 41.80100
H  48.90600 29.39900 41.74900
H  49.95300 28.45700 40.72600

