158

Mg 16.36400 -1.19800 28.18500
C  15.16000 0.68200 30.79400
C  18.37300 -2.90500 30.42000
C  17.79400 -2.90800 25.61900
C  14.62600 0.80000 25.95400
N  16.72800 -1.08000 30.43700
C  16.12000 -0.17600 31.29800
C  16.58300 -0.42300 32.72900
C  17.85400 -1.38600 32.52400
C  17.55700 -1.93500 31.10400
C  19.21600 -0.70100 32.57300
C  15.51200 -1.13200 33.64300
C  15.37200 -0.45700 35.03000
H  16.57800 0.23400 35.63100
N  17.85200 -2.72000 28.01300
C  18.43300 -3.37000 29.08300
C  19.22000 -4.53800 28.63600
C  19.13100 -4.48300 27.22500
C  18.26700 -3.35200 26.87600
C  20.02900 -5.50200 29.46100
C  19.86000 -5.39300 26.20200
O  19.93200 -5.03800 25.05300
C  20.54100 -6.70600 26.65700
N  16.40500 -0.87800 26.12800
C  17.02200 -1.78700 25.33400
C  16.75100 -1.32900 23.83800
C  15.52200 -0.45100 23.97400
C  15.50900 -0.21900 25.43900
C  17.96700 -0.56700 23.27900
C  14.23700 -1.14800 23.43600
C  13.79100 -0.73800 21.99700
N  15.15400 0.48900 28.32300
C  14.50100 1.19900 27.30400
C  13.62100 2.15900 27.90200
C  13.78700 2.00800 29.25400
C  14.82900 1.07300 29.46500
C  12.91200 3.19400 27.22300
C  13.45100 2.51600 30.59500
O  12.61500 3.36800 30.92300
C  14.31500 1.60500 31.64700
C  15.16900 2.50800 32.56100
O  16.30800 2.94400 32.18900
O  14.49100 2.81900 33.68400
C  15.02400 3.92200 34.46200
H  18.85500 -3.46700 31.22300
H  18.12400 -3.44000 24.72500
H  14.02800 1.18300 25.12400
H  16.95500 0.50500 33.16500
H  17.83700 -2.20500 33.24200
H  19.65300 -0.84200 31.58400
H  19.86700 -1.21800 33.27700
H  19.00700 0.33600 32.83500
H  15.59800 -2.21700 33.69700
H  14.53300 -1.01300 33.18000
H  15.05400 -1.25400 35.70100
H  14.64500 0.35500 35.02200
H  19.58000 -6.46800 29.22900
H  19.96900 -5.23300 30.51500
H  21.03400 -5.52500 29.04000
H  21.53000 -6.59600 27.10300
H  20.69100 -7.28800 25.74800
H  19.83200 -7.14600 27.35900
H  16.59200 -2.21900 23.23000
H  15.61600 0.56700 23.59500
H  18.80800 -0.40800 23.95300
H  17.65500 0.42200 22.94100
H  18.38500 -1.24000 22.53000
H  13.48000 -0.81800 24.14700
H  14.34900 -2.23200 23.47000
H  12.70300 -0.70400 21.95700
H  14.22300 -1.35400 21.20800
H  14.24800 0.24600 21.88800
H  13.00800 3.25500 26.13900
H  13.34300 4.13000 27.57800
H  11.84800 3.19900 27.45900
H  13.63400 1.08200 32.31900
H  14.81000 4.86700 33.96300
H  16.08800 3.79200 34.66200
H  14.60400 3.96400 35.46700
Mg 9.56400 47.64000 25.92400
C  7.80700 47.65800 28.89000
C  12.27100 49.01100 27.63500
C  11.28900 47.61000 22.99600
C  6.63500 46.68900 24.20400
N  9.92700 48.38400 27.96100
C  9.07200 48.22000 29.00400
C  9.87200 48.52100 30.30900
C  11.07600 49.37800 29.81400
C  11.13200 48.90700 28.38100
C  10.78400 50.93800 29.77000
C  10.33800 47.30600 31.12900
C  10.62400 47.56000 32.65700
H  10.39900 46.40300 33.52400
N  11.54300 48.19900 25.37900
C  12.50200 48.71900 26.26500
C  13.73300 48.67200 25.54300
C  13.50800 48.30800 24.19200
C  12.01600 48.07100 24.16000
C  15.04500 49.00800 26.22700
C  14.37100 48.17300 23.01000
O  13.99900 47.75100 21.89100
C  15.89200 48.44600 23.12500
N  8.94100 47.36300 23.89800
C  9.88900 47.33200 22.90400
C  9.20500 46.90000 21.55800
C  7.89300 46.27100 21.93700
C  7.77800 46.82500 23.36200
C  9.10100 48.10800 20.59200
C  7.94500 44.69000 21.71500
C  8.57100 43.83800 22.83200
N  7.57600 47.32900 26.40400
C  6.48300 46.96100 25.60600
C  5.33100 46.78400 26.40100
C  5.81500 46.99600 27.72200
C  7.18800 47.34300 27.63000
C  3.94100 46.60200 25.87700
C  5.42000 46.93000 29.13700
O  4.36300 46.66600 29.71600
C  6.76100 47.33500 29.96700
C  6.95400 46.13900 30.82000
O  7.30500 45.04600 30.35400
O  6.54000 46.42200 32.06700
C  6.86200 45.42000 33.05300
H  13.14300 49.41200 28.15400
H  11.69500 47.59200 21.98300
H  5.79800 46.14600 23.76000
H  9.23800 49.19100 30.89000
H  11.97900 49.07500 30.34500
H  11.17300 51.34500 30.70300
H  9.71300 51.10500 29.65500
H  11.34100 51.29700 28.90400
H  11.27300 47.09400 30.61000
H  9.70500 46.42200 31.05600
H  10.05000 48.43000 32.97700
H  11.62800 47.98400 32.64300
H  15.04300 48.78600 27.29400
H  15.21300 50.08500 26.23200
H  15.90600 48.52000 25.77000
H  16.24400 47.66400 23.79800
H  16.21800 49.33900 23.65800
H  16.42000 48.30300 22.18200
H  9.95100 46.19900 21.18100
H  7.09500 46.61600 21.28000
H  8.07100 48.23900 20.26000
H  9.67800 48.09400 19.66800
H  9.41900 48.97100 21.17900
H  8.45000 44.47600 20.77300
H  6.90100 44.41600 21.55900
H  9.03900 44.47700 23.58100
H  9.31200 43.19200 22.36000
H  7.80500 43.20200 23.27500
H  3.44300 47.53500 26.14200
H  3.43500 45.73600 26.30400
H  3.83500 46.51900 24.79600
H  6.53400 48.21900 30.56300
H  6.84400 45.87300 34.04500
H  7.81100 44.89900 32.92400
H  6.04700 44.69900 33.11100

