158

Mg 46.81200 34.86700 27.84200
C  45.09800 33.09000 30.21900
C  46.77500 37.59700 29.89100
C  47.61400 36.80100 25.25800
C  46.13900 32.17900 25.61200
N  46.28500 35.13400 29.88600
C  45.53700 34.30300 30.69200
C  45.56900 34.86300 32.12300
C  45.71900 36.36800 31.88700
C  46.41400 36.38600 30.52000
C  44.41200 37.14400 31.82200
C  46.83500 34.24600 32.84800
C  46.86000 34.21200 34.47400
H  45.88200 35.08600 35.23200
N  47.27300 36.81200 27.61500
C  47.28600 37.81700 28.59800
C  47.88400 39.03000 28.08200
C  48.15100 38.83400 26.75300
C  47.65700 37.46800 26.50600
C  48.24500 40.24800 28.92300
C  48.78600 39.75100 25.72600
O  48.97900 39.39800 24.52900
C  49.30500 41.09700 26.14000
N  46.95300 34.39500 25.83800
C  47.25500 35.45400 25.00200
C  47.34600 35.00500 23.51700
C  47.09000 33.44900 23.60800
C  46.66900 33.35700 25.07200
C  46.32100 35.63400 22.62300
C  48.32000 32.56100 23.18300
C  49.55500 32.58000 24.05300
N  45.91600 32.93800 27.93200
C  45.78500 31.93700 26.98200
C  45.10800 30.78700 27.59100
C  44.81300 31.18300 28.88900
C  45.32000 32.49400 29.04100
C  44.71600 29.51100 27.02400
C  44.22200 30.70500 30.08400
O  43.62000 29.64000 30.22500
C  44.13600 32.08700 30.93900
C  44.39000 31.65800 32.38300
O  45.35700 31.09300 32.82900
O  43.33700 32.06400 33.15300
C  43.46200 31.64700 34.58600
H  46.88300 38.44600 30.56900
H  47.89300 37.44000 24.41800
H  45.96700 31.34400 24.92900
H  44.65600 34.72000 32.70000
H  46.18200 36.88800 32.72600
H  43.61600 36.47000 32.13800
H  44.26700 37.53700 30.81500
H  44.42800 37.95200 32.55400
H  47.69300 34.91000 32.74700
H  47.03000 33.23300 32.49800
H  47.85000 34.54600 34.78500
H  46.87700 33.16800 34.78900
H  47.53400 41.05700 28.75500
H  49.22100 40.70300 28.76100
H  48.21300 39.94700 29.97000
H  49.78700 41.63000 25.32000
H  50.11400 40.98800 26.86200
H  48.46600 41.71400 26.46300
H  48.34500 35.20300 23.12600
H  46.24000 33.09300 23.02600
H  45.61500 36.29400 23.12800
H  45.71700 34.87500 22.12600
H  46.83700 36.21000 21.85500
H  48.66000 32.58000 22.14700
H  48.07200 31.53400 23.45100
H  49.71600 33.58900 24.43200
H  50.49700 32.38600 23.54000
H  49.45400 31.90500 24.90300
H  43.99500 29.66600 26.22200
H  44.34100 28.81400 27.77400
H  45.54700 29.02200 26.51500
H  43.16400 32.58100 30.92300
H  42.56400 32.08500 35.02100
H  44.34500 32.14200 34.98800
H  43.53400 30.59600 34.86600
Mg 15.96400 51.52800 25.95800
C  18.07900 50.47800 28.57600
C  13.60900 52.39800 28.27900
C  14.14300 52.70600 23.44000
C  18.48100 50.40000 23.72700
N  15.93500 51.51400 28.22000
C  16.89900 51.10200 29.06800
C  16.48900 51.39300 30.45900
C  14.93100 51.59800 30.33000
C  14.77400 51.90600 28.88400
C  14.12100 50.41500 30.82200
C  17.23300 52.61000 31.10800
C  16.84500 53.17400 32.44500
H  16.11400 52.19400 33.41000
N  14.10700 52.49200 25.85800
C  13.28200 52.75700 26.88100
C  12.07700 53.40400 26.37800
C  12.15500 53.52100 24.95200
C  13.56600 52.90700 24.71400
C  11.01100 53.79800 27.33600
C  11.23400 54.09800 23.90000
O  11.44900 53.93700 22.68900
C  9.99900 54.85300 24.31600
N  16.35100 51.50500 23.82500
C  15.32700 52.07800 23.00900
C  15.71000 51.93700 21.49600
C  17.21000 51.40600 21.58300
C  17.40800 51.09400 23.06100
C  14.71200 51.03700 20.71000
C  18.43000 52.27900 21.06800
C  19.33800 51.59300 19.99300
N  17.83700 50.49100 26.04800
C  18.72600 50.13600 25.09600
C  19.83100 49.42800 25.63200
C  19.61800 49.49300 27.03100
C  18.44300 50.27900 27.19700
C  20.97700 48.84000 24.95400
C  20.19300 49.25400 28.32300
O  21.27000 48.75000 28.62000
C  19.18600 49.95700 29.35700
C  18.75200 48.96900 30.40200
O  17.99400 47.96000 30.29100
O  19.30400 49.40400 31.53400
C  18.79100 48.79000 32.75900
H  12.87900 52.60800 29.06400
H  13.78600 53.32800 22.61700
H  19.26400 49.98000 23.09300
H  16.59600 50.47700 31.04100
H  14.65400 52.50000 30.87800
H  13.42200 50.72800 31.59800
H  14.60700 49.53500 31.24300
H  13.58800 50.06300 29.93900
H  17.13100 53.39300 30.35600
H  18.27400 52.31100 31.22800
H  16.08600 53.94100 32.29200
H  17.68900 53.64400 32.95100
H  10.58700 54.74400 27.00000
H  11.39700 53.90100 28.35000
H  10.25100 53.01800 27.34500
H  10.46600 55.76200 24.69600
H  9.42800 54.19200 24.96900
H  9.49200 55.13100 23.39200
H  15.66900 52.95700 21.11500
H  17.21200 50.43000 21.09900
H  15.18500 50.23400 20.14500
H  14.24500 51.64000 19.93100
H  13.95000 50.58400 21.34500
H  19.04800 52.48500 21.94200
H  18.10200 53.24300 20.68000
H  19.25600 52.15400 19.06200
H  19.04200 50.56200 19.79600
H  20.37700 51.44900 20.29000
H  21.77800 48.50900 25.61500
H  21.50500 49.53600 24.30100
H  20.51200 47.98500 24.46300
H  19.76900 50.69700 29.90500
H  19.38300 49.00800 33.64800
H  18.85900 47.70400 32.69400
H  17.71400 48.95900 32.79200

