158

Mg 40.13100 9.78100 29.07700
C  42.23800 10.68700 31.75400
C  37.92500 8.54700 31.22000
C  38.26500 8.81000 26.44800
C  42.66500 10.79300 26.91100
N  40.21400 9.55400 31.22000
C  40.97600 10.18700 32.10700
C  40.40600 10.13900 33.57100
C  39.05100 9.38100 33.32200
C  39.04900 9.07200 31.81800
C  38.96300 8.06600 34.11200
C  40.27900 11.51500 34.31300
C  39.46300 11.45300 35.63900
H  40.34800 11.72700 36.87400
N  38.28400 8.82200 28.88900
C  37.54500 8.37300 29.87200
C  36.47200 7.56100 29.33000
C  36.54400 7.72300 27.97600
C  37.72600 8.46000 27.72100
C  35.46000 6.78900 30.19300
C  35.58400 7.23400 26.92700
O  35.83600 7.21600 25.72900
C  34.33800 6.60600 27.35100
N  40.44600 9.60000 26.91900
C  39.55100 9.28700 26.04200
C  39.99900 9.45400 24.55700
C  41.27700 10.34300 24.79900
C  41.51300 10.23800 26.30000
C  40.32300 8.06400 23.96000
C  41.18200 11.77200 24.18700
C  39.83900 12.56700 24.48400
N  42.10500 10.54200 29.22800
C  42.97500 10.98800 28.28000
C  44.14200 11.67100 28.93100
C  43.81500 11.58800 30.28000
C  42.60500 10.88000 30.39800
C  45.29100 12.24800 28.25700
C  44.32200 11.95200 31.56100
O  45.35800 12.52000 31.87300
C  43.24000 11.48800 32.57600
C  43.83100 10.54100 33.53700
O  44.26400 9.41700 33.33200
O  43.85100 11.03700 34.83800
C  43.91800 10.03300 35.92500
H  37.22800 8.08000 31.91900
H  37.60000 8.60300 25.60700
H  43.32000 11.15800 26.11700
H  41.02900 9.53600 34.23200
H  38.24900 10.02300 33.68700
H  39.75600 7.89100 34.84000
H  39.14000 7.22900 33.43600
H  37.92300 7.95600 34.41800
H  39.84800 12.34300 33.75000
H  41.29000 11.87000 34.51300
H  38.87500 10.53900 35.73200
H  38.72700 12.25400 35.57400
H  34.43600 7.16100 30.21500
H  35.85400 6.72900 31.20700
H  35.43400 5.75400 29.85100
H  33.76000 7.31100 27.94800
H  34.48200 5.71800 27.96700
H  33.65500 6.35300 26.54000
H  39.25900 9.97700 23.95200
H  42.15900 9.81300 24.43900
H  39.66900 7.85600 23.11300
H  40.31000 7.19700 24.62100
H  41.38900 7.96200 23.75900
H  41.40900 11.68100 23.12500
H  41.98200 12.31900 24.68500
H  39.29700 12.77300 23.56100
H  39.93400 13.58700 24.85600
H  39.20000 12.00200 25.16300
H  45.00800 12.79800 27.35900
H  46.01600 11.44000 28.16100
H  45.46400 13.04300 28.98200
H  42.80200 12.41500 32.94800
H  44.86200 9.49000 35.89100
H  43.17200 9.29500 35.63000
H  43.64000 10.41000 36.90900
Mg 7.50200 53.52500 41.44200
C  6.77700 50.00500 41.05100
C  10.51400 52.96200 40.09100
C  7.86200 56.87500 40.85100
C  4.20900 54.01900 42.25500
N  8.38300 51.69400 40.50900
C  8.08400 50.38500 40.54200
C  9.20600 49.44700 40.07200
C  10.48500 50.40900 40.21500
C  9.75600 51.79900 40.23600
C  11.49700 50.26900 41.35700
C  9.05000 48.81500 38.70500
C  8.31200 49.54800 37.57000
H  7.70600 48.72700 36.46900
N  9.05500 54.73700 40.90800
C  10.21900 54.28200 40.32600
C  11.10100 55.42200 40.17200
C  10.40000 56.58200 40.48100
C  9.02100 56.11000 40.76300
C  12.51300 55.25200 39.58200
C  10.92300 58.04300 40.30200
O  12.08100 58.17400 39.99500
C  10.00100 59.21400 40.49600
N  6.17600 55.20800 41.24800
C  6.56900 56.47300 41.11700
C  5.42600 57.49600 41.18300
C  4.25200 56.57500 41.74900
C  4.93500 55.15400 41.79600
C  5.70700 58.66000 42.22700
C  2.92400 56.55300 40.99700
C  2.87000 55.99300 39.57100
N  5.85500 52.27100 41.75900
C  4.59700 52.65300 42.10900
C  3.79900 51.47200 42.30700
C  4.63300 50.40600 41.95500
C  5.88400 50.97700 41.55800
C  2.35200 51.43100 42.46900
C  4.73000 48.97900 41.78900
O  3.88600 48.12800 41.93000
C  6.12100 48.61500 41.23900
C  5.87100 47.95100 39.88800
O  5.23900 48.53500 39.01400
O  6.28100 46.62500 39.84700
C  5.86900 45.82200 38.68900
H  11.55600 52.76900 39.82600
H  7.84200 57.91900 40.53000
H  3.17600 54.10400 42.59600
H  9.43800 48.61100 40.73300
H  11.08300 50.32900 39.30800
H  12.45100 49.92400 40.95900
H  11.22000 49.40300 41.95900
H  11.46500 51.22600 41.87800
H  8.55300 47.88200 38.97100
H  10.05300 48.58500 38.34600
H  9.00700 50.21100 37.05500
H  7.52000 50.13100 38.04000
H  13.06500 54.33600 39.79100
H  13.24900 55.92700 40.01900
H  12.53400 55.61100 38.55300
H  9.28200 59.34100 39.68700
H  10.69000 60.01600 40.76000
H  9.56900 59.07500 41.48700
H  5.21900 57.82200 40.16400
H  4.04500 56.88800 42.77200
H  6.69000 59.06500 41.99000
H  5.60900 58.23300 43.22500
H  5.06500 59.54000 42.19800
H  2.55200 57.57500 41.06400
H  2.24700 55.96800 41.61900
H  3.81800 55.59500 39.21100
H  2.53600 56.74700 38.85800
H  2.13900 55.18500 39.60100
H  1.82600 51.97800 41.68700
H  1.97700 51.78100 43.43100
H  2.11800 50.37900 42.30800
H  6.80600 48.05400 41.87500
H  6.70600 45.26100 38.27500
H  5.43200 46.41500 37.88500
H  5.18100 44.99900 38.88000

