158

Mg 45.10500 4.06000 47.00800
C  43.26500 7.12600 46.51300
C  42.37000 2.49600 45.91500
C  46.93500 1.29000 47.01700
C  48.06400 6.06800 46.96100
N  43.02100 4.74000 46.44400
C  42.50400 6.01300 46.39100
C  41.00300 5.99600 46.13000
C  40.75600 4.48700 45.93000
C  42.12100 3.87900 45.99400
C  39.91100 3.77600 47.11600
C  40.53200 6.85100 44.86000
C  41.45500 6.94600 43.57200
H  40.69000 6.80700 42.22900
N  44.66200 2.11300 46.75000
C  43.46000 1.65100 46.28900
C  43.56100 0.18300 46.15900
C  44.87800 -0.23200 46.33500
C  45.62800 1.05800 46.67200
C  42.44700 -0.69200 45.65300
C  45.48500 -1.66100 46.39400
O  44.78700 -2.61000 46.07600
C  46.94700 -2.01800 46.75800
N  47.17100 3.73100 46.86100
C  47.62400 2.46500 47.03800
C  49.16700 2.39600 47.04900
C  49.58400 3.93000 47.09900
C  48.20600 4.67500 46.88600
C  49.93900 1.58700 48.17800
C  50.68100 4.41200 46.12700
C  51.76100 5.29100 46.66800
N  45.59400 6.13300 46.88900
C  46.83000 6.75000 46.88600
C  46.61900 8.18400 46.98600
C  45.26100 8.38400 46.90500
C  44.64600 7.16300 46.75300
C  47.70100 9.22800 47.09700
C  44.19700 9.36500 46.87700
O  44.36700 10.59200 46.83700
C  42.81300 8.60000 46.67000
C  42.02100 8.70500 47.88600
O  41.99700 7.96700 48.82200
O  41.20900 9.82100 47.79000
C  40.19200 9.96100 48.83600
H  41.44400 2.05100 45.54300
H  47.69100 0.50200 46.98800
H  48.94200 6.71600 47.01400
H  40.57500 6.39500 47.05000
H  40.32000 4.21700 44.96800
H  39.38900 4.57000 47.65000
H  40.58800 3.15700 47.70400
H  39.18700 3.21800 46.52400
H  40.40000 7.87900 45.19600
H  39.58100 6.42700 44.53700
H  42.18000 6.13300 43.61300
H  41.96800 7.90400 43.48200
H  41.50500 -0.14600 45.70800
H  42.39200 -1.55600 46.31500
H  42.72200 -1.01600 44.64900
H  46.83700 -3.09600 46.87600
H  47.13300 -1.60200 47.74900
H  47.71500 -1.89700 45.99400
H  49.54200 1.99100 46.10900
H  49.91300 4.09300 48.12500
H  50.33400 0.68200 47.71600
H  49.14500 1.27800 48.85800
H  50.76000 2.04900 48.72700
H  50.08300 4.97100 45.40600
H  51.11800 3.53700 45.64600
H  51.73400 6.21300 46.08600
H  52.73700 4.81600 46.57300
H  51.59200 5.66200 47.67900
H  47.43600 9.61400 48.08100
H  47.65400 10.06700 46.40300
H  48.70100 8.80100 47.03000
H  42.25600 8.98700 45.81700
H  40.21200 9.33000 49.72400
H  39.29000 9.70200 48.28100
H  40.21800 10.99300 49.18800
Mg 29.04300 58.14100 42.00000
C  26.85800 56.07000 40.31300
C  31.67900 56.52400 40.21600
C  31.18900 60.59700 42.91500
C  26.32300 59.89000 43.19600
N  29.17100 56.68900 40.18000
C  28.13700 55.93400 39.76000
C  28.53900 54.76300 38.77100
C  30.07200 54.74100 39.24200
C  30.32800 56.03200 39.94800
C  30.53800 53.47900 40.00400
C  28.29800 55.14400 37.33800
C  27.34500 54.20900 36.60000
H  27.22800 54.14200 35.12100
N  31.13700 58.53000 41.66300
C  32.02100 57.73200 40.95500
C  33.37100 58.19400 41.21900
C  33.20900 59.41500 42.02100
C  31.78900 59.56300 42.20800
C  34.61900 57.41700 40.73800
C  34.39900 60.26500 42.48000
O  35.54900 59.89700 42.21400
C  34.23900 61.53800 43.35900
N  28.81600 59.92200 42.87000
C  29.86600 60.78600 43.23200
C  29.28700 62.09400 43.76100
C  27.80300 61.71000 44.06600
C  27.62400 60.45400 43.25800
C  30.05000 62.78400 44.93700
C  26.75300 62.86700 43.75700
C  25.61500 62.99000 44.76000
N  26.90100 57.92200 42.08400
C  25.94400 58.69800 42.55500
C  24.63300 58.06700 42.24100
C  24.97000 56.99600 41.43700
C  26.37800 56.96600 41.30400
C  23.31200 58.64900 42.65300
C  24.36300 55.94700 40.61800
O  23.19500 55.66100 40.50900
C  25.60700 55.27200 39.94900
C  25.66900 53.88000 40.50400
O  26.40100 53.46300 41.38300
O  24.66600 53.14900 39.89700
C  24.65100 51.74800 40.40200
H  32.49300 55.93100 39.79400
H  31.92800 61.32200 43.26500
H  25.42200 60.44900 43.45900
H  28.04000 53.84000 39.06600
H  30.70100 54.69200 38.35300
H  30.52800 53.76900 41.05400
H  31.51600 53.13700 39.66400
H  29.79500 52.70700 39.80500
H  29.24500 55.05700 36.80500
H  27.98100 56.17400 37.17300
H  26.33900 54.39300 36.97700
H  27.57700 53.18600 36.89800
H  34.42800 56.46200 40.24900
H  35.28300 57.07300 41.53100
H  35.15600 58.01800 40.00500
H  33.81500 62.26500 42.66600
H  35.23400 61.77900 43.73400
H  33.69400 61.10600 44.19800
H  29.30000 62.81900 42.94700
H  27.69400 61.40500 45.10600
H  29.42300 62.94100 45.81500
H  30.36900 63.75900 44.57100
H  30.99300 62.35600 45.27700
H  26.37500 62.64100 42.76000
H  27.27100 63.82000 43.64900
H  25.55400 64.01900 45.11300
H  25.67900 62.36200 45.64800
H  24.68600 62.79500 44.22500
H  23.35000 59.62900 42.17800
H  23.20400 58.84100 43.72100
H  22.53200 58.02600 42.21500
H  25.35500 55.25400 38.88900
H  24.46700 51.76300 41.47600
H  25.58300 51.22000 40.20200
H  23.79800 51.31000 39.88400

