158

Mg 36.46600 49.47000 24.73100
C  36.38600 47.86900 27.83600
C  34.96400 52.14600 26.18100
C  35.94900 50.84700 21.61700
C  37.46900 46.42900 23.25600
N  35.74000 49.94900 26.80500
C  35.95200 49.20000 27.91400
C  35.63600 50.01200 29.15000
C  34.93000 51.35500 28.59300
C  35.29900 51.15900 27.11400
C  33.39700 51.43100 28.88100
C  36.94500 50.28800 30.02500
C  36.76100 49.83900 31.52100
H  35.38100 49.75700 32.15600
N  35.75800 51.37800 24.02900
C  35.23800 52.30900 24.76300
C  34.92400 53.51000 23.89500
C  35.16200 53.10100 22.54900
C  35.64900 51.70200 22.70800
C  34.44900 54.81400 24.45100
C  34.93600 53.91600 21.24000
O  35.30900 53.45400 20.19200
C  34.23300 55.30800 21.23600
N  36.61000 48.71500 22.84000
C  36.31100 49.46300 21.71500
C  36.54600 48.63700 20.47900
C  37.43600 47.53400 20.93000
C  37.23500 47.56700 22.41900
C  35.17200 48.08100 19.95700
C  38.91900 47.50100 20.54900
C  39.47000 46.07500 20.30100
N  36.86100 47.51300 25.37600
C  37.25500 46.42400 24.65200
C  37.59500 45.38800 25.64000
C  37.30800 45.95200 26.88700
C  36.76700 47.23300 26.66800
C  38.26400 44.15500 25.26900
C  37.38200 45.69500 28.31800
O  37.78400 44.75900 28.99000
C  36.82200 46.96200 29.06900
C  35.64000 46.58700 29.97600
O  34.46600 46.59900 29.69300
O  36.14500 46.19800 31.23600
C  35.15300 45.74500 32.22400
H  34.49700 53.00600 26.66500
H  35.78600 51.17300 20.58700
H  37.65700 45.50500 22.70400
H  34.94600 49.38800 29.71900
H  35.40800 52.22800 29.03700
H  33.02800 52.34300 29.35200
H  33.24300 50.69400 29.66900
H  32.81900 51.27200 27.97100
H  36.97900 51.37700 30.04500
H  37.80700 49.84300 29.52700
H  37.54500 50.40700 32.02200
H  37.13600 48.81500 31.54300
H  34.76500 54.78400 25.49400
H  33.36700 54.80100 24.58200
H  34.74900 55.69900 23.89000
H  33.69900 55.49500 20.30500
H  35.08200 55.99100 21.21000
H  33.50000 55.44800 22.03000
H  36.89200 49.28700 19.67600
H  37.04500 46.54900 20.67500
H  34.60100 47.47700 20.66200
H  35.35800 47.47400 19.07100
H  34.54300 48.89400 19.59500
H  39.45100 48.00700 21.35500
H  38.94000 48.05700 19.61200
H  39.77500 46.14300 19.25700
H  38.69900 45.31900 20.44900
H  40.39900 45.78800 20.79300
H  37.79200 43.73000 24.38300
H  37.90700 43.46200 26.03000
H  39.34700 44.16300 25.14600
H  37.63500 47.39200 29.65400
H  34.91500 44.71600 31.95500
H  34.18400 46.24100 32.28000
H  35.63800 45.64400 33.19500
Mg 17.29400 52.81200 26.33100
C  19.30500 51.02700 28.68800
C  14.83000 53.03300 28.87100
C  15.24700 54.14900 24.08800
C  19.57800 51.72900 23.83600
N  17.08500 52.07700 28.55400
C  18.10900 51.51200 29.27500
C  17.73200 51.43900 30.74000
C  16.16600 51.69100 30.70100
C  15.95500 52.29500 29.30800
C  15.35900 50.43400 30.80600
C  18.64900 52.45100 31.48900
C  18.96500 52.04200 33.00100
H  17.88300 51.38800 33.83500
N  15.27300 53.55100 26.42500
C  14.51800 53.67000 27.56700
C  13.32300 54.43800 27.22800
C  13.35600 54.77900 25.81900
C  14.63500 54.12200 25.33000
C  12.29100 54.96800 28.28600
C  12.47000 55.51500 24.85700
O  12.60800 55.52500 23.61300
C  11.46900 56.41000 25.51800
N  17.40700 52.90500 24.37200
C  16.51400 53.70000 23.67100
C  16.77700 53.60300 22.15600
C  18.18200 53.06800 22.09900
C  18.45900 52.54200 23.49400
C  15.69800 52.88800 21.24700
C  19.31800 53.98500 21.57000
C  19.64100 55.17300 22.50200
N  19.12300 51.66800 26.25400
C  19.93700 51.35800 25.13000
C  21.08400 50.58200 25.58100
C  20.86000 50.40500 26.97500
C  19.69300 51.10600 27.34200
C  22.21900 50.22600 24.65100
C  21.53100 49.83500 28.10300
O  22.59100 49.18300 28.21600
C  20.52500 50.26300 29.35000
C  20.04400 49.06700 30.05900
O  19.36100 48.10700 29.60300
O  20.38300 49.22900 31.41200
C  20.19400 48.06800 32.28500
H  14.10000 52.95700 29.67900
H  14.60800 54.58100 23.31500
H  20.22400 51.39100 23.02300
H  17.85100 50.45300 31.19000
H  15.88700 52.38800 31.49100
H  15.07100 50.31500 31.85100
H  15.77900 49.49600 30.44500
H  14.48300 50.56300 30.17200
H  18.12600 53.40700 31.51400
H  19.61900 52.61800 31.02100
H  19.57200 52.73300 33.58400
H  19.57400 51.14200 32.91600
H  12.69400 55.91300 28.65100
H  12.42100 54.32700 29.15800
H  11.29000 55.12100 27.88300
H  11.02400 56.96100 24.69000
H  11.94900 57.22900 26.05500
H  10.76800 55.81200 26.10000
H  16.89700 54.61600 21.77100
H  18.21200 52.17000 21.48300
H  16.12000 52.85600 20.24300
H  14.80900 53.51800 21.24800
H  15.52200 51.88100 21.62600
H  18.92400 54.40800 20.64600
H  20.19800 53.36300 21.40200
H  19.41500 56.09200 21.96000
H  20.71600 55.15200 22.68100
H  19.00500 55.21100 23.38700
H  23.14500 50.07300 25.20400
H  22.19200 51.01500 23.89800
H  22.04300 49.31600 24.07700
H  21.02500 50.89600 30.08300
H  19.86500 47.14800 31.80200
H  19.45400 48.36300 33.02900
H  21.04200 47.82500 32.92500

