158

Mg 2.38500 -1.41200 43.81700
C  5.85900 -0.82800 43.27000
C  1.75500 1.06900 41.64000
C  -0.79200 -2.50500 43.74000
C  3.35300 -4.44300 45.52600
N  3.73700 -0.14000 42.52000
C  5.09800 0.02400 42.53500
C  5.53900 1.04300 41.52300
C  4.13500 1.63500 41.08000
C  3.07500 0.86900 41.87400
C  4.01200 3.12600 41.26600
C  6.34200 0.43400 40.36400
C  7.71700 1.17300 40.22900
H  8.16200 1.64000 38.80900
N  0.67700 -0.73800 42.89800
C  0.61000 0.40500 42.07500
C  -0.78600 0.67800 41.80300
C  -1.58400 -0.37500 42.39200
C  -0.57800 -1.29400 43.05000
C  -1.24100 1.82900 41.06400
C  -3.08300 -0.48200 42.35100
O  -3.81800 0.30300 41.78700
C  -3.86300 -1.64500 43.07700
N  1.48600 -3.28100 44.39900
C  0.12700 -3.35200 44.35500
C  -0.34800 -4.59600 45.15300
C  0.90300 -5.40100 45.48800
C  2.00500 -4.31100 45.17000
C  -1.26900 -4.09300 46.38000
C  1.06100 -6.69800 44.70800
C  0.95000 -8.01200 45.46300
N  4.21100 -2.42400 44.35500
C  4.39200 -3.56300 45.06900
C  5.81500 -3.77600 45.36000
C  6.41900 -2.63800 44.66200
C  5.40500 -1.90000 44.05200
C  6.46500 -4.93600 46.09300
C  7.63500 -1.97200 44.49500
O  8.72000 -2.20400 44.98000
C  7.41200 -0.77200 43.52200
C  7.97900 0.40200 44.15100
O  7.63400 0.86700 45.24800
O  8.90100 0.91900 43.33500
C  9.37600 2.27300 43.62700
H  1.47400 1.87700 40.96200
H  -1.84500 -2.78200 43.82000
H  3.62600 -5.37100 46.03100
H  6.14100 1.65000 42.20000
H  4.08300 1.50100 39.99900
H  4.98500 3.61000 41.34900
H  3.56400 3.35600 42.23200
H  3.47300 3.61100 40.45200
H  5.73900 0.42600 39.45600
H  6.69600 -0.57400 40.57800
H  8.54600 0.53000 40.52400
H  7.81400 2.06500 40.84800
H  -2.03800 2.34600 41.59900
H  -1.70300 1.48400 40.13900
H  -0.49500 2.60200 40.88100
H  -4.87000 -1.23300 43.13400
H  -3.51200 -1.63700 44.10900
H  -3.77900 -2.63900 42.63800
H  -1.01000 -5.17100 44.50600
H  1.00900 -5.50100 46.56800
H  -1.73400 -3.14500 46.10800
H  -0.65500 -3.92900 47.26600
H  -2.06300 -4.81700 46.55800
H  1.95600 -6.68200 44.08600
H  0.24000 -6.69500 43.99200
H  1.74900 -8.67700 45.13500
H  -0.02800 -8.43400 45.23200
H  0.92000 -7.79400 46.53000
H  6.36400 -4.68800 47.15000
H  7.46800 -5.04800 45.67900
H  5.93400 -5.88100 45.97900
H  7.93800 -1.05600 42.61100
H  10.19500 2.19400 44.34100
H  8.58400 2.88100 44.06400
H  9.65700 2.77400 42.70100
Mg -12.37400 38.19000 42.01100
C  -10.09000 35.73200 40.98700
C  -10.32800 40.53900 40.53100
C  -14.78400 40.47500 42.35100
C  -14.41300 35.66200 43.07200
N  -10.56900 38.08800 40.71400
C  -9.69700 37.01100 40.62400
C  -8.34300 37.43800 39.93100
C  -8.31800 38.92800 40.08700
C  -9.81700 39.22200 40.47700
C  -7.38300 39.59400 41.08200
C  -8.26700 36.96100 38.38200
C  -6.88900 36.33600 37.97400
H  -5.99600 36.99100 36.93600
N  -12.56800 40.21100 41.52900
C  -11.62000 41.03500 40.94800
C  -12.09300 42.37400 40.80800
C  -13.39900 42.36800 41.36400
C  -13.65100 40.95800 41.72300
C  -11.25700 43.48500 40.12600
C  -14.24300 43.52800 41.58400
O  -13.77800 44.61100 41.24700
C  -15.57100 43.58700 42.34600
N  -14.33300 38.12900 42.57500
C  -15.06800 39.21600 42.80500
C  -16.47900 38.85200 43.37900
C  -16.27500 37.36400 43.68000
C  -14.97800 36.92800 43.02300
C  -16.97900 39.67700 44.61100
C  -17.46800 36.55300 43.17200
C  -17.75400 35.21600 43.97400
N  -12.32100 36.04000 42.17800
C  -13.23900 35.15300 42.60500
C  -12.79300 33.77700 42.45500
C  -11.56600 33.94700 41.81500
C  -11.33400 35.35800 41.63500
C  -13.45400 32.54700 42.90500
C  -10.37700 33.34300 41.29700
O  -10.11700 32.12100 41.21600
C  -9.34600 34.49300 40.84200
C  -8.31400 34.33900 41.89900
O  -8.45500 34.48200 43.10900
O  -7.00900 34.11200 41.38200
C  -5.90700 34.12500 42.32800
H  -9.64400 41.31000 40.17200
H  -15.59900 41.15500 42.60700
H  -15.05000 34.94500 43.59400
H  -7.54200 37.05800 40.56400
H  -8.25900 39.38700 39.10000
H  -6.56000 38.89900 41.24400
H  -7.81000 39.84700 42.05300
H  -7.02700 40.49800 40.58700
H  -8.48900 37.78800 37.70700
H  -8.95800 36.12900 38.24300
H  -7.10900 35.39400 37.47000
H  -6.24100 36.11000 38.82000
H  -11.58200 43.44100 39.08600
H  -10.16900 43.50100 40.19300
H  -11.36400 44.41800 40.68000
H  -16.42000 43.07500 41.89400
H  -15.85600 44.63700 42.41600
H  -15.42300 43.07300 43.29600
H  -17.11400 39.00200 42.50500
H  -16.15600 37.16300 44.74500
H  -17.76800 40.33900 44.25600
H  -16.21200 40.31000 45.05600
H  -17.43300 39.02200 45.35500
H  -17.27000 36.16000 42.17400
H  -18.36400 37.13200 42.94800
H  -18.80200 35.42500 44.18600
H  -17.16300 35.04000 44.87200
H  -17.64300 34.36300 43.30400
H  -13.10300 31.66500 42.36800
H  -14.54000 32.56800 42.82100
H  -13.40800 32.54000 43.99400
H  -9.04200 34.28300 39.81700
H  -5.68200 35.15200 42.61600
H  -5.23300 33.61300 41.64200
H  -5.98400 33.45900 43.18700

