158

Mg 0.42800 7.69700 26.58600
C  1.52300 9.85200 29.09300
C  0.69000 5.06600 28.77400
C  0.23100 5.48900 23.96700
C  0.79600 10.43800 24.26600
N  0.99700 7.57100 28.67400
C  1.14500 8.58100 29.57400
C  1.03500 8.10200 31.03300
C  1.22100 6.56700 30.80800
C  0.96300 6.31800 29.31300
C  2.62700 5.91900 31.25200
C  -0.30600 8.57500 31.72500
C  -0.38000 8.65600 33.21400
H  0.91600 8.47200 34.00400
N  0.22800 5.63300 26.43800
C  0.28800 4.69300 27.46300
C  -0.14900 3.44200 27.01400
C  -0.14400 3.51900 25.53600
C  0.13600 4.92900 25.25200
C  -0.43700 2.35900 28.00400
C  -0.23600 2.50200 24.50900
O  -0.24100 2.69000 23.32700
C  -0.28000 1.06100 24.98200
N  0.63900 7.93300 24.49000
C  0.51600 6.81300 23.57200
C  0.38700 7.22500 22.09200
C  0.21600 8.78600 22.26000
C  0.53500 9.15000 23.78000
C  1.60200 6.75100 21.27800
C  -1.22200 9.25600 21.93900
C  -1.53900 10.04500 20.65100
N  1.14400 9.69700 26.60200
C  1.06700 10.71300 25.64100
C  1.31200 11.98800 26.19900
C  1.59800 11.65300 27.55900
C  1.38400 10.32400 27.73500
C  1.26600 13.32600 25.55000
C  1.94700 12.26100 28.83600
O  2.25900 13.38400 29.13500
C  1.86600 11.10200 29.87100
C  3.15300 10.99700 30.62100
O  4.16300 10.33200 30.29600
O  3.15500 11.95200 31.59600
C  4.29700 11.70300 32.50300
H  0.82800 4.29700 29.53700
H  0.16300 4.83400 23.09500
H  0.59900 11.30900 23.63700
H  1.89900 8.58900 31.48700
H  0.53200 5.92400 31.35700
H  3.18700 5.54800 30.39300
H  2.54600 5.07900 31.94200
H  3.32700 6.70600 31.53500
H  -1.07200 7.85300 31.44100
H  -0.35200 9.61400 31.40100
H  -1.19700 7.97700 33.45700
H  -0.88600 9.60100 33.41800
H  -0.60900 2.68300 29.03000
H  0.24000 1.51000 27.91000
H  -1.35400 1.90500 27.62700
H  0.51000 0.83900 25.70000
H  -0.03900 0.42400 24.13100
H  -1.29900 0.98100 25.36100
H  -0.54500 6.75100 21.78600
H  0.95400 9.29400 21.63900
H  2.47900 6.67400 21.92000
H  1.83000 7.44200 20.46700
H  1.22900 5.82600 20.83700
H  -1.43800 10.05600 22.64700
H  -1.89100 8.39500 21.91600
H  -0.78400 9.72100 19.93400
H  -1.59500 11.12200 20.81200
H  -2.50600 9.75000 20.24500
H  0.49900 13.35500 24.77600
H  2.22000 13.40000 25.02900
H  1.09400 14.08100 26.31700
H  1.08600 11.34100 30.59300
H  4.25900 10.65600 32.80600
H  4.22400 12.37700 33.35600
H  5.25800 11.95200 32.05200
Mg 9.34400 48.13000 26.55800
C  7.49000 48.29300 29.62100
C  12.03600 49.53700 28.33200
C  11.11100 48.24600 23.76300
C  6.37400 47.64800 24.91600
N  9.64600 48.78400 28.72700
C  8.76100 48.72300 29.78900
C  9.54600 49.27600 31.11300
C  10.78500 50.04200 30.51800
C  10.83400 49.40100 29.08400
C  10.59600 51.64600 30.56700
C  9.92900 48.08900 32.00900
C  9.71600 48.07900 33.56700
H  9.82800 46.84900 34.44500
N  11.37200 48.61000 26.15300
C  12.35800 49.11000 26.97200
C  13.60500 49.05200 26.37800
C  13.34000 48.58300 25.04000
C  11.88800 48.52100 24.90300
C  14.84300 49.31300 27.08600
C  14.37900 48.16100 23.93100
O  14.00300 47.96100 22.75400
C  15.80500 48.09300 24.31400
N  8.83000 48.10900 24.66200
C  9.73600 48.19700 23.61600
C  9.09200 48.01200 22.23000
C  7.65900 47.55900 22.59900
C  7.60900 47.80000 24.14400
C  9.12700 49.32200 21.41300
C  7.43600 46.08700 22.25100
C  7.71300 44.99300 23.30600
N  7.29800 47.99100 27.12800
C  6.23900 47.77400 26.29900
C  5.04000 47.75400 27.09100
C  5.49100 47.82500 28.42500
C  6.88100 47.98900 28.42100
C  3.67000 47.35200 26.70600
C  5.15900 47.82200 29.76300
O  4.06700 47.93900 30.29100
C  6.47700 47.99300 30.63000
C  6.58400 46.74400 31.38700
O  6.97200 45.68000 30.93500
O  6.28600 46.96300 32.69300
C  6.20800 45.72300 33.55700
H  12.89200 49.95900 28.86200
H  11.62800 48.18400 22.80300
H  5.55700 47.47300 24.21200
H  8.82600 49.92300 31.61300
H  11.70000 49.70600 31.00600
H  9.77600 52.05200 31.16000
H  10.27700 51.81100 29.53800
H  11.41600 52.17700 31.05000
H  11.00500 47.91800 32.04600
H  9.47500 47.18300 31.60600
H  8.65700 48.33700 33.56700
H  10.37400 48.83400 33.99800
H  15.54300 48.51600 26.83600
H  14.89600 49.42800 28.16800
H  15.26400 50.24300 26.70300
H  16.29200 47.56500 23.49400
H  15.84000 47.35000 25.11100
H  16.15700 49.06200 24.66700
H  9.63000 47.26100 21.65200
H  6.96300 48.20500 22.06300
H  10.13500 49.43800 21.01300
H  8.76500 50.23400 21.88800
H  8.60700 49.19700 20.46300
H  7.90300 45.79400 21.31100
H  6.39400 45.99800 21.94600
H  6.83200 44.88900 23.93900
H  8.52400 45.32400 23.95400
H  7.98700 44.03100 22.87500
H  3.46600 47.33200 25.63500
H  2.88400 47.88000 27.24700
H  3.63300 46.31700 27.04400
H  6.44600 48.84300 31.31100
H  5.81600 45.95000 34.54900
H  7.19900 45.31300 33.75400
H  5.59500 44.98300 33.04200

