158

Mg 9.21400 3.26800 27.29500
C  10.58000 1.83100 30.15800
C  7.92500 5.75800 29.27500
C  7.67500 4.52600 24.60400
C  10.46900 0.77600 25.43800
N  9.14500 3.68000 29.56300
C  9.78400 2.90800 30.54000
C  9.53100 3.60000 31.93000
C  8.78500 4.91900 31.50200
C  8.56700 4.77600 30.06200
C  7.55800 5.35600 32.36300
C  10.90100 3.84400 32.66800
C  10.81000 4.80400 33.81200
H  11.55000 4.54200 35.10900
N  8.06700 4.95100 26.99400
C  7.62900 5.86600 27.92600
C  6.70000 6.77200 27.32200
C  6.49900 6.29500 25.98000
C  7.40900 5.19100 25.79500
C  6.15700 8.00900 27.96800
C  5.53000 6.87300 25.00500
O  5.38300 6.39100 23.85700
C  4.76100 8.11300 25.26400
N  9.28200 2.92000 25.27000
C  8.50600 3.48600 24.36800
C  8.61600 2.82100 22.95500
C  9.75400 1.80700 23.21200
C  9.85500 1.80800 24.72000
C  7.36300 2.18600 22.37200
C  11.05200 2.10000 22.47200
C  10.96000 1.76000 20.96700
N  10.41600 1.67700 27.67000
C  10.75100 0.69400 26.80100
C  11.43800 -0.43000 27.49200
C  11.45900 0.02000 28.83300
C  10.84200 1.31200 28.88200
C  12.08300 -1.53200 26.78000
C  11.82800 -0.27800 30.18800
O  12.50700 -1.22800 30.64200
C  11.35300 0.87400 31.09100
C  10.62300 0.34800 32.29000
O  9.47700 -0.12300 32.22300
O  11.38600 0.39300 33.43000
C  10.68600 -0.11500 34.63400
H  7.67200 6.63200 29.87800
H  7.05900 4.78000 23.73900
H  10.89700 0.03900 24.75500
H  8.85800 2.96700 32.50800
H  9.44300 5.78800 31.53700
H  7.18800 6.34000 32.07200
H  7.69000 5.32800 33.44500
H  6.72400 4.69300 32.13400
H  11.68300 4.23400 32.01600
H  11.22800 2.93400 33.17100
H  9.79800 4.97100 34.18000
H  11.32500 5.68500 33.42900
H  6.15600 8.84300 27.26600
H  6.86100 8.34800 28.72800
H  5.14000 7.77600 28.28300
H  4.01900 8.04300 24.46800
H  5.40000 8.99400 25.20200
H  4.32400 8.01400 26.25700
H  8.88000 3.62200 22.26400
H  9.41200 0.80300 22.96400
H  6.58100 2.24900 23.12900
H  7.40200 1.18500 21.94300
H  7.02100 2.83000 21.56200
H  11.78100 1.42500 22.92100
H  11.18800 3.16900 22.63800
H  10.10800 1.09000 20.84200
H  11.94200 1.35500 20.72700
H  10.72000 2.53100 20.23600
H  11.37600 -2.36200 26.77200
H  12.98400 -1.85600 27.30000
H  12.30000 -1.28200 25.74200
H  12.30400 1.23600 31.48400
H  10.18300 0.70900 35.14000
H  11.41700 -0.52400 35.33100
H  9.94700 -0.89300 34.44300
Mg 25.97800 52.55200 26.21500
C  23.92000 53.19900 29.00200
C  28.52900 51.91200 28.26200
C  27.92500 52.33500 23.57800
C  23.41400 53.84800 24.23600
N  26.18200 52.58200 28.40700
C  25.17000 52.71300 29.41600
C  25.81500 52.38600 30.83100
C  27.29400 51.99500 30.43900
C  27.31900 52.11200 28.92300
C  28.27900 52.81200 31.19700
C  25.18400 51.25200 31.63300
C  24.47000 51.59400 32.93200
H  25.21400 52.12600 34.14200
N  27.92200 52.06700 25.96000
C  28.83100 51.83300 26.91600
C  30.14100 51.55500 26.34600
C  30.03600 51.75100 24.97100
C  28.56500 52.06900 24.78600
C  31.36000 51.11000 27.11900
C  31.11900 51.61800 23.88400
O  30.85900 51.95500 22.73500
C  32.53100 51.26600 24.33100
N  25.66200 52.89100 24.10700
C  26.61100 52.68400 23.22400
C  26.20400 53.14700 21.71800
C  24.68900 53.47700 21.95900
C  24.51000 53.41300 23.54700
C  27.12000 54.21700 21.05300
C  23.62700 52.59600 21.29300
C  23.65700 52.72000 19.70300
N  23.97000 53.28800 26.51300
C  23.10600 53.79300 25.59700
C  21.87300 54.13100 26.27200
C  22.12800 53.93500 27.60500
C  23.41900 53.43400 27.70600
C  20.54300 54.55400 25.57500
C  21.54200 54.02900 28.98500
O  20.36800 54.31600 29.35700
C  22.72700 53.57200 29.88500
C  23.09900 54.78900 30.78400
O  23.85100 55.66900 30.42700
O  22.44100 54.66800 31.94600
C  22.30000 55.98300 32.58300
H  29.28900 51.61900 28.98900
H  28.59400 52.37000 22.71600
H  22.65900 54.26800 23.56800
H  25.83200 53.28500 31.44700
H  27.40400 50.92700 30.62400
H  27.83900 53.22600 32.10500
H  28.54000 53.67200 30.57900
H  29.05500 52.10400 31.48900
H  25.95500 50.56000 31.97200
H  24.44500 50.73500 31.02000
H  23.82000 50.76000 33.19800
H  23.77200 52.38200 32.64900
H  31.27400 51.05300 28.20400
H  32.12000 51.88400 27.01600
H  31.81400 50.14800 26.88100
H  32.92700 52.18100 24.77100
H  33.04400 51.12400 23.38000
H  32.66000 50.39300 24.97100
H  26.27700 52.26400 21.08200
H  24.49500 54.46300 21.53600
H  27.75500 54.72300 21.78000
H  26.42900 54.99100 20.71600
H  27.68000 53.80200 20.21500
H  22.64100 52.84200 21.68500
H  23.91100 51.61800 21.68200
H  24.50100 53.37800 19.49500
H  22.75700 53.24900 19.38800
H  23.84300 51.76600 19.20900
H  19.89000 53.74200 25.25600
H  20.77200 55.14700 24.69000
H  20.03200 55.16100 26.32300
H  22.60100 52.71700 30.54900
H  22.29800 56.77600 31.83500
H  23.12400 56.20800 33.26100
H  21.34200 55.90800 33.09600

