158

Mg 47.39200 44.96200 43.28800
C  43.90800 44.30500 43.47200
C  47.91900 41.70500 42.78100
C  50.62200 45.71600 42.94100
C  46.50900 48.36500 43.01300
N  46.03800 43.14300 43.26000
C  44.66300 43.08900 43.37300
C  44.16200 41.59400 43.21100
C  45.60300 40.81900 43.25100
C  46.61700 41.96300 43.10700
C  45.88700 39.88700 44.52600
C  43.30400 41.17200 41.95100
C  43.64000 41.99400 40.69200
H  43.11700 41.47600 39.31200
N  49.07900 43.84700 42.97300
C  49.07800 42.47800 42.85900
C  50.47000 41.94700 42.71000
C  51.30100 43.13300 42.83300
C  50.38800 44.33000 43.00000
C  50.76500 40.37300 42.66800
C  52.77900 43.17100 42.77800
O  53.40300 42.12100 42.57000
C  53.59700 44.35900 43.01300
N  48.40800 46.70900 42.97900
C  49.76800 46.81500 43.03100
C  50.20400 48.31500 43.03900
C  48.90900 49.13600 42.80300
C  47.87300 48.02100 42.87300
C  51.01600 48.67500 44.28600
C  48.67700 49.87200 41.38700
C  48.40700 51.36800 41.60200
N  45.62600 46.18200 43.20800
C  45.42900 47.55200 43.09500
C  44.02200 47.86200 43.07300
C  43.41700 46.62700 43.27400
C  44.39000 45.64800 43.33900
C  43.35400 49.18900 42.81500
C  42.09400 45.99300 43.49200
O  40.96400 46.43300 43.56800
C  42.41300 44.42300 43.55600
C  41.96800 44.04500 44.87900
O  42.47100 44.40000 45.90100
O  41.01700 42.97800 44.80200
C  40.70000 42.38400 46.11000
H  48.08200 40.64000 42.60300
H  51.63300 46.12300 42.88600
H  46.27700 49.43100 42.99500
H  43.67000 41.42500 44.16900
H  45.73000 40.13000 42.41600
H  44.90500 39.82600 44.99500
H  46.62700 40.38800 45.15000
H  46.25400 38.88700 44.29400
H  42.24600 41.29300 42.18300
H  43.41000 40.09400 41.82300
H  44.71900 42.14400 40.66300
H  43.13800 42.95100 40.83300
H  51.80100 40.12900 42.90500
H  50.74400 39.87200 41.70000
H  50.00600 39.90600 43.29500
H  53.33900 45.28500 42.49900
H  54.61800 44.07500 42.75900
H  53.66200 44.50300 44.09100
H  50.91900 48.43100 42.22500
H  48.72800 49.74900 43.68600
H  51.62500 49.54300 44.03000
H  51.69900 47.89300 44.61800
H  50.34600 48.94300 45.10300
H  47.89400 49.37200 40.81700
H  49.61100 49.76800 40.83400
H  49.18000 51.93400 41.08200
H  48.35100 51.66800 42.64800
H  47.38500 51.48200 41.24300
H  42.36500 49.13400 43.27000
H  43.22200 49.35000 41.74500
H  43.91300 50.05600 43.16800
H  41.94100 43.91500 42.71500
H  41.56200 42.13700 46.73100
H  40.24100 41.43100 45.84700
H  40.03800 42.95300 46.76200
Mg 47.18000 34.62400 27.39600
C  45.68000 33.36000 30.47900
C  48.12200 37.47300 29.35400
C  48.58700 35.83100 24.66300
C  45.89700 31.99200 25.77500
N  47.14400 35.17300 29.78900
C  46.36200 34.59500 30.77100
C  46.51600 35.33900 32.08300
C  47.03500 36.74500 31.62800
C  47.49700 36.48000 30.16200
C  46.14100 38.02000 31.87500
C  47.52300 34.62400 33.08700
C  47.17700 34.73700 34.61800
H  46.77600 36.09200 35.11000
N  48.16200 36.42200 27.01100
C  48.47100 37.43800 27.91800
C  49.23100 38.41000 27.23600
C  49.45600 37.94300 25.91300
C  48.72800 36.66200 25.84200
C  49.77900 39.73800 27.87900
C  50.20300 38.51900 24.77600
O  50.34500 38.00900 23.66500
C  50.84200 39.92800 24.88000
N  47.09900 34.02500 25.41400
C  47.81500 34.66800 24.40600
C  47.85900 33.84500 23.13500
C  46.96300 32.59600 23.47800
C  46.63000 32.83100 24.99400
C  47.49700 34.73100 21.93400
C  47.68800 31.28700 23.39300
C  46.87300 30.06700 22.89300
N  46.12000 32.96600 27.91200
C  45.69600 31.96300 27.15300
C  44.95300 30.95000 27.91000
C  44.86900 31.48900 29.16800
C  45.65000 32.68000 29.18700
C  44.37600 29.65800 27.32000
C  44.42000 31.26800 30.54700
O  43.80800 30.35500 31.02800
C  44.60500 32.63100 31.30200
C  44.87600 32.37100 32.69400
O  45.79800 31.80100 33.14300
O  43.77100 32.90800 33.40700
C  43.55900 32.27500 34.71600
H  48.37800 38.39200 29.88500
H  49.24000 36.02500 23.80900
H  45.40700 31.20300 25.20100
H  45.54100 35.41800 32.56400
H  47.97900 37.04100 32.08600
H  45.61700 38.29500 30.95900
H  46.66700 38.91700 32.19900
H  45.46500 37.77800 32.69500
H  48.58300 34.83300 32.94500
H  47.51900 33.58400 32.76100
H  48.06000 34.54400 35.22800
H  46.28600 34.14600 34.82700
H  49.43100 39.70100 28.91100
H  49.38300 40.63300 27.40000
H  50.85700 39.81100 28.02200
H  51.64000 39.83200 25.61600
H  50.15200 40.73700 25.12100
H  51.19800 40.21200 23.89000
H  48.87700 33.52200 22.91800
H  46.05700 32.63000 22.87300
H  48.41100 34.97800 21.39500
H  47.04300 35.68400 22.20400
H  46.85500 34.19900 21.23100
H  47.99800 30.96800 24.38800
H  48.54600 31.45800 22.74300
H  47.48900 29.39300 22.29800
H  45.95000 30.32300 22.37400
H  46.53500 29.36600 23.65700
H  44.17000 29.07400 28.21700
H  45.12900 29.10500 26.75900
H  43.50700 29.77800 26.67300
H  43.68200 33.20600 31.23500
H  43.89000 31.23800 34.65700
H  42.49300 32.25000 34.94200
H  44.01600 32.85600 35.51700

