158

Mg 34.25200 3.60400 30.08300
C  31.92200 4.56300 32.54900
C  36.64100 3.63400 32.46000
C  36.38700 2.69000 27.74300
C  31.52800 3.53400 27.64600
N  34.29100 4.12700 32.17300
C  33.19900 4.43700 33.02600
C  33.58300 4.39300 34.50600
C  35.11600 4.69700 34.35400
C  35.39800 4.06300 32.92400
C  35.51800 6.11300 34.28800
C  33.26500 2.99300 35.12000
C  32.94600 3.00300 36.65500
H  33.53300 4.14800 37.50100
N  36.24000 3.09700 30.15100
C  37.05200 3.20500 31.22900
C  38.34700 2.81500 30.86000
C  38.27100 2.41700 29.47600
C  36.92400 2.76900 29.01800
C  39.47300 2.62000 31.90100
C  39.39300 1.75600 28.63500
O  39.29800 1.62500 27.39900
C  40.75400 1.51300 29.23700
N  34.03300 3.31700 27.93700
C  35.09000 2.91800 27.21000
C  34.67500 2.55500 25.75400
C  33.15300 2.53000 25.83700
C  32.83500 3.17100 27.20400
C  35.17100 3.69500 24.77700
C  32.56600 1.07300 25.76600
C  31.86000 0.86700 24.41500
N  32.23100 3.95700 29.99200
C  31.23800 3.90700 28.97200
C  29.91500 4.22300 29.56700
C  30.15500 4.56600 30.84000
C  31.56000 4.30700 31.14600
C  28.57600 4.23400 28.88600
C  29.51000 4.95600 32.07000
O  28.31500 5.28100 32.18000
C  30.58900 5.06100 33.20500
C  30.64000 6.36800 33.86200
O  31.16700 7.36000 33.37000
O  30.19600 6.19700 35.13100
C  30.49400 7.22700 36.09800
H  37.35400 3.74300 33.28100
H  37.07400 2.43700 26.93300
H  30.70500 3.48500 26.92900
H  33.07500 5.10500 35.15700
H  35.63400 4.18400 35.16400
H  35.93800 6.39700 35.25400
H  34.67100 6.79800 34.26300
H  36.17000 6.38700 33.45900
H  34.06000 2.25600 35.00300
H  32.30100 2.60800 34.78600
H  33.38500 2.11100 37.10200
H  31.88900 2.93400 36.91200
H  40.51800 2.60000 31.59100
H  39.37100 1.72000 32.50700
H  39.46800 3.58700 32.40500
H  40.78600 0.80100 30.06100
H  41.31700 2.36700 29.61300
H  41.40700 1.05300 28.49500
H  35.16300 1.64400 25.40900
H  32.71200 3.19200 25.09200
H  35.47600 4.58400 25.33000
H  34.45400 3.99000 24.01100
H  36.03500 3.30200 24.24100
H  31.87600 0.80600 26.56600
H  33.45100 0.44400 25.85200
H  30.93500 0.34200 24.65200
H  32.50300 0.23400 23.80400
H  31.62500 1.74200 23.80900
H  28.59600 3.91600 27.84400
H  28.15100 5.23800 28.91100
H  27.92200 3.61800 29.50400
H  30.18600 4.40100 33.97300
H  30.81300 6.87700 37.08000
H  29.57400 7.74700 36.36500
H  31.19800 7.97200 35.72600
Mg 4.70800 55.40400 40.52200
C  3.52100 52.09100 40.67800
C  7.57600 54.34400 38.89400
C  5.67400 58.56300 40.06400
C  1.58400 56.50200 41.81300
N  5.30100 53.40800 39.67200
C  4.74300 52.20900 39.92300
C  5.42500 51.11400 39.08600
C  6.81400 51.77900 38.95200
C  6.57900 53.32200 39.15600
C  7.98600 51.23100 39.88300
C  4.56700 50.91100 37.77200
C  4.55200 49.50500 37.06000
H  5.18500 49.35800 35.63300
N  6.51500 56.31400 39.75200
C  7.61900 55.67200 39.26100
C  8.64900 56.62200 39.07200
C  8.06600 57.93600 39.20600
C  6.71400 57.65100 39.72100
C  10.02800 56.34200 38.50300
C  8.66900 59.24400 38.99300
O  9.78800 59.33900 38.50800
C  8.07500 60.55400 39.43000
N  3.66800 57.26500 40.72300
C  4.37000 58.40900 40.61600
C  3.54000 59.65100 41.14200
C  2.22000 58.94100 41.47500
C  2.50000 57.47700 41.40500
C  4.27300 60.39900 42.28500
C  1.06200 59.28600 40.46500
C  -0.26500 59.83700 41.08900
N  2.80900 54.53000 41.03100
C  1.68900 55.07900 41.63000
C  0.88100 54.04600 42.06100
C  1.47500 52.81800 41.67200
C  2.71500 53.21800 41.12600
C  -0.43700 54.17700 42.75700
C  1.42700 51.38000 41.75900
O  0.51800 50.71600 42.22000
C  2.78700 50.84900 41.08300
C  2.49700 49.87900 40.03800
O  1.69200 50.07400 39.14200
O  3.19700 48.72400 40.31800
C  2.78700 47.53900 39.50800
H  8.48800 53.92600 38.46300
H  6.07200 59.57900 40.04400
H  0.72500 56.92900 42.33400
H  5.29900 50.28800 39.78600
H  7.19500 51.61500 37.94400
H  7.73600 50.29200 40.37700
H  8.28900 51.91100 40.67800
H  8.81300 51.06200 39.19300
H  5.00500 51.43900 36.92500
H  3.63100 51.45100 37.91000
H  3.53300 49.14000 36.93500
H  5.09700 48.75400 37.63300
H  10.12600 55.27000 38.32900
H  10.79700 56.69700 39.19000
H  10.24900 56.88900 37.58700
H  8.78600 61.38000 39.39100
H  7.95400 60.62300 40.51100
H  7.13500 60.74700 38.91300
H  3.49100 60.41200 40.36300
H  1.95000 59.17200 42.50600
H  5.35400 60.26700 42.30900
H  3.75300 60.14900 43.21100
H  4.23100 61.47500 42.11900
H  0.80300 58.31900 40.03400
H  1.38100 59.97400 39.68200
H  -0.95400 59.76300 40.24800
H  -0.27300 60.86100 41.46300
H  -0.68800 59.29100 41.93300
H  -0.65400 55.21900 42.99100
H  -0.40800 53.55300 43.65000
H  -1.26200 53.83800 42.13100
H  3.42800 50.33200 41.79800
H  2.67100 47.80200 38.45600
H  1.80800 47.22600 39.87200
H  3.53100 46.75400 39.64700

