158

Mg 48.61000 35.89000 28.36500
C  46.71800 34.49100 30.86600
C  48.71000 38.93300 30.20400
C  49.86900 37.63400 25.63500
C  47.95400 33.11500 26.31700
N  47.96400 36.54700 30.29500
C  47.29600 35.73200 31.18400
C  47.45400 36.43100 32.60800
C  47.68800 37.96900 32.26100
C  48.16800 37.80900 30.79200
C  46.31300 38.70600 32.28300
C  48.55900 35.73500 33.45400
C  49.48500 36.63700 34.29100
H  48.80900 37.66100 35.28200
N  49.43800 37.94200 28.12700
C  49.24600 39.04400 28.94300
C  49.90400 40.19600 28.37200
C  50.18600 39.87000 26.96800
C  49.83000 38.42900 26.84700
C  50.18500 41.51300 29.14500
C  50.82300 40.68800 25.88000
O  50.81200 40.32400 24.71800
C  51.36500 42.02600 26.25100
N  48.90800 35.50300 26.33500
C  49.48700 36.32700 25.40400
C  49.59700 35.66400 24.02500
C  49.19900 34.19600 24.31500
C  48.61900 34.26000 25.74700
C  48.60700 36.22100 22.97000
C  50.36200 33.15500 24.30900
C  50.21700 32.01700 23.22400
N  47.71600 34.05300 28.51000
C  47.53900 33.03800 27.64300
C  46.81800 31.92200 28.29400
C  46.48400 32.48600 29.55600
C  46.99300 33.82100 29.62000
C  46.52900 30.49000 27.81300
C  45.76500 32.17100 30.71800
O  45.18000 31.15200 31.00600
C  45.76400 33.49200 31.62000
C  46.05100 33.09500 33.05500
O  46.99300 32.41400 33.41800
O  45.11600 33.62300 33.87700
C  45.00300 33.12100 35.24000
H  48.66300 39.85800 30.78300
H  50.17300 38.13500 24.71300
H  47.77700 32.31400 25.59600
H  46.45500 36.30000 33.02400
H  48.32600 38.49200 32.97300
H  46.53800 39.66500 32.75100
H  45.56700 38.14100 32.84200
H  45.93700 38.74700 31.26100
H  49.23100 35.14300 32.83300
H  48.15300 34.96000 34.10400
H  50.06500 37.14400 33.52000
H  50.11800 35.91400 34.80500
H  49.22400 41.96700 29.38700
H  50.76500 42.30700 28.67500
H  50.74000 41.18400 30.02400
H  51.74600 42.51100 25.35200
H  52.19800 41.81300 26.92100
H  50.57500 42.65500 26.66100
H  50.62300 35.83800 23.70200
H  48.30900 33.79800 23.82800
H  49.14000 36.91200 22.31600
H  47.74500 36.69600 23.43800
H  48.26500 35.44600 22.28400
H  50.43900 32.68600 25.29000
H  51.24700 33.75000 24.08400
H  50.06900 31.11200 23.81300
H  51.11500 31.86800 22.62500
H  49.41300 32.28500 22.53800
H  46.88600 30.50400 26.78300
H  45.49000 30.16200 27.76600
H  46.98300 29.71800 28.43400
H  44.76300 33.92500 31.61900
H  43.91900 33.05000 35.33100
H  45.45900 33.67600 36.06000
H  45.41600 32.11400 35.18600
Mg 7.43200 52.96300 40.98500
C  6.98400 49.51300 40.30800
C  10.58300 52.70400 39.40200
C  7.52500 56.26600 40.89100
C  4.00300 52.98900 41.89700
N  8.46300 51.36500 39.90300
C  8.17100 50.00800 39.72400
C  9.31000 49.23700 39.00900
C  10.50400 50.14300 39.38400
C  9.82500 51.59500 39.55800
C  11.35600 49.83700 40.64300
C  8.97200 49.23300 37.44500
C  9.10600 47.88500 36.73600
H  8.19200 47.68300 35.47200
N  8.91100 54.34800 40.34500
C  10.15000 53.97300 39.83200
C  10.80700 55.23900 39.58300
C  10.01300 56.33300 39.97500
C  8.77400 55.72400 40.49600
C  12.13500 55.22500 38.91100
C  10.39300 57.80700 39.80600
O  11.50600 58.15800 39.45500
C  9.42600 58.87800 40.14700
N  5.88100 54.37100 41.02100
C  6.25900 55.65200 41.19000
C  5.06400 56.57000 41.73900
C  4.03900 55.48400 42.13100
C  4.65200 54.23100 41.64800
C  5.59300 57.53400 42.84900
C  2.59700 55.72200 41.58500
C  1.35700 55.36000 42.47800
N  5.85500 51.53200 41.14800
C  4.53400 51.71300 41.59800
C  3.93700 50.46900 41.73700
C  4.85400 49.48500 41.20500
C  5.99300 50.21400 40.85500
C  2.55200 50.35700 42.14700
C  5.11400 48.02500 40.93300
O  4.38100 47.00700 41.14800
C  6.59800 47.97800 40.41800
C  6.62400 47.17500 39.19900
O  6.36900 47.49400 38.02600
O  6.97900 45.90500 39.51700
C  6.76000 44.81400 38.56700
H  11.56100 52.66100 38.91800
H  7.43900 57.32300 41.15000
H  2.97500 52.97200 42.26400
H  9.33300 48.24000 39.45100
H  11.22500 50.11900 38.56700
H  10.83200 49.20400 41.35800
H  11.55200 50.70000 41.28000
H  12.29500 49.38200 40.32800
H  9.61000 49.87200 36.83500
H  7.96000 49.61900 37.32200
H  8.99600 47.05000 37.42900
H  10.11000 47.98000 36.32300
H  11.94700 55.23700 37.83800
H  12.71700 54.33900 39.16500
H  12.81100 56.03200 39.19600
H  9.06400 58.69900 41.15900
H  8.55000 58.78600 39.50600
H  9.88800 59.82800 39.87700
H  4.79600 57.06600 40.80700
H  3.97600 55.45800 43.21900
H  6.66200 57.48700 43.05500
H  4.98700 57.41400 43.74700
H  5.41400 58.56600 42.54700
H  2.47800 55.32000 40.57900
H  2.52500 56.80700 41.50200
H  0.89800 56.27600 42.85000
H  1.57800 54.68700 43.30600
H  0.54200 54.91700 41.90700
H  1.89900 50.85700 41.43200
H  2.38400 50.96300 43.03700
H  2.26700 49.30500 42.17200
H  7.24800 47.43700 41.10600
H  7.22600 45.16400 37.64600
H  5.72800 44.46700 38.51300
H  7.40900 43.99800 38.88600

