158

Mg 47.75600 25.08100 28.20300
C  48.96700 27.28600 30.74600
C  46.79800 22.96100 30.62600
C  47.27000 22.86300 25.71600
C  49.17800 27.30200 25.80300
N  47.93400 25.07800 30.45800
C  48.25600 26.19800 31.27600
C  47.97600 25.91200 32.69400
C  47.43800 24.48200 32.73600
C  47.30200 24.18000 31.23800
C  48.28200 23.36800 33.41400
C  47.00300 27.06300 33.26500
C  46.15100 26.76900 34.48400
H  45.95400 27.80800 35.59000
N  47.19800 23.22200 28.17500
C  46.85300 22.47200 29.29500
C  46.39800 21.15700 28.92200
C  46.60200 21.08300 27.49700
C  47.08000 22.44300 27.04600
C  45.73600 20.15100 29.88300
C  46.18300 19.96600 26.54100
O  46.57000 19.92900 25.40200
C  45.28400 18.87200 27.01400
N  48.16900 25.08700 26.06900
C  47.88800 24.05000 25.28900
C  48.26200 24.26600 23.80000
C  48.67900 25.79600 23.80200
C  48.72200 26.10100 25.30300
C  49.32100 23.29200 23.17000
C  47.78200 26.76600 23.04700
C  48.33200 28.00900 22.41400
N  48.81800 26.90600 28.19100
C  49.35300 27.64000 27.17900
C  49.98200 28.76200 27.73900
C  49.90800 28.70600 29.13700
C  49.18000 27.50600 29.35000
C  50.58800 29.84700 26.94400
C  50.23300 29.36100 30.38700
O  50.83300 30.44700 30.52400
C  49.60900 28.45100 31.47600
C  50.63600 28.16100 32.48300
O  51.29900 27.17300 32.39100
O  50.72000 29.11600 33.38700
C  51.84100 28.83000 34.31000
H  46.37600 22.42000 31.47500
H  47.10400 22.18300 24.87800
H  49.72100 28.05000 25.22100
H  48.94700 25.95400 33.18800
H  46.43400 24.37500 33.14800
H  47.69900 22.70100 34.04900
H  48.99000 23.84700 34.09000
H  48.68900 22.72600 32.63300
H  46.29600 27.39100 32.50300
H  47.78500 27.77800 33.52200
H  46.44900 25.86200 35.01000
H  45.17500 26.57600 34.04000
H  46.41500 19.31300 30.03800
H  44.80600 19.72800 29.50300
H  45.58100 20.60900 30.86000
H  45.73500 18.24300 27.78100
H  45.05300 18.22200 26.17000
H  44.30600 19.20900 27.35600
H  47.34500 24.31400 23.21300
H  49.68800 25.89400 23.40200
H  49.82600 22.68900 23.92400
H  50.08600 23.76800 22.55600
H  48.73500 22.63400 22.52900
H  47.04000 27.12200 23.76300
H  47.32000 26.14400 22.28000
H  47.76700 28.15900 21.49400
H  49.40100 27.95800 22.20900
H  48.19200 28.86100 23.07900
H  49.86700 30.13700 26.17900
H  51.45400 29.38800 26.46800
H  50.83900 30.64900 27.63700
H  49.00700 29.12600 32.08400
H  52.78400 28.84600 33.76300
H  51.77100 27.97900 34.98700
H  51.88800 29.74700 34.89700
Mg 5.67200 53.12800 41.76300
C  5.83400 49.76300 40.66400
C  8.59000 53.63300 40.15400
C  5.28800 56.36000 42.27900
C  2.47900 52.55800 42.95800
N  6.88600 51.87800 40.34400
C  6.78900 50.55200 40.07700
C  7.84800 50.08000 39.08800
C  8.96700 51.11600 39.47900
C  8.09800 52.31300 39.99900
C  9.98500 50.55400 40.49200
C  7.33300 50.29500 37.63600
C  7.81300 49.22000 36.71800
H  6.83300 48.75200 35.55700
N  6.85300 54.81500 41.28100
C  8.06800 54.80500 40.73100
C  8.68200 56.08200 40.90200
C  7.70200 56.91400 41.41200
C  6.51100 56.03500 41.70000
C  9.97300 56.46400 40.38200
C  7.85100 58.42500 41.57400
O  8.84900 59.01000 41.17000
C  6.80300 59.25000 42.05400
N  3.96700 54.33200 42.25900
C  4.18900 55.62600 42.56100
C  2.96200 56.25100 43.22500
C  1.92800 55.01100 43.20200
C  2.87900 53.87100 42.87200
C  3.10900 56.72500 44.71600
C  0.72500 55.19100 42.20100
C  -0.67400 55.05200 42.88100
N  4.38300 51.47300 41.83500
C  3.19100 51.39400 42.54200
C  2.74300 49.97500 42.50100
C  3.80000 49.23200 41.84600
C  4.76700 50.21000 41.43900
C  1.46800 49.41300 43.10300
C  4.38200 47.92300 41.47400
O  3.89400 46.76600 41.60800
C  5.68600 48.22900 40.69700
C  5.57100 47.72600 39.38400
O  4.83900 48.13100 38.46900
O  6.44500 46.61400 39.34500
C  6.32400 45.75900 38.17200
H  9.65400 53.75600 39.94300
H  5.06400 57.39300 42.55300
H  1.50600 52.41100 43.43100
H  8.08300 49.04800 39.35000
H  9.60300 51.48100 38.67300
H  10.28400 51.38600 41.12900
H  10.81300 50.11000 39.93800
H  9.59700 49.67200 41.00200
H  7.79000 51.22600 37.30100
H  6.25900 50.40000 37.48300
H  7.98100 48.25600 37.19800
H  8.80600 49.40200 36.30600
H  9.82200 56.93500 39.41000
H  10.71000 55.66100 40.37800
H  10.48700 57.19600 41.00600
H  6.99400 60.32200 42.10100
H  6.64500 58.87000 43.06300
H  6.00700 59.08100 41.32900
H  2.61400 57.13800 42.69600
H  1.49200 54.98900 44.20100
H  3.97600 56.17700 45.08300
H  2.22200 56.42500 45.27400
H  3.41900 57.76900 44.68500
H  0.94200 54.65200 41.27800
H  0.67100 56.23800 41.90500
H  -0.77100 55.70100 43.75100
H  -0.90200 53.99600 43.02900
H  -1.37300 55.41000 42.12600
H  1.11200 48.55500 42.53300
H  0.73600 50.21700 43.17800
H  1.77200 49.11200 44.10600
H  6.60500 47.86500 41.15700
H  7.26500 45.61000 37.64200
H  5.60000 46.10200 37.43200
H  5.86700 44.85700 38.57700

