158

Mg 17.58400 52.25100 26.26200
C  19.63500 50.65200 28.44700
C  15.29800 52.71400 28.84300
C  15.43100 53.50200 24.06700
C  19.57700 51.00800 23.68400
N  17.57700 51.90600 28.34500
C  18.52200 51.21100 29.12300
C  18.17800 51.22900 30.59700
C  16.58600 51.38700 30.40300
C  16.52600 52.15200 29.15100
C  15.81900 50.00100 30.48900
C  18.84700 52.42800 31.25900
C  18.85200 52.40800 32.82600
H  17.90700 51.51000 33.67400
N  15.62000 53.11700 26.47200
C  14.85900 53.22200 27.60300
C  13.66000 54.02300 27.24700
C  13.70700 54.28400 25.83400
C  14.89700 53.57300 25.33900
C  12.66700 54.51200 28.30200
C  12.73300 55.06800 24.96500
O  12.95000 55.18600 23.80400
C  11.42800 55.45700 25.64000
N  17.68200 52.43100 24.14600
C  16.56300 52.91300 23.48200
C  16.78900 52.79300 21.93600
C  18.16800 52.13400 21.87200
C  18.52400 51.83100 23.31700
C  15.66000 52.01200 21.25300
C  19.27600 52.96000 21.08200
C  20.53500 53.55700 21.69700
N  19.28700 51.11500 26.08000
C  19.88600 50.63900 25.02400
C  21.06600 49.85600 25.39100
C  20.93000 49.76100 26.75000
C  19.89900 50.64400 27.08000
C  21.94300 49.04700 24.48600
C  21.46600 49.14500 27.94700
O  22.38000 48.40800 28.16800
C  20.70000 49.84100 29.05400
C  20.27300 48.86000 30.04600
O  19.67300 47.82100 29.80200
O  20.78500 49.09100 31.28700
C  20.52500 48.12400 32.40700
H  14.66600 52.90400 29.71300
H  14.74700 53.81400 23.27500
H  20.20700 50.77900 22.82200
H  18.53100 50.30400 31.05200
H  16.28200 51.97800 31.26700
H  15.61600 49.80600 29.43600
H  15.01400 50.06400 31.22100
H  16.36400 49.07300 30.66300
H  18.33300 53.35800 31.01400
H  19.87500 52.47600 30.90100
H  18.60100 53.38900 33.23000
H  19.86600 52.15200 33.13500
H  13.03400 54.15400 29.26400
H  11.68500 54.07500 28.11900
H  12.57100 55.59700 28.26700
H  11.68800 56.13500 26.45300
H  10.87900 54.56600 25.94200
H  10.91800 56.00800 24.85000
H  16.81300 53.82300 21.58200
H  18.05700 51.14400 21.43100
H  15.82000 50.98100 20.93600
H  15.48500 52.57300 20.33400
H  14.68700 52.14800 21.72300
H  18.77300 53.83900 20.67800
H  19.47900 52.27900 20.25500
H  20.65900 54.55100 21.26500
H  21.38800 52.91500 21.47800
H  20.51300 53.56000 22.78600
H  22.98900 49.17900 24.76200
H  21.92200 49.38400 23.44900
H  21.63200 48.00700 24.58300
H  21.43800 50.49800 29.51600
H  20.65600 47.08700 32.09600
H  19.54400 48.35200 32.82400
H  21.35700 48.43200 33.04000
Mg -5.30000 25.13300 26.04000
C  -4.03600 26.31000 28.93300
C  -7.35600 23.07400 27.69000
C  -6.34500 23.97500 23.09500
C  -3.00700 27.34800 24.32500
N  -5.71900 24.80800 28.10600
C  -5.10800 25.45600 29.17000
C  -5.63900 24.85600 30.53500
C  -6.49000 23.67200 30.06800
C  -6.55000 23.82800 28.50900
C  -6.13100 22.21400 30.44400
C  -6.46600 26.01100 31.23000
C  -6.31500 26.06000 32.79300
H  -5.72200 24.86900 33.59700
N  -6.66500 23.63300 25.43900
C  -7.46500 23.02100 26.26300
C  -8.41500 22.24700 25.51000
C  -8.13800 22.48100 24.14300
C  -6.97100 23.35600 24.16800
C  -9.39700 21.37800 26.17700
C  -8.85300 22.05400 22.90600
O  -8.48600 22.38300 21.76900
C  -10.08300 21.22500 23.06600
N  -4.74400 25.60500 23.95500
C  -5.32200 24.92600 22.91800
C  -4.60100 25.21200 21.64500
C  -3.72700 26.45000 21.98200
C  -3.77300 26.45000 23.52000
C  -3.81400 23.87400 21.07000
C  -4.24300 27.82000 21.36400
C  -3.11300 28.89500 21.06600
N  -3.78400 26.51200 26.45600
C  -2.93600 27.35700 25.73900
C  -2.05300 28.09000 26.59900
C  -2.48100 27.70600 27.86300
C  -3.50300 26.78300 27.72900
C  -0.98400 29.09200 26.30300
C  -2.20700 28.04800 29.28600
O  -1.40100 28.82200 29.85000
C  -3.29900 27.17700 29.99500
C  -2.55500 26.41700 30.96500
O  -2.04400 25.32300 30.76600
O  -2.61800 27.05400 32.18200
C  -1.85600 26.31400 33.16800
H  -7.94000 22.39500 28.31500
H  -6.62300 23.64000 22.09400
H  -2.45600 28.07000 23.71900
H  -4.88300 24.52800 31.24800
H  -7.53300 23.85600 30.32600
H  -5.51500 21.69000 29.71200
H  -7.10900 21.73400 30.48700
H  -5.73000 22.06600 31.44700
H  -7.52100 26.00500 30.95300
H  -5.99000 26.93100 30.89100
H  -7.29700 26.28100 33.21300
H  -5.59800 26.85200 33.00900
H  -9.73800 20.51400 25.60600
H  -10.19500 22.06900 26.44700
H  -8.99900 21.06200 27.14200
H  -9.69600 20.30800 23.51100
H  -10.45800 20.92800 22.08600
H  -10.69600 21.73600 23.80700
H  -5.28900 25.52100 20.85800
H  -2.68600 26.32300 21.68200
H  -2.96600 23.60500 21.70000
H  -3.36400 24.01600 20.08800
H  -4.39200 22.96300 21.22800
H  -4.96300 28.19500 22.09200
H  -4.86800 27.61700 20.49500
H  -3.48100 29.82300 21.50600
H  -2.98300 29.10800 20.00500
H  -2.14700 28.68600 21.52400
H  -0.57600 29.10100 25.29200
H  -0.11700 29.06000 26.96300
H  -1.49500 30.03400 26.50600
H  -3.90400 27.92000 30.51400
H  -2.34600 25.39200 33.48300
H  -1.71100 26.99400 34.00700
H  -0.84000 26.15300 32.80700

