158

Mg -2.33500 17.42800 27.08800
C  -2.45800 15.27300 29.84300
C  -2.82100 20.07800 29.14300
C  -2.45900 19.43500 24.31600
C  -2.26200 14.73300 24.91400
N  -2.74600 17.65900 29.30700
C  -2.50700 16.63100 30.23400
C  -2.51500 17.17200 31.72700
C  -2.89500 18.65900 31.40100
C  -2.81800 18.79500 29.87900
C  -4.07800 19.36100 32.11200
C  -1.16200 16.98200 32.53700
C  -0.99300 17.80100 33.82800
H  -0.89700 17.08600 35.18500
N  -2.43400 19.44400 26.81500
C  -2.64500 20.42000 27.79800
C  -2.60100 21.73300 27.26100
C  -2.43200 21.54100 25.81600
C  -2.38300 20.08900 25.60100
C  -2.65500 22.93000 28.07800
C  -2.33200 22.64900 24.79400
O  -2.04100 22.40500 23.62700
C  -2.31500 24.18200 25.21500
N  -2.53700 17.10500 24.97000
C  -2.49000 18.11300 24.03800
C  -2.55300 17.51500 22.62500
C  -2.09900 16.02900 22.79900
C  -2.43900 15.94500 24.28600
C  -4.00200 17.68300 21.98700
C  -0.61200 15.87200 22.34700
C  0.51500 15.32400 23.30900
N  -2.52500 15.36200 27.25200
C  -2.40800 14.36500 26.27900
C  -2.42300 13.07700 26.91800
C  -2.54800 13.37200 28.32700
C  -2.48500 14.74000 28.44400
C  -2.45100 11.88200 26.28900
C  -2.63600 12.81600 29.59800
O  -2.68700 11.64200 30.00800
C  -2.66900 14.00300 30.69200
C  -1.73300 13.65100 31.74200
O  -0.50400 13.70300 31.69500
O  -2.45800 13.19500 32.87000
C  -1.62800 12.33300 33.75800
H  -2.83600 20.86400 29.90100
H  -2.52000 20.09300 23.44700
H  -2.01800 13.91300 24.23600
H  -3.39000 16.74200 32.21400
H  -2.00800 19.22400 31.68800
H  -3.70300 20.19700 32.70300
H  -4.61400 18.62200 32.70800
H  -4.86100 19.66100 31.41400
H  -0.41400 17.38600 31.85500
H  -0.91300 15.96700 32.84700
H  -1.92000 18.36800 33.91300
H  -0.19200 18.52400 33.66900
H  -2.04300 23.76700 27.74000
H  -2.21600 22.71400 29.05200
H  -3.67600 23.30900 28.12400
H  -3.18300 24.39200 25.84000
H  -2.26300 24.72700 24.27300
H  -1.35400 24.29000 25.71900
H  -1.77300 18.00200 22.04000
H  -2.71700 15.32900 22.23600
H  -4.65600 18.25500 22.64500
H  -4.39800 16.74000 21.61200
H  -3.79800 18.22800 21.06500
H  -0.20000 16.78100 21.90900
H  -0.70700 15.10000 21.58400
H  0.07000 15.24700 24.30100
H  1.34900 16.02500 23.33400
H  0.92000 14.35900 23.00600
H  -2.25100 11.05600 26.97300
H  -1.70600 11.67700 25.52100
H  -3.36900 11.78800 25.70900
H  -3.65400 14.02000 31.16000
H  -1.11100 12.99800 34.44900
H  -0.91000 11.69600 33.24200
H  -2.34200 11.74400 34.33400
Mg 54.64500 23.64100 44.52200
C  52.33800 26.17200 43.40800
C  52.54000 21.33100 43.39900
C  57.03700 21.58800 45.02800
C  56.93600 26.39000 45.00300
N  52.79100 23.75500 43.30400
C  51.99700 24.85700 43.15100
C  50.67300 24.41300 42.58800
C  50.58700 22.94700 42.90800
C  52.05300 22.65600 43.17400
C  49.73800 22.56400 44.14300
C  50.44700 24.78400 41.04900
C  51.69900 24.67100 40.17300
H  51.50100 25.04100 38.64400
N  54.73400 21.68700 44.39600
C  53.78400 20.82100 43.86400
C  54.24100 19.44300 43.96000
C  55.57100 19.53000 44.48100
C  55.83200 20.97000 44.69500
C  53.40500 18.17100 43.58400
C  56.38900 18.30800 44.82000
O  56.15800 17.14800 44.30900
C  57.57600 18.36600 45.72900
N  56.72500 24.01400 44.84600
C  57.46000 22.92200 45.09900
C  58.97300 23.35300 45.30100
C  58.91900 24.88300 45.20200
C  57.45100 25.10200 45.04900
C  59.67000 22.86900 46.61800
C  59.72100 25.52000 44.04400
C  60.78200 26.64900 44.48600
N  54.62500 25.88500 44.32200
C  55.61100 26.84100 44.57200
C  55.15900 28.16300 44.19700
C  53.82300 27.98800 43.88800
C  53.55800 26.58300 43.89400
C  55.98800 29.34100 44.19400
C  52.58900 28.70100 43.56400
O  52.34600 29.88500 43.46300
C  51.53500 27.47200 43.26200
C  50.92600 27.81100 41.94200
O  51.49100 27.77400 40.86700
O  49.60100 28.20700 42.07900
C  48.84800 28.29700 40.88400
H  51.72700 20.63500 43.18400
H  57.77900 20.78900 45.09300
H  57.60600 27.25100 45.05500
H  49.99400 24.98600 43.22000
H  50.30100 22.38300 42.02000
H  49.38300 23.49100 44.59300
H  50.25100 21.97800 44.90500
H  48.90500 21.95800 43.78600
H  49.89400 25.71500 40.92800
H  49.80800 24.07200 40.52600
H  52.05300 23.64200 40.23600
H  52.50800 25.29900 40.54600
H  52.34300 18.41600 43.61400
H  53.56000 17.32900 44.25800
H  53.53900 17.84100 42.55400
H  57.41000 19.05800 46.55400
H  58.44500 18.65800 45.14000
H  57.76800 17.40500 46.20700
H  59.47200 22.92100 44.43300
H  59.12900 25.48900 46.08400
H  60.73400 22.85600 46.38300
H  59.34000 21.87000 46.90200
H  59.50100 23.54300 47.45800
H  59.09000 26.07100 43.34700
H  60.37300 24.76900 43.59700
H  61.23000 26.29000 45.41200
H  60.35000 27.63900 44.63300
H  61.48300 26.78400 43.66200
H  55.45300 30.09600 43.61900
H  56.93100 29.13200 43.68900
H  56.18600 29.77600 45.17400
H  50.91700 27.60900 44.14900
H  48.99600 27.46000 40.20200
H  49.15900 29.12400 40.24500
H  47.80000 28.09400 41.10400

