158

Mg 50.17600 45.66400 42.28100
C  47.06900 46.41400 40.77600
C  49.72500 42.40500 40.91400
C  53.47900 45.10200 42.42900
C  50.66900 49.06800 42.87700
N  48.48800 44.50000 41.00700
C  47.33300 45.07300 40.49200
C  46.53700 44.07000 39.66400
C  47.31100 42.70800 40.03800
C  48.64800 43.17600 40.68700
C  46.44900 41.79500 41.00100
C  46.51900 44.50500 38.23200
C  45.16400 44.39900 37.46900
H  45.17500 43.91200 36.00400
N  51.46200 43.98600 41.89600
C  51.06100 42.75500 41.42800
C  52.18100 41.89100 41.49400
C  53.27000 42.63600 42.02200
C  52.73600 43.94800 42.13900
C  52.18100 40.33100 41.21900
C  54.61700 42.06800 42.31100
O  54.96100 40.94500 41.97900
C  55.60900 42.92900 42.96900
N  51.83500 46.97000 42.67800
C  53.12300 46.44200 42.65500
C  54.19300 47.56900 42.87600
C  53.26400 48.83200 43.09600
C  51.83000 48.27700 42.92500
C  55.17000 47.27700 44.04300
C  53.65900 50.11000 42.23600
C  54.66800 51.03600 42.91600
N  49.11500 47.43100 41.97500
C  49.45200 48.72700 42.27100
C  48.32100 49.59500 41.90400
C  47.38300 48.73800 41.29500
C  47.90800 47.39100 41.37300
C  48.27700 51.00200 42.02500
C  46.20100 48.70300 40.54600
O  45.42800 49.58900 40.12100
C  45.95300 47.25400 40.31600
C  44.69700 46.84200 40.89800
O  44.52600 46.59200 42.08900
O  43.67600 46.75500 39.96100
C  42.39200 46.38700 40.45000
H  49.57100 41.35300 40.66600
H  54.56500 45.07900 42.31900
H  50.86700 50.12700 43.05100
H  45.53600 44.01100 40.09100
H  47.44700 42.00000 39.22000
H  46.52400 40.76700 40.64700
H  45.41900 42.14200 41.07600
H  46.84500 41.73700 42.01500
H  47.23300 43.86700 37.71200
H  46.90300 45.51900 38.11200
H  44.62500 45.34600 37.49600
H  44.60000 43.65600 38.03200
H  52.64000 40.27000 40.23300
H  51.17100 39.92900 41.13700
H  52.74000 39.71100 41.92000
H  56.42900 42.42000 43.47600
H  55.13000 43.53900 43.73500
H  55.97200 43.64600 42.23200
H  54.68300 47.61000 41.90300
H  53.22400 49.15500 44.13700
H  54.93600 47.75500 44.99400
H  56.21600 47.31900 43.73900
H  55.01800 46.22500 44.28600
H  52.79400 50.62300 41.81700
H  54.15100 49.72500 41.34200
H  54.31100 52.04800 43.10400
H  55.51700 51.23200 42.26100
H  55.14200 50.73500 43.85000
H  47.94000 51.35000 43.00200
H  47.61600 51.52300 41.33300
H  49.31000 51.24700 41.77600
H  45.72100 47.18000 39.25400
H  42.00400 47.06300 41.21100
H  42.27700 45.42300 40.94600
H  41.70500 46.40400 39.60400
Mg 36.18900 48.83200 25.06600
C  36.22800 47.56200 28.20500
C  34.68300 51.72700 26.29200
C  35.83300 49.91400 21.89900
C  37.43800 45.74700 23.92500
N  35.68800 49.61700 27.06200
C  35.79300 48.87600 28.26800
C  35.42000 49.73200 29.46600
C  34.99700 51.04200 28.82100
C  35.14300 50.85200 27.30900
C  33.58700 51.64800 29.18200
C  36.64300 49.77900 30.45900
C  36.33300 49.62700 31.93900
H  34.89400 49.84700 32.43500
N  35.41300 50.61000 24.20000
C  34.75200 51.67000 24.87400
C  34.22800 52.59400 23.87000
C  34.49000 52.01600 22.56600
C  35.29500 50.77600 22.87300
C  33.61000 53.81000 24.27100
C  34.03900 52.48000 21.24700
O  34.22700 51.82500 20.26700
C  33.29300 53.74800 21.15000
N  36.52800 47.99800 23.11400
C  36.42200 48.66200 21.95700
C  37.00100 47.83000 20.69500
C  37.65500 46.70100 21.52300
C  37.07300 46.75800 22.95500
C  35.98500 47.34800 19.60400
C  39.19600 46.69100 21.40900
C  39.70600 45.67900 20.42800
N  36.63100 46.97800 25.84800
C  37.18200 45.84000 25.31600
C  37.36700 44.81300 26.34500
C  36.95800 45.43900 27.44600
C  36.61300 46.76700 27.10800
C  37.85300 43.40500 26.13700
C  36.89400 45.21100 28.81200
O  37.27000 44.21900 29.44100
C  36.39800 46.58600 29.39600
C  35.12400 46.36100 30.14500
O  34.04000 46.44000 29.70700
O  35.44500 45.95900 31.36900
C  34.38200 45.82200 32.43100
H  34.09500 52.55300 26.69500
H  35.92700 50.22400 20.85600
H  37.87500 44.78800 23.64000
H  34.60000 49.25700 30.00400
H  35.61900 51.85200 29.20000
H  33.58600 52.71800 29.39300
H  33.18200 51.12400 30.04800
H  33.05100 51.28900 28.30300
H  37.20700 50.66600 30.17200
H  37.35200 48.98700 30.21500
H  37.03900 50.23600 32.50400
H  36.66100 48.63900 32.26200
H  33.86900 54.63200 23.60500
H  33.99800 54.15500 25.22900
H  32.53400 53.69000 24.39500
H  33.92300 54.63400 21.23500
H  32.46500 53.67500 21.85400
H  32.75400 53.85900 20.20900
H  37.70900 48.40500 20.09700
H  37.27600 45.73700 21.18500
H  36.25900 46.35100 19.25900
H  36.01300 48.05800 18.77700
H  35.01700 47.38800 20.10300
H  39.56500 46.47000 22.41000
H  39.55000 47.64100 21.00700
H  38.90600 45.17000 19.89100
H  40.26100 44.90500 20.96000
H  40.29400 46.17900 19.65900
H  38.94200 43.42000 26.10700
H  37.48500 42.91800 25.23400
H  37.57600 42.81600 27.01200
H  37.16800 46.84900 30.12000
H  33.39100 46.21400 32.20300
H  34.77200 46.35400 33.29800
H  34.32900 44.76500 32.69100

