158

Mg 30.46900 57.06400 39.27800
C  28.03700 54.74100 38.38100
C  32.73500 54.75200 38.07900
C  32.80100 59.47200 39.50500
C  28.07100 59.49600 40.06900
N  30.33000 55.04400 38.17800
C  29.27200 54.23500 38.11200
C  29.59500 52.85400 37.54100
C  31.12900 52.85100 37.62300
C  31.44000 54.31000 37.98200
C  31.68900 51.81100 38.62500
C  29.00300 52.39800 36.21200
C  29.41100 53.08200 34.93700
H  28.34400 53.89700 34.19200
N  32.55000 57.07600 38.85300
C  33.29900 56.00900 38.48200
C  34.71300 56.45600 38.42400
C  34.76200 57.75700 38.87200
C  33.35400 58.15200 39.10900
C  35.83700 55.53700 37.88300
C  36.09300 58.49700 39.03200
O  37.13700 57.91700 38.85000
C  36.14300 59.94000 39.43400
N  30.44100 59.29600 39.59200
C  31.56900 60.04200 39.78900
C  31.24200 61.51700 39.99800
C  29.70400 61.51000 40.18500
C  29.37500 59.98300 40.00500
C  32.17800 62.33500 40.89000
C  28.90600 62.49900 39.15500
C  27.96000 63.60400 39.85400
N  28.47000 57.18900 39.23900
C  27.61200 58.24100 39.66500
C  26.26800 57.78200 39.31500
C  26.37500 56.41400 38.99400
C  27.70200 56.10400 38.85700
C  24.96200 58.44000 39.44700
C  25.61900 55.24700 38.62000
O  24.39300 55.07600 38.63400
C  26.70200 54.13700 38.32500
C  26.35700 53.11300 39.35400
O  26.95600 52.80600 40.41900
O  25.25500 52.48200 38.91700
C  24.62900 51.42200 39.69900
H  33.41400 53.97500 37.72200
H  33.59100 60.19900 39.70300
H  27.29100 60.25500 40.16600
H  29.14300 52.29300 38.35900
H  31.55300 52.63500 36.64200
H  32.19200 51.18700 37.88600
H  30.90500 51.23100 39.11200
H  32.41900 52.35700 39.22300
H  27.92700 52.43600 36.38400
H  29.19400 51.32800 36.13200
H  29.89800 52.34400 34.29800
H  30.08600 53.85700 35.30000
H  36.45800 56.05800 37.15400
H  35.47200 54.62100 37.41600
H  36.58100 55.20800 38.60800
H  37.19300 60.22900 39.41300
H  35.62800 59.98000 40.39400
H  35.55600 60.50100 38.70700
H  31.54600 61.86100 39.00900
H  29.37100 61.80800 41.17900
H  32.90900 61.74700 41.44600
H  31.46200 62.82100 41.55200
H  32.67500 63.18600 40.42300
H  28.34500 62.11400 38.30300
H  29.68300 63.09400 38.67600
H  27.45200 63.12500 40.69100
H  27.22900 63.97600 39.13600
H  28.62700 64.43100 40.10000
H  25.05600 59.52100 39.54400
H  24.46000 58.06000 40.33700
H  24.43100 58.13200 38.54600
H  26.54300 53.68100 37.34800
H  24.45400 50.56900 39.04400
H  23.74500 51.82100 40.19800
H  25.32400 51.04800 40.45100
Mg 4.79500 54.17800 42.16100
C  4.87600 50.66500 41.08800
C  7.93800 54.36300 40.75400
C  4.33000 57.44100 41.93400
C  1.78200 53.62200 43.46700
N  6.17100 52.60900 41.02300
C  5.92100 51.36400 40.59500
C  7.06800 50.88900 39.63500
C  8.17400 51.82800 40.12600
C  7.34700 53.07400 40.57500
C  9.27300 51.33300 41.15600
C  6.60500 51.13100 38.16600
C  7.26200 50.08700 37.22800
H  6.39200 49.51400 36.12100
N  5.95300 55.69900 41.43100
C  7.26100 55.58000 41.01100
C  7.81300 56.91300 40.69700
C  6.71900 57.83000 40.78300
C  5.55100 57.02500 41.39300
C  9.22000 57.15900 40.11900
C  6.71500 59.33900 40.46600
O  7.71200 59.95700 40.01300
C  5.53500 60.22000 40.80600
N  3.19600 55.40700 42.47300
C  3.28700 56.74100 42.58100
C  2.17700 57.33900 43.32500
C  1.28100 56.06300 43.58500
C  2.17900 54.91600 43.20400
C  2.63300 58.09600 44.66600
C  -0.14600 56.05600 42.79400
C  -0.93500 57.38100 42.57300
N  3.55200 52.47800 42.37800
C  2.31800 52.44900 43.03000
C  1.90900 51.06400 43.07500
C  2.89600 50.29500 42.30700
C  3.84800 51.22300 41.88100
C  0.68300 50.64500 43.79700
C  3.19300 48.96800 41.77400
O  2.68800 47.89500 41.80600
C  4.56000 49.16400 41.06000
C  4.74800 48.45700 39.76800
O  4.41300 48.87900 38.68800
O  5.31400 47.22400 40.00900
C  5.71900 46.53200 38.75100
H  8.95100 54.48600 40.36600
H  4.03200 58.48600 41.82400
H  0.94800 53.48700 44.15900
H  7.38000 49.87000 39.86500
H  8.75400 52.12300 39.25100
H  9.56200 51.96900 41.99300
H  10.12300 51.11300 40.50900
H  8.98500 50.39000 41.61900
H  6.87600 52.14800 37.88500
H  5.51600 51.09200 38.14200
H  7.73800 49.30100 37.81300
H  8.08600 50.62400 36.76000
H  9.54900 58.19900 40.11100
H  9.27800 56.61500 39.17700
H  9.86100 56.65500 40.84200
H  5.67600 61.28200 40.60300
H  5.46600 60.21900 41.89400
H  4.66900 59.89600 40.23000
H  1.62700 57.97800 42.63300
H  1.08400 55.80600 44.62500
H  1.81100 58.10900 45.38200
H  2.95000 59.07800 44.31500
H  3.41100 57.53000 45.17900
H  -0.83900 55.39200 43.31100
H  0.09000 55.68200 41.79800
H  -0.64100 57.54800 41.53700
H  -0.44200 58.22600 43.05300
H  -2.01600 57.35200 42.71100
H  0.31000 49.68000 43.45400
H  -0.11300 51.37300 43.63900
H  0.91300 50.57100 44.86000
H  5.23400 48.68000 41.76700
H  6.01000 45.51700 39.02200
H  6.58300 47.07900 38.37300
H  4.99400 46.45900 37.94100

