158

Mg 43.28800 42.81400 26.71500
C  42.10500 44.94700 29.29000
C  44.70900 40.64100 29.26100
C  44.73100 40.88800 24.36600
C  42.45500 45.17000 24.37900
N  43.31100 42.87500 29.02900
C  42.74300 43.76000 29.83500
C  43.05700 43.45500 31.27000
C  43.92800 42.11300 31.21800
C  43.91500 41.78600 29.70300
C  45.37000 42.27400 31.79200
C  41.71000 43.27300 31.98600
C  41.80300 43.04000 33.41600
H  40.82600 43.76400 34.37000
N  44.51800 40.99800 26.76800
C  44.95800 40.27000 27.93100
C  45.60500 39.09400 27.57600
C  45.53200 39.10900 26.16400
C  44.90500 40.32200 25.66700
C  46.12300 38.14500 28.62000
C  45.86800 38.04300 25.17000
O  45.73100 38.12200 23.96300
C  46.38400 36.71700 25.66900
N  43.67100 43.05400 24.63000
C  44.20200 42.07700 23.82500
C  44.37500 42.57800 22.39300
C  43.49400 43.88400 22.38600
C  43.12200 44.01600 23.83500
C  45.78300 42.79700 21.84800
C  42.25400 43.73800 21.47900
C  40.88500 43.31100 22.15900
N  42.34400 44.60400 26.79900
C  42.09600 45.50100 25.73100
C  41.52000 46.74300 26.22700
C  41.43800 46.53400 27.59900
C  41.99100 45.26300 27.88400
C  41.26200 47.95000 25.48400
C  41.04000 47.11700 28.88100
O  40.54700 48.20300 29.12200
C  41.42300 46.11400 29.96300
C  42.33800 46.74100 30.94400
O  43.31500 47.45700 30.61400
O  41.99100 46.42400 32.19700
C  42.88300 46.87500 33.24000
H  45.08500 40.08100 30.11900
H  45.12900 40.22000 23.59900
H  42.17300 45.90100 23.61900
H  43.64600 44.32500 31.55800
H  43.50400 41.37800 31.90300
H  45.26000 42.53100 32.84500
H  45.98500 42.97500 31.22600
H  45.87000 41.30700 31.74500
H  41.44000 42.38800 31.40900
H  40.93000 43.97000 31.67800
H  42.85100 43.24700 33.63100
H  41.49100 42.00000 33.52000
H  47.01900 38.46400 29.15300
H  46.49500 37.19200 28.24300
H  45.44100 37.83200 29.41000
H  45.72300 36.31500 26.43700
H  47.37900 36.79300 26.10800
H  46.37200 35.99200 24.85500
H  43.96800 41.75300 21.80900
H  44.16400 44.73300 22.24600
H  46.48200 42.53800 22.64300
H  46.07800 43.81300 21.58800
H  46.00600 42.20800 20.95800
H  42.46700 43.14200 20.59200
H  42.19800 44.70500 20.98000
H  40.41400 42.67600 21.40900
H  40.20200 44.11300 22.43800
H  41.10300 42.85500 23.12500
H  41.58500 47.78500 24.45600
H  41.80600 48.83100 25.82500
H  40.21700 48.25900 25.50400
H  40.53100 45.71100 30.44200
H  42.97600 47.95500 33.12900
H  43.87200 46.42600 33.14500
H  42.40700 46.61100 34.18500
Mg -1.90900 33.77700 26.85400
C  -3.87800 31.97400 29.06600
C  -0.80200 35.76900 29.47600
C  -0.17700 35.46300 24.62800
C  -3.43600 32.02600 24.32900
N  -2.26300 33.83100 28.99100
C  -3.07700 32.98900 29.71200
C  -2.95200 33.25400 31.22700
C  -2.17700 34.63400 31.31200
C  -1.69300 34.75300 29.85000
C  -2.90300 35.88100 31.78800
C  -2.20800 31.98900 31.95300
C  -2.82800 31.64200 33.36300
H  -1.88300 31.38000 34.61200
N  -0.59900 35.25500 27.02200
C  -0.24200 35.92900 28.16100
C  0.75900 36.91600 27.90900
C  1.08300 36.76500 26.52300
C  0.09600 35.78900 25.97700
C  1.35000 37.85500 28.99200
C  2.04300 37.51600 25.69900
O  2.20100 37.30800 24.52400
C  2.73800 38.64900 26.23600
N  -1.87100 33.84100 24.82200
C  -1.00000 34.52800 24.12500
C  -1.13600 34.34600 22.60100
C  -2.06600 33.13800 22.55500
C  -2.46900 32.95500 23.98200
C  -1.61800 35.59800 21.87900
C  -1.51600 31.79600 21.95200
C  -2.50800 30.88200 21.17900
N  -3.45500 32.33500 26.60500
C  -3.86500 31.67800 25.54900
C  -4.84000 30.67500 25.93500
C  -4.90900 30.69500 27.32200
C  -3.98500 31.72900 27.65100
C  -5.63200 29.75000 25.05700
C  -5.45300 30.16800 28.52000
O  -6.27000 29.24600 28.70400
C  -4.75800 30.90700 29.69800
C  -5.76800 31.38200 30.60600
O  -6.59000 32.19400 30.23400
O  -5.56300 30.90900 31.88400
C  -6.54800 31.31100 32.85800
H  -0.43300 36.35300 30.32100
H  0.38600 35.97100 23.84300
H  -3.95300 31.50800 23.51800
H  -3.93200 33.30000 31.70200
H  -1.30900 34.57700 31.96800
H  -3.62200 36.06200 30.98900
H  -2.33900 36.81000 31.86600
H  -3.52700 35.72500 32.66800
H  -1.20300 32.27100 32.26800
H  -2.30200 31.14200 31.27300
H  -3.32200 30.71400 33.07700
H  -3.63000 32.33600 33.61500
H  1.07900 38.88800 28.77600
H  2.43700 37.92000 28.94500
H  1.09500 37.64100 30.03000
H  3.16800 38.32200 27.18200
H  1.92100 39.36600 26.32800
H  3.58600 39.02900 25.66600
H  -0.17500 34.09300 22.15300
H  -2.99500 33.41500 22.05500
H  -2.47800 35.51000 21.21600
H  -0.79500 36.00000 21.28800
H  -1.91100 36.39300 22.56300
H  -1.05600 31.23200 22.76300
H  -0.73200 32.09700 21.25600
H  -1.97000 30.49700 20.31300
H  -3.38400 31.34500 20.72500
H  -2.69200 30.04800 21.85600
H  -6.51400 29.52500 25.65600
H  -5.02900 28.91200 24.70800
H  -5.99600 30.15700 24.11400
H  -4.19100 30.14700 30.23700
H  -7.26400 30.55300 33.17700
H  -7.04000 32.26400 32.66600
H  -5.96400 31.34500 33.77800

