158

Mg 2.37000 -1.73400 43.34300
C  5.82000 -0.93200 42.73800
C  1.47800 1.04300 41.66600
C  -0.71700 -2.85200 43.48800
C  3.53600 -4.87700 44.61900
N  3.56200 -0.21600 42.16800
C  4.92600 0.03600 42.24600
C  5.32200 1.37000 41.65000
C  3.87500 2.05600 41.44700
C  2.90000 0.89500 41.83500
C  3.69600 3.39700 42.34500
C  6.09700 1.24600 40.30800
C  7.43600 2.00200 40.21000
H  8.05600 2.32900 38.79700
N  0.58500 -1.04800 42.59000
C  0.40300 0.17900 42.04400
C  -0.98100 0.34300 41.66600
C  -1.66000 -0.68600 42.32300
C  -0.61100 -1.61800 42.82000
C  -1.56800 1.41200 40.80600
C  -3.21700 -0.82500 42.30800
O  -3.87000 0.08400 41.86300
C  -3.91100 -2.05100 42.89900
N  1.53000 -3.61000 44.04400
C  0.20200 -3.80200 43.97900
C  -0.16300 -5.19200 44.47300
C  1.21600 -5.81600 44.89800
C  2.11300 -4.70500 44.43400
C  -1.30700 -5.11800 45.60400
C  1.61800 -7.14300 44.27000
C  1.54400 -8.41200 45.15100
N  4.24600 -2.77100 43.62500
C  4.49300 -3.96900 44.24500
C  5.88100 -4.08900 44.49600
C  6.45800 -2.93400 43.92500
C  5.42400 -2.20600 43.31600
C  6.59700 -5.18900 45.24600
C  7.72900 -2.17500 43.73500
O  8.89000 -2.36600 44.09500
C  7.32700 -0.80200 43.04300
C  7.57100 0.38000 43.92000
O  6.82500 0.79400 44.82500
O  8.63400 1.04900 43.44400
C  8.86100 2.40300 43.96300
H  1.18500 2.01200 41.25500
H  -1.77500 -3.12000 43.51200
H  3.88600 -5.74400 45.18200
H  5.88900 1.86200 42.44000
H  3.63500 2.27800 40.40700
H  4.70400 3.68300 42.64400
H  3.16100 3.00900 43.21200
H  3.22400 4.21500 41.80200
H  5.53600 1.52600 39.41700
H  6.49700 0.25100 40.11400
H  8.29300 1.53100 40.69000
H  7.26200 2.94500 40.72800
H  -2.25700 0.94500 40.10200
H  -0.76400 1.86500 40.22500
H  -1.97600 2.20700 41.42900
H  -4.92400 -1.65600 42.81500
H  -3.62700 -1.98300 43.94900
H  -3.82100 -2.93000 42.26100
H  -0.53700 -5.75900 43.62000
H  1.27800 -5.81500 45.98600
H  -2.23500 -5.60600 45.30700
H  -1.67600 -4.11600 45.82400
H  -0.92800 -5.51400 46.54700
H  2.60600 -7.09600 43.81400
H  0.86500 -7.27600 43.49300
H  2.34000 -9.09700 44.85900
H  0.64300 -8.96200 44.88000
H  1.49900 -8.18200 46.21600
H  7.16800 -5.81600 44.56200
H  5.99000 -5.89000 45.81900
H  7.29500 -4.64900 45.88600
H  7.81600 -0.59200 42.09200
H  8.50400 3.23600 43.35800
H  9.94800 2.44500 44.03300
H  8.48400 2.53800 44.97800
Mg 0.28200 44.03200 26.85100
C  2.46700 43.64100 29.45300
C  -2.31600 43.23300 29.11000
C  -1.83800 43.67400 24.24800
C  2.96900 44.35900 24.64000
N  0.10900 43.42200 29.00500
C  1.15900 43.48400 29.88600
C  0.62700 43.48800 31.34100
C  -0.78900 43.04200 31.10900
C  -1.04800 43.29700 29.63800
C  -1.17500 41.60700 31.56200
C  0.74700 44.90300 31.90300
C  1.07100 45.03100 33.40500
H  0.89300 43.76600 34.26300
N  -1.82300 43.67900 26.71000
C  -2.69600 43.50400 27.78500
C  -4.04900 43.52800 27.26300
C  -3.94700 43.49800 25.83300
C  -2.49600 43.60000 25.53700
C  -5.35600 43.49500 28.15300
C  -5.08800 43.38400 24.88400
O  -4.94400 43.41800 23.62400
C  -6.48100 43.26900 25.38400
N  0.53500 43.70600 24.72800
C  -0.49000 43.80400 23.83300
C  -0.13400 44.07700 22.40100
C  1.32700 44.55100 22.61400
C  1.62200 44.22200 24.09100
C  -0.25600 42.88200 21.35100
C  1.50500 46.04400 22.43400
C  1.45100 46.56800 20.95100
N  2.33700 43.96100 26.99300
C  3.30100 44.19500 25.99900
C  4.57600 44.33400 26.64700
C  4.32000 44.03200 28.04500
C  2.96300 43.85200 28.12900
C  5.87000 44.83900 26.03500
C  4.88300 43.83400 29.36400
O  6.02700 43.95800 29.77800
C  3.70900 43.57300 30.31300
C  3.95300 42.29400 30.94100
O  4.00900 41.18300 30.44200
O  4.26500 42.68900 32.19600
C  4.81600 41.59000 33.05900
H  -3.08200 42.99400 29.85000
H  -2.40700 43.65600 23.31600
H  3.71400 44.63700 23.89200
H  1.17300 42.72000 31.88800
H  -1.46400 43.73200 31.61600
H  -1.72100 41.09300 30.77100
H  -1.80200 41.78700 32.43500
H  -0.25600 41.06100 31.77400
H  -0.11600 45.51600 31.64200
H  1.65500 45.29000 31.44000
H  0.48400 45.82700 33.86300
H  2.10800 45.35700 33.48200
H  -5.89800 42.58400 27.89900
H  -6.11500 44.27300 28.07000
H  -5.16700 43.51700 29.22700
H  -6.50700 42.22500 25.69900
H  -7.12700 43.20900 24.50800
H  -6.85000 44.01300 26.09000
H  -0.74100 44.88300 21.98800
H  1.98300 43.95800 21.97700
H  -1.13100 42.96400 20.70700
H  -0.36200 41.99400 21.97500
H  0.59700 42.75100 20.68500
H  2.43900 46.26400 22.95100
H  0.73700 46.61500 22.95700
H  0.64100 47.29000 20.84100
H  1.21300 45.73800 20.28600
H  2.41900 47.05300 20.82700
H  6.47500 45.35700 26.77900
H  5.79600 45.44200 25.13000
H  6.41400 43.95800 25.69400
H  3.69500 44.39800 31.02500
H  4.06600 40.80400 32.98300
H  4.78300 41.89300 34.10500
H  5.77600 41.21400 32.70400

