158

Mg -1.73700 17.37200 26.21000
C  -1.80200 15.40000 29.28100
C  -1.91200 20.19300 28.37300
C  -1.87400 19.29700 23.59600
C  -1.95400 14.50400 24.41900
N  -1.83600 17.71000 28.58700
C  -1.83100 16.72200 29.61600
C  -2.04200 17.36500 31.02400
C  -2.43900 18.85700 30.55000
C  -1.93400 18.93500 29.09100
C  -3.97300 19.18500 30.58600
C  -0.87000 17.36600 32.12500
C  -1.36200 17.16800 33.54600
H  -0.51400 16.39400 34.56900
N  -1.70000 19.46600 25.97400
C  -1.75400 20.44600 26.98600
C  -1.78700 21.75700 26.35200
C  -1.87200 21.51300 24.93500
C  -1.82300 20.08500 24.81700
C  -1.55700 23.10300 27.11900
C  -1.82300 22.54900 23.78800
O  -1.82900 22.21200 22.63800
C  -1.68300 23.99100 24.10800
N  -2.15800 16.96300 24.27100
C  -2.04200 17.95900 23.36600
C  -2.27400 17.30200 21.97400
C  -2.04300 15.74800 22.19000
C  -2.07800 15.71500 23.68700
C  -3.74300 17.73700 21.48500
C  -0.72300 15.26800 21.53400
C  -0.78500 14.72000 20.07300
N  -1.88600 15.34900 26.70800
C  -1.87000 14.23000 25.83300
C  -1.94700 12.98600 26.47200
C  -1.81300 13.41900 27.86500
C  -1.88800 14.80000 27.97800
C  -1.82800 11.56600 25.88400
C  -1.66400 12.95500 29.17900
O  -1.63200 11.79300 29.65000
C  -1.68200 14.19200 30.16100
C  -0.38800 14.09300 30.83800
O  0.69600 14.48200 30.39800
O  -0.53000 13.65900 32.14900
C  0.68600 13.66300 32.97700
H  -1.98200 21.07000 29.02000
H  -1.99400 19.92900 22.71400
H  -2.04300 13.55500 23.88600
H  -2.92700 16.88300 31.43800
H  -1.92000 19.57000 31.19000
H  -4.44300 18.24800 30.88500
H  -4.25600 19.43000 29.56200
H  -4.33300 19.97800 31.24100
H  -0.36700 18.33200 32.09200
H  -0.01000 16.81700 31.74400
H  -2.22400 16.50000 33.55300
H  -1.59000 18.13900 33.98500
H  -0.69900 23.60100 26.66700
H  -1.36000 22.92100 28.17500
H  -2.44100 23.73000 27.00600
H  -2.62000 24.33200 24.54700
H  -1.66900 24.40200 23.09800
H  -0.81200 24.26600 24.70300
H  -1.60100 17.66800 21.19900
H  -2.91300 15.16100 21.89600
H  -4.10200 17.14300 20.64500
H  -3.73800 18.80000 21.24600
H  -4.56500 17.56800 22.18100
H  -0.06800 14.74400 22.23000
H  -0.10600 16.16700 21.51700
H  -1.79900 14.83600 19.68900
H  -0.44300 13.69300 19.94500
H  -0.20800 15.36800 19.41300
H  -2.60000 11.40200 25.13300
H  -1.86600 10.90000 26.74700
H  -0.88900 11.48900 25.33600
H  -2.56200 14.18100 30.80400
H  1.18800 14.62800 32.91400
H  1.34600 12.90400 32.55700
H  0.39100 13.52300 34.01700
Mg 40.74100 8.15600 29.53500
C  42.21800 9.91600 32.35400
C  38.48000 6.82900 31.77500
C  39.35500 6.40600 27.06400
C  43.58300 8.97300 27.77900
N  40.33400 8.43600 31.75200
C  41.04700 9.27200 32.68500
C  40.41800 9.15200 34.11800
C  39.35600 8.00900 33.94400
C  39.34700 7.74500 32.36800
C  39.62000 6.72400 34.78800
C  39.81000 10.54900 34.58700
C  39.32800 10.43400 36.08000
H  40.05500 11.35400 37.06000
N  39.06500 6.86200 29.37000
C  38.26300 6.52600 30.41200
C  37.17700 5.70600 29.91900
C  37.37800 5.57400 28.49300
C  38.59900 6.27400 28.26000
C  36.06600 5.17600 30.87000
C  36.53600 4.92200 27.42300
O  36.75400 4.91900 26.18200
C  35.25500 4.37200 27.82300
N  41.45300 7.67200 27.73200
C  40.62900 7.02200 26.82700
C  41.33200 6.87700 25.47000
C  42.44400 7.99000 25.57700
C  42.52400 8.22800 27.16100
C  41.95900 5.56500 25.11700
C  42.04100 9.22900 24.69400
C  41.20600 10.36000 25.32100
N  42.55100 9.24400 29.89900
C  43.61600 9.43900 29.11600
C  44.64400 10.18600 29.83500
C  44.19200 10.40700 31.13300
C  42.85200 9.81300 31.14000
C  45.92200 10.47400 29.15600
C  44.47000 10.87600 32.45300
O  45.45400 11.43100 32.94300
C  43.17300 10.55200 33.32400
C  43.59900 9.75600 34.51500
O  44.38700 8.85400 34.52700
O  43.10500 10.34000 35.66500
C  43.56200 9.82700 36.91900
H  37.75500 6.49500 32.52000
H  38.98400 5.92300 26.15800
H  44.41100 9.34900 27.17500
H  41.07800 8.79500 34.90800
H  38.38100 8.37400 34.26600
H  39.62200 5.81600 34.18500
H  38.84000 6.62200 35.54200
H  40.55000 6.81200 35.35100
H  38.86600 10.84600 34.13000
H  40.48200 11.38600 34.39600
H  39.47400 9.42300 36.46000
H  38.25400 10.60700 36.15100
H  35.27300 5.65800 30.29800
H  36.10400 5.38100 31.94000
H  35.88000 4.10400 30.80300
H  34.75200 5.24300 28.24300
H  35.47500 3.66400 28.62200
H  34.67200 3.95900 27.00000
H  40.56400 7.12600 24.73800
H  43.47000 7.75900 25.29200
H  41.68200 4.82400 25.86700
H  43.04300 5.53500 25.22400
H  41.68200 5.41200 24.07400
H  41.47600 8.88100 23.82900
H  42.93000 9.70700 24.28200
H  40.94400 10.26400 26.37400
H  40.25900 10.25800 24.79100
H  41.65600 11.32900 25.10500
H  46.23000 9.62000 28.55300
H  46.66900 10.60500 29.93900
H  45.97000 11.30400 28.45100
H  42.67900 11.45400 33.68400
H  43.88800 8.79300 36.80900
H  42.79900 9.81100 37.69700
H  44.49700 10.31900 37.18900

