158

Mg 5.18400 57.09700 41.92600
C  5.24900 53.61200 41.46900
C  8.13200 57.33600 40.27000
C  4.65200 60.50000 41.75200
C  1.90200 56.67000 43.24100
N  6.38400 55.64600 40.89200
C  6.21500 54.27600 40.77600
C  7.36500 53.70500 39.90900
C  8.44500 54.75600 40.06600
C  7.63100 56.01100 40.42700
C  9.52200 54.42900 41.10600
C  6.84200 53.41700 38.46000
C  7.35800 52.08500 37.82600
H  6.50100 51.57200 36.68800
N  6.27300 58.76400 41.08700
C  7.50500 58.59200 40.52500
C  7.91200 59.89000 40.09000
C  6.87700 60.83600 40.41900
C  5.90400 60.06200 41.16200
C  9.30300 60.13500 39.49900
C  6.90200 62.34600 40.10600
O  7.96500 62.88100 39.72700
C  5.76600 63.27000 40.37500
N  3.49700 58.34500 42.39200
C  3.69600 59.72900 42.43900
C  2.42400 60.44900 42.98500
C  1.63500 59.23400 43.49900
C  2.40300 57.95700 43.04300
C  2.75700 61.52000 44.01300
C  0.08600 59.14600 43.16100
C  -1.03200 58.62300 44.10900
N  3.88500 55.52500 42.43000
C  2.57600 55.46800 42.94500
C  2.15300 54.09600 43.08300
C  3.21600 53.40000 42.56400
C  4.21900 54.26800 42.08600
C  1.00900 53.62600 43.82200
C  3.69600 52.06700 42.41500
O  3.30900 51.00700 42.72400
C  5.03300 52.16100 41.71300
C  5.01100 51.33300 40.47600
O  4.15400 51.34500 39.55800
O  5.97000 50.30400 40.58500
C  5.91400 49.25700 39.57800
H  9.09400 57.36100 39.75300
H  4.45900 61.57400 41.71300
H  1.03100 56.50800 43.88000
H  7.68400 52.73500 40.29000
H  9.01300 55.16600 39.23100
H  10.49200 54.54600 40.62300
H  9.42300 53.36700 41.33300
H  9.28000 55.06400 41.95800
H  7.39500 54.19200 37.93100
H  5.76500 53.57600 38.40100
H  7.37100 51.33000 38.61100
H  8.37700 52.16400 37.44600
H  9.06500 60.79800 38.66700
H  9.82100 59.24200 39.15100
H  9.93500 60.67500 40.20400
H  4.87700 62.80300 39.95100
H  6.04600 64.18200 39.84600
H  5.61000 63.42000 41.44300
H  1.78500 60.88600 42.21800
H  1.65700 59.09300 44.58000
H  3.84000 61.62500 43.95200
H  2.47000 61.22200 45.02200
H  2.16100 62.40500 43.78800
H  -0.05900 58.88000 42.11400
H  -0.19100 60.18200 42.97000
H  -1.66400 59.40800 44.52600
H  -0.45200 58.00200 44.79100
H  -1.69900 57.91200 43.62200
H  1.21200 53.58200 44.89200
H  0.53200 52.71400 43.46100
H  0.17800 54.32300 43.71800
H  5.84600 51.81100 42.34900
H  6.96000 48.98400 39.43300
H  5.40600 49.49500 38.64400
H  5.45400 48.39200 40.05600
Mg -2.15400 34.85100 26.95100
C  -3.13100 33.36400 29.76300
C  -0.32000 37.25700 28.88300
C  -1.76100 36.64200 24.13700
C  -4.12800 32.63900 25.16800
N  -1.71600 35.19900 29.04100
C  -2.24100 34.38700 29.99500
C  -1.75100 34.85000 31.44200
C  -0.87900 36.14600 31.12500
C  -0.99900 36.22800 29.62600
C  -1.42100 37.34300 31.96000
C  -0.98300 33.67600 32.08400
C  -1.40300 33.26800 33.53200
H  -0.35100 33.20800 34.60500
N  -1.05300 36.67700 26.57100
C  -0.42000 37.52900 27.48800
C  -0.07800 38.73300 26.82200
C  -0.53500 38.62000 25.43200
C  -1.10500 37.31400 25.29900
C  0.58600 39.92700 27.47700
C  -0.41200 39.64500 24.29900
O  -0.59600 39.35800 23.11400
C  -0.08800 41.06900 24.58800
N  -2.83900 34.71600 24.92000
C  -2.58700 35.60100 23.99800
C  -3.27400 35.30500 22.59500
C  -3.87100 33.82900 22.82300
C  -3.60700 33.69100 24.40500
C  -4.41300 36.35700 22.45800
C  -3.12200 32.77700 21.87900
C  -1.72400 32.23500 22.41400
N  -3.35600 33.29400 27.32500
C  -4.09900 32.47100 26.53700
C  -4.72100 31.43700 27.33900
C  -4.44300 31.83700 28.63100
C  -3.59900 32.94700 28.55500
C  -5.61400 30.33600 27.00100
C  -4.63800 31.46300 30.00000
O  -5.27600 30.54000 30.51200
C  -3.85200 32.56000 30.82400
C  -4.96500 33.29500 31.52900
O  -5.73600 34.03900 31.02900
O  -4.84400 33.00700 32.90600
C  -5.93100 33.48100 33.75300
H  0.30100 37.99900 29.38900
H  -1.73600 37.22600 23.21400
H  -4.60100 31.92900 24.48700
H  -2.66400 35.12400 31.97000
H  0.17200 36.01900 31.38300
H  -2.45100 37.63700 31.75700
H  -0.81100 38.22900 31.78500
H  -1.36000 37.13800 33.02900
H  0.06500 33.97600 32.12000
H  -1.02300 32.78100 31.46300
H  -1.88100 32.28900 33.49500
H  -2.17600 33.95900 33.87000
H  1.29200 39.71100 28.27800
H  -0.12600 40.63400 27.90300
H  1.24900 40.33400 26.71400
H  -0.51700 41.54500 23.70700
H  0.97400 41.31400 24.62400
H  -0.67300 41.38600 25.45100
H  -2.60500 35.36100 21.73700
H  -4.92500 33.69900 22.57600
H  -4.54500 36.94600 23.36500
H  -5.36800 35.85100 22.32300
H  -4.12300 37.01500 21.63800
H  -2.97200 33.24300 20.90500
H  -3.76200 31.90500 21.74800
H  -0.94700 32.49100 21.69400
H  -1.88000 31.16400 22.54800
H  -1.48600 32.62200 23.40400
H  -5.67100 30.13800 25.93100
H  -6.57600 30.60600 27.43700
H  -5.17200 29.56200 27.62900
H  -3.07300 32.13200 31.45600
H  -6.18400 32.71900 34.49100
H  -6.80400 33.86000 33.22200
H  -5.53100 34.37700 34.22700

