158

Mg -2.20100 17.15500 25.88300
C  -2.39500 14.74900 28.39700
C  -2.74000 19.60100 28.21500
C  -2.52200 19.27500 23.39000
C  -1.93300 14.47900 23.60500
N  -2.57700 17.15600 28.09600
C  -2.45400 16.05400 28.92500
C  -2.67400 16.48500 30.39200
C  -2.79600 18.06200 30.29700
C  -2.67500 18.31500 28.78700
C  -4.17500 18.52700 30.89700
C  -1.63500 15.96000 31.36900
C  -1.48200 16.56000 32.72400
H  -1.91300 15.98100 34.12100
N  -2.63200 19.19600 25.81700
C  -2.72200 20.07900 26.84500
C  -2.70700 21.45500 26.31900
C  -2.61800 21.33900 24.90600
C  -2.65300 19.89600 24.66700
C  -2.88400 22.60400 27.23100
C  -2.61200 22.38400 23.86500
O  -2.56100 22.18700 22.65600
C  -2.44800 23.82600 24.25700
N  -2.13800 16.95100 23.76800
C  -2.26200 17.97300 22.93700
C  -2.06100 17.53900 21.52900
C  -1.69700 15.99500 21.62500
C  -1.90300 15.79200 23.10500
C  -3.26200 17.85800 20.59200
C  -0.34900 15.64900 21.15100
C  0.80400 16.22400 21.88100
N  -2.10100 15.07600 25.89900
C  -2.02900 14.11400 24.89500
C  -1.91300 12.79800 25.45300
C  -2.02700 13.00000 26.81600
C  -2.17800 14.40600 27.03900
C  -1.89300 11.45000 24.84600
C  -2.06000 12.33900 28.07200
O  -2.04600 11.11500 28.34900
C  -2.26600 13.51400 29.14600
C  -1.00500 13.41900 29.85800
O  -0.00800 14.05600 29.53200
O  -1.16300 12.56200 30.94600
C  -0.00800 12.58300 31.88100
H  -2.92800 20.43900 28.89000
H  -2.70600 19.88300 22.50200
H  -1.84700 13.77500 22.77500
H  -3.54900 15.88300 30.64100
H  -1.97900 18.57800 30.80000
H  -4.51600 17.67700 31.48800
H  -5.01800 18.78600 30.25600
H  -4.06600 19.37200 31.57600
H  -0.69500 15.94400 30.81800
H  -1.96900 14.94300 31.57500
H  -2.13000 17.43600 32.70700
H  -0.48700 16.99900 32.78900
H  -1.99000 23.07700 27.63800
H  -3.52200 22.38500 28.08600
H  -3.47500 23.33900 26.68400
H  -1.72600 23.90600 25.07000
H  -3.46900 24.13700 24.47900
H  -2.02500 24.39200 23.42700
H  -1.17200 17.99400 21.09100
H  -2.48800 15.39100 21.17900
H  -2.92300 18.41900 19.72100
H  -4.11100 18.30600 21.11000
H  -3.63900 16.96200 20.10000
H  -0.30600 16.19100 20.20600
H  -0.19500 14.58800 20.95600
H  0.64500 16.24500 22.95900
H  1.12700 17.15000 21.40500
H  1.65400 15.54700 21.79700
H  -1.37100 11.34100 23.89500
H  -2.88600 11.02300 24.70700
H  -1.38300 10.76100 25.51800
H  -3.13200 13.31200 29.77700
H  -0.32800 11.92900 32.69200
H  0.31900 13.53100 32.31000
H  0.91000 12.25600 31.39300
Mg 25.88100 0.69500 29.19100
C  27.79900 0.32500 31.99500
C  23.19300 1.26200 31.19900
C  24.06800 0.82400 26.38900
C  28.70000 -0.36000 27.15000
N  25.64200 0.75300 31.33200
C  26.54700 0.73300 32.34500
C  25.88900 1.06900 33.73200
C  24.38000 1.19000 33.37600
C  24.43200 1.11100 31.86600
C  23.41500 0.10900 34.01500
C  26.49100 2.39500 34.44200
C  27.28300 2.16900 35.77800
H  27.04200 3.05200 36.94000
N  23.87900 0.88400 28.77900
C  22.92600 1.10000 29.78000
C  21.67000 1.18300 29.16100
C  21.81100 1.17200 27.75500
C  23.32100 1.02800 27.58000
C  20.31900 1.34200 29.85000
C  20.89200 1.31100 26.50400
O  21.27700 1.50300 25.30400
C  19.48000 1.35200 26.83100
N  26.41200 0.28100 27.05500
C  25.39500 0.52800 26.15500
C  25.92900 0.24900 24.69900
C  27.43200 -0.08000 24.86700
C  27.58300 0.05100 26.44400
C  25.08900 -0.79900 23.83000
C  28.44500 0.75600 24.02200
C  28.46600 0.48800 22.54200
N  27.86500 0.17900 29.47400
C  28.83300 -0.25800 28.57200
C  30.06800 -0.54600 29.38200
C  29.71200 -0.32600 30.69800
C  28.35700 0.10500 30.70400
C  31.45300 -1.07000 28.86500
C  30.17300 -0.43900 32.01800
O  31.18600 -0.86800 32.54100
C  29.04000 0.06200 32.95300
C  28.78500 -0.91500 34.05300
O  28.19800 -1.95300 33.98000
O  29.41000 -0.44500 35.15700
C  29.23000 -1.20400 36.34700
H  22.31100 1.50400 31.79400
H  23.52100 1.12400 25.49300
H  29.48100 -0.74000 26.48900
H  26.10500 0.19900 34.35200
H  23.97100 2.12200 33.76700
H  23.88100 -0.53400 34.76100
H  23.05100 -0.57400 33.24700
H  22.54200 0.55000 34.49700
H  25.76700 3.19600 34.58800
H  27.20500 2.71000 33.68100
H  28.34000 2.13200 35.51600
H  27.10200 1.14900 36.11900
H  20.53000 1.68800 30.86200
H  19.83700 0.36800 29.76700
H  19.69100 2.14000 29.45400
H  19.27400 0.46900 27.43500
H  19.03200 1.23800 25.84400
H  19.15100 2.28300 27.29200
H  25.85200 1.15400 24.09600
H  27.60500 -1.14100 24.68800
H  24.49500 -1.27100 24.61200
H  25.73200 -1.55700 23.38200
H  24.46700 -0.39000 23.03400
H  29.41600 0.44900 24.41200
H  28.34500 1.81800 24.24500
H  29.52000 0.33900 22.30600
H  27.95100 1.29600 22.02300
H  27.92100 -0.43100 22.32400
H  31.37900 -1.04000 27.77800
H  31.69500 -1.95800 29.44800
H  32.19300 -0.38500 29.27800
H  29.23200 1.05700 33.35400
H  28.21200 -1.45300 36.64800
H  29.70500 -0.74700 37.21600
H  29.74300 -2.16100 36.25700

