158

Mg 7.03700 2.83300 27.37500
C  8.44000 1.65500 30.43400
C  4.91000 4.82000 29.06700
C  5.78500 3.83700 24.47500
C  8.94800 0.38000 25.66000
N  6.82200 3.24500 29.43100
C  7.43600 2.67000 30.53700
C  6.92600 3.21300 31.81500
C  5.67400 4.01400 31.44700
C  5.74700 3.99900 29.86000
C  4.29700 3.48100 32.02300
C  8.02500 3.99200 32.68100
C  8.11500 3.78700 34.14500
H  9.41900 3.63400 34.89700
N  5.54500 4.09500 26.83600
C  4.79400 4.79400 27.70300
C  3.90800 5.65600 26.94400
C  4.26100 5.52000 25.53600
C  5.19700 4.41700 25.57000
C  2.90000 6.55900 27.62800
C  3.66300 6.22700 24.28100
O  3.95600 5.94500 23.11700
C  2.67500 7.29200 24.54800
N  7.29400 2.13100 25.28800
C  6.67600 2.79700 24.29600
C  6.89400 2.15800 22.91800
C  7.99400 1.04700 23.27700
C  8.09900 1.12700 24.80900
C  5.59900 1.56600 22.23900
C  9.44700 1.25900 22.70700
C  10.53000 2.21900 23.38000
N  8.42500 1.25900 27.89500
C  9.14700 0.43400 27.06900
C  10.08400 -0.28000 27.86800
C  9.83300 0.12600 29.22700
C  8.80600 1.03900 29.17600
C  10.97000 -1.36500 27.44300
C  10.16300 -0.07900 30.62000
O  10.78100 -1.02900 31.07100
C  9.27800 0.96100 31.49700
C  8.49500 0.31000 32.57600
O  7.48300 -0.27800 32.46300
O  9.11900 0.40900 33.75700
C  8.50400 -0.19500 34.98600
H  4.34900 5.57200 29.62700
H  5.50300 4.18300 23.47800
H  9.62900 -0.34300 25.20600
H  6.59500 2.29700 32.30400
H  5.69100 5.07600 31.69000
H  4.35500 2.46700 32.41800
H  3.61900 3.35500 31.18000
H  3.88000 4.20100 32.72700
H  7.86600 5.05800 32.51900
H  9.01700 3.66600 32.36900
H  7.51300 2.92900 34.44200
H  7.63000 4.62400 34.64800
H  2.51200 6.10100 28.53800
H  2.00800 6.76200 27.03600
H  3.39500 7.47200 27.95800
H  1.67900 7.02900 24.90400
H  2.40200 7.70400 23.57600
H  3.16000 8.09700 25.09900
H  7.43300 2.84600 22.26700
H  7.72800 0.02300 23.01500
H  4.73900 1.47600 22.90300
H  5.60200 0.53400 21.88900
H  5.37400 2.17000 21.36000
H  9.25100 1.58400 21.68500
H  9.93000 0.29100 22.57200
H  10.07500 2.57600 24.30400
H  10.75100 2.95200 22.60500
H  11.44600 1.65100 23.54300
H  11.86300 -1.39000 28.06700
H  11.15800 -1.27600 26.37300
H  10.38300 -2.28000 27.52400
H  9.97900 1.65800 31.95500
H  9.03400 0.27000 35.81700
H  8.64100 -1.27600 35.02700
H  7.44100 0.03800 35.05800
Mg 27.51000 50.77200 25.74400
C  25.34200 51.72100 28.44400
C  29.84700 49.83300 28.15200
C  29.60600 50.05700 23.34400
C  25.32700 52.32700 23.55800
N  27.55100 50.70000 28.03400
C  26.56400 51.13700 28.88200
C  26.85100 50.81400 30.35500
C  28.38700 50.32200 30.28200
C  28.67600 50.36400 28.74500
C  29.49800 51.17800 31.03600
C  25.82000 49.78400 30.85400
C  24.90300 50.10900 32.00400
H  24.72200 49.18800 33.25100
N  29.48200 49.98200 25.80100
C  30.26100 49.65200 26.84500
C  31.46600 48.93700 26.36600
C  31.44900 49.08300 24.94300
C  30.13600 49.71600 24.62300
C  32.39500 48.13400 27.19200
C  32.54200 48.78900 23.93500
O  32.39900 49.06200 22.70500
C  33.87100 48.27300 24.37000
N  27.50900 51.28100 23.76100
C  28.44100 50.74100 22.89300
C  28.03600 50.87200 21.40800
C  26.58000 51.33100 21.52900
C  26.45300 51.67500 23.05500
C  28.93200 51.96000 20.80800
C  25.55300 50.33400 21.04400
C  24.23000 50.83600 20.42100
N  25.84000 52.02000 25.97400
C  25.05700 52.51300 24.99400
C  23.98900 53.20500 25.49600
C  23.90300 52.91200 26.85800
C  25.11300 52.16300 27.10600
C  23.03600 53.98200 24.75200
C  23.25700 53.05500 28.17700
O  22.22300 53.60700 28.51500
C  24.15900 52.32300 29.24600
C  24.66900 53.25100 30.26900
O  25.70200 53.95400 30.24700
O  23.68000 53.25300 31.25700
C  23.83900 54.12400 32.43000
H  30.46100 49.29000 28.87400
H  30.13000 49.61100 22.49600
H  24.51500 52.61600 22.88700
H  26.81100 51.75100 30.91000
H  28.51700 49.27400 30.55300
H  30.27400 51.56700 30.37800
H  29.93600 50.54400 31.80700
H  29.01200 51.97200 31.60300
H  26.39900 48.91100 31.15400
H  25.25800 49.45000 29.98200
H  23.89800 50.31200 31.63400
H  25.24000 51.09300 32.33100
H  32.28800 47.05900 27.04600
H  32.25900 48.26500 28.26600
H  33.44000 48.41300 27.05800
H  34.63500 48.95800 24.73800
H  34.26100 47.80500 23.46600
H  33.64400 47.37700 24.94700
H  28.14600 49.89300 20.94200
H  26.37600 52.27500 21.02500
H  28.27600 52.76800 20.48400
H  29.38500 51.58900 19.88900
H  29.76200 52.21800 21.46500
H  25.30600 49.65600 21.86000
H  26.04700 49.75800 20.26000
H  24.19500 50.66300 19.34500
H  24.00000 51.82700 20.81100
H  23.42900 50.19400 20.78800
H  22.36900 53.32200 24.19700
H  23.59500 54.54400 24.00400
H  22.47000 54.56800 25.47600
H  23.45600 51.63000 29.70900
H  23.08800 53.78900 33.14600
H  23.87600 55.20900 32.33600
H  24.76300 53.75000 32.87100

