158

Mg 49.00300 45.90000 43.59900
C  45.93500 46.49900 42.00800
C  49.23900 43.06300 41.57900
C  52.52000 45.78400 44.09600
C  49.01200 49.23400 44.68100
N  47.62700 44.81400 42.03700
C  46.40800 45.24800 41.59100
C  45.98500 44.26600 40.46500
C  46.87200 43.05000 40.70800
C  48.03900 43.64900 41.41500
C  46.24600 41.87900 41.53300
C  46.19300 44.89600 39.04600
C  44.96900 44.90200 38.14000
H  44.95600 44.24000 36.74800
N  50.58200 44.55300 43.01600
C  50.45500 43.45700 42.28200
C  51.70100 42.80200 42.11000
C  52.69100 43.54200 42.74500
C  51.97900 44.67200 43.38700
C  51.83800 41.43800 41.46100
C  54.15900 43.24500 42.73000
O  54.52900 42.21000 42.11100
C  55.16500 44.14300 43.35500
N  50.57400 47.27600 44.25300
C  51.81800 46.94200 44.53400
C  52.58700 48.11000 45.14200
C  51.42800 49.15200 45.40500
C  50.21800 48.55400 44.66400
C  53.52600 47.85200 46.32900
C  51.83000 50.60800 44.87400
C  51.13900 51.80900 45.54800
N  47.74100 47.41000 43.53100
C  47.82900 48.68800 44.13200
C  46.58100 49.40600 43.89200
C  45.82300 48.59700 42.99600
C  46.57600 47.36400 42.84900
C  46.25200 50.79900 44.41700
C  44.60600 48.49300 42.21800
O  43.70400 49.25400 42.12100
C  44.75600 47.19900 41.43300
C  43.46900 46.37200 41.70600
O  43.23400 45.75700 42.74000
O  42.58400 46.38200 40.58500
C  41.39200 45.45500 40.74500
H  49.38900 42.10300 41.08000
H  53.59200 45.78900 44.30300
H  49.05900 50.21400 45.16100
H  44.91800 44.09600 40.60900
H  47.11700 42.63500 39.73000
H  45.22200 42.07900 41.84800
H  46.79900 41.78300 42.46700
H  46.07400 40.94800 40.99400
H  46.89200 44.27400 38.48600
H  46.51100 45.92200 39.23100
H  44.81600 45.96600 37.96100
H  44.06000 44.59700 38.65900
H  51.91700 41.65800 40.39600
H  50.94700 40.81200 41.50300
H  52.69100 40.89000 41.86000
H  55.07300 44.14100 44.44100
H  54.91500 45.14500 43.00400
H  56.18400 43.78500 43.21100
H  53.17500 48.42200 44.27900
H  51.30700 49.35300 46.46900
H  53.19200 48.36600 47.23100
H  54.55800 48.16000 46.16000
H  53.48100 46.78000 46.52000
H  51.63200 50.62800 43.80200
H  52.90500 50.72000 45.01100
H  50.63200 52.31100 44.72400
H  51.85200 52.35900 46.16200
H  50.36400 51.42600 46.21100
H  46.18200 51.53000 43.61100
H  47.03500 51.26300 45.01500
H  45.20400 50.81300 44.71700
H  44.82700 47.45700 40.37600
H  40.82700 45.92800 41.54800
H  41.67900 44.44300 41.03000
H  40.90400 45.53100 39.77300
Mg 30.24200 58.49300 39.46600
C  27.70000 56.20300 38.52300
C  32.44600 56.01000 39.18500
C  32.72700 60.81200 40.03400
C  27.86000 61.09600 39.29700
N  30.12600 56.38400 38.75500
C  28.98000 55.61300 38.43200
C  29.38200 54.19000 38.09600
C  30.86000 54.09100 38.50500
C  31.18600 55.58200 38.90400
C  31.07400 53.10000 39.71700
C  28.95100 53.75500 36.65800
C  29.45000 54.59800 35.48600
H  28.50000 55.17100 34.44000
N  32.28300 58.41500 39.50900
C  33.02200 57.24900 39.37300
C  34.39000 57.54800 39.58300
C  34.50600 58.91900 39.94000
C  33.13200 59.46800 39.85600
C  35.45800 56.49800 39.43300
C  35.87400 59.64800 40.33700
O  36.92100 59.07100 40.25000
C  35.91600 61.08800 40.88600
N  30.27800 60.59800 39.59800
C  31.43300 61.31100 39.90400
C  31.14100 62.86100 39.94700
C  29.57600 62.89600 39.64000
C  29.19000 61.41700 39.58700
C  31.68500 63.47400 41.26100
C  29.18800 63.63700 38.35000
C  27.98400 64.61200 38.36600
N  28.17400 58.64400 39.14000
C  27.35500 59.75900 39.11500
C  26.00700 59.29100 38.73900
C  26.08000 57.91200 38.50800
C  27.38500 57.56100 38.83200
C  24.88200 60.25000 38.64100
C  25.32500 56.79900 38.22800
O  24.16600 56.68200 37.90500
C  26.26100 55.58700 38.28600
C  25.84700 54.58000 39.29900
O  26.60000 53.91100 40.04400
O  24.47600 54.31500 39.32600
C  23.91600 53.40200 40.30900
H  33.20400 55.23000 39.08700
H  33.56200 61.50300 40.17000
H  27.09700 61.87600 39.33300
H  28.69600 53.59200 38.69600
H  31.48200 53.75700 37.67400
H  30.25800 52.49100 40.10600
H  31.53300 53.65000 40.53800
H  31.87600 52.38300 39.54000
H  27.87300 53.59700 36.65000
H  29.45200 52.79400 36.54100
H  30.27300 53.98000 35.12700
H  30.05300 55.44800 35.80400
H  36.38700 57.06000 39.33800
H  35.33000 56.08400 38.43300
H  35.55800 55.69400 40.16300
H  36.92500 61.39000 41.16700
H  35.33600 61.20100 41.80200
H  35.63300 61.84100 40.15000
H  31.78700 63.06400 39.09300
H  29.07900 63.41800 40.45800
H  32.52500 64.14000 41.06400
H  31.96800 62.63100 41.89100
H  30.94300 64.05900 41.80500
H  29.04500 62.95500 37.51200
H  30.01700 64.25700 38.00600
H  27.83300 65.08000 39.33900
H  27.05800 64.08100 38.14900
H  28.04100 65.48200 37.71200
H  24.63400 60.61500 39.63800
H  24.01100 59.64000 38.40300
H  25.05300 61.06900 37.94300
H  26.23000 54.95200 37.40100
H  24.32900 53.53900 41.30800
H  24.18500 52.40600 39.95500
H  22.84000 53.24100 40.24200

