158

Mg 35.91200 0.72200 29.66700
C  33.59100 1.63200 32.04400
C  38.36800 0.71600 32.19600
C  38.26100 0.29800 27.34500
C  33.43900 1.48000 27.14200
N  36.01500 1.21000 31.81000
C  34.87800 1.44200 32.58300
C  35.18600 1.49000 34.08300
C  36.75200 1.41500 34.04800
C  37.03600 1.07100 32.56800
C  37.44900 2.80900 34.57500
C  34.55600 0.27700 34.76500
C  34.36900 0.42800 36.30100
H  34.90000 1.66400 37.21500
N  38.04400 0.47900 29.77100
C  38.81200 0.44200 30.86500
C  40.16100 0.08500 30.49700
C  40.15300 -0.12500 29.06000
C  38.77200 0.25700 28.65600
C  41.30000 -0.04400 31.41100
C  41.31900 -0.48200 28.15600
O  41.30800 -0.43100 26.90600
C  42.67500 -0.78400 28.62400
N  35.80400 0.96500 27.51200
C  36.95900 0.65100 26.80500
C  36.63300 0.71500 25.29300
C  35.05400 0.99700 25.24800
C  34.69700 1.10000 26.70900
C  37.57300 1.75200 24.54200
C  34.14300 0.03200 24.38100
C  33.70400 -1.21000 25.12700
N  33.94000 1.35400 29.55100
C  33.01400 1.61100 28.52900
C  31.76800 1.90700 29.14600
C  31.91800 1.96100 30.51400
C  33.27100 1.62800 30.72600
C  30.50300 2.23800 28.32000
C  31.23200 2.21400 31.67500
O  30.04400 2.52100 31.87600
C  32.27300 2.00800 32.88000
C  32.29900 3.37300 33.56800
O  32.99400 4.28200 33.15800
O  31.49300 3.39200 34.67200
C  31.46500 4.62000 35.44000
H  39.08600 0.62400 33.01400
H  39.04700 0.30100 26.58700
H  32.69100 1.63600 26.36100
H  34.82400 2.36200 34.62700
H  37.10800 0.54200 34.59500
H  38.20400 3.28300 33.94800
H  37.95900 2.85000 35.53800
H  36.71100 3.60300 34.68500
H  35.15700 -0.60700 34.55300
H  33.58200 0.00900 34.35600
H  34.74300 -0.44100 36.84200
H  33.30800 0.41900 36.54900
H  42.23400 0.40200 31.07100
H  41.37800 -1.08700 31.71700
H  41.05000 0.60000 32.25400
H  43.01100 0.15600 29.06000
H  43.24300 -1.16600 27.77500
H  42.63600 -1.59200 29.35500
H  36.78000 -0.26900 24.84600
H  34.96800 2.02500 24.89600
H  38.02600 1.21300 23.71100
H  38.34300 2.05200 25.25400
H  37.10800 2.70900 24.30500
H  34.82300 -0.39200 23.64300
H  33.34300 0.62100 23.93100
H  32.62300 -1.21600 24.98200
H  33.76800 -1.23400 26.21400
H  34.17600 -2.13500 24.79600
H  29.73200 1.55100 28.66900
H  30.64800 2.11200 27.24700
H  30.23400 3.28600 28.45600
H  31.89300 1.30000 33.61600
H  30.43500 4.94800 35.57600
H  32.04200 5.37700 34.90900
H  32.00600 4.49800 36.37900
Mg 0.10900 43.44600 25.34700
C  2.41300 43.00000 27.90000
C  -2.43500 42.58400 27.46700
C  -2.08400 43.71000 22.83000
C  2.80400 43.65500 23.09800
N  0.03400 42.83900 27.48000
C  1.05400 42.86800 28.37000
C  0.47100 42.78200 29.84800
C  -0.96000 42.22400 29.54900
C  -1.16500 42.55200 28.06800
C  -1.21000 40.69100 29.96500
C  0.56100 44.18600 30.52900
C  0.50000 44.13000 32.09900
H  0.39000 42.76900 32.67800
N  -2.03100 43.31600 25.16100
C  -2.85700 42.93100 26.13800
C  -4.19500 42.95500 25.65700
C  -4.14700 43.42300 24.32500
C  -2.73000 43.55100 24.05900
C  -5.41000 42.71300 26.50500
C  -5.20500 43.93200 23.33200
O  -4.84500 44.48400 22.25700
C  -6.72500 43.81500 23.65300
N  0.35200 43.70000 23.26500
C  -0.74300 43.73200 22.43100
C  -0.26600 43.67200 20.94600
C  1.26500 43.98500 21.10400
C  1.51900 43.73800 22.56900
C  -0.57700 42.28800 20.24200
C  1.68300 45.33600 20.54700
C  1.09800 46.56200 21.13800
N  2.26000 43.27400 25.37500
C  3.18100 43.39500 24.41800
C  4.59100 43.37100 25.03700
C  4.27300 43.13100 26.37700
C  2.87300 43.09900 26.56200
C  5.87400 43.54600 24.34200
C  4.91500 42.92300 27.69700
O  6.06900 42.92700 28.04400
C  3.70400 42.81300 28.76000
C  3.79100 41.57000 29.50000
O  3.36800 40.51400 29.05200
O  4.36000 41.74700 30.77000
C  4.29200 40.61300 31.68600
H  -3.29100 42.34700 28.10200
H  -2.72200 43.66300 21.94500
H  3.57700 43.85400 22.35400
H  1.12700 42.06700 30.34400
H  -1.63900 42.79400 30.18400
H  -1.11500 39.87900 29.24500
H  -2.07500 40.71000 30.62700
H  -0.36900 40.45300 30.61600
H  -0.30500 44.74300 30.17300
H  1.50900 44.64200 30.24300
H  -0.31800 44.73900 32.48400
H  1.38500 44.63800 32.48400
H  -6.20900 42.15200 26.02000
H  -5.83900 43.68200 26.76000
H  -5.12300 42.12100 27.37300
H  -7.39000 44.23700 22.90100
H  -6.96200 44.30400 24.59800
H  -7.01500 42.77500 23.80800
H  -0.74600 44.56900 20.55500
H  1.89000 43.22100 20.64100
H  -0.82200 41.53000 20.98600
H  0.28300 41.90800 19.69100
H  -1.48600 42.24000 19.64200
H  1.22600 45.40400 19.56000
H  2.77200 45.39400 20.54200
H  0.75900 47.20000 20.32200
H  1.90100 47.10300 21.63900
H  0.21300 46.36400 21.74300
H  5.90400 44.38200 23.64300
H  6.27900 42.63600 23.89900
H  6.60500 43.89500 25.07100
H  3.82100 43.59100 29.51400
H  5.16200 40.71200 32.33500
H  4.34200 39.66000 31.16000
H  3.45400 40.82600 32.35100

