158

Mg -1.85600 17.49800 27.32700
C  -2.34500 15.54900 30.09600
C  -2.86100 20.29900 29.14100
C  -1.33600 19.39600 24.44500
C  -1.64900 14.63200 25.38000
N  -2.36600 17.89400 29.49500
C  -2.47300 16.91300 30.47200
C  -2.69400 17.61100 31.85700
C  -3.27000 18.99900 31.42300
C  -2.78200 19.14400 29.90700
C  -4.75200 19.23500 31.43900
C  -1.45300 17.55900 32.77400
C  -1.80600 17.40700 34.31900
H  -0.71000 17.72900 35.32800
N  -1.88300 19.59100 26.95000
C  -2.39100 20.55500 27.83700
C  -2.29800 21.84100 27.18700
C  -1.76200 21.59500 25.85100
C  -1.62000 20.13400 25.68900
C  -2.64100 23.17600 27.83800
C  -1.38800 22.62000 24.82500
O  -1.02000 22.29800 23.71700
C  -1.51300 24.07000 25.12500
N  -1.56300 17.04700 25.17000
C  -1.34800 18.04400 24.16300
C  -1.07300 17.37600 22.76900
C  -0.99800 15.88200 23.20400
C  -1.42400 15.78500 24.65500
C  -2.23300 17.68100 21.79300
C  0.47600 15.23400 23.04200
C  1.49400 16.06200 23.85600
N  -2.05400 15.46100 27.54900
C  -2.01700 14.40600 26.70800
C  -2.21300 13.16200 27.42500
C  -2.31600 13.57100 28.81000
C  -2.22700 14.96200 28.81500
C  -2.27500 11.79100 26.74000
C  -2.49900 13.09500 30.13200
O  -2.58700 11.94900 30.56900
C  -2.42700 14.36900 31.05800
C  -1.19400 14.16600 31.79200
O  -0.02000 14.17400 31.41700
O  -1.52500 14.07600 33.12800
C  -0.42800 13.87000 34.06800
H  -3.21300 21.15500 29.72000
H  -1.13100 20.02100 23.57400
H  -1.51900 13.76400 24.73100
H  -3.40500 16.93000 32.32500
H  -2.85200 19.85400 31.95500
H  -5.22400 18.26600 31.27500
H  -5.18300 19.81000 30.61900
H  -5.06800 19.78700 32.32400
H  -0.81300 18.42900 32.62500
H  -0.79700 16.71000 32.58300
H  -2.12300 16.42400 34.66700
H  -2.67500 18.03700 34.51000
H  -1.73700 23.78400 27.83600
H  -2.80900 23.07000 28.91000
H  -3.57100 23.66700 27.55000
H  -1.66800 24.52400 24.14600
H  -0.62300 24.42700 25.64400
H  -2.35800 24.38900 25.73600
H  -0.16600 17.67900 22.24500
H  -1.67500 15.32600 22.55500
H  -3.15000 17.43200 22.32600
H  -2.11100 17.22100 20.81300
H  -2.28100 18.76500 21.68600
H  0.80600 15.17600 22.00500
H  0.41600 14.20000 23.38100
H  2.17900 15.32100 24.26600
H  1.10300 16.80000 24.55700
H  2.14100 16.61500 23.17500
H  -2.01700 11.82400 25.68200
H  -3.28100 11.37600 26.80300
H  -1.62900 11.08300 27.25900
H  -3.30400 14.51200 31.69000
H  -0.64600 14.35200 35.02100
H  0.54200 14.25400 33.75100
H  -0.35600 12.78800 34.17700
Mg 47.24800 16.42100 28.80800
C  45.33400 15.89900 31.58500
C  49.38400 18.51300 30.55400
C  48.79100 17.22600 26.00500
C  44.79200 14.78100 26.83500
N  47.26300 17.24800 30.82900
C  46.42600 16.76600 31.83400
C  46.97400 17.26900 33.21000
C  48.11800 18.35800 32.79500
C  48.30500 18.02800 31.26000
C  47.75300 19.82100 33.03000
C  47.59300 16.09900 34.04200
C  47.41800 16.25700 35.52000
H  47.20700 17.68900 36.12100
N  48.94100 17.58400 28.36200
C  49.78200 18.23400 29.21400
C  50.89000 18.78200 28.51200
C  50.67900 18.50600 27.13300
C  49.40900 17.71800 27.12800
C  52.06800 19.38900 29.22500
C  51.45600 18.89900 25.92500
O  51.13300 18.61000 24.76000
C  52.61600 19.78800 26.07100
N  46.86600 15.98100 26.64300
C  47.69700 16.39600 25.75000
C  47.23100 16.05400 24.35900
C  45.96900 15.09500 24.63400
C  45.93600 15.19300 26.13800
C  47.03400 17.25100 23.45600
C  46.02900 13.57400 24.17000
C  45.25000 13.34900 22.89100
N  45.44200 15.56600 29.08800
C  44.51900 15.00000 28.19400
C  43.28700 14.65100 28.96600
C  43.62200 14.90500 30.28600
C  44.92600 15.48400 30.28300
C  42.03800 14.17700 28.44600
C  43.15600 14.86800 31.66800
O  42.13600 14.43900 32.13800
C  44.26700 15.53600 32.53700
C  43.71700 16.76000 33.10000
O  43.59700 17.82900 32.50800
O  43.34600 16.66900 34.44100
C  42.75500 17.91400 35.09400
H  49.96500 19.15500 31.22000
H  49.22300 17.49900 25.04000
H  43.92400 14.41000 26.28600
H  46.11800 17.73000 33.70200
H  49.00100 18.06200 33.36100
H  46.68300 20.00900 33.11100
H  48.19200 20.47000 32.27200
H  48.16000 20.04200 34.01700
H  48.64200 16.02100 33.75600
H  47.01500 15.20900 33.79100
H  48.14900 15.71600 36.12100
H  46.52400 15.69300 35.78800
H  52.91900 18.75000 28.99200
H  52.00100 19.34400 30.31200
H  52.27800 20.35100 28.75600
H  52.26500 20.72800 26.49700
H  53.14100 19.96800 25.13300
H  53.39400 19.44700 26.75300
H  48.04400 15.43800 23.97600
H  45.05700 15.54800 24.24500
H  47.15900 18.17000 24.02900
H  46.01800 17.19000 23.06700
H  47.67700 17.20100 22.57700
H  45.71400 12.96600 25.01800
H  47.01600 13.18300 23.92300
H  45.83500 12.69100 22.24800
H  44.80500 14.24900 22.46700
H  44.48300 12.61000 23.12300
H  41.17900 14.61300 28.95400
H  42.06200 13.08900 28.37800
H  41.84000 14.48900 27.42100
H  44.45400 14.83700 33.35200
H  41.99100 18.47900 34.55900
H  43.62300 18.54100 35.29900
H  42.34400 17.69000 36.07800

