158

Mg -1.69300 16.89800 25.82100
C  -2.10100 14.40400 28.34400
C  -2.24800 19.31400 28.18900
C  -1.71700 19.17800 23.30800
C  -1.80400 14.28000 23.50400
N  -2.09500 16.76700 28.09700
C  -2.25300 15.71800 28.92400
C  -2.60600 16.15200 30.33300
C  -2.78200 17.70400 30.17900
C  -2.28400 17.97200 28.77500
C  -4.13600 18.37500 30.63400
C  -1.52600 15.66800 31.43100
C  -1.30100 16.71200 32.55600
H  -1.03200 16.14400 33.99500
N  -1.90100 18.98300 25.78700
C  -2.13300 19.80000 26.85800
C  -2.08500 21.15400 26.39300
C  -1.95500 21.10700 24.97900
C  -1.81100 19.68700 24.63100
C  -2.29900 22.30800 27.35700
C  -1.91100 22.32400 23.97800
O  -1.65700 22.20400 22.81800
C  -2.07900 23.68500 24.48600
N  -1.81000 16.71400 23.73900
C  -1.67900 17.79500 22.90300
C  -1.72600 17.34700 21.40200
C  -1.88300 15.82500 21.52100
C  -1.79300 15.57000 22.99600
C  -2.66600 18.17400 20.49600
C  -0.98000 14.92500 20.54000
C  -1.80400 13.94100 19.65100
N  -1.79500 14.73000 25.90600
C  -1.84900 13.81600 24.84800
C  -2.03200 12.55700 25.37000
C  -2.04000 12.68100 26.75700
C  -1.96500 14.04900 27.00400
C  -2.17000 11.31300 24.54800
C  -2.07500 11.98300 28.01200
O  -2.06100 10.79100 28.27100
C  -2.23000 13.10800 29.12300
C  -1.27600 12.78600 30.15600
O  -0.08600 13.12200 30.16700
O  -1.88400 12.06800 31.15900
C  -1.02200 11.73500 32.29800
H  -2.41800 19.97200 29.04400
H  -1.66100 19.91000 22.50000
H  -1.82800 13.46200 22.78200
H  -3.58500 15.69400 30.47300
H  -2.06200 18.21700 30.81700
H  -4.88100 17.66000 30.98300
H  -4.60200 19.04200 29.90800
H  -3.84700 19.08800 31.40600
H  -0.52700 15.53400 31.01600
H  -1.62500 14.70900 31.93900
H  -2.20800 17.31000 32.64000
H  -0.52000 17.45000 32.36900
H  -3.32400 22.66000 27.24500
H  -1.71100 23.18100 27.07400
H  -2.11000 22.10900 28.41200
H  -2.97500 23.69300 25.10600
H  -2.25000 24.34000 23.63100
H  -1.20600 24.08000 25.00500
H  -0.70600 17.62100 21.13400
H  -2.90500 15.58000 21.23100
H  -3.42500 18.65000 21.11800
H  -3.14300 17.57700 19.72000
H  -2.02200 18.88600 19.97900
H  -0.08700 14.46800 20.96500
H  -0.60900 15.62800 19.79400
H  -1.65500 12.92900 20.02800
H  -1.49600 13.92200 18.60500
H  -2.86100 14.16200 19.50600
H  -1.27600 11.17300 23.94100
H  -3.10300 11.47200 24.00600
H  -2.32000 10.43300 25.17300
H  -3.23400 13.07700 29.54700
H  -1.15100 12.44200 33.11800
H  0.02500 11.56300 32.05000
H  -1.39500 10.80200 32.72200
Mg 34.71400 3.46100 29.13200
C  32.54100 4.13700 31.72400
C  37.27700 3.02500 31.48100
C  36.76200 2.62000 26.71000
C  32.14200 3.82300 26.92500
N  34.84400 3.56000 31.41000
C  33.80400 3.87800 32.22200
C  34.15400 3.75800 33.74100
C  35.80800 3.57800 33.61200
C  36.04300 3.37500 32.09100
C  36.73700 4.78000 34.11300
C  33.42200 2.56200 34.35000
C  32.97200 2.81300 35.78100
H  34.01400 3.47300 36.73300
N  36.75200 2.88800 29.07200
C  37.63700 2.73600 30.12100
C  38.96100 2.42500 29.62700
C  38.79000 2.29500 28.19300
C  37.38800 2.56300 27.89000
C  40.15600 2.21100 30.46500
C  39.86200 1.84800 27.18400
O  39.65000 1.85100 25.96900
C  41.27900 1.43800 27.64700
N  34.47800 3.10500 27.12200
C  35.52300 2.90900 26.32600
C  35.12000 2.96200 24.86000
C  33.55700 3.21000 24.86300
C  33.34600 3.34200 26.41600
C  35.91500 4.00000 23.93300
C  32.83600 2.00300 24.35300
C  32.84300 1.64800 22.82800
N  32.79500 4.00600 29.24700
C  31.86300 4.12700 28.25800
C  30.63400 4.69300 28.77700
C  30.86500 4.73700 30.11800
C  32.19200 4.23500 30.39000
C  29.44800 5.05100 28.00500
C  30.31800 5.10400 31.38900
O  29.25900 5.70200 31.67200
C  31.32000 4.57300 32.48500
C  31.65800 5.72800 33.31300
O  32.36900 6.68600 33.04800
O  31.06100 5.56200 34.54000
C  31.59800 6.48200 35.52900
H  38.03400 2.89200 32.25700
H  37.45100 2.60100 25.86300
H  31.32300 3.92800 26.21000
H  33.90100 4.67000 34.28200
H  36.20100 2.69500 34.11600
H  36.01500 5.59600 34.14800
H  37.55100 5.03700 33.43600
H  37.10400 4.48600 35.09600
H  34.09300 1.70600 34.27500
H  32.50400 2.31800 33.81400
H  32.60800 1.82900 36.07600
H  32.06000 3.40000 35.89100
H  40.59700 1.25300 30.19000
H  39.87600 2.11700 31.51400
H  40.81600 3.07900 30.48700
H  41.89100 2.09500 28.26600
H  41.87200 1.39500 26.73300
H  41.25500 0.48400 28.17300
H  35.39000 2.03000 24.36500
H  33.30100 4.14300 24.36100
H  36.43600 4.61700 24.66400
H  35.21400 4.46000 23.23700
H  36.67200 3.50100 23.32900
H  31.77700 2.12200 24.58400
H  33.16800 1.11000 24.88300
H  33.49800 2.15200 22.11700
H  31.79000 1.67400 22.55000
H  33.28300 0.65000 22.84000
H  29.19900 4.25800 27.30000
H  29.58100 6.05000 27.58900
H  28.61400 5.14100 28.70100
H  31.01400 3.74600 33.12500
H  30.88600 7.30500 35.58200
H  32.66400 6.69900 35.45900
H  31.44500 5.86300 36.41200

