158

Mg 37.17600 50.14100 24.73200
C  36.86100 48.52400 27.91600
C  36.17000 53.08100 26.27300
C  37.29600 51.49600 21.72800
C  37.61600 46.96600 23.33600
N  36.53600 50.75500 26.89600
C  36.61400 49.93500 28.06100
C  36.24000 50.74000 29.34800
C  35.91400 52.19100 28.76300
C  36.19200 52.02700 27.21100
C  34.56000 52.75400 29.20200
C  37.34100 50.78800 30.39900
C  37.09500 50.01600 31.72100
H  35.80300 50.32900 32.36100
N  36.72200 52.02800 24.04100
C  36.41000 53.12400 24.80600
C  36.37700 54.27100 23.95500
C  36.76900 53.79600 22.67500
C  36.97900 52.38900 22.76500
C  36.02900 55.75200 24.40400
C  37.00300 54.61400 21.34300
O  37.58800 54.14700 20.35900
C  36.62300 56.04600 21.21000
N  37.34700 49.31700 22.87600
C  37.50900 50.10700 21.83400
C  37.78400 49.25200 20.51900
C  38.07300 47.88300 21.08400
C  37.64000 48.01500 22.51900
C  36.62100 49.29800 19.40700
C  39.61000 47.49600 21.06400
C  40.15700 46.24600 20.43400
N  37.25700 48.13300 25.37800
C  37.48500 46.90100 24.72300
C  37.60300 45.78900 25.65100
C  37.34500 46.42200 26.86900
C  37.14800 47.80400 26.68600
C  37.75300 44.40800 25.36500
C  37.34200 46.09600 28.29800
O  37.57100 45.01400 28.93500
C  36.95300 47.43200 28.98700
C  35.62600 47.27900 29.62100
O  34.52300 47.57400 29.13700
O  35.81200 46.47600 30.79600
C  34.60100 45.97200 31.46400
H  35.88500 54.06800 26.64200
H  37.43700 51.93700 20.73900
H  37.82700 46.03300 22.80800
H  35.38600 50.26500 29.83100
H  36.57700 52.99600 29.07800
H  33.89900 52.01900 29.66100
H  34.03000 52.90900 28.26200
H  34.64400 53.65100 29.81400
H  37.51900 51.80600 30.74600
H  38.28500 50.35700 30.06500
H  37.85400 50.25600 32.46500
H  37.20300 48.94100 31.57400
H  35.68300 55.92300 25.42300
H  35.33900 56.11500 23.64200
H  36.94400 56.34400 24.37400
H  36.77400 56.63800 22.11300
H  35.53800 56.01800 21.11600
H  37.18500 56.52300 20.40700
H  38.67500 49.76700 20.16200
H  37.45300 47.11800 20.61700
H  36.90600 49.81600 18.49100
H  35.78400 49.87500 19.79900
H  36.18500 48.31800 19.21300
H  39.97600 47.43500 22.08900
H  40.23500 48.28600 20.64600
H  40.00300 45.44700 21.15900
H  41.21900 46.30500 20.19600
H  39.64700 46.19100 19.47200
H  38.40000 44.25400 24.50100
H  36.81900 43.89000 25.14900
H  38.18400 43.88400 26.21800
H  37.64400 47.72100 29.77900
H  34.05200 46.71900 32.03700
H  34.63800 45.10000 32.11600
H  33.81600 45.73500 30.74500
Mg 0.55200 42.86900 26.24700
C  2.95000 42.40200 28.88900
C  -1.91300 42.44000 28.55200
C  -1.49900 42.56300 23.71900
C  3.35200 42.61200 23.96200
N  0.54700 42.31600 28.44200
C  1.61000 42.31300 29.31900
C  1.14500 42.17200 30.73400
C  -0.31300 41.78500 30.50100
C  -0.61800 42.32300 29.08600
C  -0.68800 40.32100 30.76900
C  1.25900 43.39000 31.58400
C  1.17300 43.24800 33.08700
H  0.62300 41.95400 33.63500
N  -1.45900 42.69300 26.18500
C  -2.29000 42.67500 27.21600
C  -3.61700 42.95800 26.76600
C  -3.56800 42.90000 25.33900
C  -2.14000 42.70500 24.99300
C  -4.72500 43.16900 27.71200
C  -4.68800 43.00700 24.33300
O  -4.55300 42.87000 23.12400
C  -5.97900 43.36900 24.89000
N  0.86000 42.67700 24.11700
C  -0.15500 42.50900 23.31000
C  0.27700 42.50200 21.80800
C  1.80700 42.75500 21.87100
C  2.07300 42.70900 23.43200
C  -0.20100 41.36400 20.90300
C  2.33800 44.10700 21.25900
C  2.12900 45.49300 21.97400
N  2.69100 42.70400 26.36600
C  3.65900 42.61800 25.32100
C  4.97500 42.54200 25.92100
C  4.71400 42.49700 27.30500
C  3.35100 42.57400 27.53000
C  6.26900 42.46500 25.18000
C  5.34100 42.33600 28.55100
O  6.51200 42.13100 28.73600
C  4.19900 42.38900 29.68800
C  4.34400 41.11000 30.51600
O  4.24000 39.97600 30.06100
O  4.58600 41.49200 31.87500
C  4.70700 40.38100 32.80000
H  -2.63600 42.47800 29.36900
H  -2.19100 42.37700 22.89500
H  4.26200 42.50000 23.36900
H  1.69200 41.35300 31.20200
H  -0.95600 42.36500 31.16200
H  -1.65700 40.25200 31.26300
H  0.00900 39.80000 31.42500
H  -0.74500 39.84900 29.78800
H  0.43900 44.06300 31.33100
H  2.20300 43.85800 31.30500
H  0.62200 44.11300 33.45800
H  2.18400 43.27500 33.49400
H  -5.52700 43.84900 27.42300
H  -4.37400 43.60600 28.64700
H  -5.19500 42.20000 27.87800
H  -6.29800 42.59600 25.59000
H  -6.66200 43.47600 24.04700
H  -5.97900 44.35900 25.34700
H  -0.17800 43.39600 21.38000
H  2.39900 41.92300 21.48900
H  0.50700 41.33900 20.07400
H  -1.21300 41.50800 20.52200
H  -0.10100 40.39200 21.38500
H  1.96900 44.12000 20.23300
H  3.41400 43.95800 21.16600
H  1.20900 45.39900 22.55100
H  2.05200 46.27300 21.21600
H  2.96600 45.78900 22.60600
H  6.25900 43.11500 24.30500
H  6.51700 41.43900 24.90800
H  6.97900 42.91900 25.87100
H  4.24900 43.20200 30.41200
H  5.72700 40.00000 32.76200
H  4.01700 39.55600 32.62200
H  4.56900 40.74600 33.81800

