158

Mg 41.24300 8.51800 29.38900
C  43.34000 9.36000 32.17600
C  39.18200 7.11500 31.60800
C  39.42200 7.61700 26.76800
C  43.89900 9.45900 27.19900
N  41.32500 8.20500 31.62600
C  42.16700 8.66800 32.52700
C  41.61100 8.51800 33.95500
C  40.56000 7.44000 33.77800
C  40.28900 7.57900 32.27100
C  41.00000 6.00500 34.06100
C  41.25000 9.90400 34.65700
C  40.79200 9.87100 36.18800
H  41.76700 10.40300 37.25300
N  39.54700 7.55100 29.25800
C  38.81700 7.01500 30.27700
C  37.53000 6.48900 29.73600
C  37.47300 6.81600 28.37700
C  38.84300 7.34700 28.06900
C  36.41800 5.78100 30.59200
C  36.34800 6.66000 27.30000
O  36.64100 6.79500 26.03700
C  34.92800 6.28400 27.64200
N  41.76400 8.27200 27.22300
C  40.72500 7.97700 26.41400
C  41.14300 8.33900 24.96200
C  42.57800 9.00800 25.10600
C  42.73600 8.92100 26.63700
C  41.21700 7.09500 24.14500
C  42.55500 10.50600 24.66900
C  43.70000 10.71500 23.57800
N  43.20600 9.18800 29.56500
C  44.16800 9.56200 28.60500
C  45.24500 10.19100 29.33700
C  44.96200 10.15100 30.65400
C  43.74300 9.50800 30.76600
C  46.49100 10.73300 28.65300
C  45.45900 10.45200 31.96600
O  46.49600 10.97900 32.26200
C  44.42600 9.99200 32.99800
C  45.05500 9.07800 33.96900
O  44.89600 7.88500 33.95600
O  45.78900 9.73800 34.90800
C  46.40900 8.84700 35.89900
H  38.46100 6.72600 32.33000
H  38.71700 7.56300 25.93600
H  44.62800 9.81900 26.46900
H  42.41600 8.10800 34.56600
H  39.66500 7.53800 34.39200
H  42.07600 5.85800 33.97400
H  40.48000 5.25800 33.46000
H  40.71500 5.69200 35.06500
H  40.49100 10.37000 34.02800
H  42.13700 10.53600 34.67300
H  40.47800 8.87600 36.50200
H  39.90600 10.49700 36.29700
H  36.69100 5.50400 31.61100
H  36.09100 4.88400 30.06700
H  35.53800 6.42300 30.63200
H  34.13500 6.60100 26.96400
H  34.73100 6.65000 28.65000
H  35.00600 5.19900 27.70200
H  40.36100 8.92600 24.48000
H  43.34900 8.36800 24.67700
H  41.15500 6.15300 24.69000
H  42.12000 7.06100 23.53500
H  40.43600 7.03500 23.38600
H  42.63600 11.03600 25.61800
H  41.58300 10.92500 24.40800
H  44.25300 9.80000 23.36400
H  44.37700 11.49000 23.93600
H  43.18500 11.01700 22.66600
H  46.19600 11.59600 28.05500
H  46.94000 10.00100 27.98200
H  47.17100 11.20100 29.36400
H  44.15500 10.96500 33.40800
H  46.92700 7.99900 35.45000
H  45.57100 8.59200 36.54700
H  47.17100 9.36800 36.47900
Mg 9.21000 48.08700 25.62800
C  6.91200 48.53700 28.32100
C  11.63800 49.13600 27.66800
C  11.22900 47.65400 23.02200
C  6.40500 47.56800 23.50200
N  9.20300 49.01100 27.78200
C  8.21700 48.85500 28.72900
C  8.78500 49.08400 30.12900
C  10.27200 49.34800 29.83600
C  10.40600 49.17600 28.32800
C  10.74900 50.81500 30.25200
C  8.41000 47.95700 31.11200
C  9.40000 47.46900 32.26400
H  8.72500 47.02800 33.63200
N  11.13500 48.48900 25.34600
C  12.01800 48.84100 26.31100
C  13.39400 48.91100 25.78200
C  13.29300 48.32700 24.49700
C  11.84200 48.18500 24.19300
C  14.51700 49.30700 26.71000
C  14.37700 48.07500 23.51500
O  14.17600 47.80700 22.36400
C  15.76100 48.29300 24.03300
N  8.87000 47.45100 23.49600
C  9.92200 47.34400 22.64400
C  9.44000 47.28200 21.23700
C  7.92000 47.54300 21.33900
C  7.68900 47.54000 22.87500
C  10.12300 48.20300 20.10800
C  6.99500 46.47900 20.54600
C  7.48000 45.94000 19.19100
N  7.08100 47.92800 25.80200
C  6.08900 47.80400 24.82600
C  4.77400 47.79200 25.46200
C  5.04500 47.95000 26.81300
C  6.47600 48.16300 26.94600
C  3.53800 47.51700 24.68500
C  4.43600 48.10200 28.17600
O  3.29800 48.08600 28.49100
C  5.64400 48.42200 29.20800
C  5.63900 47.27700 30.09500
O  6.07500 46.16300 29.90300
O  5.13500 47.65200 31.23900
C  4.73600 46.59300 32.21400
H  12.46500 49.35500 28.34600
H  11.93000 47.47500 22.20400
H  5.60200 47.41100 22.77900
H  8.21400 49.97100 30.40400
H  10.89200 48.63500 30.37900
H  9.89000 51.44200 30.48900
H  11.25700 51.33400 29.43900
H  11.43300 50.80900 31.10100
H  8.33400 47.08400 30.46300
H  7.48800 48.19100 31.64400
H  10.06200 48.27800 32.57100
H  9.90300 46.58700 31.86700
H  15.33700 49.83500 26.22100
H  14.82500 48.56300 27.44400
H  13.98000 50.07300 27.27000
H  16.01800 49.31200 24.32500
H  16.45200 47.86000 23.31100
H  15.85800 47.73900 24.96600
H  9.59100 46.26000 20.88900
H  7.62400 48.49000 20.88900
H  10.99900 48.74300 20.46700
H  9.43000 49.01300 19.88200
H  10.57800 47.65200 19.28500
H  6.07100 47.04100 20.40900
H  6.91400 45.54100 21.09400
H  8.36200 46.53900 18.96700
H  6.68400 45.90500 18.44700
H  7.73600 44.90100 19.40100
H  3.42900 46.49900 24.31100
H  3.49500 48.27300 23.90100
H  2.79300 47.78000 25.43700
H  5.38200 49.31400 29.77600
H  4.12600 47.10900 32.95500
H  5.59900 46.19900 32.75100
H  4.10700 45.82000 31.77100

