158

Mg -0.96800 17.80700 27.37000
C  -1.85900 15.56600 29.85100
C  -1.84000 20.37000 29.37900
C  -0.85500 19.67800 24.60900
C  -0.62900 14.90900 25.15200
N  -1.72800 17.92200 29.44600
C  -1.79400 16.88100 30.32700
C  -2.22000 17.41100 31.75700
C  -2.14000 19.00800 31.53500
C  -1.87700 19.16500 30.00600
C  -3.44400 19.72900 32.02000
C  -1.63200 16.96000 33.07900
C  -2.56200 16.85600 34.31500
H  -1.96100 16.29200 35.58300
N  -1.23000 19.75800 27.00200
C  -1.45900 20.67100 28.00000
C  -1.40700 21.98800 27.45600
C  -1.31500 21.81500 25.99400
C  -1.13300 20.33700 25.79800
C  -1.37700 23.23100 28.31000
C  -1.17200 22.85400 24.84700
O  -1.01500 22.58200 23.65500
C  -1.08000 24.30000 25.29700
N  -0.80000 17.27900 25.18400
C  -0.67000 18.28500 24.26200
C  -0.64000 17.76200 22.84000
C  -0.21300 16.30800 23.05700
C  -0.57500 16.15500 24.54400
C  -1.92300 18.05400 21.99000
C  1.27500 15.97900 22.72200
C  2.42600 16.24600 23.71300
N  -1.15900 15.73700 27.39300
C  -0.97100 14.69200 26.46000
C  -1.25000 13.46100 27.09700
C  -1.66700 13.71300 28.38500
C  -1.55100 15.14300 28.54600
C  -1.27900 12.13100 26.44700
C  -2.06400 13.14100 29.66500
O  -2.05400 11.95700 30.04800
C  -2.30000 14.36100 30.63200
C  -1.44000 14.01600 31.91200
O  -0.21700 14.18200 32.05200
O  -2.26500 13.37400 32.87200
C  -1.45200 12.79600 33.96400
H  -1.84400 21.14500 30.14800
H  -0.88200 20.27500 23.69500
H  -0.30300 14.12700 24.46300
H  -3.23800 17.02200 31.80100
H  -1.29300 19.46300 32.04700
H  -3.15800 20.59800 32.61400
H  -4.08400 19.09600 32.63500
H  -4.11200 20.08500 31.23600
H  -0.95300 17.77600 33.32400
H  -1.01100 16.06400 33.10900
H  -3.21000 16.03000 34.02200
H  -3.12300 17.78100 34.44900
H  -0.54100 23.90700 28.13200
H  -1.37300 23.10700 29.39300
H  -2.32200 23.74800 28.14800
H  -1.00300 24.96700 24.43900
H  -0.11500 24.57500 25.72300
H  -1.91000 24.68600 25.88900
H  0.21700 18.19400 22.32400
H  -0.76500 15.57900 22.46400
H  -2.32100 17.07400 21.72800
H  -1.68600 18.64800 21.10700
H  -2.70200 18.59100 22.53200
H  1.61900 16.60100 21.89600
H  1.42800 14.93100 22.46300
H  2.06400 16.71600 24.62700
H  3.24600 16.87700 23.37000
H  2.93300 15.29500 23.87700
H  -0.71400 11.43700 27.06900
H  -0.83300 12.04800 25.45500
H  -2.31500 11.79300 26.46500
H  -3.37900 14.37400 30.78700
H  -0.53100 13.29500 34.26700
H  -1.21300 11.77000 33.68600
H  -2.08800 12.62400 34.83200
Mg 8.20300 2.56100 28.32400
C  9.54900 1.05300 31.22400
C  6.31500 4.61100 30.37800
C  7.19500 4.03400 25.60900
C  9.76200 -0.04700 26.45300
N  7.89900 2.64800 30.52800
C  8.65200 2.13800 31.51300
C  8.36800 2.72400 32.87800
C  7.23400 3.72100 32.63800
C  7.11000 3.66200 31.06100
C  5.89800 3.39500 33.37200
C  9.63500 3.41400 33.50200
C  10.12600 3.01600 34.85500
H  9.09000 2.75800 36.03500
N  7.07100 4.21600 27.99400
C  6.29600 4.87200 29.00300
C  5.54600 5.95700 28.29200
C  5.79500 5.85000 26.94600
C  6.69700 4.67100 26.75200
C  4.61900 6.83500 29.02900
C  5.27700 6.72400 25.79000
O  5.69200 6.60100 24.60000
C  4.42000 7.86700 26.03200
N  8.43600 2.10100 26.37200
C  7.96000 2.86600 25.43500
C  8.22000 2.32400 23.96700
C  9.25000 1.14400 24.24200
C  9.15100 1.05200 25.79900
C  6.94300 1.87100 23.14700
C  10.75900 1.37900 23.82200
C  11.33400 2.64000 24.40900
N  9.33400 0.76300 28.72600
C  9.87500 -0.18900 27.87100
C  10.57300 -1.23600 28.62300
C  10.50300 -0.77300 29.92900
C  9.72000 0.44700 29.95200
C  11.28000 -2.47700 28.14100
C  10.92800 -1.01100 31.27200
O  11.58200 -1.95500 31.75300
C  10.32900 0.13100 32.21100
C  9.43600 -0.49800 33.17600
O  8.30600 -0.81900 32.94200
O  9.94500 -0.59900 34.41700
C  9.40800 -1.59200 35.36300
H  5.83200 5.28600 31.08700
H  6.84900 4.43800 24.65600
H  10.24600 -0.77700 25.80000
H  8.16000 1.92000 33.58400
H  7.43200 4.78600 32.75600
H  5.86400 2.42900 33.87500
H  5.10600 3.38200 32.62400
H  5.67200 4.21800 34.05100
H  9.36800 4.44800 33.72200
H  10.48900 3.33700 32.82900
H  10.83400 3.80100 35.12300
H  10.72100 2.11600 34.69900
H  4.84800 7.87100 28.77800
H  4.65300 6.75900 30.11600
H  3.56100 6.66700 28.83200
H  3.54200 7.37000 26.44300
H  4.10700 8.37000 25.11700
H  4.90400 8.66500 26.59500
H  8.63800 3.15000 23.39100
H  8.96300 0.20300 23.77200
H  6.92900 0.82900 22.82900
H  6.95800 2.55400 22.29700
H  6.09900 2.18600 23.76000
H  10.82800 1.53900 22.74600
H  11.38500 0.50500 24.00300
H  12.39400 2.61600 24.66300
H  11.01300 2.86800 25.42500
H  11.19700 3.46500 23.70900
H  11.76000 -2.34500 27.17100
H  10.57400 -3.30000 28.02500
H  12.15900 -2.66400 28.75800
H  11.16300 0.58100 32.75000
H  10.21100 -2.09200 35.90500
H  8.65200 -2.29600 35.01600
H  8.95400 -1.07000 36.20600

