158

Mg 7.25500 2.70900 27.74400
C  8.81200 1.38100 30.58400
C  5.64200 4.88100 29.75000
C  5.44800 3.60900 24.96500
C  8.60100 0.09600 25.91200
N  7.25300 3.13200 30.04300
C  8.05900 2.43500 30.97800
C  7.87900 3.18100 32.36000
C  6.77900 4.26800 32.06700
C  6.49400 4.10200 30.55800
C  5.41000 4.08100 32.85000
C  9.24100 3.80800 32.91500
C  9.61400 3.38400 34.34300
H  10.26200 4.48600 35.21800
N  5.90000 4.08100 27.36800
C  5.42100 4.98200 28.30900
C  4.66800 5.90500 27.68100
C  4.59400 5.58700 26.28600
C  5.31800 4.30200 26.13900
C  4.07400 7.06000 28.37900
C  3.96000 6.39400 25.14400
O  3.92800 6.02700 24.00500
C  3.40300 7.68400 25.36500
N  6.93200 1.88300 25.72600
C  6.21600 2.50000 24.80900
C  6.32300 1.71500 23.50500
C  7.49200 0.72800 23.68600
C  7.63900 0.90500 25.22700
C  4.99800 0.93200 23.02500
C  8.78200 1.08100 22.92600
C  9.62400 -0.01000 22.15800
N  8.46500 1.08000 28.12300
C  8.94400 0.05500 27.27900
C  9.82800 -0.85400 28.01800
C  9.89600 -0.32100 29.25900
C  9.01600 0.88700 29.30300
C  10.42200 -2.03700 27.37700
C  10.46600 -0.51200 30.59700
O  11.24200 -1.40500 30.92700
C  9.81000 0.58000 31.45300
C  9.16200 0.03700 32.65600
O  8.14200 -0.59000 32.70500
O  9.92800 0.25400 33.75300
C  9.60500 -0.24100 35.06700
H  5.03500 5.56800 30.34500
H  4.83900 3.75500 24.07100
H  9.07300 -0.62000 25.23600
H  7.44000 2.31500 32.85500
H  7.15200 5.25700 32.33600
H  5.54200 3.44500 33.72500
H  4.61900 3.71700 32.19500
H  4.96300 5.02200 33.17200
H  9.11800 4.88700 33.00100
H  10.11500 3.53600 32.32400
H  10.36000 2.59600 34.43900
H  8.73800 2.99600 34.86400
H  4.61900 7.98500 28.18900
H  4.00200 7.03800 29.46600
H  3.02300 7.18200 28.11700
H  2.37600 7.67300 25.73100
H  3.56700 8.20900 24.42400
H  3.96500 8.23600 26.11900
H  6.40400 2.45200 22.70600
H  7.18000 -0.31000 23.57500
H  5.11900 -0.04600 22.56100
H  4.59500 1.54200 22.21600
H  4.28500 0.99700 23.84800
H  9.52500 1.54700 23.57400
H  8.56400 1.84900 22.18400
H  9.65200 -1.01300 22.58400
H  10.64400 0.36500 22.08200
H  9.26200 -0.19000 21.14600
H  11.25000 -1.65100 26.78100
H  9.84100 -2.56100 26.61800
H  10.66000 -2.76400 28.15300
H  10.63400 1.14800 31.88400
H  8.94400 -1.10700 35.04100
H  8.95900 0.52500 35.49700
H  10.51000 -0.50300 35.61500
Mg 34.72000 2.79300 29.25000
C  32.46300 3.60700 31.83100
C  37.23600 2.80300 31.66400
C  36.94800 2.40200 26.74200
C  32.04000 3.08300 26.91800
N  34.84400 3.15100 31.48300
C  33.78900 3.50000 32.29500
C  34.16500 3.43200 33.77700
C  35.70400 3.47000 33.68100
C  35.97400 3.10900 32.18700
C  36.33800 4.78300 34.09200
C  33.47100 2.28700 34.62800
C  32.69000 2.69400 35.83200
H  33.34100 3.75000 36.73600
N  36.82500 2.66600 29.21100
C  37.65300 2.60000 30.31900
C  39.08700 2.34100 29.81700
C  38.97700 2.19800 28.38300
C  37.52500 2.44700 28.05300
C  40.32100 2.29700 30.80200
C  40.06500 1.77700 27.36000
O  39.94000 1.82100 26.15700
C  41.44000 1.28000 27.77200
N  34.57000 2.76600 27.16500
C  35.59600 2.52200 26.32900
C  35.17300 2.46700 24.82200
C  33.62600 2.41800 24.99100
C  33.31300 2.84800 26.43400
C  35.67700 3.65500 24.07400
C  32.99000 1.02200 24.73800
C  31.59000 1.10100 24.09000
N  32.67500 3.06600 29.36000
C  31.70800 3.31500 28.29900
C  30.50400 3.61300 28.96200
C  30.79600 3.78500 30.28100
C  32.12700 3.41900 30.52400
C  29.29000 4.01500 28.29800
C  30.15400 4.20100 31.51800
O  29.03800 4.69800 31.70100
C  31.17800 4.09600 32.62100
C  31.30100 5.40100 33.28400
O  32.03100 6.34000 32.93000
O  30.47700 5.49000 34.35200
C  30.50800 6.79400 35.01700
H  37.95900 2.63800 32.46600
H  37.73200 2.33200 25.98500
H  31.17100 3.12100 26.25800
H  33.82400 4.42100 34.08300
H  36.06700 2.58100 34.19700
H  37.20500 4.62600 34.73300
H  35.53400 5.32800 34.58700
H  36.59100 5.29200 33.16200
H  34.11400 1.44200 34.87400
H  32.74100 1.81000 33.97400
H  32.34200 1.81900 36.38200
H  31.70000 3.01400 35.50700
H  40.00600 2.99900 31.57300
H  41.22000 2.78200 30.42100
H  40.52800 1.32700 31.25400
H  41.32900 0.61100 28.62600
H  42.10100 2.08700 28.08800
H  41.87200 0.74700 26.92500
H  35.40700 1.51000 24.35600
H  33.16000 3.18800 24.37600
H  34.94100 4.45700 24.14100
H  35.86200 3.42000 23.02600
H  36.58800 3.98200 24.57500
H  32.86400 0.60700 25.73800
H  33.68200 0.41100 24.15900
H  31.53800 0.72500 23.06800
H  31.16400 2.10400 24.12200
H  30.94400 0.35300 24.55200
H  29.42700 4.44000 27.30300
H  28.68600 4.69800 28.89500
H  28.71100 3.10500 28.14100
H  30.83000 3.33000 33.31300
H  29.56300 6.86200 35.55700
H  30.81400 7.62800 34.38500
H  31.33600 6.70700 35.72000

