158

Mg 5.23800 54.33400 40.72400
C  4.87800 50.81200 40.41800
C  8.48200 53.97500 39.71100
C  5.41900 57.67400 40.45400
C  1.77700 54.53500 41.15100
N  6.50300 52.62600 39.97000
C  6.18000 51.27900 40.05300
C  7.45000 50.36400 39.80700
C  8.59500 51.38600 39.88200
C  7.77900 52.72300 39.90600
C  9.65900 51.43300 41.04300
C  7.42700 49.56000 38.38900
C  6.46100 50.08800 37.21700
H  7.03800 50.72300 35.95200
N  6.77200 55.62400 40.32900
C  8.03800 55.31400 39.91700
C  8.77000 56.48900 39.62000
C  7.97500 57.56200 40.15200
C  6.63600 56.97800 40.34300
C  10.19200 56.42900 39.15900
C  8.45200 59.02400 40.35100
O  9.55900 59.38800 40.06200
C  7.65700 59.97200 41.18900
N  3.81400 55.86400 40.52300
C  4.08900 57.21400 40.55700
C  2.89600 58.09600 40.76500
C  1.83000 57.03000 41.03500
C  2.49500 55.70200 40.85400
C  3.06200 59.23800 41.80200
C  0.55100 57.10300 40.12500
C  -0.77100 57.36300 40.86200
N  3.56300 52.98400 40.80600
C  2.24100 53.17700 41.11700
C  1.56800 51.93400 41.36200
C  2.56700 50.94500 41.14900
C  3.74400 51.62300 40.73000
C  0.11700 51.89100 41.49700
C  2.80200 49.55500 40.98900
O  2.01600 48.56400 41.05100
C  4.29500 49.43200 40.53000
C  4.17800 48.75800 39.21500
O  3.66400 49.25100 38.21600
O  4.55900 47.44000 39.31900
C  4.24900 46.52100 38.19900
H  9.55800 53.87800 39.54900
H  5.60900 58.74200 40.33600
H  0.73800 54.62000 41.47700
H  7.52300 49.67800 40.65100
H  9.14800 51.45900 38.94500
H  9.55700 52.37200 41.58800
H  10.67300 51.31300 40.66300
H  9.53500 50.61500 41.75300
H  7.10600 48.56700 38.70400
H  8.44100 49.40400 38.02200
H  5.73800 50.78400 37.64300
H  5.96800 49.19100 36.84200
H  10.42300 57.42300 38.77600
H  10.33300 55.69300 38.36800
H  10.78800 56.18700 40.03900
H  7.16000 59.51700 42.04500
H  6.90300 60.43800 40.55500
H  8.25300 60.75300 41.66100
H  2.71400 58.60700 39.82000
H  1.59000 57.05000 42.09800
H  2.19800 59.16700 42.46300
H  3.04300 60.16300 41.22700
H  3.91200 59.16300 42.48100
H  0.43400 56.17700 39.56100
H  0.64800 57.90400 39.39200
H  -1.33800 58.08000 40.26900
H  -0.63700 57.69900 41.89100
H  -1.37800 56.46500 40.97600
H  -0.39800 52.73000 41.02900
H  -0.09400 51.89000 42.56600
H  -0.24600 50.89000 41.26400
H  4.91100 48.94900 41.28900
H  5.17400 45.95300 38.09900
H  4.04300 47.07600 37.28300
H  3.45400 45.81300 38.43300
Mg -2.24500 35.38100 27.31900
C  -4.06800 33.45700 29.54200
C  -1.32000 37.45000 29.86500
C  -0.57800 37.13200 25.10500
C  -3.45100 33.24700 24.72200
N  -2.71000 35.49800 29.36400
C  -3.31700 34.55100 30.13000
C  -3.17300 34.75400 31.59900
C  -2.60800 36.11500 31.69000
C  -2.16600 36.38200 30.27400
C  -3.64400 37.15600 32.29200
C  -2.55200 33.60400 32.43200
C  -3.27100 33.04900 33.60900
H  -2.48800 32.51600 34.82000
N  -1.20500 37.09500 27.46400
C  -0.87000 37.78200 28.57300
C  -0.02200 38.93500 28.27900
C  0.21200 38.86800 26.88200
C  -0.52600 37.65700 26.42100
C  0.30300 40.01400 29.28900
C  1.01900 39.75400 26.04100
O  1.13500 39.56700 24.81000
C  1.74300 40.95200 26.68500
N  -2.02300 35.26700 25.27300
C  -1.20900 36.02700 24.55500
C  -1.15000 35.68400 23.03900
C  -2.05300 34.44700 23.00300
C  -2.54900 34.23100 24.44600
C  -1.62500 36.79000 22.02700
C  -1.28200 33.13100 22.46500
C  -1.76200 32.55100 21.09500
N  -3.64600 33.84900 27.08600
C  -3.97300 33.01300 26.02500
C  -4.92500 31.98300 26.41200
C  -4.91800 32.05800 27.78100
C  -4.19000 33.22500 28.18500
C  -5.56100 30.93200 25.55200
C  -5.32500 31.41900 28.94800
O  -5.91300 30.36100 29.10500
C  -4.88200 32.33400 30.20200
C  -6.20200 32.83600 30.89500
O  -7.11600 33.45100 30.24000
O  -6.27600 32.60600 32.18500
C  -7.46200 32.91700 32.88200
H  -0.99600 37.92900 30.79200
H  -0.12700 37.72800 24.30900
H  -3.77300 32.46400 24.03200
H  -4.21600 34.81900 31.90900
H  -1.67600 36.07500 32.25300
H  -3.23300 38.16200 32.37800
H  -3.89700 36.98400 33.33800
H  -4.59000 37.06400 31.75800
H  -1.63400 33.98400 32.88100
H  -2.31000 32.79200 31.74700
H  -3.73400 32.12400 33.26400
H  -4.08400 33.68700 33.95600
H  0.03100 39.85700 30.33200
H  -0.11200 40.94000 28.88900
H  1.39000 40.08900 29.30100
H  2.78600 40.73300 26.91400
H  1.34300 41.39400 27.59800
H  1.58700 41.70100 25.90900
H  -0.13300 35.35000 22.83100
H  -2.97700 34.56700 22.43600
H  -1.12100 36.49100 21.10800
H  -1.57100 37.82100 22.37700
H  -2.68600 36.62100 21.84400
H  -1.34600 32.39200 23.26400
H  -0.21700 33.27000 22.28100
H  -0.79200 32.38500 20.62700
H  -2.45800 33.23400 20.60700
H  -2.30300 31.64200 21.35500
H  -6.43300 30.48500 26.03000
H  -4.88100 30.15900 25.19500
H  -5.88300 31.29700 24.57700
H  -4.23000 31.76500 30.86400
H  -7.15500 33.60400 33.67100
H  -7.88200 31.99400 33.28100
H  -8.28300 33.37700 32.33200

