158

Mg 16.84900 51.46700 26.01400
C  18.85700 50.14100 28.62600
C  14.82200 52.70400 28.45000
C  15.14200 52.94800 23.49300
C  19.30900 50.27700 23.78600
N  16.74600 51.15700 28.28700
C  17.70900 50.70100 29.14600
C  17.30100 51.03600 30.64200
C  15.80000 51.43900 30.41400
C  15.78600 51.77900 28.98900
C  14.69800 50.53200 30.85900
C  18.34300 51.99100 31.28300
C  18.47000 51.87000 32.84500
H  17.47300 51.13100 33.69500
N  15.14000 52.62900 25.99700
C  14.44000 53.00900 27.12200
C  13.28600 53.75900 26.70300
C  13.33800 53.87200 25.28400
C  14.57000 53.12900 24.83800
C  12.27800 54.30100 27.68300
C  12.44300 54.66500 24.38700
O  12.56500 54.65200 23.16500
C  11.48200 55.58700 24.90100
N  17.10500 51.50700 23.91900
C  16.36300 52.27300 23.10300
C  17.03000 52.25400 21.71800
C  18.18400 51.28700 21.75900
C  18.23600 51.03900 23.24300
C  16.02200 52.10800 20.53800
C  19.41300 51.76100 20.99700
C  20.39400 50.74600 20.28700
N  18.66900 50.37900 26.08700
C  19.53400 49.95000 25.08600
C  20.64500 49.22700 25.67500
C  20.38000 49.33900 27.07900
C  19.20000 49.99200 27.27200
C  21.86000 48.66700 24.94800
C  20.95300 48.91100 28.28200
O  21.90000 48.15800 28.46300
C  20.05300 49.58800 29.37200
C  19.70500 48.63700 30.45600
O  18.90000 47.71600 30.28400
O  20.48000 48.85900 31.50600
C  20.25900 47.93100 32.65500
H  14.27100 53.22200 29.23700
H  14.65900 53.50200 22.68500
H  20.11900 49.98200 23.11600
H  17.41800 50.13400 31.24300
H  15.57300 52.28200 31.06600
H  14.48000 49.76600 30.11500
H  13.74500 50.99800 31.11100
H  14.93700 50.21300 31.87400
H  17.95600 52.96200 30.97100
H  19.36500 51.90800 30.91500
H  18.67200 52.88200 33.19600
H  19.36400 51.27800 33.04400
H  11.23700 54.37100 27.36800
H  12.68600 55.26200 27.99400
H  12.35600 53.82100 28.65800
H  11.91200 56.32100 25.58400
H  10.70300 55.11900 25.50300
H  11.06100 56.22100 24.12200
H  17.47200 53.23700 21.55400
H  17.94000 50.31900 21.32200
H  15.01400 52.00000 20.93800
H  16.14700 51.31600 19.79900
H  16.13900 53.02700 19.96400
H  20.05400 52.30900 21.68800
H  19.07300 52.44800 20.22300
H  20.46400 51.05200 19.24300
H  20.01700 49.72300 20.28700
H  21.37400 50.67100 20.75900
H  21.81400 47.58200 24.84800
H  22.83500 48.82300 25.41000
H  21.78800 49.11400 23.95600
H  20.59400 50.43600 29.79100
H  20.20000 46.91600 32.26000
H  19.45300 48.17500 33.34700
H  21.10600 47.95000 33.34100
Mg 1.05400 41.84100 25.78300
C  2.52300 42.15400 28.99200
C  -1.78900 40.72100 27.29800
C  -0.11400 41.06700 22.78800
C  4.07100 42.97800 24.44200
N  0.48000 41.54300 27.88900
C  1.19500 41.74300 29.05400
C  0.30300 41.77500 30.29900
C  -1.06200 41.12900 29.81800
C  -0.80900 41.10600 28.24400
C  -1.46900 39.75800 30.49600
C  0.16100 43.15500 30.90800
C  0.42700 43.30800 32.40000
H  0.03600 42.10000 33.20200
N  -0.76400 41.03800 25.10600
C  -1.76900 40.61500 25.87900
C  -2.81500 40.11500 24.98500
C  -2.35700 40.34600 23.61300
C  -1.02400 40.88500 23.79900
C  -4.08300 39.29900 25.41600
C  -2.98500 39.96600 22.36800
O  -2.42800 40.00100 21.29300
C  -4.50500 39.62200 22.32900
N  1.83100 42.01800 23.93200
C  1.20300 41.43300 22.88900
C  2.00100 41.44200 21.59100
C  3.19100 42.50000 21.97700
C  3.06900 42.52100 23.57100
C  2.60600 40.02300 21.22900
C  3.00300 43.89400 21.31000
C  4.24300 44.52300 20.63800
N  2.88100 42.50300 26.50600
C  4.02200 42.89400 25.83500
C  5.09700 43.17100 26.75900
C  4.50900 42.90800 27.97400
C  3.20700 42.51600 27.81000
C  6.56900 43.53600 26.49200
C  4.81900 42.75200 29.40700
O  5.90200 42.83800 29.98200
C  3.49900 42.39200 30.10900
C  3.70000 41.15900 30.97200
O  3.31800 40.01800 30.55100
O  4.06500 41.46800 32.26900
C  4.22900 40.32100 33.25800
H  -2.66900 40.29800 27.78800
H  -0.44600 40.90800 21.76000
H  4.85800 43.45100 23.85000
H  0.84000 41.06100 30.92300
H  -1.92600 41.78300 29.93700
H  -1.20600 38.89000 29.89100
H  -2.54600 39.65100 30.62600
H  -1.04300 39.43000 31.44400
H  -0.84200 43.57000 30.80800
H  0.92100 43.73100 30.38000
H  -0.11300 44.18600 32.75500
H  1.51100 43.40700 32.44700
H  -4.01500 38.94700 26.44600
H  -4.23400 38.38700 24.83800
H  -4.91900 39.90200 25.06200
H  -4.71800 38.56800 22.50400
H  -4.81700 39.89300 21.32100
H  -4.95500 40.32900 23.02700
H  1.31800 41.80700 20.82300
H  4.21500 42.15900 21.82900
H  2.65500 39.27900 22.02400
H  3.61600 40.15800 20.84200
H  2.00000 39.58200 20.43700
H  2.69000 44.66100 22.01800
H  2.25200 43.83000 20.52200
H  4.54900 45.35100 21.27700
H  4.01800 44.88400 19.63500
H  5.07700 43.82400 20.57900
H  6.82300 44.53300 26.85400
H  6.75300 43.30300 25.44300
H  7.18200 42.81300 27.03000
H  3.32500 43.25100 30.75600
H  4.17100 40.61300 34.30600
H  5.24600 39.98600 33.05300
H  3.58700 39.47500 33.01300

