158

Mg 24.46400 -5.52200 46.43100
C  26.23900 -2.96100 44.61500
C  21.82100 -4.75500 44.48800
C  23.18600 -8.48500 47.39900
C  27.49400 -6.43300 47.97300
N  24.06000 -3.99200 44.70500
C  24.86400 -3.03700 44.22400
C  24.22300 -2.28800 43.07900
C  22.77300 -2.67400 43.28300
C  22.87200 -3.85500 44.15500
C  21.78700 -1.63800 43.87000
C  24.77700 -2.58200 41.68200
C  25.07600 -1.30300 40.88000
H  24.66200 -1.30100 39.41800
N  22.75800 -6.37800 46.00300
C  21.77800 -5.96000 45.18600
C  20.67100 -6.86400 45.19100
C  20.88700 -7.85600 46.13700
C  22.31100 -7.60800 46.56800
C  19.37900 -6.61800 44.42100
C  19.95300 -8.91800 46.47400
O  18.78700 -9.04400 46.02700
C  20.34000 -10.07500 47.42500
N  25.15000 -7.09800 47.68800
C  24.43900 -8.28200 47.86000
C  25.20300 -9.32900 48.79000
C  26.55400 -8.60000 49.00700
C  26.43800 -7.28600 48.15300
C  24.49500 -9.67100 50.14600
C  27.80700 -9.47800 48.87900
C  28.80100 -9.28700 50.09500
N  26.41500 -4.84700 46.39800
C  27.56500 -5.25000 47.08700
C  28.68700 -4.43300 46.78600
C  28.24200 -3.57900 45.78100
C  26.82800 -3.82000 45.60600
C  30.09300 -4.61200 47.34600
C  28.58000 -2.39100 44.87800
O  29.54300 -1.67900 44.76200
C  27.31000 -2.09700 44.06300
C  26.91000 -0.61500 44.08400
O  26.11800 0.01900 44.80500
O  27.67500 0.07600 43.19700
C  27.50500 1.46900 42.90800
H  20.89300 -4.35900 44.06900
H  22.84700 -9.48300 47.68500
H  28.41000 -6.80300 48.43600
H  24.33700 -1.24900 43.38700
H  22.31900 -2.90200 42.31900
H  22.29200 -0.78600 44.32600
H  21.15100 -2.02700 44.66500
H  21.16000 -1.18000 43.10500
H  24.15800 -3.24800 41.08100
H  25.74700 -3.07100 41.77200
H  26.15300 -1.29400 40.71400
H  24.70500 -0.46500 41.47000
H  18.56900 -6.20300 45.02000
H  19.06500 -7.56300 43.97600
H  19.60500 -5.99400 43.55600
H  20.87300 -9.74400 48.31600
H  21.00600 -10.75100 46.88900
H  19.51800 -10.74900 47.66600
H  25.42600 -10.26200 48.27200
H  26.48500 -8.03300 49.93500
H  25.18200 -9.33400 50.92200
H  24.56000 -10.75900 50.18500
H  23.49200 -9.25700 50.25100
H  28.36100 -9.13700 48.00400
H  27.61700 -10.54200 48.74200
H  28.48700 -8.45800 50.73000
H  29.77600 -8.95200 49.74100
H  28.96400 -10.19000 50.68300
H  30.77300 -3.85200 46.95900
H  30.24300 -5.65800 47.08000
H  30.00900 -4.60100 48.43200
H  27.72000 -2.36000 43.08800
H  27.86100 1.74100 41.91400
H  28.01600 2.06900 43.66200
H  26.47500 1.79700 43.04800
Mg 43.89700 5.43800 47.25800
C  41.87300 8.26000 46.69500
C  41.20300 3.42400 46.47800
C  46.05300 2.79200 47.12500
C  46.66000 7.50000 46.86500
N  41.71900 5.80400 46.57100
C  41.12700 7.03300 46.68300
C  39.68700 6.87700 46.47800
C  39.41400 5.34800 46.47700
C  40.86000 4.77400 46.55500
C  38.48300 4.75400 47.60100
C  39.04700 7.63900 45.31200
C  39.82800 7.70500 44.00700
H  39.24800 7.00500 42.74000
N  43.59000 3.36900 47.08100
C  42.46000 2.71900 46.71900
C  42.68800 1.33600 46.52100
C  44.01900 1.12400 46.92700
C  44.64700 2.45200 47.06100
C  41.68600 0.34900 46.11700
C  44.69200 -0.26300 47.09100
O  44.07400 -1.26200 46.96600
C  46.21300 -0.44600 47.41900
N  46.03400 5.21700 47.06500
C  46.66500 4.00800 47.14900
C  48.19400 4.11300 47.44000
C  48.37400 5.61900 47.04500
C  46.92200 6.16300 46.96300
C  48.61700 3.58000 48.86200
C  49.21300 5.89200 45.77900
C  48.98500 4.96100 44.54400
N  44.25500 7.42600 47.04300
C  45.40800 8.12700 46.81300
C  45.15400 9.57200 46.72200
C  43.74000 9.63700 46.78600
C  43.29000 8.32400 46.87900
C  46.16100 10.74100 46.66900
C  42.64200 10.58600 46.78500
O  42.63700 11.78700 46.62400
C  41.39900 9.65400 46.75600
C  40.62000 9.91900 47.92000
O  40.41200 9.25500 48.88400
O  40.07700 11.15500 47.70300
C  38.94600 11.41000 48.66100
H  40.36800 2.80800 46.13700
H  46.71300 1.92500 47.20400
H  47.56900 8.10500 46.83500
H  39.22100 7.27600 47.38000
H  38.96300 5.01300 45.54300
H  37.85200 3.95700 47.20800
H  37.96400 5.62700 47.99800
H  39.06100 4.34400 48.43000
H  38.91200 8.69600 45.53900
H  38.03800 7.23500 45.23300
H  40.86500 7.41400 44.17400
H  39.92000 8.77000 43.79300
H  42.10300 -0.27100 45.32400
H  40.72300 0.76100 45.81500
H  41.51900 -0.36800 46.92100
H  46.87600 -0.02900 46.66100
H  46.49400 -1.49900 47.40500
H  46.37800 0.00800 48.39600
H  48.77000 3.46100 46.78400
H  48.80100 6.16500 47.88600
H  47.84000 3.03100 49.39400
H  48.88200 4.49300 49.39500
H  49.54200 3.01600 48.75000
H  50.24200 5.83500 46.13300
H  49.04500 6.90800 45.42200
H  48.66900 5.51500 43.66000
H  48.20400 4.22300 44.72900
H  49.92900 4.44100 44.38300
H  46.63400 11.10100 47.58200
H  45.55300 11.56600 46.29900
H  46.90900 10.44700 45.93300
H  40.80600 9.91500 45.87900
H  38.29000 10.54000 48.66700
H  38.32700 12.18500 48.20900
H  39.16600 11.82700 49.64400

