158

Mg 34.71200 3.56800 29.74500
C  32.33400 4.16500 32.36800
C  37.08500 3.57000 32.28500
C  36.79700 3.17600 27.37300
C  32.10500 3.92900 27.51300
N  34.67200 3.81500 32.09800
C  33.59100 4.02600 32.86800
C  33.99200 3.90100 34.37400
C  35.56500 4.22900 34.33000
C  35.84600 3.88400 32.76200
C  36.01200 5.72500 34.64200
C  33.60600 2.55300 35.07700
C  33.06500 2.76800 36.48600
H  33.69800 3.90900 37.36000
N  36.72600 3.43400 29.84300
C  37.50200 3.35600 30.94400
C  38.90100 3.08300 30.50300
C  38.84900 3.02600 29.04900
C  37.47000 3.24600 28.65100
C  40.07700 2.78100 31.43900
C  39.91900 2.68700 28.08300
O  39.70200 2.64300 26.92400
C  41.29800 2.38600 28.70500
N  34.47800 3.65400 27.73300
C  35.50800 3.48400 26.94900
C  35.18400 3.56700 25.40100
C  33.66000 3.61400 25.49500
C  33.35100 3.76200 27.02000
C  35.77000 4.67500 24.58400
C  32.97900 2.28000 24.87100
C  32.63900 1.15100 25.76600
N  32.69400 3.93000 29.92100
C  31.75300 4.02800 28.86700
C  30.43200 4.25100 29.43800
C  30.66400 4.32400 30.85100
C  32.04900 4.15100 31.04900
C  29.16200 4.20500 28.65900
C  29.97800 4.44600 32.07700
O  28.85000 4.78500 32.34500
C  31.11500 4.30200 33.13900
C  31.13700 5.58400 33.93800
O  31.42900 6.73500 33.54800
O  30.67400 5.34100 35.16300
C  30.45700 6.58600 35.98600
H  37.80300 3.55800 33.10800
H  37.50100 3.00800 26.55500
H  31.42900 4.08100 26.66900
H  33.61700 4.68100 35.03800
H  36.04300 3.53200 35.01800
H  36.78600 6.06900 33.95600
H  36.30000 5.83100 35.68800
H  35.16800 6.39200 34.46300
H  34.45100 1.86500 35.06200
H  32.77300 2.19500 34.47200
H  33.25300 1.90000 37.11700
H  32.03000 3.10900 36.51400
H  39.72300 2.84400 32.46800
H  40.91900 3.44800 31.25100
H  40.42200 1.75700 31.29800
H  41.58000 3.27900 29.26400
H  42.05100 2.27000 27.92500
H  41.26600 1.45100 29.26300
H  35.64000 2.69500 24.93200
H  33.32800 4.50900 24.96900
H  35.03400 5.25500 24.02700
H  36.44800 4.22500 23.85900
H  36.30300 5.39700 25.20200
H  33.77500 1.85700 24.25900
H  32.13400 2.64700 24.28900
H  31.58100 1.11900 26.02700
H  33.15200 1.19300 26.72700
H  32.95800 0.16400 25.43100
H  28.62700 5.15400 28.65100
H  28.58400 3.42000 29.14700
H  29.35500 3.83700 27.65200
H  30.90700 3.40700 33.72600
H  29.74800 7.32400 35.61200
H  31.36100 7.11400 36.28700
H  30.14100 5.99000 36.84300
Mg 36.81700 50.18800 24.59200
C  37.06600 48.38800 27.38800
C  35.56100 52.81900 26.41500
C  35.99500 51.88300 21.60100
C  37.52600 47.42100 22.65000
N  36.40800 50.57600 26.65800
C  36.55300 49.65800 27.64500
C  36.34300 50.32900 29.03300
C  35.57800 51.56600 28.62600
C  35.86300 51.68300 27.14400
C  34.04200 51.62800 28.92300
C  37.79000 50.58500 29.68400
C  38.03300 50.19100 31.13300
H  36.87700 50.34600 32.05900
N  36.01700 52.13100 24.11100
C  35.62200 53.03600 24.98800
C  35.09500 54.25300 24.32000
C  35.25500 53.99900 22.97000
C  35.83600 52.65800 22.81200
C  34.52200 55.47400 25.08400
C  34.71200 54.85900 21.83000
O  34.93500 54.51700 20.60700
C  33.88000 56.06500 22.09000
N  36.70100 49.73400 22.47600
C  36.40100 50.57100 21.47800
C  36.44400 49.90100 20.07100
C  37.22800 48.64400 20.43400
C  37.21300 48.60000 21.96500
C  34.99400 49.78800 19.43700
C  38.59900 48.44700 19.78900
C  39.81000 49.20100 20.35200
N  37.18700 48.21100 24.93100
C  37.60100 47.23700 24.08800
C  37.99700 46.06400 24.82900
C  37.80300 46.44600 26.14600
C  37.37600 47.80100 26.15700
C  38.57400 44.77400 24.19900
C  37.85700 46.03300 27.52700
O  38.11800 44.91600 28.04700
C  37.36500 47.31200 28.38400
C  36.25900 46.89800 29.32900
O  35.14000 46.59200 29.04100
O  36.80900 46.70200 30.57000
C  35.96300 46.23100 31.66500
H  35.11200 53.63000 26.99100
H  35.64100 52.29100 20.65200
H  37.96200 46.62500 22.04300
H  35.74700 49.64800 29.64000
H  35.91600 52.49900 29.07700
H  33.55200 50.90600 29.57700
H  33.45200 51.78100 28.02000
H  33.87100 52.61300 29.35600
H  38.07500 51.63600 29.64800
H  38.60500 50.09700 29.14900
H  38.94700 50.61600 31.54800
H  38.26400 49.12600 31.15700
H  34.90800 55.62400 26.09200
H  33.44100 55.34100 25.11000
H  34.62700 56.38500 24.49400
H  33.48200 56.41300 21.13700
H  34.47300 56.90400 22.45400
H  33.07300 55.89300 22.80200
H  37.04200 50.52700 19.40900
H  36.58100 47.83800 20.08900
H  34.33000 50.62500 19.65000
H  34.50600 48.83400 19.63700
H  35.25000 49.76300 18.37800
H  38.60100 48.50600 18.70100
H  38.74700 47.38600 19.99200
H  39.62100 49.98100 21.08900
H  40.39700 49.61900 19.53400
H  40.46000 48.43300 20.77100
H  39.05300 45.08900 23.27100
H  37.73700 44.13500 23.91800
H  39.40400 44.35400 24.76800
H  38.12500 47.73600 29.04100
H  36.59100 45.61100 32.30500
H  35.17100 45.62200 31.23000
H  35.59500 46.94900 32.39800

