158

Mg 41.51300 8.15800 29.43700
C  43.16200 9.78500 31.95900
C  39.15700 6.91800 31.75000
C  40.21100 6.17900 27.10500
C  44.25000 8.89800 27.35900
N  41.17100 8.36200 31.50400
C  42.03100 9.05500 32.39100
C  41.58300 8.89000 33.92000
C  40.37200 8.00700 33.82500
C  40.21100 7.69700 32.27100
C  40.10400 6.74600 34.68900
C  41.15800 10.31500 34.54000
C  40.25600 10.36800 35.77500
H  40.79500 11.02000 37.04800
N  39.75700 6.99900 29.37300
C  38.86200 6.69800 30.38200
C  37.70400 6.00500 29.77800
C  38.03200 5.83500 28.44100
C  39.39800 6.30500 28.26500
C  36.55700 5.54100 30.65900
C  37.16700 5.32600 27.28500
O  37.55000 5.15500 26.11800
C  35.68800 5.23800 27.59700
N  42.23800 7.45300 27.55700
C  41.48900 6.75000 26.74800
C  42.06600 6.64400 25.29200
C  43.24800 7.59100 25.36500
C  43.27900 8.01900 26.84700
C  42.30300 5.13500 24.91500
C  43.02000 8.89900 24.46700
C  41.97900 9.96600 24.96600
N  43.32600 9.17500 29.55400
C  44.30700 9.41600 28.65800
C  45.33200 10.28100 29.25100
C  44.90900 10.54200 30.55600
C  43.69100 9.82800 30.70700
C  46.54300 10.77400 28.49200
C  45.24800 11.18100 31.77400
O  46.17200 11.93000 32.14200
C  44.03900 10.68300 32.72400
C  44.65100 10.04600 33.89300
O  45.37800 9.07100 33.73200
O  44.32900 10.52900 35.11600
C  44.54100 9.70400 36.35200
H  38.46300 6.59300 32.52800
H  39.85500 5.39400 26.43500
H  45.06700 9.25300 26.72800
H  42.33900 8.36800 34.50700
H  39.46400 8.60900 33.86400
H  39.78300 5.88200 34.10700
H  39.30600 6.92100 35.41000
H  40.98900 6.53800 35.29000
H  40.52500 10.80100 33.79800
H  42.06300 10.90200 34.69500
H  40.13500 9.30100 35.95900
H  39.26100 10.74900 35.54600
H  35.67900 6.18200 30.73700
H  36.80200 5.39100 31.71100
H  36.21500 4.62300 30.18100
H  35.12100 5.01200 26.69400
H  35.40600 6.22300 27.96900
H  35.56900 4.35500 28.22500
H  41.30900 7.09900 24.65300
H  44.21600 7.10600 25.24000
H  43.04200 5.12200 24.11500
H  41.35200 4.67100 24.65300
H  42.69900 4.60700 25.78300
H  42.71700 8.57000 23.47200
H  43.98200 9.36300 24.25100
H  41.65600 10.58700 24.13100
H  42.53900 10.52300 25.71700
H  41.10200 9.54200 25.45500
H  47.30900 10.77400 29.26700
H  46.31800 11.79100 28.17100
H  46.78800 10.17200 27.61700
H  43.57600 11.56500 33.16600
H  44.84300 8.70300 36.04100
H  43.59100 9.66700 36.88500
H  45.27100 10.14600 37.03000
Mg 35.15700 49.18600 25.10500
C  35.21400 47.51400 28.23300
C  33.78700 52.00400 26.73900
C  34.43400 50.49300 22.16700
C  36.04200 46.13500 23.63400
N  34.48500 49.64600 27.24500
C  34.73600 48.86800 28.36800
C  34.29300 49.60400 29.65700
C  33.77400 51.02200 29.12000
C  34.08500 50.94100 27.59400
C  32.28800 51.41700 29.43800
C  35.48500 49.67000 30.62300
C  35.19000 49.15100 32.07800
H  33.68800 48.96200 32.55300
N  34.29200 51.04700 24.49600
C  33.84200 52.06600 25.31600
C  33.30600 53.20400 24.45600
C  33.40800 52.70500 23.11700
C  34.07600 51.39200 23.16700
C  32.62300 54.47700 25.08000
C  33.01100 53.36400 21.84300
O  33.06300 52.81600 20.69300
C  32.33200 54.76200 21.80200
N  35.38200 48.45100 23.15600
C  35.05400 49.21300 22.14100
C  35.38700 48.48800 20.77900
C  35.90700 47.08500 21.28400
C  35.76600 47.20100 22.77100
C  34.20700 48.40700 19.78700
C  37.33000 46.84000 20.79500
C  38.33900 47.85600 21.39900
N  35.64700 47.22200 25.74200
C  36.09700 46.09700 25.02000
C  36.40700 45.00300 25.99600
C  36.11900 45.56400 27.23300
C  35.65800 46.88400 27.03000
C  36.78300 43.54600 25.76200
C  36.05500 45.19300 28.59300
O  36.31900 44.17000 29.24200
C  35.44800 46.52600 29.31600
C  34.22300 45.95600 30.05100
O  33.07400 45.96300 29.65400
O  34.53800 45.46500 31.28000
C  33.43500 44.81100 32.10700
H  33.49300 52.93300 27.23200
H  34.22300 50.94000 21.19300
H  36.38700 45.21600 23.15700
H  33.51700 48.91600 29.99100
H  34.44700 51.73700 29.59500
H  31.57000 50.63500 29.68500
H  31.92400 51.90300 28.53200
H  32.39500 52.14000 30.24600
H  36.03900 50.59700 30.76600
H  36.26200 49.01400 30.23100
H  35.79100 49.76700 32.74600
H  35.56800 48.13500 32.18900
H  32.52600 55.41500 24.53200
H  33.04200 54.71500 26.05800
H  31.62600 54.18100 25.40600
H  32.45000 55.03100 20.75200
H  32.91600 55.50400 22.34700
H  31.32300 54.56000 22.16000
H  36.16700 49.06300 20.27900
H  35.26200 46.25600 20.99300
H  34.62700 48.55400 18.79200
H  33.31600 49.02400 19.90600
H  33.75700 47.41500 19.78300
H  37.31500 47.09800 19.73600
H  37.73300 45.83000 20.87000
H  38.02600 48.52300 22.20200
H  38.62900 48.44100 20.52700
H  39.23900 47.34400 21.73900
H  37.20200 43.60100 24.75700
H  35.91800 42.88300 25.76000
H  37.60000 43.34500 26.45500
H  36.21500 46.93400 29.97400
H  33.24000 43.75100 31.94400
H  32.42500 45.19600 31.96400
H  33.66300 44.91100 33.16800

