158

Mg 16.20800 -1.45100 28.92700
C  15.08100 0.80800 31.52000
C  18.04100 -3.08500 31.12600
C  17.43200 -3.28500 26.29000
C  14.32300 0.43200 26.75100
N  16.23300 -1.28200 31.06500
C  15.85300 -0.27400 31.93300
C  16.24900 -0.60400 33.37600
C  17.19100 -1.86900 33.23500
C  17.11000 -2.15400 31.71400
C  18.64600 -1.66500 33.67000
C  15.03200 -0.95700 34.19100
C  15.14700 -0.52600 35.58700
H  16.52100 -0.24500 36.24700
N  17.50200 -2.99300 28.73400
C  18.15700 -3.48600 29.79200
C  18.99500 -4.57400 29.32300
C  18.86500 -4.60400 27.90900
C  17.92300 -3.53700 27.58700
C  19.75400 -5.52300 30.21700
C  19.62600 -5.55700 26.93200
O  19.42700 -5.41000 25.74200
C  20.59000 -6.60300 27.46100
N  16.06200 -1.22600 26.76600
C  16.64800 -2.18300 25.95200
C  16.26000 -1.83900 24.45900
C  15.14500 -0.77700 24.62000
C  15.14000 -0.53200 26.11700
C  17.51100 -1.40000 23.61900
C  13.75100 -1.23000 24.14200
C  12.97100 -0.15300 23.38200
N  14.95700 0.31600 29.07100
C  14.21600 0.82400 28.09100
C  13.39700 1.91700 28.58900
C  13.75300 1.99800 29.95100
C  14.65900 1.01200 30.20400
C  12.49600 2.71300 27.76400
C  13.50100 2.63400 31.25800
O  12.67100 3.53900 31.53400
C  14.38200 1.84000 32.32500
C  15.30900 2.86600 32.80700
O  16.20500 3.34800 32.13700
O  15.02200 3.04300 34.15200
C  15.48100 4.38900 34.56400
H  18.57700 -3.67700 31.87000
H  17.63900 -4.01800 25.50800
H  13.70700 1.06600 26.10900
H  16.74700 0.28200 33.77000
H  16.69000 -2.64900 33.80800
H  19.43700 -1.92300 32.96500
H  18.61800 -2.26800 34.57700
H  18.73900 -0.60700 33.91400
H  14.75900 -2.01000 34.26200
H  14.16100 -0.48700 33.73500
H  14.50100 -1.22000 36.12400
H  14.65600 0.44200 35.68600
H  20.79300 -5.37700 29.92200
H  19.37600 -6.52000 29.98900
H  19.70100 -5.33400 31.28900
H  21.02500 -7.24100 26.69100
H  20.24200 -7.29600 28.22700
H  21.37700 -5.99600 27.91000
H  15.91900 -2.77700 24.02100
H  15.56500 0.10800 24.14000
H  17.70100 -0.32800 23.67800
H  17.26400 -1.60300 22.57700
H  18.43200 -1.91400 23.89100
H  13.11800 -1.40600 25.01200
H  13.87300 -2.19200 23.64300
H  12.07500 -0.59800 22.94900
H  13.53900 0.45100 22.67400
H  12.57700 0.56100 24.10500
H  11.87900 2.05800 27.14900
H  13.10600 3.22600 27.02000
H  11.98200 3.44700 28.38400
H  13.72400 1.40700 33.07800
H  15.24600 5.22400 33.90400
H  16.54700 4.32500 34.78400
H  14.88200 4.64200 35.43900
Mg 16.91500 52.20300 25.67800
C  18.36700 50.59100 28.38700
C  14.44700 53.29600 27.91800
C  15.46100 53.79500 23.20500
C  19.27600 50.85200 23.59900
N  16.43800 51.74400 27.96500
C  17.29000 51.25100 28.82500
C  16.87300 51.42700 30.24800
C  15.45100 52.04400 30.03000
C  15.41200 52.34900 28.51800
C  14.23400 51.11400 30.49100
C  17.82800 52.44400 31.03900
C  18.19700 52.11400 32.52400
H  17.27600 52.64200 33.63200
N  15.23000 53.43200 25.60300
C  14.39700 53.80100 26.64100
C  13.46400 54.70900 26.15500
C  13.72200 54.87000 24.73000
C  14.89800 54.09600 24.49200
C  12.45700 55.42600 27.11000
C  13.05900 55.76400 23.71600
O  13.27200 55.75700 22.49600
C  11.93100 56.67500 24.25200
N  17.38900 52.51800 23.72800
C  16.58000 53.07900 22.84700
C  17.18300 53.13600 21.43800
C  18.57200 52.30200 21.62700
C  18.43400 51.87200 23.08200
C  16.20900 52.59500 20.31300
C  19.87800 53.01700 21.30200
C  19.95400 54.46300 21.86800
N  18.46800 50.86800 25.86000
C  19.37700 50.36100 24.96000
C  20.36600 49.53300 25.59800
C  19.97700 49.58700 26.96400
C  18.85000 50.40400 27.03300
C  21.59300 48.93500 24.90500
C  20.43800 49.22600 28.30300
O  21.37100 48.53100 28.70900
C  19.49400 50.00700 29.26500
C  18.80200 48.97700 30.15600
O  17.96600 48.12800 29.81500
O  19.29500 49.12600 31.40000
C  19.08900 48.02900 32.38900
H  13.80600 53.73200 28.68800
H  14.98200 54.21200 22.31600
H  19.92100 50.47000 22.80600
H  16.81500 50.45300 30.73400
H  15.39700 53.03400 30.48200
H  13.60800 51.66200 31.19500
H  14.55200 50.25500 31.08200
H  13.59400 50.82000 29.65900
H  17.32300 53.41000 31.03100
H  18.76100 52.53000 30.48200
H  19.16800 52.54600 32.76700
H  18.36700 51.03800 32.52100
H  12.65300 56.49700 27.06300
H  12.50600 55.27300 28.18800
H  11.41100 55.31500 26.82400
H  12.46100 57.26900 24.99600
H  11.18600 56.01700 24.69800
H  11.42000 57.21700 23.45700
H  17.53900 54.09600 21.06400
H  18.42800 51.46200 20.94700
H  15.24800 53.02800 20.59100
H  16.12000 51.52200 20.48200
H  16.54300 52.85900 19.30900
H  20.02800 53.02800 20.22200
H  20.73900 52.45800 21.66700
H  19.11300 54.87300 22.42700
H  20.10300 55.17900 21.06000
H  20.87700 54.51300 22.44700
H  21.71500 47.95000 25.35500
H  22.47600 49.53700 25.12100
H  21.46700 48.86600 23.82500
H  20.02200 50.78700 29.81400
H  18.13000 47.51600 32.31700
H  19.07900 48.57600 33.33200
H  19.91600 47.32600 32.29400

