158

Mg 16.10900 -1.56900 28.61300
C  15.07000 0.15700 31.53500
C  18.19300 -3.30600 30.63100
C  17.43000 -3.04200 25.92200
C  14.39100 0.61500 26.63200
N  16.51200 -1.61000 30.84700
C  15.93400 -0.87400 31.80600
C  16.50700 -1.18700 33.20400
C  17.55700 -2.33400 32.82300
C  17.41200 -2.43800 31.33500
C  19.04400 -2.07100 33.33700
C  15.37500 -1.56400 34.20700
C  15.33500 -0.80600 35.59300
H  16.69500 -0.40000 36.25200
N  17.46900 -3.06500 28.32900
C  18.22300 -3.66600 29.28200
C  19.23100 -4.51700 28.69300
C  19.04400 -4.46700 27.32700
C  17.92200 -3.51700 27.13700
C  20.13200 -5.23500 29.57900
C  19.67500 -5.27600 26.17000
O  19.39100 -5.13100 24.96900
C  20.57100 -6.39800 26.47200
N  15.97200 -1.16600 26.57800
C  16.62000 -1.91000 25.63500
C  16.39700 -1.33100 24.21900
C  15.16600 -0.41600 24.49600
C  15.16400 -0.34000 25.96900
C  17.66000 -0.73400 23.56000
C  13.81000 -0.92000 24.01800
C  13.37900 -0.45500 22.63600
N  14.89200 0.07500 28.92300
C  14.21000 0.86100 28.02200
C  13.39500 1.77400 28.71100
C  13.69100 1.56200 30.08300
C  14.55100 0.49400 30.23400
C  12.55700 2.77600 28.08100
C  13.39800 2.02800 31.45000
O  12.61400 2.83700 31.90700
C  14.33500 1.11800 32.40200
C  15.24400 2.07600 33.00100
O  16.34500 2.34400 32.57300
O  14.78100 2.60900 34.18800
C  15.69900 3.33600 35.05700
H  18.90800 -3.83200 31.26700
H  17.86000 -3.53100 25.04500
H  13.80100 1.30600 26.02600
H  17.06100 -0.33600 33.60000
H  17.18300 -3.25300 33.27500
H  19.37800 -2.75300 34.11800
H  19.14600 -1.11200 33.84400
H  19.82900 -2.27200 32.60700
H  15.43600 -2.60700 34.51700
H  14.40100 -1.50500 33.72100
H  14.90900 -1.58500 36.22500
H  14.64300 0.02900 35.48000
H  20.74800 -4.60300 30.21900
H  20.85100 -5.77700 28.96500
H  19.56700 -6.01300 30.09200
H  19.99500 -7.02300 27.15400
H  21.54500 -6.06800 26.83300
H  20.63000 -7.05000 25.60000
H  16.06300 -2.09300 23.51400
H  15.51300 0.58600 24.24500
H  18.48100 -0.78000 24.27600
H  17.58600 0.32800 23.32500
H  17.99100 -1.24700 22.65700
H  12.99000 -0.59500 24.65900
H  13.81300 -2.00900 24.00300
H  13.92000 0.44300 22.33600
H  12.32800 -0.20700 22.78600
H  13.47600 -1.28300 21.93500
H  11.79900 2.30800 27.45300
H  13.08900 3.45300 27.41300
H  12.04400 3.32800 28.86800
H  13.65100 0.70900 33.14600
H  15.63300 4.40000 34.82900
H  16.75100 3.05100 35.02300
H  15.31200 3.31600 36.07600
Mg 46.88000 17.38200 27.70500
C  45.15800 17.24700 30.79200
C  49.55500 18.89500 29.39800
C  48.60600 17.72500 24.83600
C  44.18800 15.95300 26.15500
N  47.13300 18.15300 29.82400
C  46.41800 17.92600 30.94000
C  47.12800 18.35100 32.20400
C  48.35400 19.17100 31.64300
C  48.39200 18.74000 30.12800
C  48.09200 20.72800 31.82700
C  47.50700 17.18000 33.06600
C  47.22100 17.22800 34.60000
H  46.79700 18.64800 35.19300
N  48.69900 18.35500 27.14900
C  49.63200 18.88900 27.96500
C  50.80600 19.37600 27.17900
C  50.49200 19.02700 25.85900
C  49.22400 18.41500 25.86800
C  52.06600 19.78000 27.85400
C  51.28000 19.35000 24.49700
O  51.05200 18.87100 23.37200
C  52.36100 20.40500 24.44300
N  46.40200 17.00500 25.80500
C  47.38100 17.04600 24.79600
C  46.88300 16.36900 23.51100
C  45.61700 15.49100 24.05800
C  45.34700 16.24200 25.38000
C  46.59300 17.36500 22.34300
C  45.93700 14.01200 24.18600
C  44.75700 13.10100 24.24800
N  45.00300 16.90500 28.20200
C  44.01600 16.21500 27.54600
C  42.98400 15.74100 28.41900
C  43.44800 16.18000 29.67800
C  44.66900 16.87700 29.55300
C  41.68000 14.94300 28.13500
C  43.04600 16.02400 31.08900
O  42.10200 15.50700 31.66700
C  44.25800 16.77900 31.84100
C  43.56100 17.70000 32.77700
O  43.21200 18.81600 32.48300
O  43.23600 17.01600 33.92400
C  42.49500 17.76200 34.94700
H  50.42600 19.29500 29.92200
H  49.17400 17.65000 23.90700
H  43.34000 15.39300 25.75400
H  46.44900 19.03300 32.71600
H  49.28200 18.90100 32.14800
H  47.08300 21.12800 31.92900
H  48.61600 21.13500 30.96200
H  48.60200 21.08800 32.72000
H  48.54800 16.87200 32.96900
H  46.89000 16.34300 32.74200
H  48.16800 16.93400 35.05200
H  46.40900 16.52500 34.78600
H  52.11200 20.77300 28.30100
H  53.01400 19.72200 27.32000
H  52.33600 19.03500 28.60300
H  52.05900 21.41700 24.71100
H  52.66000 20.39000 23.39500
H  53.26100 20.18400 25.01700
H  47.61400 15.58700 23.30800
H  44.72400 15.69100 23.46700
H  46.48900 18.38800 22.70400
H  45.66300 17.09100 21.84500
H  47.46100 17.37600 21.68300
H  46.54900 13.88400 25.07900
H  46.54000 13.70600 23.33000
H  44.75700 12.39800 23.41500
H  43.85100 13.64900 23.98900
H  44.69700 12.59900 25.21300
H  41.71600 13.86500 27.98000
H  41.30700 15.49400 27.27100
H  41.01300 15.07500 28.98700
H  44.74100 15.93400 32.33200
H  43.23900 18.04800 35.69100
H  41.77700 17.17100 35.51700
H  42.13000 18.75600 34.69100

