158

Mg 43.97500 4.40100 46.58900
C  41.80700 7.09700 46.39300
C  41.11400 2.35200 46.37500
C  46.01700 1.70300 46.05500
C  46.66400 6.57200 45.97500
N  41.81400 4.70200 46.39900
C  41.11600 5.90000 46.26600
C  39.60500 5.76100 46.00500
C  39.41100 4.22300 46.33200
C  40.86900 3.73200 46.36000
C  38.89800 3.83600 47.71500
C  39.15500 6.11400 44.58200
C  40.03500 5.68900 43.40400
H  40.23700 6.68400 42.23700
N  43.61600 2.35900 46.28700
C  42.38300 1.73400 46.24100
C  42.54600 0.32000 46.12100
C  43.97600 0.07300 45.82600
C  44.64600 1.37700 46.12200
C  41.43300 -0.68300 46.14000
C  44.57500 -1.23800 45.36200
O  43.84400 -2.17800 45.03000
C  46.09200 -1.34500 45.16700
N  45.99200 4.21100 46.07900
C  46.62600 2.97700 46.17000
C  48.16900 3.04600 46.16700
C  48.33800 4.58200 46.16200
C  46.94100 5.17800 46.09300
C  48.95200 2.32000 47.33700
C  49.26400 5.15000 45.03500
C  48.86500 4.95700 43.56800
N  44.26800 6.45600 46.49300
C  45.41900 7.20500 46.18200
C  45.02500 8.66300 46.27800
C  43.61400 8.65700 46.45600
C  43.22000 7.29500 46.49600
C  45.80400 9.84100 46.18000
C  42.42300 9.46100 46.49600
O  42.30800 10.69300 46.52600
C  41.25400 8.52600 46.53200
C  40.36100 8.78600 47.74900
O  40.35000 8.15000 48.77800
O  39.49300 9.68900 47.35100
C  38.36500 9.92600 48.24100
H  40.22600 1.77300 46.11300
H  46.74800 0.89400 46.01100
H  47.58700 7.15300 46.02800
H  39.07500 6.42100 46.69200
H  38.85400 3.78000 45.50700
H  38.58300 4.77100 48.17800
H  39.58100 3.45200 48.47400
H  38.05100 3.15800 47.60500
H  38.85300 7.16100 44.54100
H  38.32800 5.42400 44.41500
H  39.75400 4.73300 42.96200
H  41.05600 5.60500 43.77600
H  41.81200 -1.61600 46.55600
H  41.13800 -0.89500 45.11200
H  40.59200 -0.23100 46.66600
H  46.51900 -1.23900 46.16400
H  46.56000 -0.59300 44.53100
H  46.39200 -2.35700 44.89500
H  48.56200 2.66600 45.22400
H  48.80600 5.00000 47.05300
H  49.82600 1.83700 46.89900
H  48.33500 1.50700 47.72100
H  49.43500 2.93400 48.09700
H  50.18400 4.57500 45.13900
H  49.31100 6.23100 45.16300
H  48.26000 5.83800 43.35500
H  48.33300 4.03700 43.32500
H  49.78100 4.98600 42.97800
H  45.48900 10.63600 45.50300
H  46.83500 9.58000 45.94500
H  45.84100 10.31500 47.16100
H  40.67800 8.74700 45.63300
H  38.20000 9.06200 48.88500
H  37.43400 10.03600 47.68500
H  38.59100 10.78000 48.88000
Mg 36.48500 49.27900 24.91900
C  36.15200 47.45500 27.79000
C  35.30300 52.09000 26.40200
C  36.32600 50.73500 21.86400
C  37.35200 46.20000 23.26600
N  35.61100 49.66400 26.88800
C  35.86700 48.83700 27.99300
C  35.41800 49.54200 29.26200
C  35.18800 51.06300 28.78000
C  35.45200 50.95200 27.23000
C  33.73500 51.77800 29.13400
C  36.36900 49.38800 30.56300
C  35.77700 48.87400 31.93500
H  34.26400 49.03700 32.18000
N  35.83600 51.12900 24.23800
C  35.46500 52.16500 24.99900
C  35.17400 53.31200 24.25200
C  35.36200 52.97100 22.85900
C  35.86800 51.62200 22.94200
C  34.60400 54.59700 24.92400
C  35.25100 53.80300 21.67000
O  35.40900 53.38400 20.51600
C  34.95800 55.26300 21.75200
N  37.03600 48.62000 22.83400
C  36.70800 49.41100 21.83800
C  37.08500 48.74900 20.52400
C  37.75400 47.41000 21.01300
C  37.40400 47.34300 22.45800
C  35.89900 48.58100 19.62100
C  39.30900 47.36900 20.73200
C  40.27500 48.01600 21.68900
N  36.79400 47.29100 25.41000
C  37.17200 46.15700 24.65100
C  37.28400 44.96600 25.54800
C  36.76000 45.41100 26.78700
C  36.56800 46.85400 26.63700
C  37.63800 43.53100 25.13400
C  36.41800 45.08600 28.15100
O  36.51000 44.03000 28.79100
C  36.08900 46.42300 28.88900
C  34.85200 46.27400 29.75500
O  33.75700 46.66600 29.55200
O  35.18800 45.46400 30.79300
C  34.07700 45.05900 31.61900
H  35.14900 53.02600 26.94400
H  36.11700 51.16500 20.88200
H  37.72100 45.29300 22.78200
H  34.45100 49.15000 29.58000
H  35.98000 51.71500 29.14800
H  33.12800 51.84700 28.23100
H  33.78900 52.71900 29.68300
H  33.32500 51.03000 29.81300
H  36.88400 50.30400 30.85400
H  37.15500 48.72100 30.20700
H  36.33800 49.28600 32.77400
H  35.97700 47.80400 31.88900
H  33.97000 55.22400 24.29700
H  35.36100 55.21100 25.41200
H  33.86400 54.32500 25.67700
H  33.90500 55.19100 22.02500
H  35.05900 55.78000 20.79800
H  35.52600 55.79900 22.51100
H  37.85900 49.37600 20.08100
H  37.45700 46.47000 20.54700
H  35.05900 49.24400 19.82900
H  35.48600 47.57200 19.61800
H  36.10600 48.83100 18.58000
H  39.40000 47.70400 19.69900
H  39.48900 46.29500 20.76700
H  39.83700 48.72100 22.39600
H  41.11600 48.48100 21.17400
H  40.64600 47.13000 22.20500
H  38.69200 43.27400 25.03400
H  37.19300 43.28600 24.17000
H  37.21800 42.86100 25.88400
H  36.84800 46.71100 29.61600
H  33.09500 44.98700 31.15200
H  34.09400 45.73000 32.47800
H  34.33300 44.06500 31.98500

