158

Mg -1.61700 17.07000 27.27000
C  -2.16600 14.79600 29.86700
C  -1.95100 19.61400 29.26400
C  -1.63300 19.09300 24.50800
C  -1.36600 14.31400 25.00100
N  -2.08700 17.15600 29.25100
C  -2.31500 16.14100 30.25200
C  -2.61200 16.75000 31.63600
C  -2.47200 18.28100 31.35000
C  -2.08600 18.37800 29.84800
C  -3.70700 19.08500 31.88400
C  -1.59100 16.32900 32.81400
C  -1.63200 17.12500 34.18400
H  -1.54200 16.19600 35.44600
N  -1.67400 19.03600 26.96100
C  -1.78500 19.95600 27.92900
C  -1.77000 21.32200 27.35400
C  -1.72300 21.14700 25.93300
C  -1.66600 19.69600 25.71900
C  -1.87000 22.61800 28.23000
C  -1.82200 22.23400 24.83800
O  -1.77900 21.94700 23.62000
C  -1.82500 23.71100 25.22000
N  -1.48000 16.71300 25.07700
C  -1.54200 17.74300 24.16000
C  -1.41700 17.25400 22.69600
C  -1.14000 15.74800 22.90500
C  -1.31000 15.57900 24.42700
C  -2.53300 17.62100 21.69700
C  0.15700 15.28800 22.26100
C  1.42700 16.05200 22.85300
N  -1.71000 14.99600 27.35700
C  -1.57900 13.98900 26.39400
C  -1.84000 12.73700 26.92800
C  -1.95800 12.96800 28.36700
C  -1.89100 14.34400 28.55400
C  -1.77400 11.40600 26.27600
C  -2.20500 12.29600 29.63800
O  -2.31300 11.10000 29.94500
C  -2.26500 13.46500 30.66200
C  -1.03500 13.34900 31.39500
O  0.02400 13.78000 31.10100
O  -1.28500 12.80300 32.62900
C  -0.17000 12.76500 33.60700
H  -2.04100 20.33700 30.07800
H  -1.61300 19.67200 23.58200
H  -1.10700 13.43800 24.40300
H  -3.55900 16.39100 32.04000
H  -1.58200 18.67500 31.84100
H  -4.13600 18.50600 32.70200
H  -4.47900 19.45700 31.21000
H  -3.16900 19.89900 32.37000
H  -0.55600 16.18800 32.50000
H  -1.87800 15.32600 33.13100
H  -2.49400 17.78200 34.29200
H  -0.76200 17.77800 34.24200
H  -2.88100 22.98500 28.05200
H  -1.24300 23.47100 27.97200
H  -1.83100 22.27700 29.26500
H  -0.86100 23.91300 25.68700
H  -2.59500 24.01600 25.92900
H  -1.95100 24.38300 24.37100
H  -0.55600 17.72900 22.22700
H  -2.01800 15.29500 22.44500
H  -3.13200 18.42200 22.12900
H  -3.28900 16.87800 21.44100
H  -2.13700 17.90300 20.72100
H  0.14000 15.30100 21.17100
H  0.36100 14.28800 22.64300
H  1.14200 16.83800 23.55300
H  2.08300 16.47200 22.09000
H  2.00900 15.36800 23.47000
H  -1.08900 10.78600 26.85400
H  -1.49100 11.50600 25.22800
H  -2.77000 10.96500 26.27600
H  -3.06100 13.41200 31.40500
H  0.30500 13.74400 33.56000
H  0.60600 12.01100 33.47400
H  -0.63900 12.66700 34.58600
Mg 46.77100 5.29900 47.94700
C  44.76600 8.16600 47.43500
C  44.11500 3.36400 46.92500
C  48.89600 2.77600 47.55300
C  49.43300 7.58500 48.36900
N  44.70400 5.75100 47.37600
C  44.08600 6.99100 47.32900
C  42.61700 6.76800 46.94100
C  42.43400 5.22900 46.83700
C  43.79300 4.73900 47.12200
C  41.27200 4.63600 47.67600
C  42.00400 7.51300 45.69200
C  40.45300 7.69100 45.71800
H  39.61000 7.42500 44.44600
N  46.53000 3.34800 47.45500
C  45.36900 2.73100 47.08300
C  45.64800 1.37800 46.67700
C  47.01600 1.13200 46.91400
C  47.54500 2.47100 47.37300
C  44.53800 0.43100 46.11000
C  47.71700 -0.22000 46.79500
O  47.07300 -1.19000 46.43700
C  49.16600 -0.42500 47.09200
N  48.87100 5.29100 47.86700
C  49.47900 4.09100 47.79000
C  50.92500 4.13400 48.16100
C  51.09200 5.61700 48.53900
C  49.74400 6.25500 48.18300
C  51.42900 3.08600 49.25500
C  52.35700 6.28600 47.87600
C  53.14100 7.28300 48.77300
N  47.10500 7.46700 48.04700
C  48.19500 8.18500 48.16700
C  47.93100 9.59000 48.30500
C  46.57200 9.68000 47.89200
C  46.15100 8.32500 47.78100
C  48.87900 10.67200 48.70600
C  45.45900 10.58800 47.66000
O  45.35600 11.80700 47.56500
C  44.27000 9.62300 47.19400
C  43.08900 9.97800 47.96100
O  42.79700 9.54000 49.05800
O  42.28800 10.74100 47.10500
C  41.01600 11.15400 47.62800
H  43.25300 2.77300 46.61100
H  49.61800 1.96000 47.47500
H  50.29600 8.22300 48.57000
H  42.05100 7.15500 47.78900
H  42.28300 4.94400 45.79600
H  40.56100 3.99800 47.15200
H  40.67500 5.44800 48.09100
H  41.64300 4.01800 48.49300
H  42.27900 6.93200 44.81100
H  42.40100 8.50600 45.48100
H  40.15700 8.70400 45.99000
H  40.03400 7.09800 46.53200
H  44.85400 0.22300 45.08800
H  43.50400 0.77000 46.05900
H  44.52600 -0.58400 46.50600
H  49.41900 -1.48200 47.01000
H  49.38700 -0.09800 48.10700
H  49.77100 0.21200 46.44700
H  51.46700 3.95000 47.23300
H  51.12500 5.80100 49.61300
H  50.69800 2.28300 49.35100
H  51.51300 3.66400 50.17500
H  52.34900 2.65000 48.86500
H  51.92800 6.78200 47.00500
H  53.14300 5.68000 47.42500
H  54.16500 6.90800 48.77400
H  52.77800 7.41000 49.79200
H  53.19700 8.23400 48.24200
H  49.75400 10.38500 49.29000
H  48.27300 11.33500 49.32400
H  49.24800 11.27300 47.87500
H  44.13500 9.87100 46.14200
H  40.45000 11.70100 46.87500
H  41.22000 11.82200 48.46500
H  40.54400 10.27500 48.06700

