158

Mg 41.19500 6.74900 29.37300
C  42.68700 8.50300 32.25100
C  38.63300 5.87700 31.44400
C  39.86700 5.25500 26.84500
C  43.83600 7.91600 27.48900
N  40.77400 7.14000 31.52800
C  41.48900 7.86600 32.54300
C  40.73900 7.87700 33.89900
C  39.54800 6.93800 33.65900
C  39.65800 6.61000 32.09600
C  39.38500 5.72600 34.60700
C  40.27600 9.31200 34.39800
C  39.95500 9.35800 35.92800
H  40.62900 10.33100 36.80100
N  39.50400 5.61800 29.13000
C  38.55000 5.44500 30.06300
C  37.46200 4.73200 29.47100
C  37.83500 4.56000 28.07900
C  39.10400 5.12100 27.95500
C  36.27000 4.19100 30.20200
C  37.05200 3.92500 26.88400
O  37.57100 3.63000 25.81500
C  35.65300 3.54400 27.00000
N  41.78600 6.60000 27.44800
C  41.07400 5.82800 26.62400
C  41.72600 5.94500 25.17800
C  42.96300 6.88000 25.29000
C  42.85000 7.15400 26.83500
C  41.95800 4.60000 24.40900
C  42.81100 8.14700 24.34700
C  42.19800 9.42400 24.88200
N  42.86000 7.99900 29.68400
C  43.88300 8.39200 28.85000
C  44.93700 9.17600 29.47400
C  44.50000 9.29700 30.84900
C  43.22300 8.58300 30.91800
C  46.22500 9.69400 28.78300
C  44.81000 9.79500 32.07900
O  45.77000 10.45100 32.43400
C  43.73000 9.27000 33.09200
C  44.22800 8.32200 34.13800
O  44.91900 7.36500 33.93000
O  43.76000 8.68500 35.36700
C  44.10300 7.73200 36.44400
H  37.68900 5.86800 31.99300
H  39.60000 4.74300 25.91900
H  44.56800 8.27700 26.76400
H  41.25000 7.46600 34.77000
H  38.69000 7.57000 33.89000
H  40.18000 5.69600 35.35200
H  39.37700 4.81700 34.00600
H  38.45000 5.70600 35.16800
H  39.39800 9.59600 33.81700
H  41.09200 9.99200 34.15600
H  40.05600 8.34600 36.32100
H  38.94200 9.75800 35.97200
H  36.54900 3.93300 31.22400
H  35.94300 3.21400 29.84700
H  35.42600 4.87800 30.15300
H  34.99900 4.39500 27.19000
H  35.48200 2.68800 27.65400
H  35.38900 3.11400 26.03400
H  40.86600 6.40800 24.69300
H  43.90500 6.35700 25.12600
H  41.97500 3.72600 25.05900
H  42.91100 4.62500 23.88100
H  41.18300 4.39000 23.67100
H  42.13400 7.81000 23.56300
H  43.80600 8.37000 23.96100
H  42.90500 10.21900 24.64200
H  41.96200 9.37300 25.94400
H  41.30900 9.68100 24.30600
H  47.12500 9.26900 29.22900
H  46.13100 10.76000 28.99100
H  46.10500 9.39400 27.74200
H  43.18400 10.04600 33.62900
H  43.32700 6.96900 36.40400
H  44.10500 8.18500 37.43600
H  45.03200 7.16800 36.36300
Mg 46.86800 24.34300 27.97400
C  47.45700 26.88600 30.33000
C  46.27900 22.17100 30.36500
C  46.67600 22.15300 25.55800
C  47.91000 26.80300 25.51800
N  46.99200 24.51500 30.11000
C  47.09400 25.63400 30.88700
C  46.70700 25.33700 32.35500
C  46.62200 23.75900 32.26500
C  46.63500 23.44900 30.82200
C  47.71400 23.02700 33.13000
C  45.42300 25.98000 32.89300
C  45.03500 25.51500 34.31100
H  44.80900 26.60500 35.40000
N  46.51600 22.36300 27.97100
C  46.12100 21.62400 29.02800
C  45.96200 20.25100 28.60800
C  46.04000 20.24200 27.15700
C  46.49000 21.60500 26.84900
C  45.54800 19.12900 29.55600
C  45.73800 19.06600 26.22800
O  45.71500 19.18400 24.97400
C  45.37900 17.65600 26.78000
N  47.26100 24.45400 25.86900
C  47.08400 23.34500 25.09100
C  47.34700 23.66100 23.62700
C  47.61900 25.16100 23.57700
C  47.52100 25.51000 25.08100
C  48.69500 22.95200 23.15000
C  46.59000 25.99800 22.68400
C  45.35800 26.56200 23.39200
N  47.47900 26.42300 27.86400
C  47.89400 27.23200 26.79100
C  48.28500 28.53100 27.25100
C  48.15800 28.48500 28.63500
C  47.66700 27.21500 28.94200
C  48.84500 29.52900 26.34600
C  48.39300 29.12100 29.94300
O  48.92300 30.19100 30.10200
C  47.69200 28.21800 31.05600
C  48.47200 28.10200 32.32600
O  49.53400 27.45600 32.51200
O  47.75400 28.70900 33.36000
C  48.45200 28.57800 34.63500
H  45.99000 21.40100 31.08400
H  46.47300 21.48800 24.71600
H  48.18800 27.37300 24.62900
H  47.60300 25.67800 32.87400
H  45.61600 23.47100 32.57100
H  47.43900 22.88500 34.17400
H  48.56300 23.70700 33.20400
H  48.10800 22.10300 32.70700
H  44.51500 25.77800 32.32600
H  45.53400 27.06000 32.80100
H  45.78700 24.85300 34.74200
H  44.12200 24.92500 34.23400
H  44.62300 18.70300 29.16600
H  45.49000 19.48300 30.58500
H  46.38400 18.42900 29.54600
H  46.04100 17.39200 27.60500
H  45.51800 16.93700 25.97200
H  44.31400 17.72300 27.00100
H  46.57100 23.21400 23.00600
H  48.60400 25.47800 23.23600
H  48.95900 22.10300 23.78200
H  49.51600 23.66500 23.08300
H  48.51500 22.48200 22.18400
H  46.16700 25.29800 21.96400
H  47.16200 26.80600 22.22800
H  45.42600 26.30500 24.44900
H  44.40500 26.12400 23.09400
H  45.40800 27.64800 23.31100
H  48.69600 30.50400 26.81000
H  48.25500 29.51800 25.43000
H  49.90800 29.37200 26.16100
H  46.69200 28.55100 31.33500
H  48.23700 29.46300 35.23300
H  49.54100 28.61000 34.66800
H  48.11300 27.70600 35.19400

