158

Mg 2.44100 -0.84900 43.23500
C  5.87200 0.01600 43.13200
C  1.71800 2.13000 41.83900
C  -0.74700 -1.98700 42.81700
C  3.47500 -4.13200 43.97800
N  3.74800 0.71800 42.43100
C  5.06200 0.96900 42.57000
C  5.40400 2.33800 42.08800
C  4.01300 3.13600 42.29800
C  3.08700 1.95500 42.19400
C  3.83800 4.00500 43.63000
C  5.78700 2.40500 40.54800
C  5.64000 1.10400 39.72900
H  6.38200 1.02400 38.41300
N  0.68800 -0.02000 42.40900
C  0.62300 1.26400 41.86300
C  -0.72800 1.56200 41.53000
C  -1.43900 0.39800 41.89500
C  -0.55000 -0.58600 42.40500
C  -1.17700 2.87700 40.91600
C  -2.99000 0.31800 41.88000
O  -3.64500 1.22500 41.35200
C  -3.70800 -0.73300 42.46200
N  1.47900 -2.80700 43.56100
C  0.13700 -3.03600 43.25200
C  -0.15000 -4.51500 43.03800
C  1.22500 -5.11100 43.45000
C  2.13400 -3.94700 43.67500
C  -1.39100 -5.04800 43.90300
C  1.72200 -6.12700 42.34800
C  1.72600 -7.63000 42.59200
N  4.26800 -1.88100 43.65400
C  4.48800 -3.16200 43.97500
C  5.87700 -3.34100 44.34300
C  6.51700 -2.12000 43.99800
C  5.49700 -1.24700 43.57500
C  6.65300 -4.60100 44.71800
C  7.79800 -1.39200 43.85300
O  8.96100 -1.70100 44.03300
C  7.37200 0.07100 43.28400
C  7.72500 1.19600 44.20000
O  8.55200 2.01900 43.95900
O  6.99500 1.15800 45.36500
C  7.21000 2.23800 46.28200
H  1.41800 3.14600 41.57700
H  -1.68800 -2.42000 42.47300
H  3.75900 -5.18300 44.06400
H  6.20800 2.71500 42.72000
H  3.88300 3.78200 41.43000
H  3.44600 5.01200 43.49000
H  4.72800 3.83700 44.23700
H  2.97500 3.59500 44.15400
H  6.76100 2.84500 40.33300
H  5.12400 3.11600 40.05500
H  4.59400 0.80200 39.66800
H  6.10100 0.31800 40.32800
H  -1.69400 2.68500 39.97600
H  -0.34300 3.55800 40.75200
H  -1.89100 3.42300 41.53300
H  -3.39100 -0.89400 43.49200
H  -3.77300 -1.62700 41.84100
H  -4.77700 -0.54000 42.54700
H  -0.31400 -4.60400 41.96500
H  1.15300 -5.70100 44.36300
H  -1.88000 -4.18300 44.35000
H  -1.13700 -5.71000 44.73200
H  -2.02700 -5.67700 43.28000
H  2.73100 -5.89600 42.00500
H  1.03400 -6.11600 41.50300
H  2.78200 -7.86900 42.71700
H  1.35700 -8.21800 41.75200
H  1.13600 -7.94600 43.45300
H  6.86100 -4.81200 45.76700
H  7.63200 -4.63500 44.23900
H  6.08300 -5.45500 44.35200
H  7.89300 0.25300 42.34400
H  6.41700 2.16700 47.02600
H  7.10500 3.17000 45.72700
H  8.14200 2.17600 46.84300
Mg 0.43300 42.82800 25.96400
C  3.00900 42.73000 28.31900
C  -1.77500 42.38200 28.50100
C  -2.03700 42.79400 23.63300
C  2.85000 43.10000 23.47600
N  0.63100 42.58800 28.16200
C  1.79100 42.57600 28.91100
C  1.42000 42.42400 30.34100
C  -0.08100 41.93800 30.34800
C  -0.47500 42.28600 28.96500
C  -0.33800 40.39100 30.74600
C  1.75200 43.75700 31.10400
C  1.31100 43.88900 32.59000
H  1.03700 42.63900 33.39900
N  -1.68200 42.52200 26.05100
C  -2.37000 42.43800 27.23000
C  -3.83800 42.43400 26.84200
C  -3.86500 42.53600 25.43400
C  -2.50300 42.60800 24.98600
C  -4.79000 42.48600 27.88200
C  -5.09300 42.53700 24.51500
O  -5.06400 42.65100 23.31200
C  -6.44000 42.60700 25.05500
N  0.38000 42.87700 23.85700
C  -0.74000 42.93600 23.09100
C  -0.43700 43.17900 21.62300
C  1.06500 43.19600 21.56300
C  1.52100 43.10700 23.03300
C  -1.08300 42.09200 20.66700
C  1.62700 44.35500 20.74000
C  1.81000 45.76000 21.44900
N  2.50600 42.87100 25.84100
C  3.33500 43.05200 24.77700
C  4.71000 43.02300 25.17000
C  4.63600 42.80800 26.57800
C  3.26100 42.82700 26.93400
C  5.92400 43.04900 24.28100
C  5.42300 42.55800 27.77500
O  6.62500 42.39100 27.90900
C  4.37600 42.58200 28.93400
C  4.61300 41.38000 29.79500
O  4.20300 40.25700 29.60200
O  5.31900 41.69500 30.91600
C  5.36800 40.69300 31.98300
H  -2.43000 42.29100 29.37000
H  -2.73700 42.95800 22.81100
H  3.46100 43.24300 22.58200
H  1.99500 41.65600 30.85800
H  -0.67400 42.52500 31.04900
H  -0.87000 40.33700 31.69600
H  0.46900 39.68700 30.94900
H  -1.03900 39.98700 30.01600
H  1.22800 44.57200 30.60300
H  2.78200 44.11600 31.08000
H  0.36900 44.43400 32.64000
H  2.08600 44.50100 33.05200
H  -5.76000 42.85200 27.54500
H  -4.54000 43.23900 28.63000
H  -4.79100 41.47600 28.29300
H  -6.48700 41.83900 25.82800
H  -7.21200 42.29500 24.35200
H  -6.60500 43.60900 25.45100
H  -0.69200 44.17800 21.26900
H  1.41500 42.26700 21.11400
H  -1.45900 41.30200 21.31700
H  -0.36400 41.51700 20.08400
H  -1.90600 42.40800 20.02500
H  1.05400 44.48700 19.82100
H  2.61500 43.96500 20.49800
H  1.37300 45.59400 22.43300
H  1.22800 46.54000 20.95700
H  2.86000 46.05200 21.45900
H  6.73200 42.50800 24.77400
H  6.27000 44.06800 24.10700
H  5.66100 42.47800 23.39100
H  4.68600 43.40900 29.57300
H  5.88800 39.77500 31.71000
H  4.38600 40.43400 32.37900
H  5.91200 41.24700 32.74800

