158

Mg 1.06500 -1.79700 44.80000
C  4.47300 -1.39100 44.01900
C  0.41000 0.78100 42.53900
C  -2.23700 -2.61900 44.97000
C  1.87000 -4.78300 46.36000
N  2.32900 -0.62500 43.17900
C  3.68900 -0.57700 43.22800
C  4.21500 0.44000 42.13100
C  2.82800 1.22200 41.78600
C  1.78400 0.47400 42.50800
C  2.96100 2.76000 41.99600
C  4.88700 -0.32100 40.94100
C  6.27300 0.30900 40.55000
H  6.35000 1.50800 39.53100
N  -0.70200 -0.97900 43.88400
C  -0.71200 0.10300 43.08200
C  -2.09300 0.54900 42.89600
C  -3.00400 -0.42500 43.60000
C  -1.99100 -1.38900 44.23200
C  -2.50100 1.79100 42.06600
C  -4.53900 -0.44600 43.69300
O  -5.12300 0.48500 43.12300
C  -5.32000 -1.42500 44.40000
N  0.00700 -3.46600 45.66000
C  -1.36500 -3.52700 45.61600
C  -1.87600 -4.82300 46.35200
C  -0.55900 -5.54900 46.88500
C  0.47300 -4.62900 46.16700
C  -3.00100 -4.48700 47.45100
C  -0.36500 -7.10700 46.75500
C  -1.47200 -8.01500 47.31800
N  2.73800 -2.82900 45.24100
C  2.97800 -4.05600 45.86200
C  4.40200 -4.27600 46.16000
C  4.96900 -3.21400 45.46600
C  3.96900 -2.44300 44.90100
C  5.09700 -5.38700 46.90200
C  6.34000 -2.63600 45.09100
O  7.46800 -3.01200 45.36400
C  5.96200 -1.46900 44.13600
C  6.45100 -0.15200 44.67500
O  6.21300 0.19600 45.80700
O  7.29800 0.45700 43.79000
C  7.90500 1.72000 44.20500
H  0.14200 1.66700 41.95900
H  -3.28600 -2.80300 45.21100
H  2.25000 -5.56500 47.02100
H  4.93100 1.14400 42.55300
H  2.67800 1.18800 40.70700
H  3.89700 2.97200 42.51300
H  2.13500 3.09400 42.62300
H  2.95200 3.38800 41.10500
H  4.19200 -0.28700 40.10200
H  5.11700 -1.37700 41.07600
H  6.76700 -0.58300 40.16400
H  6.77400 0.58500 41.47800
H  -2.81500 1.46500 41.07500
H  -1.77500 2.60100 41.99400
H  -3.38200 2.18000 42.57700
H  -6.39700 -1.36800 44.24000
H  -5.11900 -1.28300 45.46100
H  -5.00200 -2.44600 44.18700
H  -2.26300 -5.49100 45.58200
H  -0.54600 -5.43700 47.96900
H  -3.86700 -5.13100 47.29400
H  -3.26500 -3.43300 47.36500
H  -2.71100 -4.61600 48.49400
H  0.55000 -7.39800 47.27200
H  -0.23200 -7.38700 45.71000
H  -1.83100 -8.60500 46.47500
H  -2.22400 -7.40600 47.81900
H  -1.09000 -8.77300 48.00200
H  5.31800 -6.22200 46.23900
H  4.56200 -5.68400 47.80500
H  6.00300 -4.87400 47.22600
H  6.46700 -1.62800 43.18300
H  8.93100 1.43300 44.43700
H  7.46700 2.03000 45.15300
H  7.73800 2.49500 43.45700
Mg -11.86700 38.96800 41.22200
C  -9.88400 36.18300 40.17900
C  -9.15700 41.04500 40.20800
C  -13.82900 41.54000 41.52200
C  -14.48200 36.80900 42.03000
N  -9.79700 38.68400 40.36800
C  -9.28300 37.44600 40.01800
C  -7.87600 37.57600 39.36600
C  -7.56900 39.07500 39.75900
C  -8.94900 39.68800 40.05100
C  -6.54900 39.24800 40.96300
C  -7.90000 37.36400 37.84700
C  -7.06200 36.30700 37.12900
H  -5.79900 36.74000 36.35400
N  -11.55700 41.03900 40.85600
C  -10.40000 41.69900 40.49600
C  -10.58600 43.17200 40.47100
C  -11.93700 43.34000 41.00300
C  -12.52200 41.95000 41.12900
C  -9.55600 44.13100 39.92300
C  -12.58900 44.72800 41.22700
O  -11.94000 45.76600 41.01100
C  -13.89900 44.84800 41.89500
N  -13.92500 39.06600 41.62200
C  -14.42700 40.27500 41.78700
C  -15.87600 40.27000 42.55300
C  -16.01000 38.69800 42.79800
C  -14.73700 38.13500 42.07800
C  -15.95100 41.21900 43.79400
C  -17.36700 38.27000 42.26900
C  -17.95600 36.96900 42.97300
N  -12.18300 36.85400 41.19600
C  -13.30200 36.09000 41.55800
C  -12.92700 34.66300 41.44400
C  -11.62800 34.67900 40.87800
C  -11.21100 36.01000 40.73500
C  -13.74900 33.49400 41.99900
C  -10.48000 33.84200 40.56300
O  -10.40200 32.63900 40.60600
C  -9.37300 34.80000 39.92100
C  -8.03400 34.46100 40.40000
O  -7.65800 34.75300 41.51200
O  -7.30300 33.76200 39.43700
C  -5.93700 33.46400 39.89700
H  -8.23300 41.62500 40.15900
H  -14.54300 42.36300 41.60600
H  -15.25700 36.11600 42.36500
H  -7.21200 36.84700 39.83200
H  -7.08200 39.58900 38.93000
H  -5.56200 39.01200 40.56600
H  -6.79900 38.53300 41.74700
H  -6.60100 40.22900 41.43600
H  -7.82400 38.35100 37.39100
H  -8.92200 37.05000 37.63700
H  -7.68200 35.74600 36.43000
H  -6.64000 35.66100 37.89900
H  -8.57100 43.72300 39.69400
H  -9.35500 44.93500 40.63000
H  -10.00300 44.65500 39.07900
H  -14.74000 44.42700 41.34300
H  -14.11800 45.85400 42.25400
H  -13.71100 44.17900 42.73400
H  -16.62200 40.56500 41.81600
H  -15.88200 38.45800 43.85400
H  -15.01100 41.72500 44.01500
H  -16.32200 40.74900 44.70400
H  -16.64500 42.00000 43.48200
H  -17.17000 38.20000 41.19900
H  -18.06600 39.10200 42.35500
H  -18.98400 37.16600 43.27800
H  -17.40200 36.67900 43.86600
H  -17.89200 36.08700 42.33600
H  -14.83700 33.46200 42.05800
H  -13.45400 33.38200 43.04300
H  -13.57200 32.50100 41.58800
H  -9.34100 34.60000 38.85000
H  -5.30300 33.44900 39.01100
H  -5.74300 32.49400 40.35400
H  -5.56600 34.23400 40.57400

