158

Mg 45.12600 3.48500 47.76300
C  43.03000 6.03100 46.79300
C  42.67300 1.22300 47.11800
C  47.35400 1.03400 48.03700
C  47.73800 5.79800 47.03100
N  43.07600 3.61900 46.86300
C  42.42300 4.78700 46.65900
C  40.92200 4.45900 46.25400
C  40.79900 2.93900 46.71600
C  42.28100 2.55800 46.85700
C  39.95700 2.71400 47.96700
C  40.70400 4.71400 44.78800
C  39.59200 5.75600 44.62500
H  38.56900 5.55200 43.42400
N  45.02600 1.45400 47.68700
C  43.91500 0.70500 47.43600
C  44.15100 -0.75600 47.64100
C  45.50400 -0.88300 48.02200
C  46.03900 0.53000 47.90000
C  43.14200 -1.85000 47.38200
C  46.23800 -2.12300 48.40500
O  45.61300 -3.20500 48.51000
C  47.67800 -2.12700 48.77700
N  47.23600 3.49400 47.66400
C  47.89800 2.31200 47.92100
C  49.46700 2.57100 47.86600
C  49.55500 4.06500 47.41400
C  48.12100 4.47800 47.29800
C  50.11000 2.19000 49.23800
C  50.36400 4.14700 46.06700
C  51.87800 4.43000 46.25300
N  45.42800 5.59900 47.30300
C  46.51700 6.42900 47.12300
C  46.10700 7.83800 46.96800
C  44.69800 7.72300 46.90300
C  44.34600 6.29600 47.03700
C  47.06700 8.99700 46.67400
C  43.54500 8.45400 46.51800
O  43.25600 9.59400 46.18200
C  42.38000 7.41000 46.63500
C  41.38600 7.90000 47.70700
O  41.49400 7.63900 48.85900
O  40.26200 8.37000 47.08900
C  39.13000 8.81600 47.86400
H  41.75900 0.66200 46.91000
H  48.06500 0.23300 48.25000
H  48.58300 6.48500 46.96100
H  40.28000 5.03300 46.92200
H  40.31600 2.32300 45.95700
H  39.59400 3.63100 48.43000
H  40.60400 2.08600 48.58100
H  39.02600 2.22500 47.68100
H  40.39600 3.78400 44.31100
H  41.55100 5.14200 44.25200
H  40.06300 6.73800 44.56400
H  38.89900 5.90000 45.45400
H  42.17100 -1.51400 47.01800
H  42.98200 -2.58300 48.17300
H  43.59400 -2.46800 46.60600
H  48.37600 -1.82200 47.99800
H  47.87300 -3.16900 49.02900
H  47.93000 -1.61700 49.70800
H  49.71600 1.83500 47.10100
H  49.88600 4.63600 48.28100
H  49.49300 1.96300 50.10700
H  50.84900 2.96500 49.44300
H  50.74200 1.30200 49.25300
H  49.88900 4.89700 45.43500
H  50.32000 3.26900 45.42300
H  52.11800 4.75700 47.26500
H  52.03600 5.28100 45.59000
H  52.49900 3.60800 45.89400
H  48.12800 8.76900 46.77200
H  46.80800 9.78600 47.38000
H  46.79000 9.20600 45.64000
H  41.87600 7.37300 45.66900
H  39.52200 9.29900 48.75900
H  38.55600 7.89800 47.98800
H  38.77300 9.41500 47.02600
Mg -0.15700 43.85300 24.71100
C  2.06400 43.70000 27.43000
C  -2.69600 42.78300 26.82900
C  -2.16900 44.06800 22.18800
C  2.72500 44.27700 22.66700
N  -0.30400 43.29300 26.93500
C  0.69500 43.43600 27.84000
C  0.24900 43.01900 29.26400
C  -1.23600 42.50400 28.95600
C  -1.47600 42.95400 27.46300
C  -1.51400 41.02100 29.24200
C  0.26000 44.15400 30.25100
C  0.14000 43.76900 31.75900
H  0.11800 42.32200 32.14800
N  -2.22400 43.59600 24.54300
C  -3.02300 43.11200 25.52800
C  -4.35000 43.13000 24.94100
C  -4.24200 43.46200 23.57300
C  -2.87300 43.78400 23.35200
C  -5.53300 42.67900 25.66400
C  -5.28700 43.51200 22.44300
O  -5.11400 43.98200 21.34500
C  -6.66700 42.88800 22.69900
N  0.29400 44.09700 22.74900
C  -0.79200 44.19000 21.91800
C  -0.24400 44.13700 20.42200
C  1.20300 44.46700 20.65300
C  1.49800 44.30900 22.08800
C  -0.55800 42.66700 19.74100
C  1.61000 45.90100 20.06800
C  1.44100 47.05300 21.05200
N  1.99200 43.86500 24.88000
C  3.02000 44.08100 24.02700
C  4.21600 44.18200 24.64300
C  3.94500 44.00800 26.02300
C  2.55500 43.80900 26.14000
C  5.59100 44.45000 23.98300
C  4.49000 44.00500 27.36300
O  5.60900 44.14400 27.68900
C  3.30500 43.79400 28.35900
C  3.58700 42.50400 29.16500
O  3.80900 41.37600 28.68300
O  3.85100 42.84300 30.43000
C  4.43200 41.77000 31.20200
H  -3.58900 42.38200 27.31300
H  -2.78700 44.18500 21.29500
H  3.58900 44.53800 22.05300
H  0.84900 42.15800 29.55800
H  -1.98800 43.02700 29.54700
H  -2.08200 40.58800 28.41900
H  -2.20200 41.00700 30.08700
H  -0.62500 40.51200 29.61500
H  -0.52800 44.84900 29.96400
H  1.16500 44.71500 30.01800
H  -0.66200 44.41000 32.12600
H  1.03500 44.13600 32.26200
H  -5.52400 42.87500 26.73600
H  -5.71400 41.63800 25.39800
H  -6.38000 43.19400 25.20900
H  -6.50700 41.98700 23.29100
H  -7.00800 42.70300 21.68000
H  -7.38800 43.47800 23.26400
H  -0.82600 44.79700 19.77800
H  1.69700 43.63200 20.15600
H  -1.19100 42.05600 20.38500
H  0.29500 41.99600 19.64300
H  -1.19200 42.77800 18.86200
H  0.98200 46.00300 19.18300
H  2.64400 45.95200 19.72600
H  1.10100 46.68000 22.01800
H  0.59700 47.60500 20.64000
H  2.37200 47.61700 20.99700
H  5.75900 43.63000 23.28400
H  6.40200 44.43900 24.71100
H  5.65400 45.42200 23.49400
H  3.16400 44.65500 29.01200
H  4.57000 42.20000 32.19300
H  5.43500 41.59600 30.81200
H  3.78200 40.89600 31.17100

