158

Mg 47.96700 25.06400 28.59700
C  48.52300 27.66600 31.02700
C  47.64400 22.84100 31.15200
C  47.73700 22.60800 26.24000
C  49.05200 27.27300 26.16300
N  48.03200 25.28400 30.87600
C  48.20200 26.47300 31.67300
C  47.94400 26.13600 33.19400
C  47.70400 24.56600 33.13100
C  47.81600 24.17300 31.58800
C  48.72700 23.72600 33.98900
C  46.74300 26.98300 33.74700
C  46.22200 26.54500 35.12300
H  45.64600 27.51200 36.07500
N  47.67700 23.01200 28.64800
C  47.52000 22.28300 29.82700
C  47.32900 20.85100 29.45400
C  47.40200 20.79700 28.00300
C  47.60100 22.14100 27.57200
C  47.09800 19.71100 30.40500
C  47.17300 19.62900 27.05900
O  46.99500 19.80500 25.85500
C  47.02800 18.26400 27.61900
N  48.53200 24.94100 26.52900
C  48.14000 23.86200 25.76800
C  48.16200 24.15400 24.27100
C  48.47500 25.74000 24.28500
C  48.72200 26.01300 25.70000
C  49.06400 23.29300 23.38900
C  47.26500 26.65000 23.68300
C  47.66700 27.84300 22.77000
N  48.71900 27.00800 28.55500
C  49.13300 27.77700 27.47900
C  49.42900 29.12400 27.94300
C  49.27100 29.13200 29.36400
C  48.82800 27.82400 29.66300
C  49.87000 30.19300 26.95200
C  49.40900 29.97900 30.55900
O  49.94800 31.04900 30.74700
C  48.72800 29.06600 31.65400
C  49.72300 29.08000 32.72200
O  50.91800 28.69900 32.67600
O  49.20100 29.82100 33.76900
C  49.92600 29.71700 34.98500
H  47.58900 22.09300 31.94600
H  47.61900 21.98100 25.35400
H  49.35500 27.93000 25.34500
H  48.86400 26.32300 33.74700
H  46.67800 24.51800 33.49700
H  48.25900 22.92300 34.55800
H  49.25700 24.38400 34.67700
H  49.40200 23.30600 33.24300
H  45.96600 27.00200 32.98300
H  47.13700 27.99800 33.77800
H  46.91000 25.90100 35.67100
H  45.37500 25.89300 34.91000
H  46.05400 19.42600 30.54100
H  47.50700 20.18600 31.29600
H  47.75800 18.87200 30.18500
H  48.06500 17.95900 27.75700
H  46.55100 17.72100 26.80200
H  46.38500 18.03100 28.46700
H  47.20600 24.02500 23.76200
H  49.37200 26.01000 23.72700
H  49.03800 22.25200 23.71100
H  50.12700 23.53400 23.42200
H  48.72200 23.44000 22.36500
H  46.80300 27.12300 24.55000
H  46.44500 26.08600 23.23700
H  47.48300 28.85600 23.12600
H  46.84300 27.77200 22.05900
H  48.60300 27.79200 22.21400
H  49.35600 29.93800 26.02600
H  50.95000 30.11900 26.82800
H  49.63700 31.20900 27.26800
H  47.72400 29.32800 31.98900
H  50.18600 28.66000 35.04300
H  49.25100 29.90100 35.82200
H  50.85700 30.28400 34.99000
Mg 5.73200 52.75700 41.88700
C  5.23900 49.30100 41.23100
C  9.05700 52.28400 40.73400
C  6.27400 56.09600 42.04400
C  2.40800 53.08200 42.64700
N  6.91000 51.02300 40.89000
C  6.52700 49.71300 40.84400
C  7.68200 48.85500 40.27400
C  8.92300 49.73600 40.75300
C  8.30100 51.14300 40.79400
C  9.50000 49.28900 42.16900
C  7.61600 48.44500 38.79000
C  6.45400 49.07500 37.98400
H  5.76900 48.26100 36.84800
N  7.41400 54.02200 41.61900
C  8.62400 53.65700 41.03800
C  9.45600 54.83000 40.79700
C  8.71500 55.96200 41.16900
C  7.37800 55.41500 41.65500
C  10.80800 54.76800 40.07700
C  9.24200 57.38400 41.05100
O  10.39800 57.64300 40.65900
C  8.36200 58.51700 41.48200
N  4.45400 54.32600 42.22400
C  4.97300 55.62400 42.37200
C  3.67100 56.48900 42.74000
C  2.46300 55.52800 42.87600
C  3.17100 54.25900 42.61500
C  3.90100 57.65300 43.73200
C  1.29600 55.85800 41.98800
C  -0.11000 55.94900 42.65800
N  4.05100 51.45700 41.87700
C  2.77300 51.72100 42.33200
C  2.00500 50.42100 42.54000
C  2.97400 49.45100 42.20300
C  4.20100 50.12100 41.67500
C  0.65300 50.30400 43.06700
C  3.19700 48.03500 42.10300
O  2.40600 47.12100 42.35200
C  4.71600 47.91500 41.50100
C  4.59200 47.07800 40.29200
O  3.92100 47.37000 39.32700
O  5.34900 45.95900 40.38000
C  5.03100 44.93500 39.44200
H  10.13600 52.14800 40.64600
H  6.33200 57.17900 42.17800
H  1.41100 53.29800 43.03700
H  7.68600 47.91700 40.82800
H  9.63700 49.61100 39.93900
H  9.12200 48.31900 42.49200
H  9.19000 49.89200 43.02300
H  10.59000 49.29500 42.17500
H  7.39200 47.37800 38.75700
H  8.59700 48.45900 38.31500
H  7.07800 49.80000 37.46300
H  5.69800 49.72300 38.42900
H  11.23500 53.77100 39.97200
H  11.56500 55.39300 40.55000
H  10.73600 55.13800 39.05400
H  8.98500 59.41100 41.46400
H  8.06200 58.46900 42.52900
H  7.54900 58.61900 40.76300
H  3.58900 57.06500 41.81800
H  2.10800 55.43400 43.90200
H  3.78200 58.66200 43.33600
H  4.91700 57.59500 44.12300
H  3.18500 57.58000 44.55000
H  1.28600 55.13800 41.16900
H  1.50800 56.89000 41.70900
H  -0.56400 56.93600 42.56800
H  0.04800 55.82000 43.72900
H  -0.86300 55.20200 42.40600
H  0.56700 49.30000 43.48300
H  -0.02000 50.54400 42.24400
H  0.49000 51.05300 43.84200
H  5.51400 47.45900 42.08600
H  5.50100 44.03600 39.84100
H  5.42100 45.18000 38.45400
H  3.95000 44.78900 39.44500

