158

Mg 45.40200 3.46500 48.25400
C  43.14400 6.02200 47.16900
C  42.71300 1.18700 47.57400
C  47.56000 0.90600 48.54200
C  48.05900 5.77700 47.96600
N  43.28400 3.64200 47.32200
C  42.52200 4.76300 47.02600
C  41.03900 4.46700 46.65700
C  40.92900 2.92300 47.06900
C  42.44600 2.56900 47.34000
C  39.95400 2.77400 48.29000
C  40.59600 4.81000 45.21500
C  39.13800 5.33900 44.87800
H  38.59400 4.93700 43.52900
N  45.17100 1.28700 48.24900
C  44.01600 0.60800 47.95000
C  44.29100 -0.81800 48.19200
C  45.69900 -0.91400 48.47000
C  46.24100 0.47300 48.47300
C  43.29900 -1.93500 48.09100
C  46.42700 -2.20900 48.63200
O  45.82000 -3.27900 48.74000
C  47.89800 -2.26700 48.72900
N  47.49500 3.35700 48.04800
C  48.15300 2.17700 48.26900
C  49.60800 2.43000 48.70400
C  49.87700 3.94500 48.34200
C  48.42500 4.42800 48.18700
C  49.89500 1.99300 50.19100
C  50.68600 4.26200 47.03200
C  52.04800 4.97400 47.24900
N  45.61600 5.55500 47.78700
C  46.75900 6.31600 47.68200
C  46.34500 7.73600 47.41800
C  44.90200 7.64600 47.26600
C  44.52600 6.29400 47.46900
C  47.19400 8.93700 47.21000
C  43.73600 8.43100 46.92300
O  43.68200 9.61300 46.61800
C  42.50900 7.38700 46.84100
C  41.44100 7.77900 47.75600
O  41.27300 7.36300 48.93600
O  40.67600 8.79600 47.22100
C  39.75400 9.37900 48.19300
H  41.87700 0.48300 47.58200
H  48.34800 0.18800 48.77900
H  48.89700 6.47100 48.06400
H  40.43600 5.08800 47.32000
H  40.45000 2.37800 46.25600
H  38.93100 2.96400 47.96600
H  40.13700 3.51700 49.06500
H  40.01700 1.76700 48.70300
H  40.73300 3.87500 44.67100
H  41.38300 5.43400 44.79400
H  39.07600 6.42500 44.80400
H  38.43800 5.06400 45.66700
H  42.36500 -1.51600 47.71600
H  43.21000 -2.35000 49.09500
H  43.53700 -2.68600 47.33800
H  48.11900 -1.85600 47.74400
H  48.15100 -3.32700 48.73200
H  48.29100 -1.79900 49.63100
H  50.21800 1.83800 48.02200
H  50.36100 4.38500 49.21300
H  50.80400 1.41900 50.37300
H  49.06100 1.37500 50.52400
H  49.88500 2.78800 50.93700
H  50.10400 4.94900 46.41700
H  50.89000 3.36000 46.45500
H  52.83000 4.29500 46.90900
H  52.30900 5.19500 48.28400
H  52.26700 5.86700 46.66300
H  47.76200 8.83100 46.28500
H  47.92700 9.05300 48.00800
H  46.55600 9.81700 47.28900
H  42.04300 7.36500 45.85600
H  39.09300 8.66500 48.68600
H  39.00900 10.03300 47.73900
H  40.30500 10.00700 48.89200
Mg 36.06500 0.32700 28.83400
C  33.97500 1.16600 31.51900
C  38.71600 0.45800 30.88700
C  37.84100 -0.60400 26.17700
C  33.11600 0.69000 26.71400
N  36.20900 0.64100 30.97400
C  35.27700 0.95300 31.89400
C  35.87400 1.06600 33.32800
C  37.37800 1.30400 33.00600
C  37.42900 0.65400 31.56400
C  37.88700 2.72700 32.97700
C  35.47800 -0.16100 34.16500
C  35.09600 0.02800 35.61900
H  35.36000 1.32600 36.48900
N  38.01800 -0.14900 28.61500
C  38.95100 -0.03600 29.52100
C  40.26200 -0.45500 28.96000
C  40.03200 -0.70000 27.58300
C  38.56100 -0.54500 27.40600
C  41.52600 -0.30100 29.79000
C  40.96300 -0.89100 26.46200
O  40.58300 -0.82200 25.31300
C  42.44300 -1.15400 26.69600
N  35.46000 -0.02600 26.70500
C  36.42300 -0.40400 25.79100
C  35.86900 -0.22600 24.38400
C  34.37500 0.09700 24.52900
C  34.27800 0.30000 26.07600
C  36.59600 0.78200 23.48600
C  33.38600 -0.93900 23.98000
C  32.26800 -0.42500 23.01100
N  33.98600 0.69700 29.02100
C  32.92400 0.76700 28.09200
C  31.73600 1.18600 28.80400
C  32.08200 1.23800 30.09500
C  33.43500 0.99400 30.19600
C  30.35500 1.56000 28.20600
C  31.53700 1.60500 31.41800
O  30.45100 1.96000 31.75000
C  32.76200 1.46300 32.37200
C  32.96800 2.72600 33.07800
O  33.57000 3.68000 32.60400
O  32.24200 2.89000 34.23600
C  32.11500 4.30500 34.81000
H  39.61100 0.73200 31.44900
H  38.37400 -0.99800 25.31000
H  32.29100 0.97000 26.05500
H  35.49000 1.94500 33.84500
H  38.05800 0.72500 33.63100
H  38.43200 2.71700 33.92000
H  37.02000 3.38700 32.99800
H  38.47700 2.95400 32.08900
H  36.10800 -1.03000 33.97400
H  34.58900 -0.47000 33.61600
H  35.51300 -0.79900 36.19400
H  34.03300 -0.20400 35.69100
H  42.00600 0.60000 29.40700
H  42.27800 -1.04900 29.53900
H  41.39100 -0.30700 30.87200
H  42.86300 -1.46700 25.74000
H  42.47900 -1.85300 27.53100
H  42.84100 -0.18500 26.99800
H  36.00100 -1.14200 23.80900
H  34.00100 1.05200 24.16100
H  36.20500 1.79300 23.61000
H  36.48000 0.50500 22.43900
H  37.65000 0.96400 23.69600
H  32.87500 -1.48600 24.77200
H  33.98500 -1.65600 23.42000
H  31.32300 -0.87500 23.31700
H  32.51700 -0.60800 21.96600
H  32.14500 0.65000 23.14400
H  30.46800 2.05600 27.24200
H  29.79900 2.26100 28.82800
H  29.88600 0.62800 27.88900
H  32.64100 0.59500 33.02000
H  32.47000 5.09600 34.14800
H  32.79900 4.37300 35.65600
H  31.15100 4.54600 35.25700

