158

Mg 25.32900 0.81500 29.90300
C  27.26600 0.62000 32.67200
C  22.56500 1.61000 32.12800
C  23.09600 0.70600 27.21200
C  27.80300 -0.32700 27.90400
N  25.00800 1.01700 32.16500
C  25.97200 0.90200 33.10500
C  25.51500 1.28800 34.47600
C  23.95700 1.56800 34.31500
C  23.81200 1.46000 32.74600
C  23.16700 0.53200 35.00900
C  26.19700 2.57200 34.97000
C  27.30300 2.54500 36.08700
H  27.11100 3.55300 37.24700
N  23.17000 1.21800 29.73500
C  22.27200 1.44200 30.74900
C  20.95500 1.47900 30.16800
C  21.07700 1.30600 28.76900
C  22.48300 1.06500 28.50900
C  19.71000 1.53700 31.06400
C  19.99200 1.21700 27.70600
O  20.22000 0.99300 26.54000
C  18.53000 1.46100 28.08800
N  25.34400 0.04000 27.93200
C  24.37300 0.21800 26.96600
C  24.89500 -0.11800 25.52400
C  26.40900 -0.46000 25.79900
C  26.58200 -0.28000 27.31800
C  24.17600 -1.26800 24.76300
C  27.41500 0.30000 24.89700
C  27.44400 1.90600 25.07800
N  27.12900 0.18100 30.18600
C  28.08300 -0.17000 29.29600
C  29.32600 -0.30100 29.91200
C  29.06700 0.03400 31.23500
C  27.69300 0.25400 31.34800
C  30.62700 -0.69100 29.23000
C  29.65400 0.21500 32.56100
O  30.80200 0.26700 32.92400
C  28.49300 0.50300 33.54300
C  28.44100 -0.62700 34.47700
O  27.86900 -1.67800 34.23900
O  29.18000 -0.29000 35.66300
C  29.11800 -1.13800 36.86700
H  21.74500 1.86500 32.80200
H  22.44000 0.67100 26.33900
H  28.70600 -0.45000 27.30200
H  25.65800 0.45900 35.16900
H  23.50200 2.52700 34.56300
H  23.52200 0.37500 36.02700
H  22.99800 -0.47800 34.63400
H  22.18800 0.99200 35.14400
H  25.50500 3.36200 35.26100
H  26.74100 3.03000 34.14400
H  28.23800 2.68900 35.54400
H  27.23800 1.60500 36.63500
H  19.10300 2.36700 30.70300
H  19.73300 1.59900 32.15200
H  19.08600 0.68200 30.80500
H  18.09900 0.77900 28.82100
H  17.90300 1.38300 27.20000
H  18.44100 2.45600 28.52400
H  24.77200 0.77200 24.90700
H  26.70100 -1.50300 25.67800
H  23.29100 -1.60300 25.30500
H  24.80400 -2.07400 24.38400
H  23.74500 -0.67100 23.95900
H  27.08200 0.25100 23.86000
H  28.41800 -0.12500 24.93100
H  27.13200 2.34600 24.13100
H  28.40800 2.37200 25.28200
H  26.67200 2.27800 25.75200
H  30.65900 -0.15200 28.28300
H  30.58300 -1.73200 28.90900
H  31.46500 -0.48400 29.89700
H  28.68800 1.48900 33.96300
H  28.38100 -0.70700 37.54500
H  30.02200 -1.12300 37.47600
H  28.94100 -2.14000 36.47500
Mg 34.97600 2.28900 29.89400
C  32.68100 3.22600 32.34800
C  37.52200 2.81700 32.28600
C  37.09100 1.38900 27.52900
C  32.31900 2.40600 27.56000
N  35.05300 2.90800 32.08900
C  34.00800 3.11000 32.86300
C  34.34700 3.23400 34.32700
C  35.91000 3.45300 34.26300
C  36.23400 3.02100 32.80000
C  36.34200 4.88000 34.65900
C  33.81300 1.94900 35.10100
C  33.44800 2.17500 36.63500
H  34.33400 3.22400 37.25100
N  36.97800 2.07100 29.84700
C  37.81900 2.28300 30.92500
C  39.19800 1.87700 30.47300
C  39.04800 1.32100 29.16600
C  37.66200 1.55000 28.84000
C  40.40400 2.06200 31.41600
C  40.12200 0.63200 28.31500
O  39.84500 0.15000 27.24900
C  41.58300 0.42200 28.86200
N  34.79300 2.17300 27.77600
C  35.79300 1.60000 27.06300
C  35.49100 1.52400 25.57900
C  33.86500 1.55800 25.64400
C  33.60900 2.12600 27.04600
C  36.06400 2.67900 24.70000
C  33.14700 0.21900 25.31500
C  31.73100 0.23900 24.68900
N  32.88800 2.68500 29.89800
C  31.93800 2.70700 28.88700
C  30.65900 2.90200 29.42800
C  30.89900 3.16000 30.83700
C  32.27000 3.03800 31.00900
C  29.33100 3.18700 28.60600
C  30.21800 3.50600 32.12600
O  29.05100 3.61500 32.41900
C  31.43500 3.54400 33.17400
C  31.35100 4.82000 33.87000
O  31.58500 5.94200 33.44700
O  31.12200 4.62500 35.14900
C  30.90900 5.81900 36.05200
H  38.30400 2.97500 33.03200
H  37.81000 1.05200 26.77900
H  31.55800 2.24200 26.79500
H  33.91700 4.19200 34.62200
H  36.50700 2.81200 34.91200
H  36.87500 5.25300 33.78500
H  37.02300 4.88200 35.51100
H  35.55000 5.58100 34.92400
H  34.45700 1.07700 34.98100
H  32.91100 1.52800 34.65800
H  33.57300 1.28200 37.24800
H  32.45500 2.62400 36.67000
H  40.07300 2.85400 32.08800
H  41.36600 2.36600 31.00400
H  40.53600 1.13200 31.97100
H  41.59800 0.34000 29.94900
H  42.12500 1.35900 28.74000
H  42.07600 -0.44200 28.41600
H  35.99900 0.63900 25.19500
H  33.50200 2.36300 25.00400
H  36.94300 3.10400 25.18300
H  35.29900 3.44000 24.54700
H  36.31500 2.24600 23.73200
H  33.07300 -0.26600 26.28800
H  33.78100 -0.46200 24.74600
H  31.81300 -0.28900 23.73900
H  31.40200 1.26500 24.52700
H  30.98200 -0.25300 25.31000
H  29.40500 2.76100 27.60600
H  29.20000 4.26900 28.58900
H  28.47800 2.89400 29.21800
H  31.13200 2.82000 33.93000
H  29.83500 5.86900 36.23000
H  31.13700 6.81000 35.65800
H  31.33600 5.55500 37.01900

