158

Mg 25.83900 1.01200 29.13800
C  27.67600 0.56300 32.14200
C  23.04700 1.22500 30.99700
C  24.06300 1.11600 26.33200
C  28.75400 0.11100 27.42900
N  25.38400 0.65000 31.42900
C  26.29200 0.70400 32.40200
C  25.58000 0.81100 33.78300
C  24.04000 0.95800 33.39000
C  24.13300 0.88900 31.84600
C  23.09500 -0.10800 33.88700
C  26.30800 1.97800 34.56000
C  25.56600 2.69400 35.67300
H  26.10000 2.34300 37.14100
N  23.75900 1.11400 28.72500
C  22.81000 1.36300 29.63200
C  21.55900 1.61000 28.90900
C  21.78900 1.51900 27.50200
C  23.21500 1.19000 27.42800
C  20.19800 1.90900 29.63000
C  20.92800 1.81100 26.33600
O  21.26300 1.67300 25.15500
C  19.51500 2.20800 26.53100
N  26.36800 0.68300 27.12600
C  25.42400 0.86800 26.14600
C  26.04600 0.75900 24.75800
C  27.59900 0.59100 25.11600
C  27.62900 0.45000 26.63500
C  25.45000 -0.41900 23.87000
C  28.52400 1.85100 24.65600
C  29.95800 1.38000 24.14000
N  27.84700 0.51200 29.62100
C  28.87600 0.13300 28.81400
C  30.08300 -0.22800 29.56500
C  29.66200 0.05800 30.87800
C  28.30700 0.40200 30.88300
C  31.43100 -0.68700 29.01300
C  30.03700 -0.01100 32.27400
O  31.14700 -0.22400 32.73800
C  28.81500 0.29900 33.16900
C  28.54300 -0.85200 34.10700
O  27.86300 -1.79100 33.89000
O  29.14200 -0.53100 35.30600
C  28.65500 -1.44900 36.38600
H  22.10600 1.40700 31.51900
H  23.54600 1.07400 25.37100
H  29.64700 -0.23000 26.90100
H  25.72100 -0.18800 34.19400
H  23.60300 1.91700 33.66900
H  23.60700 -0.82600 34.52700
H  22.66800 -0.73500 33.10500
H  22.30700 0.31800 34.50900
H  26.50400 2.80700 33.88000
H  27.26100 1.64100 34.96900
H  24.53000 2.36000 35.73100
H  25.66300 3.75200 35.42900
H  19.60300 1.00000 29.54100
H  19.68400 2.75100 29.16600
H  20.30500 2.15200 30.68700
H  19.11000 2.47300 25.55400
H  19.48000 3.03000 27.24600
H  18.99200 1.31200 26.86400
H  25.85700 1.70000 24.24200
H  28.06000 -0.35900 24.84500
H  24.99400 -1.15400 24.53300
H  26.25000 -0.81100 23.24200
H  24.71000 0.06300 23.23000
H  28.60800 2.46800 25.55000
H  28.06300 2.54800 23.95600
H  30.72300 1.77600 24.80700
H  30.18500 1.81500 23.16600
H  30.00600 0.29100 24.15300
H  31.94700 0.13900 28.52300
H  31.31300 -1.31300 28.12800
H  32.19900 -1.09300 29.67000
H  28.89900 1.21000 33.76200
H  28.81400 -2.49500 36.12300
H  27.57500 -1.39800 36.52400
H  29.06300 -1.22500 37.37100
Mg 16.73700 52.56400 26.36900
C  18.21300 51.24300 29.22800
C  14.00200 53.21500 28.38800
C  14.95600 53.58500 23.53500
C  18.94900 50.86300 24.41000
N  16.30800 52.32600 28.52800
C  17.11200 51.94400 29.50900
C  16.50000 52.24300 30.85000
C  15.02500 52.57700 30.56500
C  15.14000 52.73800 29.07600
C  14.08500 51.37400 31.01900
C  17.37900 53.40700 31.45800
C  17.49200 53.40200 32.98600
H  16.43700 52.58800 33.73100
N  14.84300 53.37700 26.00200
C  13.87900 53.57000 27.00800
C  12.73500 54.23600 26.36600
C  12.98300 54.27400 24.97900
C  14.32600 53.70000 24.76600
C  11.51100 54.70800 27.11100
C  12.01900 54.66700 23.78400
O  12.33700 54.57800 22.60600
C  10.56500 55.20100 24.07500
N  16.91900 52.36800 24.31900
C  16.14300 52.86300 23.33300
C  16.64100 52.55800 21.90900
C  18.07600 51.98900 22.30600
C  18.00000 51.70700 23.76600
C  15.60800 51.46700 21.23000
C  19.30000 52.94600 21.88700
C  20.47500 52.23900 21.22400
N  18.27000 51.24300 26.68900
C  19.06000 50.61100 25.76700
C  20.05400 49.85600 26.48100
C  19.74300 50.04700 27.82000
C  18.62600 50.87100 27.88900
C  21.28900 49.26100 25.87000
C  20.23100 49.88300 29.20000
O  21.21600 49.29400 29.52700
C  19.20900 50.69800 30.16300
C  18.56300 49.71500 31.09700
O  17.73600 48.85600 30.74400
O  19.06000 49.91700 32.38800
C  18.62100 49.02200 33.44200
H  13.13700 53.35000 29.04100
H  14.45600 53.94300 22.63300
H  19.71600 50.41400 23.77700
H  16.56000 51.28700 31.37100
H  14.64000 53.44800 31.09600
H  14.58400 50.65200 31.66600
H  13.73100 50.86400 30.12300
H  13.26000 51.83400 31.56300
H  16.79800 54.29300 31.20000
H  18.37800 53.46000 31.02500
H  17.45700 54.36500 33.49400
H  18.50600 53.10600 33.25800
H  10.63800 54.12200 26.82300
H  11.28900 55.71800 26.76500
H  11.75600 54.73100 28.17300
H  10.03000 54.44000 24.64300
H  10.15200 55.16600 23.06700
H  10.65300 56.11400 24.66500
H  16.62900 53.35900 21.16900
H  18.17500 51.01100 21.83600
H  14.86300 51.01300 21.88300
H  16.19600 50.68600 20.74800
H  15.07500 51.99700 20.44000
H  19.62600 53.34800 22.84600
H  18.98200 53.80900 21.30100
H  20.55800 52.66600 20.22400
H  20.18600 51.19600 21.09400
H  21.41600 52.22700 21.77300
H  21.67800 49.85100 25.04000
H  21.02100 48.24700 25.57400
H  22.14500 49.20500 26.54300
H  19.69700 51.51500 30.69500
H  19.37100 48.80400 34.20200
H  18.06200 48.19500 33.00400
H  17.90400 49.55400 34.06800

