158

Mg 1.03600 8.18300 26.33500
C  1.60300 9.96000 29.36200
C  0.94700 5.32800 28.33900
C  0.71900 6.30700 23.56200
C  1.31300 11.06300 24.60900
N  1.24800 7.75000 28.58900
C  1.31500 8.61900 29.64200
C  1.19200 7.95700 30.94800
C  1.39700 6.48700 30.57600
C  1.14400 6.50100 29.07800
C  2.69100 5.78000 30.90100
C  -0.09400 8.41100 31.69200
C  0.01700 8.51800 33.22800
H  1.25400 7.93600 33.95300
N  0.83900 6.07500 26.02400
C  0.85100 5.11900 26.94400
C  0.55300 3.84500 26.28500
C  0.68300 4.11900 24.92500
C  0.74800 5.53800 24.77800
C  0.35400 2.52600 26.99600
C  0.60200 3.12400 23.66900
O  0.60100 3.53000 22.51200
C  0.57200 1.60900 23.86500
N  0.94000 8.60400 24.43000
C  0.82300 7.71300 23.41600
C  0.76300 8.45100 22.01500
C  0.83400 9.96000 22.39500
C  0.99700 9.85900 23.92100
C  1.71400 7.97000 20.87300
C  -0.46500 10.77400 21.91300
C  -1.73400 10.51600 22.74700
N  1.37700 10.10400 26.78600
C  1.51000 11.17100 25.96400
C  1.81800 12.37600 26.77200
C  1.83100 11.89000 28.06100
C  1.55800 10.53600 28.05200
C  2.04400 13.81900 26.21300
C  2.20000 12.28800 29.39000
O  2.57200 13.39800 29.84200
C  1.93400 11.01300 30.31900
C  3.15600 10.67200 31.07900
O  4.09000 9.87100 30.83900
O  3.17900 11.52100 32.18300
C  4.40600 11.54600 33.08100
H  0.82600 4.38700 28.88000
H  0.66400 5.89700 22.55100
H  1.22200 11.95700 23.98800
H  2.11800 8.15800 31.48600
H  0.60200 5.87500 31.00200
H  2.48100 5.07300 31.70300
H  3.45000 6.39800 31.38100
H  3.09700 5.17400 30.09100
H  -0.91200 7.72200 31.47700
H  -0.42800 9.37800 31.31800
H  -0.88000 8.07900 33.66400
H  0.08700 9.59800 33.35700
H  1.34400 2.08400 26.88100
H  -0.43600 1.95200 26.51200
H  0.01800 2.67100 28.02300
H  1.56500 1.18800 24.02300
H  0.31300 1.15500 22.90900
H  -0.13100 1.24800 24.61600
H  -0.26000 8.16900 21.76500
H  1.77900 10.39400 22.06700
H  2.42300 7.22000 21.22700
H  2.27900 8.88100 20.67800
H  1.23000 7.44200 20.05200
H  -0.54800 10.57000 20.84500
H  -0.27700 11.84200 22.02000
H  -1.58400 9.99900 23.69500
H  -2.40200 9.80800 22.25700
H  -2.18500 11.48900 22.94100
H  2.47100 13.72900 25.21400
H  2.76700 14.29800 26.87200
H  1.14300 14.42200 26.09400
H  1.08000 11.19900 30.96900
H  5.29300 11.02000 32.72900
H  4.13100 11.15700 34.06200
H  4.75800 12.57000 33.20800
Mg 47.96700 25.06400 28.59700
C  48.52300 27.66600 31.02700
C  47.64400 22.84100 31.15200
C  47.73700 22.60800 26.24000
C  49.05200 27.27300 26.16300
N  48.03200 25.28400 30.87600
C  48.20200 26.47300 31.67300
C  47.94400 26.13600 33.19400
C  47.70400 24.56600 33.13100
C  47.81600 24.17300 31.58800
C  48.72700 23.72600 33.98900
C  46.74300 26.98300 33.74700
C  46.22200 26.54500 35.12300
H  45.64600 27.51200 36.07500
N  47.67700 23.01200 28.64800
C  47.52000 22.28300 29.82700
C  47.32900 20.85100 29.45400
C  47.40200 20.79700 28.00300
C  47.60100 22.14100 27.57200
C  47.09800 19.71100 30.40500
C  47.17300 19.62900 27.05900
O  46.99500 19.80500 25.85500
C  47.02800 18.26400 27.61900
N  48.53200 24.94100 26.52900
C  48.14000 23.86200 25.76800
C  48.16200 24.15400 24.27100
C  48.47500 25.74000 24.28500
C  48.72200 26.01300 25.70000
C  49.06400 23.29300 23.38900
C  47.26500 26.65000 23.68300
C  47.66700 27.84300 22.77000
N  48.71900 27.00800 28.55500
C  49.13300 27.77700 27.47900
C  49.42900 29.12400 27.94300
C  49.27100 29.13200 29.36400
C  48.82800 27.82400 29.66300
C  49.87000 30.19300 26.95200
C  49.40900 29.97900 30.55900
O  49.94800 31.04900 30.74700
C  48.72800 29.06600 31.65400
C  49.72300 29.08000 32.72200
O  50.91800 28.69900 32.67600
O  49.20100 29.82100 33.76900
C  49.92600 29.71700 34.98500
H  47.58900 22.09300 31.94600
H  47.61900 21.98100 25.35400
H  49.35500 27.93000 25.34500
H  48.86400 26.32300 33.74700
H  46.67800 24.51800 33.49700
H  48.25900 22.92300 34.55800
H  49.25700 24.38400 34.67700
H  49.40200 23.30600 33.24300
H  45.96600 27.00200 32.98300
H  47.13700 27.99800 33.77800
H  46.91000 25.90100 35.67100
H  45.37500 25.89300 34.91000
H  46.05400 19.42600 30.54100
H  47.50700 20.18600 31.29600
H  47.75800 18.87200 30.18500
H  48.06500 17.95900 27.75700
H  46.55100 17.72100 26.80200
H  46.38500 18.03100 28.46700
H  47.20600 24.02500 23.76200
H  49.37200 26.01000 23.72700
H  49.03800 22.25200 23.71100
H  50.12700 23.53400 23.42200
H  48.72200 23.44000 22.36500
H  46.80300 27.12300 24.55000
H  46.44500 26.08600 23.23700
H  47.48300 28.85600 23.12600
H  46.84300 27.77200 22.05900
H  48.60300 27.79200 22.21400
H  49.35600 29.93800 26.02600
H  50.95000 30.11900 26.82800
H  49.63700 31.20900 27.26800
H  47.72400 29.32800 31.98900
H  50.18600 28.66000 35.04300
H  49.25100 29.90100 35.82200
H  50.85700 30.28400 34.99000

