158

Mg 40.54800 8.16800 29.49900
C  42.82400 9.63100 31.99000
C  38.67600 7.00600 32.03700
C  38.92400 6.33600 27.22900
C  43.13500 8.89200 27.11700
N  40.84900 8.24200 31.70300
C  41.65600 8.98900 32.50200
C  41.12900 9.08000 33.91300
C  39.89800 8.11100 33.89300
C  39.79800 7.69800 32.44000
C  39.80000 6.99300 34.88400
C  40.81800 10.55000 34.31400
C  39.79700 10.65800 35.49800
H  40.09000 11.82900 36.41300
N  38.85400 7.06100 29.60300
C  38.23600 6.64400 30.75800
C  37.08500 5.90300 30.41400
C  37.06200 5.75100 28.98800
C  38.29000 6.37900 28.53700
C  36.08400 5.49600 31.46200
C  36.17100 5.07400 28.08800
O  36.38200 4.96100 26.89200
C  34.92200 4.55500 28.58800
N  41.05300 7.60200 27.48800
C  40.18700 6.87600 26.70300
C  40.57600 6.87400 25.20800
C  41.65900 8.03100 25.20900
C  41.99300 8.24200 26.67000
C  41.07500 5.45300 24.70800
C  41.26600 9.40700 24.58800
C  40.09500 10.12700 25.15900
N  42.57600 8.99100 29.54900
C  43.39800 9.19900 28.41500
C  44.58200 9.90700 28.94900
C  44.41000 10.05000 30.35500
C  43.14600 9.57200 30.61600
C  45.81500 10.25100 28.15000
C  44.95200 10.66000 31.62900
O  45.91800 11.38200 31.80300
C  43.91600 10.40200 32.69500
C  44.41400 9.67300 33.83200
O  44.90800 8.58500 33.76600
O  44.08400 10.39600 34.92900
C  44.08200 9.66800 36.19400
H  38.09800 6.56600 32.85300
H  38.30700 5.78800 26.51400
H  43.89000 9.23300 26.40600
H  41.87200 8.80600 34.66200
H  38.97000 8.64100 34.11000
H  40.73500 6.97200 35.44400
H  39.66100 6.09300 34.28600
H  38.93900 6.99800 35.55200
H  40.29100 10.88100 33.42000
H  41.75400 11.09200 34.44600
H  39.58300 9.75900 36.07600
H  38.89000 10.89700 34.94200
H  35.03800 5.63300 31.19000
H  36.22500 5.85900 32.48000
H  36.29700 4.44000 31.62900
H  35.14100 3.79300 29.33600
H  34.35000 3.92400 27.90800
H  34.39500 5.38800 29.05100
H  39.75700 7.16100 24.54800
H  42.59600 7.73100 24.73900
H  42.16200 5.48700 24.62500
H  40.66800 4.99400 23.80700
H  40.90600 4.75700 25.53000
H  41.08600 9.26300 23.52300
H  42.11300 10.09000 24.52100
H  40.43700 11.14100 25.36600
H  39.84300 9.66100 26.11200
H  39.21200 10.10700 24.52100
H  46.68300 9.59700 28.22900
H  46.15800 11.04600 28.81300
H  45.74700 10.53600 27.10000
H  43.67100 11.41900 33.00100
H  44.91100 9.98600 36.82600
H  44.03400 8.58500 36.08200
H  43.09200 9.75200 36.64100
Mg 15.89600 52.95900 25.07900
C  17.31100 51.72900 28.04600
C  13.10300 53.83000 26.96900
C  14.44500 53.98400 22.25800
C  18.54600 51.72100 23.22700
N  15.44400 52.95500 27.23400
C  16.13500 52.48200 28.26200
C  15.52500 52.79900 29.59900
C  14.11000 53.22000 29.17900
C  14.17400 53.24700 27.68200
C  12.87900 52.33700 29.60500
C  16.29400 53.84800 30.40100
C  16.52100 53.57200 31.94200
H  15.72700 52.46700 32.63400
N  14.08100 53.86800 24.66400
C  13.00900 54.11000 25.58600
C  11.94500 54.71500 24.82600
C  12.32700 54.80700 23.42100
C  13.61100 54.17700 23.41500
C  10.65100 55.07000 25.52400
C  11.59200 55.34100 22.24900
O  12.09300 55.41600 21.12700
C  10.21700 55.85500 22.36700
N  16.43600 52.88300 23.03200
C  15.69500 53.45100 22.00600
C  16.48200 53.34000 20.61300
C  17.83500 52.87700 21.05800
C  17.60700 52.41800 22.45800
C  15.77200 52.45400 19.48100
C  19.00700 53.95100 20.97300
C  20.13000 53.70200 19.89100
N  17.46300 51.74000 25.45000
C  18.47800 51.35600 24.65500
C  19.35800 50.42500 25.40600
C  18.95400 50.57500 26.77700
C  17.82200 51.37700 26.69900
C  20.62400 49.75300 24.81800
C  19.23500 50.25500 28.15000
O  20.16300 49.56800 28.60700
C  18.28000 51.04100 29.05100
C  17.55300 50.18800 30.02900
O  16.49100 49.56400 29.87000
O  18.50300 49.77700 30.93000
C  18.34700 48.72000 31.89000
H  12.30400 54.13900 27.64600
H  14.03000 54.30200 21.29900
H  19.32600 51.32400 22.57400
H  15.37300 51.84500 30.10500
H  13.89700 54.23100 29.52800
H  12.66000 51.73600 28.72300
H  12.04900 52.86000 30.08100
H  13.21800 51.63900 30.37000
H  15.86100 54.84000 30.27700
H  17.25200 53.83800 29.88100
H  16.21900 54.52500 32.37700
H  17.57700 53.37500 32.12800
H  9.88100 54.75700 24.81900
H  10.60200 56.11100 25.84400
H  10.59500 54.41400 26.39200
H  10.08100 56.57200 23.17700
H  9.43300 55.09700 22.38400
H  10.14100 56.42100 21.43900
H  16.72600 54.26300 20.08600
H  18.03600 52.07300 20.35000
H  16.41000 51.88200 18.80800
H  15.18600 53.10200 18.83000
H  15.07400 51.75600 19.94200
H  19.54000 54.07600 21.91500
H  18.57600 54.94500 20.84500
H  21.09800 53.86200 20.36400
H  20.00300 54.36300 19.03400
H  20.01900 52.64200 19.66200
H  21.34000 50.57400 24.82200
H  20.40600 49.48700 23.78300
H  20.89900 48.90200 25.44100
H  18.91400 51.73800 29.59800
H  19.01600 47.89600 31.64100
H  17.36100 48.25500 31.87000
H  18.45800 49.15400 32.88400

