158

Mg 17.15100 -1.06200 28.04500
C  15.84300 1.03100 30.68300
C  18.93800 -2.72600 30.25300
C  18.66100 -2.35200 25.46200
C  15.40400 1.23400 25.84900
N  17.29300 -0.92700 30.22700
C  16.61500 -0.11000 31.08400
C  16.97100 -0.44600 32.53700
C  18.19500 -1.42000 32.43200
C  18.13700 -1.75700 30.89000
C  19.59600 -0.85300 32.80600
C  15.67800 -0.88900 33.36100
C  15.59100 -0.60500 34.83100
H  16.83500 -0.17500 35.70800
N  18.50500 -2.41700 27.88800
C  19.08700 -3.05400 28.91800
C  19.91900 -4.07400 28.38100
C  19.78900 -4.06700 26.95700
C  19.00000 -2.96300 26.69400
C  20.74600 -5.04200 29.27800
C  20.37600 -4.97700 25.95100
O  20.26700 -4.80900 24.71100
C  21.15500 -6.18700 26.37100
N  17.10000 -0.52100 25.95700
C  17.80400 -1.26200 25.09600
C  17.74200 -0.74800 23.65400
C  16.55400 0.26500 23.83900
C  16.22900 0.28000 25.31200
C  19.03800 -0.03200 23.14000
C  15.40600 -0.04500 22.80300
C  14.20500 -0.84900 23.25100
N  15.80300 0.63000 28.13500
C  15.13300 1.37700 27.18700
C  14.22300 2.38300 27.79600
C  14.49300 2.24900 29.23600
C  15.48200 1.24800 29.36100
C  13.45200 3.36000 27.02300
C  14.19800 2.83000 30.43000
O  13.51700 3.77800 30.66800
C  15.04600 2.00500 31.56200
C  15.88500 2.92700 32.36900
O  16.97600 3.35600 32.04800
O  15.33000 3.11600 33.62700
C  16.03700 4.03100 34.57300
H  19.48600 -3.28100 31.01700
H  19.12400 -2.76600 24.56300
H  14.89000 1.88100 25.13500
H  17.36300 0.42700 33.05900
H  17.92000 -2.23700 33.10000
H  20.23300 -1.40000 33.50000
H  19.41600 0.11000 33.28400
H  20.22800 -0.76700 31.92200
H  15.66000 -1.97200 33.23500
H  14.78400 -0.42200 32.94900
H  15.40400 -1.60700 35.21700
H  14.67300 -0.07900 35.09600
H  21.77700 -5.06600 28.92700
H  20.35300 -6.05800 29.32200
H  20.71600 -4.70500 30.31400
H  22.20800 -5.90900 26.31300
H  20.93000 -6.99700 25.67700
H  20.97100 -6.68800 27.32100
H  17.48500 -1.49000 22.89700
H  16.96400 1.26000 23.66400
H  19.73300 -0.03900 23.98000
H  19.01500 1.02200 22.86400
H  19.50700 -0.70700 22.42400
H  15.77200 -0.45400 21.86100
H  14.90200 0.87700 22.51300
H  13.45700 -0.11800 23.55900
H  14.58100 -1.48700 24.05100
H  13.91500 -1.44900 22.38800
H  12.41600 3.12300 27.26500
H  13.49500 3.18000 25.94900
H  13.80800 4.38300 27.14500
H  14.33800 1.54600 32.25200
H  16.43400 4.92000 34.08400
H  16.90500 3.53200 35.00300
H  15.33900 4.35700 35.34400
Mg 45.83900 3.66500 47.07500
C  43.49300 6.27300 46.52800
C  43.21300 1.42300 46.92300
C  48.00700 1.08600 46.95300
C  48.31100 5.90900 46.78300
N  43.65200 3.87800 46.77700
C  42.90400 5.00000 46.55100
C  41.42800 4.72300 46.45800
C  41.34200 3.27400 46.98200
C  42.82400 2.77800 46.91400
C  40.78700 3.18400 48.42000
C  40.84800 4.81800 44.91400
C  39.67700 5.78900 44.66700
H  39.81000 6.86600 43.62000
N  45.60000 1.49400 47.04400
C  44.45300 0.79100 47.05500
C  44.73000 -0.60700 47.23800
C  46.16200 -0.68800 47.20900
C  46.67300 0.66300 47.06200
C  43.69000 -1.66500 47.24200
C  46.91600 -1.90600 47.48800
O  46.32300 -2.97000 47.79700
C  48.41700 -1.95300 47.56000
N  47.80000 3.53400 46.66700
C  48.49700 2.39800 46.78800
C  50.01600 2.58700 46.85800
C  50.08100 4.20200 46.76300
C  48.63500 4.56400 46.62200
C  50.62100 2.30400 48.21600
C  51.02100 4.73900 45.65800
C  52.24800 5.48200 46.08200
N  45.94400 5.64700 46.68500
C  47.07500 6.48700 46.77900
C  46.73700 7.92100 46.68800
C  45.26500 7.87700 46.59400
C  44.87900 6.48800 46.66700
C  47.61000 9.19000 46.59900
C  44.07300 8.64900 46.53500
O  43.86100 9.87600 46.58400
C  42.78100 7.64400 46.59800
C  42.04700 7.73900 47.92700
O  42.30600 7.23000 49.00300
O  41.10000 8.68200 47.77100
C  40.10500 8.95500 48.84400
H  42.45500 0.65700 47.10000
H  48.89400 0.46000 47.06800
H  49.14700 6.60900 46.71400
H  40.84500 5.44500 47.03000
H  40.74000 2.68200 46.29200
H  40.46800 4.17400 48.74400
H  41.61400 2.86700 49.05600
H  39.96400 2.47500 48.51100
H  40.52900 3.81700 44.62400
H  41.63700 5.12000 44.22600
H  39.27900 6.30000 45.54300
H  38.75600 5.27300 44.39800
H  43.87000 -2.57200 46.66600
H  42.76000 -1.21700 46.89200
H  43.43300 -2.01500 48.24200
H  48.78000 -2.96600 47.73400
H  48.83000 -1.46200 48.44100
H  48.80400 -1.53200 46.63200
H  50.52500 2.06100 46.05000
H  50.39000 4.66000 47.70300
H  51.33800 3.09500 48.43700
H  51.17300 1.36500 48.19400
H  49.96600 2.35000 49.08600
H  50.27100 5.25700 45.05900
H  51.37000 3.83600 45.15600
H  52.39600 5.59000 47.15700
H  52.40400 6.48200 45.67800
H  53.10000 5.04800 45.55900
H  48.62300 8.82900 46.42500
H  47.46300 9.68000 47.56200
H  47.35400 9.79700 45.73100
H  42.07100 7.84600 45.79600
H  40.14000 10.00900 49.12000
H  40.42700 8.57200 49.81200
H  39.10500 8.61800 48.57300

