158

Mg 0.89300 8.45700 25.69800
C  1.75000 10.40900 28.46200
C  1.12400 5.70800 27.63900
C  0.50000 6.57000 22.87000
C  1.23200 11.27700 23.71500
N  1.35000 8.05400 27.79300
C  1.56800 9.04500 28.78100
C  1.34700 8.40700 30.16500
C  1.47600 6.87900 29.89100
C  1.28600 6.85700 28.35400
C  2.83800 6.24600 30.20400
C  -0.03800 8.74500 30.85000
C  -0.15200 8.62500 32.40100
H  1.08000 8.25300 33.26400
N  0.78300 6.40600 25.28100
C  0.93400 5.42400 26.28400
C  0.75800 4.11900 25.60800
C  0.52100 4.29800 24.25400
C  0.59700 5.79000 24.03200
C  0.84100 2.84200 26.43900
C  0.34300 3.35500 23.10100
O  0.31100 3.74100 21.95300
C  0.25300 1.87600 23.40900
N  1.04200 8.82300 23.57100
C  0.68900 7.89200 22.66900
C  0.72500 8.42000 21.28900
C  0.83600 9.98700 21.48600
C  1.12500 10.07000 23.00800
C  1.75600 7.82000 20.32000
C  -0.39200 10.86000 21.03000
C  -1.52200 10.96400 21.98400
N  1.39300 10.38500 25.98100
C  1.36100 11.45200 25.09300
C  1.58200 12.72900 25.77100
C  1.73200 12.32000 27.10400
C  1.62100 10.93100 27.15700
C  1.74300 14.06100 25.19100
C  1.97600 12.86300 28.50300
O  2.25000 13.95300 28.90800
C  1.83300 11.54400 29.34500
C  3.01400 11.36700 30.23700
O  4.08000 11.02200 29.87200
O  2.63900 11.61600 31.54000
C  3.77300 11.50600 32.46500
H  1.03800 4.85600 28.31700
H  0.31600 6.06100 21.92100
H  1.13000 12.22000 23.17400
H  2.06900 8.68500 30.93300
H  0.62100 6.37200 30.33900
H  2.54500 5.61700 31.04500
H  3.50500 7.02600 30.57300
H  3.24800 5.53400 29.48800
H  -0.74000 7.96400 30.55900
H  -0.34400 9.70200 30.42700
H  -0.93900 7.92100 32.67100
H  -0.49500 9.60200 32.74000
H  -0.16300 2.45100 26.60400
H  1.38800 2.97700 27.37200
H  1.47800 2.13400 25.91000
H  -0.08900 1.26200 22.57600
H  -0.58300 1.82900 24.10800
H  1.16500 1.44400 23.82000
H  -0.28400 8.11100 21.01800
H  1.73600 10.49300 21.13600
H  2.44100 7.07900 20.73300
H  2.37400 8.69700 20.13000
H  1.28000 7.47500 19.40200
H  -0.60400 10.35100 20.09000
H  -0.04500 11.85800 20.76400
H  -1.53100 10.18500 22.74600
H  -2.40600 10.76700 21.37600
H  -1.59200 11.90700 22.52600
H  2.47200 14.03700 24.38100
H  1.98600 14.75000 26.00000
H  0.76000 14.39000 24.85400
H  1.03300 11.71400 30.06500
H  4.53600 12.27800 32.36200
H  4.11300 10.47300 32.39300
H  3.35400 11.62400 33.46400
Mg 26.53100 0.27900 29.72000
C  28.41900 0.09500 32.61300
C  23.68700 0.78500 31.69700
C  24.70500 0.50900 26.88500
C  29.41100 -0.36400 27.79000
N  26.12400 0.10700 31.95400
C  27.08200 0.29200 32.93400
C  26.54800 0.83400 34.29000
C  25.00800 0.90600 34.03200
C  24.91000 0.63700 32.43000
C  24.28300 -0.22900 34.91100
C  27.31200 2.17300 34.76900
C  27.97000 2.09800 36.12100
H  27.57800 3.19200 37.20000
N  24.44300 0.60200 29.40100
C  23.48600 0.70000 30.33000
C  22.24100 0.89500 29.67400
C  22.42600 0.74300 28.24600
C  23.95500 0.61600 28.09800
C  20.99000 1.18500 30.47400
C  21.50500 0.74100 27.09600
O  21.90300 0.61000 25.93900
C  20.00300 0.98400 27.25100
N  26.89200 0.04100 27.62800
C  26.03400 0.30800 26.63400
C  26.67800 0.40200 25.26700
C  28.16800 0.05900 25.56100
C  28.16700 -0.13600 27.11700
C  26.01000 -0.58900 24.27000
C  29.17700 1.15700 25.13500
C  28.71500 2.04200 23.89600
N  28.46600 -0.19100 30.06400
C  29.52400 -0.35800 29.19300
C  30.73200 -0.62800 29.97400
C  30.33200 -0.43200 31.28300
C  28.96700 -0.15100 31.33000
C  32.12300 -1.02500 29.47600
C  30.76000 -0.45400 32.62000
O  31.83500 -0.84200 33.07200
C  29.56100 -0.03000 33.52300
C  29.43600 -1.15000 34.52300
O  28.86400 -2.24400 34.32700
O  30.01200 -0.81800 35.72200
C  29.95300 -1.78000 36.83200
H  22.85200 1.06100 32.34400
H  24.23000 0.78300 25.94000
H  30.30300 -0.52300 27.18100
H  26.73300 0.07900 35.05400
H  24.59800 1.91000 34.14900
H  23.91600 -1.03100 34.27100
H  23.48600 0.22600 35.49800
H  24.93200 -0.72400 35.63400
H  26.45400 2.82700 34.92600
H  27.91000 2.62500 33.97800
H  28.97300 2.43200 35.85700
H  28.03900 1.12500 36.60800
H  20.37700 0.29500 30.33200
H  20.44000 2.07400 30.16500
H  21.16100 1.36200 31.53600
H  19.66200 0.25700 27.98900
H  19.52200 0.74100 26.30400
H  19.89000 2.04700 27.46100
H  26.34700 1.34900 24.84000
H  28.43200 -0.89400 25.10200
H  25.30700 -1.20100 24.83500
H  26.63600 -1.28700 23.71300
H  25.40400 -0.04300 23.54700
H  30.06900 0.60700 24.83400
H  29.49400 1.74000 26.00000
H  27.85000 1.61500 23.38900
H  29.56400 2.20100 23.23100
H  28.43200 3.01200 24.30500
H  32.07300 -1.74000 28.65500
H  32.72000 -1.42900 30.29400
H  32.55800 -0.15700 28.98100
H  29.81900 0.91500 34.00000
H  30.89800 -1.64200 37.35700
H  29.77000 -2.82200 36.57200
H  29.20200 -1.44900 37.54900

