158

Mg 50.43900 46.21300 40.81000
C  47.28400 47.38900 39.96800
C  49.56200 43.11900 39.60700
C  53.53800 45.20100 41.34400
C  51.42800 49.57800 41.42000
N  48.66300 45.36400 39.97000
C  47.46500 46.04200 39.60000
C  46.45000 45.07900 38.96000
C  47.08500 43.74000 39.21600
C  48.55000 44.10300 39.60600
C  46.42300 42.88800 40.38700
C  46.15700 45.43100 37.43500
C  45.12700 44.50800 36.79200
H  45.68500 43.77700 35.54800
N  51.46200 44.40100 40.55300
C  50.86200 43.25800 40.11800
C  51.84800 42.17700 40.17300
C  53.00000 42.73800 40.72800
C  52.72800 44.15900 40.90800
C  51.55400 40.77400 39.81500
C  54.26800 41.95000 41.01900
O  54.33500 40.79400 40.67200
C  55.45700 42.52400 41.74400
N  52.29500 47.32500 41.14400
C  53.34400 46.57200 41.56200
C  54.51000 47.51900 41.88800
C  53.89100 48.92000 41.97300
C  52.45100 48.61900 41.49900
C  55.33000 46.99300 43.13400
C  54.54700 49.94000 40.98900
C  54.79800 51.22900 41.67600
N  49.48800 48.13000 40.77700
C  50.06200 49.37100 41.04000
C  49.01200 50.40900 40.86800
C  47.89600 49.62300 40.43000
C  48.25100 48.30700 40.42200
C  49.13400 51.88600 41.02300
C  46.49600 49.68900 40.02700
O  45.74100 50.63900 40.12400
C  46.15500 48.21300 39.55700
C  44.87300 47.69600 40.28800
O  44.79300 47.23100 41.41800
O  43.80100 47.97500 39.56100
C  42.45500 47.61100 40.02300
H  49.27500 42.11100 39.30100
H  54.60100 44.98600 41.46600
H  51.59300 50.61700 41.71200
H  45.54200 45.20800 39.55000
H  47.17400 43.19500 38.27600
H  45.79100 43.51900 41.01100
H  47.24600 42.56900 41.02600
H  45.85800 42.05500 39.96700
H  47.11300 45.56100 36.92700
H  45.61300 46.37200 37.35400
H  44.27800 45.14600 36.54500
H  44.70800 43.66200 37.33700
H  50.72500 40.78000 39.10800
H  51.27500 40.26300 40.73600
H  52.34300 40.18500 39.34700
H  54.95300 42.94200 42.61600
H  55.99200 43.29600 41.19100
H  56.09500 41.69000 42.03700
H  55.17100 47.47500 41.02300
H  53.72700 49.08400 43.03800
H  54.87400 46.13500 43.62700
H  55.58300 47.66700 43.95300
H  56.31800 46.61000 42.87800
H  53.89500 50.10500 40.13200
H  55.47100 49.53700 40.57400
H  54.74600 51.06300 42.75200
H  54.02700 51.91400 41.32200
H  55.76100 51.63300 41.36400
H  48.79400 52.17800 42.01600
H  48.64000 52.47300 40.24900
H  50.19400 52.10500 40.89900
H  46.11000 48.24200 38.46800
H  41.85900 47.45600 39.12300
H  41.92200 48.25400 40.72300
H  42.64200 46.63400 40.46900
Mg -11.06000 39.24900 41.14600
C  -9.65200 36.15100 40.33600
C  -8.45000 40.83500 39.48400
C  -12.88100 42.14400 41.15400
C  -13.80300 37.46000 42.22800
N  -9.28200 38.54000 40.12900
C  -9.00000 37.23900 39.74600
C  -7.76100 37.25900 38.80500
C  -7.15800 38.70700 39.07000
C  -8.40700 39.43100 39.59900
C  -6.03900 38.53000 40.12000
C  -8.18200 37.05700 37.40300
C  -7.23100 36.15400 36.56500
H  -7.02600 36.51600 35.10900
N  -10.71000 41.23800 40.51200
C  -9.57700 41.65200 39.84100
C  -9.64300 43.13800 39.71600
C  -10.83500 43.56500 40.30700
C  -11.55500 42.28100 40.62500
C  -8.55400 43.82300 39.02700
C  -11.19900 45.06600 40.50200
O  -10.35700 45.94800 40.23400
C  -12.45300 45.45800 41.15100
N  -13.06200 39.70600 41.41200
C  -13.56300 40.96900 41.43700
C  -14.99200 40.97500 41.84000
C  -15.33800 39.44900 42.04300
C  -14.03000 38.80200 41.79700
C  -15.31300 41.92200 43.10500
C  -16.45600 38.86700 41.13300
C  -17.87000 38.58500 41.75100
N  -11.60400 37.19500 41.40000
C  -12.70700 36.65700 41.92400
C  -12.56100 35.22800 42.03700
C  -11.31600 34.99600 41.42300
C  -10.82300 36.20800 40.99600
C  -13.51800 34.25700 42.66600
C  -10.36900 33.96900 41.13500
O  -10.32300 32.74300 41.37300
C  -9.25500 34.70900 40.25100
C  -7.94800 34.44900 40.97500
O  -7.38700 35.11900 41.83700
O  -7.39400 33.30600 40.39400
C  -6.23000 32.86800 41.11200
H  -7.56400 41.28900 39.03600
H  -13.38100 43.07100 41.44600
H  -14.69200 36.92700 42.57100
H  -7.09400 36.46500 39.14000
H  -6.92400 39.29900 38.18500
H  -6.17000 37.74000 40.86000
H  -5.89700 39.38600 40.78000
H  -5.15700 38.39300 39.49400
H  -8.14900 37.97900 36.82200
H  -9.18900 36.64300 37.36300
H  -7.47900 35.09300 36.61300
H  -6.26100 36.31300 37.03600
H  -8.57400 43.61000 37.95900
H  -7.59800 43.53800 39.46500
H  -8.70800 44.90100 39.09200
H  -12.44300 44.97000 42.12600
H  -13.31900 45.03700 40.64100
H  -12.57100 46.54100 41.19900
H  -15.63800 41.32700 41.03600
H  -15.74400 39.39300 43.05300
H  -14.55300 42.59800 43.49600
H  -15.59200 41.37000 44.00200
H  -16.21700 42.45200 42.80300
H  -16.23800 37.87100 40.74800
H  -16.66900 39.44400 40.23300
H  -17.74800 37.91100 42.59900
H  -18.60400 38.36800 40.97500
H  -18.10700 39.57500 42.14000
H  -13.54800 34.48100 43.73200
H  -13.29900 33.20500 42.48300
H  -14.57500 34.43200 42.46600
H  -9.17100 34.47000 39.19100
H  -6.04800 31.88800 40.67100
H  -6.42200 32.67800 42.16800
H  -5.45900 33.59500 40.85600

