158

Mg 47.63400 25.16000 28.08000
C  48.17200 27.43500 30.69600
C  46.53900 22.86600 30.46900
C  47.46400 22.93800 25.60700
C  48.88700 27.47700 25.86700
N  47.39100 25.16300 30.27600
C  47.64400 26.26400 31.17400
C  47.32700 25.93500 32.65600
C  46.93900 24.41900 32.49000
C  46.90200 24.12800 30.98900
C  47.92000 23.44100 33.20900
C  46.24100 26.88900 33.18200
C  46.35900 27.32600 34.63100
H  45.11300 27.27700 35.59000
N  47.03800 23.12100 28.00500
C  46.64000 22.37500 29.10500
C  46.07200 21.16100 28.55100
C  46.45800 21.13000 27.13200
C  46.98100 22.41000 26.80800
C  45.38700 20.01400 29.33200
C  46.25000 19.98700 26.16400
O  46.75100 20.01300 25.07200
C  45.37700 18.84200 26.40000
N  48.19000 25.19400 26.08400
C  47.98500 24.15400 25.21000
C  48.32100 24.48700 23.77800
C  48.52100 25.96700 23.85700
C  48.48400 26.21500 25.35200
C  49.39200 23.65300 23.15300
C  47.48900 26.81500 23.10800
C  46.44400 27.64300 23.87400
N  48.25500 27.16100 28.22000
C  48.80700 27.96100 27.20100
C  49.23900 29.23900 27.76900
C  49.01300 29.08000 29.18500
C  48.50800 27.74600 29.38200
C  50.04100 30.32300 27.06600
C  49.14100 29.73400 30.42100
O  49.55700 30.87000 30.68100
C  48.46300 28.75500 31.46100
C  49.38500 28.69500 32.63000
O  50.39800 27.97800 32.79700
O  49.08000 29.70500 33.44300
C  49.84900 29.69600 34.72600
H  46.14900 22.16500 31.20900
H  47.42800 22.23700 24.77000
H  49.20600 28.20200 25.11500
H  48.21300 26.10700 33.26800
H  45.92900 24.26100 32.86600
H  48.31700 22.63100 32.59800
H  47.20900 23.04000 33.93100
H  48.63900 24.07800 33.72500
H  45.29400 26.40700 32.93600
H  46.15600 27.71300 32.47400
H  46.61600 28.38500 34.62800
H  47.09100 26.71400 35.15800
H  45.94500 19.07700 29.31500
H  44.39300 19.85000 28.91500
H  45.20700 20.33200 30.35800
H  45.96300 18.30300 27.14400
H  45.27700 18.22300 25.50900
H  44.42900 19.20900 26.79300
H  47.41500 24.18600 23.25100
H  49.42900 26.26600 23.33300
H  48.87500 23.16300 22.32800
H  49.65900 22.89500 23.89000
H  50.19700 24.23400 22.70400
H  46.96400 26.20200 22.37700
H  47.95000 27.48200 22.37900
H  46.49200 27.55700 24.96000
H  45.48200 27.34500 23.45800
H  46.60200 28.71200 23.73400
H  50.34000 29.89600 26.10800
H  50.80800 30.34800 27.84000
H  49.52900 31.28600 27.06700
H  47.55900 29.24300 31.82800
H  49.68900 30.51400 35.42800
H  50.92400 29.55900 34.61400
H  49.50500 28.76000 35.16600
Mg -5.82900 25.44600 25.98700
C  -4.26500 26.65200 28.93800
C  -7.82300 23.51700 28.13300
C  -6.98000 23.83100 23.32100
C  -3.49600 27.12900 24.12200
N  -5.92200 25.15500 28.27300
C  -5.30100 25.78900 29.24300
C  -5.78300 25.36600 30.66400
C  -6.66400 24.15100 30.33200
C  -6.82300 24.23600 28.80100
C  -6.19400 22.89800 30.99200
C  -6.47700 26.53600 31.36600
C  -6.23500 26.81700 32.83800
H  -6.16800 25.52500 33.72700
N  -7.25600 23.91800 25.74700
C  -7.97500 23.28800 26.73600
C  -9.01200 22.50600 26.14800
C  -8.76000 22.53000 24.73900
C  -7.62700 23.43400 24.53000
C  -10.19800 21.84700 26.95600
C  -9.46900 21.70200 23.67200
O  -9.09200 21.68800 22.48500
C  -10.76000 20.98400 24.05300
N  -5.30400 25.51500 24.02200
C  -5.94600 24.81600 23.10900
C  -5.36300 24.98900 21.67600
C  -4.25100 26.04900 21.92000
C  -4.37200 26.27200 23.45000
C  -4.95100 23.77700 20.88800
C  -4.63600 27.45900 21.21700
C  -3.83200 27.64500 19.86900
N  -4.20200 26.72900 26.37500
C  -3.30400 27.33100 25.51200
C  -2.31300 28.06200 26.31800
C  -2.64300 27.86700 27.65100
C  -3.78400 27.01100 27.61600
C  -1.11700 28.91100 25.81600
C  -2.28800 28.18100 29.03300
O  -1.43900 28.92200 29.55400
C  -3.29900 27.35100 29.91600
C  -2.50700 26.45900 30.75900
O  -1.84200 25.55900 30.32700
O  -2.44300 26.96100 32.03100
C  -1.33400 26.52200 32.91700
H  -8.51000 23.09900 28.87300
H  -7.29900 23.38500 22.37700
H  -2.70700 27.60700 23.53800
H  -4.84100 25.07700 31.12900
H  -7.62600 24.29800 30.82200
H  -5.54600 23.15100 31.83100
H  -5.60600 22.32300 30.27600
H  -7.01200 22.26700 31.33800
H  -7.56000 26.49000 31.24900
H  -6.17000 27.43200 30.82500
H  -6.97900 27.46400 33.30200
H  -5.24100 27.26000 32.90100
H  -11.08900 22.28700 26.50800
H  -10.17000 22.24900 27.96900
H  -10.18600 20.78500 26.71100
H  -11.27500 20.66000 23.14800
H  -11.41100 21.75300 24.46800
H  -10.68100 20.13900 24.73700
H  -6.17500 25.38600 21.06500
H  -3.23200 25.73600 21.69000
H  -5.66300 22.95400 20.81400
H  -4.02400 23.42000 21.33800
H  -4.69300 24.09700 19.87900
H  -4.37300 28.33200 21.81300
H  -5.71300 27.50400 21.05100
H  -3.52600 26.77100 19.29300
H  -3.05100 28.39200 20.01800
H  -4.51600 28.23300 19.25700
H  -0.79700 28.48100 24.86700
H  -0.20300 28.85500 26.40800
H  -1.39600 29.95700 25.69000
H  -3.97200 27.97700 30.50100
H  -1.71000 25.56000 33.26600
H  -1.13300 27.20700 33.74100
H  -0.40000 26.34600 32.38200

