158

Mg 30.16500 58.47100 41.09600
C  27.31000 56.75800 40.02500
C  31.98700 56.02500 39.46100
C  32.98900 60.46300 41.15500
C  28.18800 61.14900 42.32800
N  29.67800 56.46800 40.08600
C  28.47100 56.03500 39.67500
C  28.54500 54.75800 38.84500
C  30.05500 54.38500 38.93900
C  30.63900 55.71600 39.53400
C  30.45500 53.07500 39.64600
C  28.01800 54.95500 37.39400
C  27.46000 53.76400 36.61400
H  27.80300 53.71900 35.10900
N  32.14300 58.31600 40.35700
C  32.68300 57.17900 39.73400
C  34.03900 57.38900 39.43800
C  34.35200 58.64900 39.97500
C  33.10700 59.23800 40.47900
C  34.94300 56.29100 38.84700
C  35.69000 59.29800 39.67900
O  36.71300 58.64300 39.44300
C  35.96400 60.78400 39.77700
N  30.49200 60.52900 41.63600
C  31.79600 61.08000 41.72200
C  31.66100 62.52300 41.97300
C  30.15700 62.72700 42.44400
C  29.51700 61.41000 42.12500
C  32.69600 63.07900 43.03600
C  29.39200 64.02500 41.80200
C  28.56800 64.80700 42.85500
N  28.20400 58.89800 41.27200
C  27.57600 59.98100 41.85700
C  26.15100 59.73900 41.80800
C  26.00500 58.49000 41.11000
C  27.27500 58.02000 40.83100
C  25.03400 60.64500 42.33700
C  25.05200 57.53100 40.58700
O  23.86200 57.58000 40.48300
C  25.89600 56.33500 39.90800
C  25.52100 55.15500 40.69300
O  26.03200 54.77000 41.72900
O  24.46300 54.49100 40.14900
C  23.88800 53.29400 40.80900
H  32.57500 55.16700 39.12800
H  33.82700 61.14300 41.32100
H  27.53500 61.86500 42.83300
H  27.97600 53.90400 39.21100
H  30.36100 54.25100 37.90100
H  31.21700 53.19600 40.41700
H  30.92200 52.39100 38.93700
H  29.56700 52.53900 39.98300
H  28.81000 55.45600 36.83700
H  27.17100 55.63700 37.47500
H  26.37400 53.69200 36.67200
H  27.90600 52.87900 37.06700
H  34.50900 55.86600 37.94300
H  34.99700 55.42000 39.50100
H  35.92700 56.65000 38.54700
H  35.14400 61.38000 39.37600
H  36.79800 60.94200 39.09200
H  36.29600 61.00800 40.79100
H  31.84800 62.91600 40.97300
H  30.15600 62.79100 43.53200
H  33.50500 63.50900 42.44600
H  33.06000 62.24300 43.63300
H  32.21300 63.94100 43.49800
H  28.67300 63.67600 41.06000
H  30.07900 64.78600 41.43100
H  27.54200 64.82800 42.48700
H  28.94900 65.82800 42.87900
H  28.64700 64.42400 43.87300
H  25.27000 61.68800 42.12500
H  25.29800 60.76700 43.38700
H  24.02500 60.24300 42.25100
H  25.57200 56.22400 38.87300
H  24.70500 52.79800 41.33300
H  23.57100 52.61200 40.02100
H  23.09800 53.59400 41.49900
Mg -2.15000 34.14800 26.35900
C  -3.68900 32.42000 28.95500
C  -0.85300 36.41300 28.64400
C  -1.16700 36.09000 23.78700
C  -4.02300 32.20300 24.09000
N  -2.17100 34.29900 28.48500
C  -2.85800 33.47300 29.36500
C  -2.53200 33.80900 30.84300
C  -1.84900 35.26400 30.66700
C  -1.62900 35.36500 29.16500
C  -2.68400 36.51200 31.19100
C  -1.52300 32.79800 31.52500
C  -1.13000 33.08400 32.97400
H  -1.64900 32.25600 34.20300
N  -0.94500 35.95400 26.21800
C  -0.45100 36.70600 27.23900
C  0.38700 37.75700 26.63700
C  0.31600 37.65300 25.23500
C  -0.61200 36.47200 24.98900
C  1.22300 38.71100 27.43300
C  1.04700 38.54300 24.15700
O  0.72700 38.38300 22.97200
C  1.94500 39.70100 24.48600
N  -2.71200 34.30000 24.30700
C  -2.09200 35.09800 23.46100
C  -2.53900 34.83600 22.02300
C  -3.10900 33.40600 22.08800
C  -3.32900 33.30100 23.60100
C  -3.63300 35.85400 21.52700
C  -2.10600 32.20500 21.52900
C  -1.03700 31.69200 22.44800
N  -3.54400 32.55100 26.42100
C  -4.19300 31.89100 25.46000
C  -4.98600 30.89700 26.06800
C  -4.86200 31.04100 27.42300
C  -3.94700 32.08900 27.59800
C  -5.82700 29.89000 25.29100
C  -5.28200 30.53800 28.70000
O  -6.04300 29.59700 28.97300
C  -4.49000 31.44100 29.74200
C  -5.28100 32.03500 30.75500
O  -6.15200 32.93500 30.59300
O  -4.90400 31.54100 31.91200
C  -5.53700 32.11600 33.13100
H  -0.47300 37.13300 29.37200
H  -0.80500 36.70100 22.95700
H  -4.53700 31.51600 23.41500
H  -3.43600 33.89400 31.44600
H  -0.87900 35.31600 31.16100
H  -3.37500 36.09500 31.92300
H  -3.32300 37.01700 30.46700
H  -2.09200 37.22600 31.76400
H  -0.60200 32.61400 30.97300
H  -2.05500 31.85400 31.64500
H  -1.42300 34.12800 33.08900
H  -0.04500 33.10600 33.07600
H  2.28100 38.59000 27.20400
H  1.10600 38.65300 28.51500
H  0.78900 39.63800 27.05600
H  2.36900 40.02800 23.53600
H  2.75400 39.26900 25.07600
H  1.44200 40.53600 24.97300
H  -1.71000 34.94100 21.32400
H  -4.04800 33.37600 21.53600
H  -3.90800 36.52400 22.34200
H  -4.57200 35.46100 21.13700
H  -3.20600 36.34500 20.65300
H  -1.59600 32.63800 20.66800
H  -2.87200 31.48000 21.25700
H  -1.30100 30.78100 22.98400
H  -0.97800 32.51400 23.16200
H  -0.09900 31.53500 21.91600
H  -6.65200 30.40500 24.79900
H  -6.12400 29.13500 26.01800
H  -5.06500 29.49200 24.62100
H  -3.73800 30.83900 30.25300
H  -4.73400 32.34400 33.83200
H  -6.10200 31.24800 33.47200
H  -6.11500 33.03900 33.08900

