158

Mg 24.46400 0.69500 29.45200
C  26.53200 1.03800 32.08600
C  21.84700 1.19200 31.53400
C  22.30500 0.18800 26.79100
C  27.15200 0.42600 27.26300
N  24.28100 1.22200 31.54800
C  25.31500 1.36400 32.48900
C  24.80700 1.68800 33.88300
C  23.25300 1.51500 33.66200
C  23.11300 1.38600 32.14100
C  22.66000 0.33100 34.38400
C  25.35700 2.97400 34.52800
C  26.14100 2.74900 35.83400
H  25.98700 3.60400 37.11500
N  22.44400 0.53700 29.23500
C  21.54500 0.76100 30.26000
C  20.21600 0.38200 29.81900
C  20.31900 0.11800 28.45300
C  21.71400 0.27900 28.08600
C  19.01200 0.48600 30.77800
C  19.25000 -0.27100 27.49000
O  19.46000 -0.68600 26.38700
C  17.82300 -0.15900 27.91500
N  24.71000 0.36500 27.35400
C  23.65200 0.36700 26.46700
C  24.23300 0.53800 24.97700
C  25.82500 0.56500 25.20600
C  25.90500 0.37800 26.68000
C  23.68700 -0.56000 23.99400
C  26.46500 1.96300 24.75300
C  25.67800 3.30000 25.06300
N  26.41400 0.64100 29.56500
C  27.41300 0.51100 28.65000
C  28.69900 0.42100 29.23400
C  28.42700 0.52600 30.59300
C  27.02600 0.77200 30.77800
C  29.97700 0.09100 28.33800
C  29.08400 0.47100 31.90500
O  30.17400 0.36200 32.29600
C  27.88100 0.78800 32.88300
C  27.70600 -0.29300 33.85300
O  27.11700 -1.35100 33.67700
O  28.26600 0.19500 35.02300
C  28.18000 -0.70600 36.19800
H  21.06600 1.47800 32.24200
H  21.66300 0.23100 25.90800
H  28.00300 0.47600 26.58100
H  25.24700 0.83100 34.39300
H  22.81000 2.40800 34.10400
H  22.07300 -0.23700 33.66200
H  21.89900 0.69600 35.07300
H  23.36000 -0.40300 34.78300
H  24.52000 3.66300 34.63800
H  26.01700 3.41400 33.78000
H  27.17000 2.88300 35.50200
H  26.07700 1.70100 36.12700
H  18.14000 -0.11000 30.50800
H  18.79200 1.55300 30.82700
H  19.31000 0.12700 31.76300
H  17.25400 -0.15800 26.98500
H  17.50500 0.84400 28.19900
H  17.65600 -1.00400 28.58300
H  23.91700 1.47200 24.51300
H  26.45100 -0.17800 24.71200
H  23.05900 -1.30600 24.48000
H  24.51800 -1.09800 23.53700
H  23.22700 0.00200 23.18000
H  26.47800 1.93400 23.66300
H  27.53300 2.04100 24.95600
H  26.45000 4.07000 25.06500
H  25.08500 3.41100 25.97100
H  25.12100 3.54100 24.15800
H  30.83100 0.19000 29.00900
H  30.04400 0.79100 27.50500
H  29.87300 -0.94000 28.00100
H  28.21200 1.68600 33.40500
H  27.33500 -0.29000 36.74800
H  29.06900 -0.79500 36.82400
H  27.95900 -1.70900 35.83400
Mg 44.17300 4.62300 46.09200
C  42.35200 7.49500 46.36200
C  41.24000 2.87500 45.54100
C  46.00000 1.85100 45.44800
C  47.06900 6.45400 46.42600
N  42.07900 5.09300 45.95200
C  41.56300 6.38000 46.14400
C  40.05900 6.34600 46.31500
C  39.73900 4.82200 46.02000
C  41.10800 4.19200 45.89900
C  38.74500 4.16100 47.07500
C  39.20900 7.31700 45.41300
C  39.76800 7.90500 44.12300
H  39.15700 7.35900 42.86500
N  43.67600 2.67600 45.54700
C  42.42900 2.14800 45.36600
C  42.54900 0.75500 45.05500
C  43.96000 0.42800 45.05400
C  44.61700 1.69400 45.36400
C  41.38800 -0.16100 44.63300
C  44.60200 -0.97200 44.81400
O  43.84400 -1.90500 44.55200
C  46.01700 -1.24900 44.78700
N  46.34100 4.23000 45.71400
C  46.83000 2.95600 45.70200
C  48.33600 2.98800 45.85500
C  48.59700 4.46200 46.26400
C  47.28100 5.12500 46.08300
C  49.05100 1.97300 46.74700
C  49.69900 5.32700 45.56800
C  50.68800 6.08300 46.54300
N  44.65500 6.55300 46.40000
C  45.85700 7.12300 46.59000
C  45.65100 8.48900 46.94300
C  44.24700 8.70900 46.89700
C  43.75100 7.49700 46.49100
C  46.67300 9.55100 47.14100
C  43.15400 9.64600 47.10000
O  43.18400 10.85300 47.47100
C  41.88300 8.89900 46.74900
C  41.04800 9.02100 47.94700
O  40.98600 8.15400 48.82400
O  40.19100 10.10500 47.81900
C  39.24100 10.36500 48.89300
H  40.23200 2.47400 45.42100
H  46.66500 1.01300 45.23100
H  47.93600 6.94300 46.87500
H  39.83600 6.50100 47.37100
H  39.21500 4.71200 45.07100
H  39.39600 3.43000 47.55600
H  37.93700 3.79500 46.44200
H  38.42100 4.90700 47.80100
H  38.80700 8.09000 46.06800
H  38.26000 6.85600 45.13800
H  40.79800 7.57900 43.97600
H  39.58000 8.97800 44.07400
H  41.54400 -0.22600 43.55600
H  40.43100 0.26900 44.92900
H  41.51300 -1.12500 45.12500
H  46.11900 -2.31300 44.57500
H  46.51100 -1.11900 45.75000
H  46.47600 -0.64800 44.00200
H  48.77700 2.77300 44.88200
H  48.88900 4.41300 47.31300
H  49.73200 1.32800 46.19200
H  48.32000 1.39800 47.31500
H  49.59400 2.38500 47.59700
H  49.30900 5.98300 44.79000
H  50.23300 4.53300 45.04600
H  50.44100 7.13300 46.38900
H  51.72200 5.83300 46.30300
H  50.58600 5.86400 47.60600
H  46.59100 10.28700 46.34100
H  47.61800 9.04000 46.96000
H  46.64400 10.03900 48.11500
H  41.58700 9.47900 45.87500
H  39.41100 9.80800 49.81400
H  38.24000 10.14700 48.52200
H  39.24700 11.43000 49.12600

