158

Mg 2.27800 -1.47400 43.58100
C  5.73800 -0.90200 43.44300
C  1.75400 1.32400 41.62300
C  -0.97300 -2.44500 43.28700
C  3.01800 -4.60400 45.18200
N  3.61500 -0.06500 42.48000
C  4.99700 0.04500 42.64200
C  5.54700 1.14400 41.70300
C  4.29100 2.02700 41.50900
C  3.14100 1.03300 41.82200
C  4.22500 3.49800 41.95700
C  6.12600 0.56100 40.37000
C  7.46400 1.21800 39.96000
H  7.70200 1.47400 38.45600
N  0.66200 -0.56500 42.76300
C  0.62600 0.56100 42.01300
C  -0.72400 0.87900 41.73400
C  -1.55100 -0.09500 42.21200
C  -0.62600 -1.16600 42.72600
C  -1.27500 2.19900 41.03100
C  -3.07400 -0.18300 42.12700
O  -3.70000 0.83500 41.81100
C  -3.90800 -1.28100 42.49900
N  1.21300 -3.31300 44.02000
C  -0.15100 -3.44700 43.88700
C  -0.58300 -4.83300 44.22000
C  0.63600 -5.44200 44.97500
C  1.71900 -4.42200 44.58800
C  -1.95700 -4.93000 44.96900
C  1.08600 -6.86800 44.40800
C  1.49400 -7.77500 45.63300
N  4.02200 -2.63700 44.09000
C  4.12900 -3.82000 44.88300
C  5.50800 -4.01300 45.25500
C  6.15000 -2.84700 44.73600
C  5.22600 -2.10100 44.02600
C  6.11500 -5.12900 45.87300
C  7.40800 -2.12500 44.65500
O  8.48500 -2.44000 45.15100
C  7.22500 -0.87100 43.81000
C  7.55200 0.31400 44.65000
O  6.79500 0.87700 45.41400
O  8.79800 0.81000 44.25100
C  9.04100 2.21200 44.69600
H  1.38700 2.25800 41.19100
H  -2.02200 -2.70900 43.13300
H  3.23200 -5.35800 45.94200
H  6.26300 1.80300 42.19400
H  4.24300 2.26900 40.44700
H  4.27300 4.21900 41.14100
H  5.06200 3.74900 42.60900
H  3.27000 3.45600 42.48000
H  5.44500 0.70200 39.53000
H  6.18800 -0.52200 40.48400
H  8.26100 0.60000 40.37500
H  7.55300 2.14800 40.52200
H  -1.87900 1.83200 40.20200
H  -0.50500 2.91000 40.73100
H  -2.01300 2.67400 41.67700
H  -4.93900 -0.94500 42.39200
H  -3.64700 -1.68600 43.47700
H  -3.79500 -2.10600 41.79500
H  -0.62500 -5.39200 43.28500
H  0.44900 -5.31400 46.04200
H  -2.58600 -4.05600 44.80200
H  -1.71200 -4.91800 46.03100
H  -2.49000 -5.86400 44.78700
H  1.87600 -6.82300 43.65900
H  0.18200 -7.38900 44.09300
H  2.50800 -8.10200 45.40700
H  0.78600 -8.60400 45.60500
H  1.56500 -7.19500 46.55300
H  6.39600 -5.90300 45.15800
H  5.35700 -5.60900 46.49200
H  6.93200 -4.78000 46.50500
H  7.89300 -0.91100 42.95000
H  10.04600 2.45600 44.35100
H  8.99500 2.32100 45.78000
H  8.38700 2.98400 44.29000
Mg 48.14400 34.45900 26.49900
C  46.35500 33.05300 29.29700
C  48.27400 37.39800 28.16300
C  48.97300 35.71200 23.51300
C  47.01400 31.40900 24.62900
N  47.53600 35.08800 28.58100
C  46.96800 34.36900 29.53100
C  46.93300 35.15800 30.82900
C  47.06200 36.61400 30.31200
C  47.59700 36.44700 28.90200
C  45.74500 37.43200 30.34300
C  48.07200 34.65400 31.79600
C  47.82000 34.56200 33.26500
H  46.82900 35.61000 33.83000
N  48.84900 36.27500 25.99800
C  48.79300 37.33300 26.79900
C  49.33900 38.53400 25.96000
C  49.58600 38.01400 24.59800
C  49.08700 36.62300 24.64700
C  49.55600 39.88800 26.63100
C  50.10200 38.72000 23.34600
O  50.20800 38.16300 22.19400
C  50.48800 40.16400 23.53100
N  48.12500 33.59200 24.40300
C  48.62500 34.36100 23.40200
C  48.43700 33.70300 22.03600
C  48.12800 32.17500 22.38800
C  47.76600 32.34200 23.89600
C  47.37400 34.48600 21.15300
C  49.27300 31.14700 22.11800
C  50.57000 31.28800 22.98800
N  46.93700 32.61900 26.85600
C  46.57800 31.53800 26.05000
C  45.76800 30.59400 26.76800
C  45.67600 31.16400 28.02300
C  46.30200 32.39900 28.04200
C  45.17800 29.37800 26.12600
C  45.11600 30.94500 29.36900
O  44.41400 30.05600 29.73400
C  45.33700 32.27200 30.13100
C  45.59600 31.90200 31.55500
O  46.60600 31.45600 32.10400
O  44.44700 32.19500 32.21200
C  44.29500 31.63400 33.57100
H  48.18100 38.36600 28.66100
H  49.14300 36.12700 22.51700
H  46.67800 30.49200 24.14200
H  45.94100 35.03600 31.26300
H  47.88700 37.09600 30.83700
H  44.94000 36.89900 30.84900
H  45.62300 37.76000 29.31100
H  45.95900 38.30800 30.95600
H  48.96300 35.26700 31.66000
H  48.31800 33.60600 31.62700
H  48.74600 34.76900 33.80100
H  47.49900 33.54800 33.50300
H  50.60500 39.88500 26.92900
H  49.05800 39.92100 27.60000
H  49.31100 40.72200 25.97400
H  49.68400 40.75300 23.97300
H  50.83700 40.51200 22.55900
H  51.26300 40.28200 24.28800
H  49.35300 33.80400 21.45400
H  47.32400 31.86100 21.72300
H  47.93200 35.02700 20.38800
H  46.84500 35.28200 21.67700
H  46.73000 33.75700 20.66200
H  49.54800 31.23100 21.06700
H  48.85100 30.20300 22.46300
H  51.40200 30.94500 22.37400
H  50.49700 30.54900 23.78500
H  50.78000 32.22000 23.51200
H  45.84500 28.93800 25.38400
H  44.24900 29.73700 25.68500
H  44.98900 28.58800 26.85200
H  44.36700 32.76200 30.04200
H  44.52100 30.57300 33.67200
H  43.28900 31.87900 33.91400
H  45.09700 32.12800 34.12100

