158

Mg 41.68700 9.37700 29.75500
C  42.91600 10.64600 32.84800
C  39.38600 7.64500 31.47500
C  40.62900 8.15000 26.80000
C  44.18400 11.34900 28.11100
N  41.38800 9.09300 31.97000
C  41.89200 9.73800 33.03300
C  41.26200 9.21700 34.32800
C  40.17900 8.14000 33.83800
C  40.33000 8.27600 32.32100
C  40.34100 6.66400 34.34800
C  40.64000 10.33900 35.23600
C  40.98400 10.30800 36.78900
H  41.32100 11.60400 37.42900
N  40.23000 8.08300 29.25300
C  39.34400 7.47400 30.07000
C  38.37700 6.66700 29.34100
C  38.75900 6.79200 27.98900
C  39.90800 7.64300 27.94300
C  37.25800 5.80600 30.00100
C  38.09400 6.19200 26.77500
O  38.48600 6.33800 25.64800
C  36.84200 5.35800 26.89800
N  42.31300 9.73700 27.70400
C  41.77200 9.01900 26.70900
C  42.40500 9.50300 25.33000
C  43.27800 10.73200 25.73300
C  43.29800 10.53600 27.25100
C  43.05100 8.37400 24.52500
C  42.72900 12.16800 25.22200
C  41.30000 12.76800 25.62500
N  43.37600 10.53100 30.36900
C  44.29900 11.30000 29.53400
C  45.21500 12.01200 30.41900
C  44.64000 11.77800 31.72200
C  43.59500 10.83900 31.63200
C  46.37400 12.84100 29.91600
C  44.78600 12.09200 33.13100
O  45.59200 12.81100 33.68200
C  43.71700 11.38000 33.90500
C  44.44800 10.37100 34.83400
O  45.29100 9.57400 34.54700
O  44.01600 10.56400 36.27300
C  44.79300 9.67200 37.21600
H  38.68800 6.93800 31.92800
H  40.20100 7.92200 25.82200
H  44.93700 11.94200 27.58600
H  42.09200 8.73600 34.84700
H  39.20000 8.47500 34.18000
H  41.17400 6.66100 35.05100
H  40.51500 6.06500 33.45300
H  39.45100 6.24200 34.81400
H  39.55200 10.32800 35.17500
H  41.04600 11.29800 34.91300
H  41.65500 9.46600 36.96200
H  40.03100 9.95900 37.18600
H  37.28400 4.85900 29.46200
H  36.29200 6.27000 29.79900
H  37.38200 5.63700 31.07100
H  36.32200 5.13000 25.96800
H  36.19700 5.78300 27.66800
H  37.08200 4.38500 27.32600
H  41.58300 9.88200 24.72200
H  44.26800 10.48000 25.35100
H  42.94200 8.48800 23.44600
H  42.48900 7.51100 24.88300
H  44.09000 8.16100 24.77300
H  42.92200 12.32300 24.16000
H  43.36300 12.83200 25.80900
H  40.93200 12.22700 26.49700
H  40.61300 12.80800 24.78000
H  41.47000 13.81500 25.87800
H  45.96000 13.36300 29.05300
H  47.15500 12.10400 29.72900
H  46.61200 13.58800 30.67300
H  43.12500 12.14000 34.41500
H  45.84300 9.96000 37.25700
H  44.69900 8.62300 36.93600
H  44.37400 9.86700 38.20300
Mg -12.20900 40.01600 41.98200
C  -10.81000 36.90200 41.20000
C  -9.61000 41.56300 40.10300
C  -13.87800 42.97100 42.19800
C  -14.99900 38.37500 43.26600
N  -10.48600 39.25700 40.70000
C  -10.07800 37.95000 40.65600
C  -8.71800 37.89200 39.87600
C  -8.34200 39.34900 39.65200
C  -9.52300 40.11900 40.17700
C  -6.96400 39.75900 40.23300
C  -8.70400 36.92900 38.69900
C  -7.63900 35.82500 38.63900
H  -7.07800 35.33800 37.28300
N  -11.82500 42.04300 41.24700
C  -10.67900 42.38000 40.54800
C  -10.67400 43.82800 40.39800
C  -11.87100 44.30500 40.98500
C  -12.62400 43.11600 41.53600
C  -9.57800 44.65700 39.75400
C  -12.37100 45.66200 41.12200
O  -11.57800 46.61300 40.81600
C  -13.62400 46.01300 41.73800
N  -14.30300 40.53100 42.48300
C  -14.71000 41.82600 42.54100
C  -16.15300 41.93800 42.98500
C  -16.56500 40.39500 43.29200
C  -15.17600 39.70200 42.94500
C  -16.54600 42.92000 44.19200
C  -17.72800 39.81700 42.41100
C  -19.07900 39.69600 43.09500
N  -12.80700 38.07000 42.25600
C  -13.89400 37.57300 42.89200
C  -13.71300 36.09600 43.07900
C  -12.43900 35.81300 42.38600
C  -12.02700 37.00200 41.85900
C  -14.57500 35.18600 43.86700
C  -11.54700 34.74400 42.16200
O  -11.63300 33.60900 42.56800
C  -10.42700 35.39500 41.19300
C  -9.17700 35.04200 41.84700
O  -8.59800 33.95600 41.73100
O  -8.59300 36.08300 42.41600
C  -7.37900 35.90800 43.18700
H  -8.63000 41.87700 39.73700
H  -14.43600 43.82100 42.59600
H  -15.81800 37.84300 43.75500
H  -7.97000 37.47000 40.54700
H  -8.39800 39.66700 38.61100
H  -6.74900 38.99900 40.98400
H  -6.87800 40.69800 40.77900
H  -6.09800 39.73400 39.57100
H  -8.37500 37.41700 37.78200
H  -9.70000 36.51200 38.55200
H  -8.20400 34.98700 39.04700
H  -6.83100 35.91700 39.36500
H  -9.89700 45.06700 38.79500
H  -8.78800 43.97700 39.43500
H  -9.05100 45.39300 40.36100
H  -14.40400 45.62800 41.08100
H  -13.65300 47.10100 41.79200
H  -13.60200 45.71800 42.78700
H  -16.74600 42.18100 42.10300
H  -16.88500 40.23400 44.32200
H  -17.08000 43.80200 43.84100
H  -15.64400 43.16500 44.75300
H  -17.19300 42.41200 44.90700
H  -17.47000 38.80600 42.09800
H  -17.85000 40.38300 41.48800
H  -19.48200 38.68400 43.05700
H  -19.86400 40.17800 42.51300
H  -19.02700 40.12100 44.09700
H  -14.30600 34.15900 43.62300
H  -15.57100 35.28900 43.43600
H  -14.42800 35.48500 44.90500
H  -10.41800 34.87400 40.23600
H  -6.86400 36.86800 43.14700
H  -6.66300 35.23600 42.71400
H  -7.44900 35.67300 44.24900

