158

Mg 16.22100 -2.63600 27.79000
C  15.21800 -0.42800 30.46200
C  17.78500 -4.52700 30.20000
C  17.63000 -4.44100 25.40900
C  14.63300 -0.44900 25.48000
N  16.44700 -2.44100 30.08700
C  15.94100 -1.50600 30.94600
C  16.07200 -1.96000 32.41800
C  17.06000 -3.17300 32.31000
C  17.09100 -3.42000 30.75500
C  18.45600 -3.00700 33.01400
C  14.75000 -2.27800 33.03600
C  14.41400 -1.66700 34.42700
H  15.56400 -1.27400 35.30000
N  17.51200 -4.24800 27.87900
C  17.99800 -4.96400 28.90800
C  18.85600 -6.05200 28.49500
C  18.74900 -6.04100 27.05200
C  17.95700 -4.87100 26.71600
C  19.53200 -7.02500 29.47500
C  19.43700 -7.00000 26.07300
O  19.33800 -6.85300 24.84200
C  20.36900 -8.04700 26.67200
N  15.97700 -2.56600 25.78200
C  16.82600 -3.29700 25.07500
C  16.72200 -2.88800 23.57300
C  15.54900 -1.84600 23.58700
C  15.34700 -1.61500 25.06500
C  18.01800 -2.18500 23.07800
C  14.23400 -2.30800 22.91000
C  13.32800 -1.28700 22.16400
N  15.03600 -0.84300 27.86500
C  14.49600 -0.02400 26.85100
C  13.73800 1.07900 27.36000
C  14.03400 1.00500 28.78900
C  14.84000 -0.16500 29.01400
C  12.93700 2.06400 26.56600
C  13.84600 1.57100 30.08400
O  13.33100 2.62500 30.32100
C  14.42900 0.58600 31.22000
C  15.20300 1.49700 32.03600
O  16.35700 1.85300 31.88500
O  14.36300 1.85100 33.13000
C  14.93300 2.87000 33.95800
H  18.25000 -5.16200 30.95700
H  18.09700 -4.89400 24.53200
H  14.19600 0.19000 24.71000
H  16.51700 -1.09700 32.91300
H  16.63300 -4.06900 32.76000
H  18.54600 -3.83900 33.71300
H  18.45400 -2.04600 33.52800
H  19.15100 -3.11900 32.18200
H  14.69700 -3.34700 33.24500
H  13.93600 -1.97400 32.37900
H  13.78700 -2.37600 34.96900
H  13.84600 -0.75200 34.26300
H  19.65500 -8.06700 29.18000
H  19.17400 -6.90200 30.49700
H  20.55400 -6.64900 29.52700
H  19.69200 -8.87800 26.86800
H  21.10400 -7.73400 27.41400
H  21.02700 -8.37200 25.86600
H  16.43800 -3.82800 23.10000
H  15.82800 -0.86100 23.21300
H  18.19200 -2.39100 22.02200
H  18.92300 -2.23200 23.68500
H  17.91600 -1.10000 23.05500
H  13.62300 -2.68600 23.73000
H  14.58700 -3.09500 22.24400
H  12.66400 -0.98900 22.97500
H  12.72600 -1.71900 21.36400
H  13.98500 -0.45400 21.91400
H  12.90200 3.01400 27.10000
H  11.91700 1.68200 26.53600
H  13.31100 2.25100 25.56000
H  13.54100 0.24000 31.74800
H  15.36200 2.31300 34.79100
H  14.14500 3.46300 34.42100
H  15.70900 3.48700 33.50500
Mg 16.71500 51.41900 26.23700
C  18.68500 50.50800 28.95900
C  14.02700 52.04000 28.40800
C  14.77200 52.04000 23.56300
C  19.33900 50.29400 24.09000
N  16.34900 51.22200 28.41200
C  17.36600 50.97200 29.32200
C  16.91900 51.18900 30.72600
C  15.42100 51.52200 30.59900
C  15.23500 51.61800 29.04800
C  14.50200 50.38700 31.16600
C  17.74000 52.28900 31.45800
C  18.45600 51.94100 32.75900
H  17.82300 52.63700 33.95200
N  14.70100 51.98800 26.05300
C  13.78800 52.26100 27.03700
C  12.67500 53.00300 26.43500
C  12.88100 53.05200 25.05700
C  14.18000 52.33600 24.79000
C  11.49000 53.46100 27.26500
C  12.00200 53.64900 24.02600
O  12.27300 53.55800 22.79700
C  10.74500 54.41000 24.36100
N  17.02600 51.35400 24.14300
C  16.08100 51.59800 23.25000
C  16.52900 51.57900 21.73900
C  18.01600 51.06800 21.90000
C  18.13600 50.83900 23.46200
C  15.66100 50.65300 20.82600
C  19.04600 52.01600 21.44800
C  19.80500 51.75100 20.16400
N  18.75700 50.52200 26.40000
C  19.64200 50.14500 25.47800
C  20.75400 49.50200 26.20100
C  20.44700 49.72300 27.60700
C  19.20700 50.28800 27.67900
C  21.97100 48.82600 25.62700
C  20.93000 49.50000 28.96300
O  21.98100 48.95800 29.31800
C  19.84400 50.05400 29.91400
C  19.47800 48.91400 30.78400
O  18.60500 48.10500 30.52700
O  20.20300 48.98600 31.97300
C  20.05500 48.02700 33.05700
H  13.22400 52.39000 29.06200
H  14.04300 52.19600 22.76500
H  20.16600 49.92100 23.48200
H  17.05900 50.26700 31.29200
H  15.08800 52.45600 31.05200
H  14.90600 49.40500 30.91800
H  13.45600 50.43600 30.86400
H  14.44300 50.44900 32.25200
H  17.07300 53.13100 31.64600
H  18.51200 52.65100 30.78000
H  19.51600 52.19400 32.71000
H  18.46900 50.87000 32.96100
H  10.56400 53.17700 26.76500
H  11.62700 54.53800 27.36300
H  11.35300 52.98300 28.23400
H  10.41600 54.86300 23.42500
H  10.99200 55.18400 25.08700
H  10.15300 53.61800 24.81900
H  16.47200 52.57100 21.29000
H  18.22200 50.05400 21.55900
H  15.28400 51.23500 19.98600
H  14.87200 50.19000 21.41800
H  16.34000 49.84800 20.54400
H  19.74200 52.04400 22.28600
H  18.71600 53.05400 21.45500
H  19.80800 52.69300 19.61600
H  19.33800 50.87100 19.72200
H  20.78300 51.34700 20.42700
H  22.83900 49.25600 26.12700
H  22.16700 49.00800 24.57000
H  21.89900 47.73900 25.65200
H  20.32600 50.84600 30.48800
H  19.14700 48.29300 33.59700
H  20.93700 48.13900 33.68800
H  19.88500 47.08900 32.52800

