158

Mg 42.70500 41.46200 26.79100
C  42.21400 44.08000 29.18300
C  43.33800 39.46800 29.38700
C  43.42300 39.16100 24.56200
C  42.34000 43.91500 24.17800
N  42.83400 41.81800 29.06800
C  42.49100 42.85900 29.80600
C  42.69700 42.71500 31.35100
C  43.14300 41.20100 31.34100
C  43.18500 40.80300 29.83300
C  44.45200 40.83100 32.11300
C  41.36900 43.03300 32.08100
C  41.17600 42.33700 33.39800
H  41.45600 43.23300 34.58800
N  43.29000 39.55000 26.95500
C  43.35300 38.88800 28.11500
C  43.76100 37.51600 27.78200
C  43.90300 37.40100 26.33500
C  43.59400 38.72700 25.84200
C  44.13400 36.50800 28.91300
C  44.14800 36.21300 25.37400
O  44.20300 36.36100 24.10300
C  44.30300 34.86900 25.97100
N  43.06400 41.56800 24.67200
C  43.20200 40.40500 23.96600
C  43.14500 40.63400 22.38300
C  42.48600 42.04200 22.36800
C  42.61200 42.59200 23.82200
C  44.53200 40.53600 21.69800
C  40.98000 41.96000 22.01600
C  40.14600 40.86300 22.74300
N  42.33200 43.59200 26.62900
C  42.18600 44.41900 25.49800
C  41.82200 45.74200 25.95500
C  41.79000 45.62600 27.37400
C  42.15100 44.33000 27.73200
C  41.50000 46.90000 25.07300
C  41.55900 46.37300 28.60500
O  41.06900 47.50500 28.83000
C  41.89600 45.41600 29.78900
C  42.89700 46.13500 30.58100
O  44.11900 46.13700 30.41300
O  42.32900 46.73000 31.71200
C  43.16900 47.24000 32.78500
H  43.50300 38.92900 30.32200
H  43.46600 38.45800 23.72700
H  42.07000 44.61000 23.38000
H  43.45100 43.31800 31.85800
H  42.30000 40.59000 31.66400
H  45.27900 40.50600 31.48200
H  44.20800 39.98300 32.75200
H  44.78800 41.64600 32.75400
H  40.50400 42.94300 31.42400
H  41.40500 44.08700 32.35700
H  41.71400 41.39400 33.50300
H  40.11700 42.12000 33.53900
H  44.10400 36.97900 29.89500
H  45.17100 36.27900 28.66800
H  43.73600 35.49300 28.88200
H  43.31500 34.49100 26.23500
H  45.01400 34.90900 26.79600
H  44.58000 34.15000 25.20000
H  42.50000 39.85000 21.98600
H  43.01800 42.78200 21.77000
H  44.87100 41.39500 21.11900
H  44.34900 39.64500 21.09800
H  45.33200 40.25100 22.38000
H  41.00800 41.78400 20.94000
H  40.41800 42.88800 22.12200
H  39.40900 41.48500 23.25200
H  40.77100 40.29100 23.42900
H  39.64500 40.12700 22.11400
H  41.11100 47.63100 25.78100
H  40.66300 46.68300 24.41000
H  42.34700 47.26100 24.48900
H  41.10400 45.43700 30.53700
H  44.06800 47.72900 32.40800
H  43.52200 46.31900 33.24800
H  42.55900 47.86500 33.43800
Mg -6.10100 24.99800 25.56400
C  -4.16700 26.43700 28.24700
C  -7.80100 23.17300 27.85700
C  -7.74700 23.74300 23.04300
C  -4.10100 26.89000 23.43600
N  -5.93600 24.77400 27.77200
C  -5.17200 25.53200 28.67700
C  -5.62200 25.14500 30.08300
C  -6.47100 23.85700 29.95500
C  -6.77000 23.95000 28.45600
C  -5.84500 22.45700 30.33200
C  -6.21700 26.34300 30.79700
C  -6.05200 26.46600 32.38000
H  -5.58700 25.17000 33.07600
N  -7.56900 23.61800 25.50800
C  -8.16700 23.00000 26.50500
C  -9.20200 22.15000 26.04400
C  -9.20300 22.29300 24.60000
C  -8.18100 23.27300 24.31600
C  -10.06200 21.31700 27.01500
C  -10.20700 21.63200 23.55300
O  -10.36200 21.99400 22.35600
C  -11.34200 20.66300 24.02500
N  -5.84100 25.18200 23.44900
C  -6.64900 24.50700 22.63700
C  -6.18800 24.73800 21.16500
C  -5.26200 26.03900 21.29200
C  -5.05300 26.12700 22.81700
C  -5.56500 23.52300 20.45900
C  -5.94500 27.21300 20.56400
C  -5.12000 28.04900 19.62700
N  -4.41000 26.35000 25.72100
C  -3.74300 27.03800 24.79100
C  -2.72600 27.85400 25.38500
C  -2.83600 27.62600 26.76800
C  -3.89700 26.73200 26.87800
C  -1.80700 28.77700 24.68700
C  -2.36700 27.95600 28.05900
O  -1.44200 28.70400 28.34200
C  -3.21300 27.25000 29.09800
C  -2.28300 26.47900 29.98800
O  -1.46200 25.66400 29.69200
O  -2.55400 26.89900 31.27800
C  -1.81400 26.37900 32.38600
H  -8.34500 22.70100 28.67800
H  -8.10200 23.15500 22.19400
H  -3.45700 27.58400 22.89200
H  -4.66000 24.80900 30.47000
H  -7.29400 24.05000 30.64300
H  -5.75700 21.85800 29.42600
H  -6.57400 22.05400 31.03400
H  -4.85700 22.45400 30.79400
H  -7.27000 26.40600 30.52500
H  -5.74200 27.25700 30.43900
H  -7.08500 26.70800 32.63000
H  -5.47400 27.35700 32.62600
H  -11.09300 21.45500 26.69000
H  -9.93800 21.66500 28.04100
H  -9.64300 20.31300 27.08000
H  -11.95600 20.36100 23.17700
H  -11.88000 20.97800 24.91900
H  -10.68700 19.86900 24.38300
H  -7.11000 24.99300 20.64100
H  -4.28500 25.77700 20.88500
H  -6.20800 23.23800 19.62600
H  -5.27100 22.72400 21.13900
H  -4.58800 23.77300 20.04500
H  -6.19000 27.93300 21.34500
H  -6.82800 26.82500 20.05700
H  -5.70900 28.24800 18.73100
H  -4.26300 27.50600 19.22800
H  -4.90500 29.04700 20.00800
H  -1.02900 28.29600 24.09400
H  -1.21100 29.28400 25.44600
H  -2.29200 29.51500 24.04800
H  -3.70800 28.01800 29.69300
H  -0.79900 26.71200 32.16600
H  -1.76900 25.29000 32.38900
H  -2.17800 26.79300 33.32600

