158

Mg 23.80900 -6.76000 46.45100
C  26.12600 -4.58500 45.13300
C  21.55700 -5.47300 43.94600
C  21.60700 -9.34500 47.02700
C  26.29000 -8.54400 48.12700
N  23.85300 -5.30500 44.74100
C  24.90300 -4.46600 44.45200
C  24.61600 -3.40700 43.43900
C  22.99100 -3.41400 43.39900
C  22.74100 -4.78800 44.05300
C  22.32400 -2.31200 44.20000
C  25.34300 -3.58100 41.99800
C  26.27000 -2.46000 41.50300
H  26.11000 -1.95600 40.04700
N  21.83800 -7.24200 45.73500
C  21.12100 -6.59000 44.71700
C  19.76500 -7.06000 44.69300
C  19.70300 -8.17500 45.67100
C  21.05200 -8.30900 46.25600
C  18.67500 -6.64700 43.80500
C  18.41100 -9.00700 46.11400
O  17.29100 -8.65200 45.69500
C  18.46500 -10.09600 47.12800
N  23.88600 -8.67200 47.49500
C  22.86700 -9.50800 47.63800
C  23.31400 -10.76500 48.42300
C  24.83200 -10.49600 48.76200
C  25.00700 -9.10300 48.15800
C  22.43400 -11.07800 49.68500
C  25.81800 -11.48200 48.17700
C  26.56900 -12.20600 49.30300
N  25.71800 -6.51500 46.74800
C  26.64900 -7.33500 47.44300
C  27.94200 -6.73300 47.24500
C  27.76800 -5.62700 46.40500
C  26.41100 -5.62200 46.11400
C  29.29200 -7.33500 47.49600
C  28.41500 -4.53700 45.74100
O  29.64200 -4.18400 45.81200
C  27.39500 -3.87200 44.78600
C  27.40700 -2.44800 45.16900
O  26.89200 -1.91200 46.14300
O  28.21100 -1.82200 44.29700
C  28.41000 -0.37800 44.47100
H  20.80000 -5.01200 43.30800
H  20.88900 -10.12600 47.28400
H  27.14800 -9.03200 48.59400
H  24.95800 -2.48200 43.90300
H  22.56000 -3.41300 42.39800
H  21.99400 -1.56100 43.48300
H  23.12400 -1.84200 44.77200
H  21.45400 -2.57800 44.80100
H  24.52400 -3.70400 41.29000
H  25.87300 -4.52500 42.12300
H  27.32700 -2.56000 41.74900
H  25.87900 -1.56600 41.98800
H  18.27300 -5.68800 44.13300
H  17.93200 -7.41000 43.57300
H  19.04900 -6.48700 42.79400
H  17.45800 -10.45700 47.33500
H  18.74900 -9.52900 48.01400
H  19.06400 -10.91200 46.72300
H  23.20800 -11.55700 47.68200
H  25.09800 -10.18800 49.77300
H  22.95300 -10.89000 50.62400
H  22.13500 -12.12300 49.59600
H  21.57100 -10.42200 49.79400
H  26.57400 -11.10000 47.49100
H  25.32700 -12.25900 47.59200
H  26.37500 -13.27000 49.44100
H  26.38300 -11.75500 50.27700
H  27.63500 -12.16500 49.08200
H  29.11400 -8.09400 48.25800
H  29.98900 -6.57900 47.85700
H  29.51500 -7.89500 46.58800
H  27.86000 -3.95300 43.80300
H  27.48500 0.04900 44.86000
H  28.50200 0.10600 43.49800
H  29.13000 -0.12100 45.24800
Mg -11.52500 16.05000 41.04300
C  -8.59000 14.11700 41.34000
C  -9.59200 18.70100 39.94400
C  -14.33100 17.71300 40.31600
C  -13.34700 13.19000 41.97300
N  -9.35400 16.34900 40.81400
C  -8.38100 15.38100 40.87400
C  -7.06200 15.96800 40.45600
C  -7.37900 17.42300 40.02400
C  -8.86100 17.50700 40.33500
C  -6.53100 18.55900 40.67100
C  -6.37800 15.02100 39.41400
C  -4.90700 14.54100 39.80400
H  -3.81700 14.71600 38.72300
N  -11.91100 17.98000 40.25800
C  -10.97800 18.95100 39.98700
C  -11.65900 20.16100 39.54400
C  -13.06000 19.83000 39.48600
C  -13.20200 18.49900 40.05300
C  -10.86300 21.50300 39.04600
C  -14.16800 20.73100 38.82500
O  -13.81300 21.84700 38.47000
C  -15.64700 20.36900 38.71100
N  -13.47100 15.51000 41.00500
C  -14.50500 16.43500 40.75600
C  -15.89000 15.78000 40.83700
C  -15.48600 14.33500 41.36300
C  -14.00900 14.33200 41.45700
C  -17.01100 16.43900 41.74900
C  -16.22900 13.12600 40.56400
C  -17.04200 12.32600 41.58400
N  -11.13300 14.02400 41.54800
C  -11.94400 12.99400 41.99400
C  -11.13900 11.88500 42.55300
C  -9.82600 12.30500 42.28000
C  -9.91300 13.56700 41.67400
C  -11.65800 10.58800 43.08600
C  -8.48500 11.89600 42.41800
O  -8.00800 10.90800 42.86000
C  -7.59000 13.15800 41.99300
C  -6.84200 13.63100 43.18100
O  -7.29800 14.42100 44.02100
O  -5.55800 13.14800 43.12200
C  -4.62700 14.01000 43.82300
H  -8.99500 19.54400 39.58800
H  -15.27800 18.23200 40.15500
H  -14.00600 12.36300 42.24400
H  -6.51700 15.99600 41.39900
H  -7.12300 17.44900 38.96500
H  -7.11400 19.26400 41.26400
H  -5.94600 19.00000 39.86400
H  -5.79600 18.05000 41.29500
H  -6.23700 15.53600 38.46400
H  -6.99900 14.14700 39.21400
H  -5.01200 13.48900 40.06800
H  -4.67100 15.12800 40.69300
H  -10.80200 21.42600 37.96000
H  -9.91600 21.54300 39.58300
H  -11.38400 22.41000 39.35200
H  -16.18700 21.00700 38.01200
H  -16.04100 20.42200 39.72600
H  -15.71100 19.37200 38.27500
H  -16.26400 15.69900 39.81700
H  -15.80500 14.35500 42.40500
H  -16.49200 17.06100 42.47800
H  -17.51100 15.56500 42.16500
H  -17.78500 17.03900 41.27100
H  -15.50100 12.47300 40.08400
H  -17.03100 13.48000 39.91700
H  -18.07000 12.63900 41.76800
H  -16.42500 12.40700 42.48000
H  -17.10700 11.30300 41.21300
H  -10.72300 10.06500 43.28800
H  -12.30400 10.05000 42.39300
H  -12.31700 10.62900 43.95400
H  -6.75200 13.06700 41.30200
H  -4.70300 13.85900 44.90000
H  -4.75200 15.06600 43.57900
H  -3.63800 13.63100 43.56800

