158

Mg 8.32500 4.50600 27.65900
C  9.60000 2.81500 30.51300
C  6.23300 6.17300 29.74500
C  6.93600 5.78600 24.94600
C  9.97400 2.08700 25.73000
N  7.97600 4.48200 29.93300
C  8.63800 3.78500 30.85100
C  8.24500 4.16600 32.28600
C  7.22200 5.29900 31.94500
C  7.11600 5.30200 30.42900
C  5.91000 5.17600 32.77800
C  9.38900 4.73900 33.16300
C  8.91700 5.59100 34.41100
H  9.61900 5.32200 35.76300
N  6.76500 5.73900 27.36000
C  6.10500 6.41100 28.35900
C  5.18100 7.29300 27.81000
C  5.24300 7.16500 26.45200
C  6.36500 6.21300 26.18500
C  4.18900 8.25500 28.66500
C  4.49000 7.79300 25.38200
O  4.75100 7.69300 24.20700
C  3.27400 8.56300 25.78600
N  8.42100 3.98900 25.64300
C  7.82900 4.73900 24.71300
C  8.26900 4.41400 23.29800
C  9.28900 3.23300 23.56000
C  9.17400 3.02200 25.05900
C  7.08300 3.91600 22.43600
C  10.78600 3.43400 23.05400
C  11.75600 4.21300 24.00900
N  9.67100 2.90300 27.97600
C  10.27200 2.08300 27.05200
C  11.13400 1.14700 27.79200
C  10.94600 1.42200 29.14400
C  9.99500 2.48300 29.18800
C  11.84100 -0.05500 27.20800
C  11.28300 0.93200 30.47500
O  11.88100 -0.10800 30.83500
C  10.52800 1.94400 31.42600
C  9.80500 1.17100 32.48400
O  8.71800 0.59300 32.31300
O  10.54200 1.21900 33.63100
C  9.91100 0.51600 34.75600
H  5.60700 6.56200 30.55100
H  6.46200 6.24200 24.07400
H  10.51800 1.39200 25.08700
H  7.82100 3.30900 32.80900
H  7.56900 6.28400 32.25600
H  5.12100 4.74400 32.16200
H  5.59800 6.19400 33.01200
H  5.97100 4.53100 33.65400
H  10.13300 5.32700 32.62500
H  9.89800 3.86100 33.56000
H  7.82700 5.60300 34.40500
H  9.28900 6.57800 34.13700
H  4.49000 9.29600 28.54300
H  4.34900 8.11400 29.73400
H  3.13500 8.01700 28.52000
H  2.52200 8.01600 26.35600
H  2.80600 8.96200 24.88600
H  3.74800 9.35300 26.36800
H  8.71000 5.30000 22.84200
H  9.06300 2.29900 23.04600
H  6.55300 4.71200 21.91300
H  6.36300 3.47300 23.12300
H  7.28000 3.12900 21.70800
H  10.67200 4.12300 22.21800
H  11.20800 2.47100 22.76500
H  11.23300 4.39600 24.94700
H  12.33900 5.02500 23.57400
H  12.60600 3.56600 24.22700
H  12.67500 0.36100 26.64200
H  11.27800 -0.84600 26.71200
H  12.26100 -0.60400 28.05100
H  11.35300 2.49600 31.87500
H  8.98400 1.02400 35.02100
H  10.56500 0.43700 35.62500
H  9.55700 -0.49800 34.57000
Mg 26.88800 49.91300 26.23900
C  24.91200 51.10900 28.82900
C  28.99500 48.52600 28.56900
C  28.89500 48.85200 23.64900
C  24.83900 51.57700 23.93000
N  26.93800 49.96800 28.44800
C  25.95200 50.37600 29.31900
C  26.30200 50.03700 30.75100
C  27.76000 49.42000 30.63500
C  27.89400 49.22500 29.08800
C  28.93500 50.27400 31.24100
C  25.18000 49.23000 31.44100
C  24.35200 49.73200 32.59600
H  24.41300 48.94000 33.88000
N  28.68500 48.88800 26.15400
C  29.36300 48.32500 27.25400
C  30.59400 47.70300 26.76800
C  30.47400 47.71600 25.35400
C  29.30300 48.54100 24.97800
C  31.63100 47.22300 27.67700
C  31.50600 47.17200 24.33300
O  31.37900 47.25500 23.11100
C  32.66500 46.49100 24.82800
N  26.81500 50.13800 24.08000
C  27.75800 49.62400 23.26400
C  27.38800 49.89300 21.75300
C  26.07300 50.69700 21.90000
C  25.87400 50.84700 23.39200
C  28.54800 50.55400 20.97700
C  24.85300 49.96500 21.26600
C  23.75100 50.86100 20.68400
N  25.26600 51.18100 26.23700
C  24.56300 51.84400 25.28400
C  23.46800 52.52100 25.88800
C  23.53400 52.22200 27.24700
C  24.66600 51.47200 27.43600
C  22.47300 53.35300 25.06500
C  22.93900 52.50500 28.54400
O  21.89200 53.11200 28.88600
C  23.75300 51.76900 29.63800
C  24.06300 52.65200 30.78300
O  25.12500 53.26100 31.02100
O  22.94400 52.75900 31.60000
C  23.27500 53.35600 32.93300
H  29.76100 48.28600 29.31000
H  29.49300 48.61600 22.76700
H  24.20400 52.10300 23.21300
H  26.42500 51.00000 31.24800
H  27.68900 48.43900 31.10300
H  28.45800 51.21400 31.51900
H  29.65300 50.33000 30.42300
H  29.43400 49.90700 32.13700
H  25.58500 48.32100 31.88600
H  24.42600 48.91700 30.71900
H  23.30100 49.80700 32.31700
H  24.68000 50.74300 32.83600
H  32.62500 47.51500 27.33900
H  31.58000 46.13500 27.61700
H  31.53900 47.41400 28.74600
H  33.18700 46.07000 23.96900
H  32.32000 45.72500 25.52300
H  33.37200 47.19300 25.26900
H  27.18100 48.88700 21.38800
H  26.11300 51.71300 21.50800
H  29.28100 50.64500 21.77900
H  28.27100 51.50400 20.52100
H  28.82900 49.91400 20.14100
H  24.40300 49.43200 22.10400
H  25.19900 49.21700 20.55300
H  22.99200 51.09400 21.43000
H  23.18200 50.43700 19.85700
H  24.27500 51.74600 20.32100
H  21.43100 53.37900 25.38400
H  22.44800 53.00500 24.03200
H  22.79600 54.39200 24.99300
H  23.15200 51.04600 30.18900
H  23.51000 52.67500 33.75200
H  22.33300 53.78600 33.27300
H  23.85200 54.26400 33.10900

