158

Mg 26.32100 1.60800 29.25100
C  28.24400 1.06400 32.19700
C  23.57300 2.13500 31.35500
C  24.37300 1.65600 26.52400
C  29.05000 0.42100 27.44600
N  25.96700 1.54900 31.49500
C  26.92200 1.37800 32.47800
C  26.35500 1.58500 33.92800
C  24.78700 1.72300 33.59500
C  24.74600 1.80800 32.01800
C  23.86900 0.51200 34.14100
C  26.97300 2.82900 34.74600
C  26.38500 3.21200 36.11400
H  27.34900 3.62200 37.20700
N  24.24400 1.97300 28.94300
C  23.31900 2.15200 29.92700
C  22.07800 2.49700 29.25800
C  22.22900 2.17200 27.92200
C  23.67800 1.96200 27.72800
C  20.75900 2.74800 30.00700
C  21.23600 2.07100 26.78800
O  21.56100 1.68900 25.71800
C  19.79400 2.38300 27.05600
N  26.63500 1.14900 27.31200
C  25.72000 1.31800 26.32800
C  26.38800 1.00900 24.95400
C  27.85900 0.82500 25.27800
C  27.83100 0.71100 26.80500
C  25.70100 -0.17400 24.17900
C  28.83500 1.91700 24.75800
C  30.30700 1.57200 24.59300
N  28.24600 0.92800 29.68300
C  29.20900 0.41000 28.84400
C  30.33500 -0.04600 29.57800
C  30.06000 0.21400 30.90600
C  28.76900 0.83700 30.93900
C  31.43600 -0.74600 28.97400
C  30.55700 0.03900 32.24700
O  31.57200 -0.41600 32.62200
C  29.40500 0.63200 33.15000
C  28.97400 -0.49100 34.06700
O  28.29900 -1.47000 33.77800
O  29.53000 -0.25000 35.30100
C  29.30800 -1.27000 36.34900
H  22.61000 2.29200 31.84400
H  23.84000 1.70100 25.57200
H  29.93300 0.08600 26.89700
H  26.65000 0.63700 34.37800
H  24.56500 2.72200 33.97100
H  24.57800 -0.25100 34.46200
H  23.28100 0.20900 33.27500
H  23.15100 0.81500 34.90300
H  26.80800 3.58400 33.97800
H  28.03800 2.68500 34.92900
H  25.90700 2.35600 36.59000
H  25.60800 3.96100 35.96100
H  20.43500 3.72100 29.63700
H  20.88600 2.83000 31.08600
H  19.93300 2.04700 29.89400
H  19.25100 1.62900 27.62500
H  19.30600 2.36500 26.08200
H  19.61500 3.39500 27.41900
H  26.32600 1.93700 24.38700
H  28.18800 -0.09300 24.79000
H  24.82500 -0.61700 24.65200
H  26.47500 -0.91300 23.97400
H  25.23000 0.20300 23.27100
H  28.64200 2.79500 25.37500
H  28.34300 2.19600 23.82700
H  30.64800 1.96900 23.63700
H  30.54900 0.51100 24.64900
H  30.82300 2.04600 25.42800
H  32.14200 0.02900 28.67300
H  31.22100 -1.45700 28.17600
H  31.78500 -1.31500 29.83500
H  29.59200 1.54200 33.72000
H  29.00900 -2.26700 36.02500
H  28.44100 -0.96900 36.93600
H  30.12600 -1.23200 37.06800
Mg 41.41800 40.63300 27.58400
C  40.64200 43.08700 29.91800
C  42.62900 38.70700 30.16300
C  42.64500 38.65000 25.35000
C  40.81200 42.97800 25.09700
N  41.47100 40.77300 29.74700
C  41.00600 41.86900 30.49600
C  40.89800 41.47500 32.03000
C  41.82200 40.15600 32.09200
C  42.12100 39.85200 30.57800
C  43.23100 40.35300 32.85400
C  39.42600 41.23400 32.45300
C  38.79800 41.92000 33.76000
H  38.54200 41.00800 35.04000
N  42.43700 38.90100 27.75200
C  42.86500 38.17300 28.88200
C  43.27600 36.84900 28.53900
C  43.40300 36.89200 27.17000
C  42.89600 38.20500 26.70300
C  43.78300 35.80900 29.53000
C  44.03800 35.82600 26.19700
O  43.99100 35.95600 24.98600
C  44.64400 34.58500 26.67400
N  41.59300 40.81200 25.51600
C  42.07700 39.82800 24.76200
C  42.07600 40.08000 23.27500
C  41.74100 41.62000 23.26300
C  41.26300 41.78100 24.68400
C  43.30900 39.78200 22.35500
C  40.70800 41.95500 22.19900
C  39.25200 41.65900 22.50500
N  40.75300 42.64900 27.49700
C  40.59000 43.45700 26.41200
C  40.11100 44.79800 26.90600
C  40.01100 44.68000 28.25700
C  40.52000 43.36700 28.56800
C  39.92200 46.03900 25.92700
C  39.55800 45.29800 29.46300
O  38.86600 46.30700 29.63500
C  39.97300 44.30100 30.60800
C  40.84900 44.97300 31.59500
O  42.06300 45.19700 31.42700
O  40.25600 45.19700 32.80000
C  41.07900 46.02300 33.68200
H  43.01800 38.01500 30.91300
H  43.05600 37.99500 24.57900
H  40.78800 43.75900 24.33400
H  41.34200 42.22600 32.68300
H  41.30100 39.22500 32.31400
H  43.92000 40.53200 32.02800
H  43.24400 39.42600 33.42700
H  43.20000 41.26900 33.44400
H  39.33900 40.17300 32.68300
H  38.84300 41.39300 31.54600
H  37.91800 42.44500 33.38800
H  39.50500 42.66900 34.11700
H  43.26300 34.86200 29.67700
H  43.67300 36.16100 30.55500
H  44.79200 35.46600 29.30000
H  45.45400 34.91200 27.32500
H  45.01600 33.98300 25.84600
H  43.88600 34.14600 27.32300
H  41.21700 39.56300 22.84900
H  42.67600 42.17300 23.17400
H  43.10200 38.81500 21.89600
H  44.15900 39.73600 23.03500
H  43.53500 40.62000 21.69600
H  41.07800 41.28600 21.42200
H  40.96700 42.95200 21.84400
H  38.97100 41.30300 23.49600
H  38.90100 40.88200 21.82500
H  38.63600 42.53000 22.28300
H  38.99400 46.50900 26.25200
H  39.78700 45.68200 24.90600
H  40.71800 46.76700 26.08300
H  39.07600 44.02600 31.16400
H  41.69100 46.74800 33.14600
H  41.74600 45.38700 34.26500
H  40.40100 46.52200 34.37500

