158

Mg 49.56400 46.52200 42.55500
C  46.19600 47.02800 41.63000
C  49.29200 43.37400 41.36800
C  52.91000 46.14000 42.98200
C  49.75300 49.82400 43.60900
N  47.89100 45.38300 41.50300
C  46.61600 45.73400 41.29600
C  45.78600 44.62000 40.69000
C  46.70700 43.40500 40.97500
C  48.06900 44.05600 41.31000
C  46.07900 42.38600 41.96300
C  45.51300 44.99100 39.21700
C  44.31000 44.29700 38.59600
H  44.47200 43.68300 37.22100
N  50.94300 44.93800 42.15100
C  50.64800 43.72800 41.63900
C  51.83900 42.89400 41.58000
C  52.89700 43.69000 42.08500
C  52.28000 45.00400 42.44100
C  51.93600 41.53100 40.96300
C  54.28000 43.17200 42.25000
O  54.55900 41.99300 42.09500
C  55.38500 44.07100 42.81900
N  51.12700 47.80300 43.28900
C  52.43200 47.43900 43.36100
C  53.33700 48.55900 43.81300
C  52.30800 49.71300 44.04100
C  50.97000 49.06300 43.65700
C  54.16800 48.26400 45.14600
C  52.70900 51.05600 43.43000
C  52.85200 52.10100 44.50100
N  48.28000 48.05900 42.70500
C  48.50200 49.32400 43.19600
C  47.28800 50.14200 43.09800
C  46.34600 49.18700 42.53700
C  46.98400 48.00500 42.21500
C  47.17400 51.56500 43.43400
C  44.97100 49.03800 42.18000
O  44.04900 49.86700 42.39400
C  44.82800 47.66200 41.49800
C  43.72100 46.93000 42.17800
O  43.64700 46.65200 43.37200
O  42.82700 46.62100 41.21200
C  41.57100 45.95200 41.69400
H  49.24800 42.32700 41.05800
H  53.99600 46.17300 43.09200
H  49.76400 50.89000 43.84600
H  44.84500 44.44700 41.21200
H  46.78900 42.82400 40.05600
H  44.99700 42.28700 41.87900
H  46.28900 42.77500 42.96000
H  46.53000 41.42500 41.71400
H  46.28100 44.84000 38.45800
H  45.36100 46.06900 39.15200
H  43.40300 44.89300 38.70100
H  44.12300 43.41600 39.21100
H  52.78700 41.41700 40.29100
H  51.02200 41.22700 40.45300
H  52.05600 40.73000 41.69200
H  56.21200 43.40700 43.07000
H  54.87200 44.34000 43.74200
H  55.44300 44.80600 42.01600
H  54.03800 48.65800 42.98400
H  52.22700 49.78700 45.12500
H  55.11600 48.78700 45.02300
H  54.45300 47.22400 45.31000
H  53.77300 48.64800 46.08700
H  52.11500 51.46300 42.61200
H  53.72600 50.97900 43.04800
H  53.89800 52.40600 44.53700
H  52.69100 51.82600 45.54300
H  52.19300 52.91300 44.19100
H  47.59100 52.08800 42.57300
H  47.73500 51.72700 44.35400
H  46.16200 51.84600 43.72600
H  44.58300 47.91700 40.46700
H  41.76100 44.98700 42.16600
H  40.96200 45.73400 40.81700
H  40.86300 46.58300 42.23000
Mg -11.08200 38.48000 41.98600
C  -9.47500 35.59500 40.81400
C  -8.53900 40.29100 40.46900
C  -13.03000 41.20500 42.13400
C  -13.85300 36.46100 42.73700
N  -9.19300 37.95900 40.68200
C  -8.74100 36.72100 40.42900
C  -7.45500 36.80700 39.55600
C  -7.17700 38.34400 39.50400
C  -8.32700 38.92700 40.30300
C  -5.83000 38.84400 40.05900
C  -7.69900 36.28400 38.03800
C  -6.66000 35.27600 37.60100
H  -5.83200 35.72200 36.39400
N  -10.78300 40.41700 41.61900
C  -9.67900 41.00200 40.95500
C  -9.84500 42.42100 40.89400
C  -11.12500 42.67800 41.39500
C  -11.74400 41.39800 41.67300
C  -8.77100 43.38500 40.45500
C  -11.76000 44.17300 41.42800
O  -11.10900 45.14300 41.06200
C  -13.20000 44.35000 41.90900
N  -13.12700 38.77200 42.42800
C  -13.70300 39.99500 42.47500
C  -15.20900 39.89200 42.73800
C  -15.45000 38.35300 43.02400
C  -14.07500 37.78300 42.75000
C  -15.60900 40.83500 43.89200
C  -16.55600 37.77500 42.06200
C  -17.67100 36.99800 42.77200
N  -11.53600 36.46000 41.99100
C  -12.62700 35.78600 42.52500
C  -12.40100 34.38800 42.29600
C  -11.27900 34.24700 41.58800
C  -10.70700 35.54900 41.42800
C  -13.28900 33.23700 42.72800
C  -10.37700 33.26800 41.00600
O  -10.36300 32.05100 40.89800
C  -9.15600 34.13900 40.55500
C  -8.03700 33.60200 41.38400
O  -7.01600 33.13400 40.90900
O  -8.28700 33.65000 42.75600
C  -7.22900 33.09600 43.59400
H  -7.82000 40.93400 39.95700
H  -13.75200 42.02300 42.15100
H  -14.69000 35.78200 42.91600
H  -6.73800 36.17300 40.07700
H  -7.51800 38.76100 38.55600
H  -5.29600 39.24800 39.19800
H  -5.27500 38.05800 40.57100
H  -5.98500 39.62400 40.80400
H  -7.71400 37.13100 37.35200
H  -8.66300 35.77400 38.02400
H  -7.20800 34.35100 37.42200
H  -6.02000 35.10200 38.46600
H  -9.18600 44.03500 39.68400
H  -7.88900 42.84600 40.10800
H  -8.43500 43.97000 41.31100
H  -13.50800 43.85400 42.82900
H  -13.84900 43.99300 41.10900
H  -13.33300 45.43100 41.86200
H  -15.72600 40.22300 41.83700
H  -15.71500 38.21100 44.07100
H  -16.10300 40.34500 44.73200
H  -16.35400 41.49800 43.45200
H  -14.69700 41.29100 44.27700
H  -16.17900 37.08600 41.30600
H  -17.01300 38.57500 41.48000
H  -18.59100 37.37000 42.32300
H  -17.60600 37.08500 43.85700
H  -17.66200 35.92300 42.59200
H  -12.90800 32.22200 42.83900
H  -14.08300 33.29600 41.98400
H  -13.54200 33.55100 43.74000
H  -8.97600 33.97100 39.49300
H  -6.24800 33.22000 43.13600
H  -7.42500 32.10400 44.00000
H  -7.17800 33.70800 44.49400

