158

Mg 47.11800 15.05500 28.07100
C  44.85500 15.28300 30.87100
C  49.33800 16.95700 29.65100
C  48.75400 15.25100 25.23100
C  44.38100 13.40600 26.33900
N  47.10500 15.92200 30.05000
C  46.17400 15.88200 31.02100
C  46.72200 16.30400 32.38000
C  48.11200 17.05600 31.92300
C  48.23300 16.64000 30.43900
C  48.14500 18.56600 32.18100
C  46.90700 15.04300 33.28900
C  46.71200 15.30600 34.78500
H  46.43600 16.76100 35.24200
N  48.93800 15.83100 27.57700
C  49.74300 16.55900 28.38000
C  50.99000 16.80200 27.70500
C  50.82300 16.30800 26.35100
C  49.46600 15.79100 26.29900
C  52.12300 17.49200 28.40800
C  51.77600 16.34000 25.17600
O  51.44400 15.95600 24.06400
C  53.10500 17.06600 25.45000
N  46.57400 14.43000 26.04000
C  47.47400 14.61300 25.08800
C  47.14900 13.79000 23.85000
C  45.80800 13.05500 24.22400
C  45.52300 13.65700 25.65100
C  46.99100 14.57700 22.59400
C  45.87600 11.47500 24.18100
C  47.06800 10.88700 24.88900
N  44.97500 14.45500 28.44600
C  44.10200 13.82700 27.62600
C  42.92900 13.55400 28.34600
C  43.11000 14.11100 29.61400
C  44.46400 14.63500 29.65100
C  41.68400 12.91500 27.77600
C  42.57800 14.33300 30.91200
O  41.51200 13.99700 31.42400
C  43.71500 15.05400 31.80400
C  43.13000 16.22500 32.55700
O  42.80700 17.31700 32.10700
O  42.90500 15.85000 33.85400
C  42.14300 16.79000 34.70700
H  50.05800 17.50100 30.26600
H  49.20700 15.32300 24.24000
H  43.67200 12.81900 25.75100
H  46.01900 17.02300 32.80100
H  49.01400 16.64600 32.37600
H  48.28600 19.09500 31.23800
H  48.94800 18.86600 32.85500
H  47.23000 18.96900 32.61500
H  47.97500 14.84000 33.20900
H  46.37700 14.14100 32.98300
H  47.64900 15.02000 35.26200
H  46.00500 14.65900 35.30300
H  51.95800 17.43100 29.48400
H  52.19600 18.48200 27.95700
H  53.05100 16.92600 28.33600
H  53.75700 16.60200 26.19000
H  52.74700 18.02400 25.82800
H  53.67700 17.20100 24.53200
H  47.88800 12.99800 23.72900
H  44.96400 13.33800 23.59400
H  47.50700 14.00100 21.82600
H  47.30500 15.60000 22.80000
H  46.01600 14.77900 22.15000
H  45.91200 11.17700 23.13400
H  44.92700 11.12600 24.58600
H  46.74600 10.22200 25.69000
H  47.66900 11.66700 25.35700
H  47.66600 10.25000 24.23700
H  41.02900 13.74200 27.50400
H  41.12800 12.23600 28.42200
H  42.01400 12.38000 26.88600
H  43.92700 14.36700 32.62300
H  42.65700 17.69900 35.02100
H  41.78800 16.38600 35.65400
H  41.31700 17.21400 34.13600
Mg 7.00500 53.13500 41.10200
C  6.44700 49.67300 40.43900
C  10.22700 52.63400 40.28200
C  7.28200 56.48000 40.77200
C  3.54100 53.45600 41.62400
N  8.11400 51.30500 40.38900
C  7.73100 50.05600 40.11600
C  8.96100 49.25100 39.86000
C  10.16100 50.14900 40.41300
C  9.47500 51.44600 40.39500
C  10.86300 49.70600 41.78000
C  9.07800 48.71100 38.42500
C  8.86700 49.69800 37.26100
H  7.59700 49.61600 36.47500
N  8.63900 54.48300 40.58900
C  9.88900 54.05600 40.30700
C  10.78700 55.18600 40.05100
C  9.92400 56.37900 40.30000
C  8.58900 55.85000 40.62200
C  12.20300 55.13500 39.57400
C  10.35700 57.87900 40.22200
O  11.48600 58.06400 39.80400
C  9.41800 59.03000 40.51400
N  5.56600 54.72100 41.03000
C  5.99400 55.99500 41.07400
C  4.84900 57.02900 41.30900
C  3.64200 56.06000 41.36300
C  4.27300 54.66700 41.35000
C  5.01700 57.96700 42.48100
C  2.69700 56.25900 40.16500
C  1.39000 56.95900 40.55000
N  5.32100 51.90700 41.21000
C  4.00400 52.15200 41.50400
C  3.23200 50.92100 41.49300
C  4.20100 49.88800 41.19100
C  5.41600 50.58600 40.92700
C  1.87500 50.77800 41.87800
C  4.42200 48.49400 41.01600
O  3.65900 47.62100 41.25800
C  5.82700 48.33900 40.52700
C  5.79000 47.73900 39.27100
O  5.10500 48.07600 38.25800
O  6.53400 46.65900 39.34600
C  6.55900 45.86000 38.11600
H  11.28300 52.48800 40.04700
H  7.42000 57.56200 40.83100
H  2.48700 53.48100 41.91100
H  8.88300 48.38900 40.52200
H  10.95500 50.14400 39.66600
H  10.64400 48.70000 42.13800
H  10.57800 50.46100 42.51400
H  11.94100 49.70800 41.61800
H  8.36000 47.91400 38.23300
H  10.12400 48.40400 38.38900
H  9.71800 49.61800 36.58400
H  8.95300 50.73600 37.58200
H  12.47000 55.62900 38.63900
H  12.56600 54.10700 39.54900
H  12.76600 55.59000 40.38800
H  9.11400 58.89800 41.55200
H  8.65900 58.89300 39.74400
H  9.94300 59.96000 40.29700
H  4.83600 57.69500 40.44600
H  3.02000 56.19800 42.24800
H  4.06300 58.14100 42.97800
H  5.34100 58.92300 42.06900
H  5.80000 57.60900 43.14900
H  2.33700 55.32000 39.74500
H  3.17700 56.73700 39.31100
H  1.48200 57.37700 41.55200
H  0.49300 56.33900 40.57500
H  1.29800 57.76700 39.82500
H  1.38500 51.74100 42.02100
H  1.89100 50.33000 42.87200
H  1.28700 50.20400 41.16200
H  6.38900 47.73500 41.24000
H  7.30900 45.07300 38.18900
H  6.74500 46.50900 37.26100
H  5.55300 45.55200 37.83000

