158

Mg 6.46500 56.95000 42.38700
C  5.67200 53.46100 42.16400
C  9.23600 56.37800 40.57000
C  6.88800 60.19800 42.34900
C  3.22100 57.38000 43.71700
N  7.19100 55.13400 41.28800
C  6.82100 53.83800 41.43100
C  7.77800 52.87800 40.60600
C  9.08400 53.79700 40.57900
C  8.51600 55.23800 40.78200
C  10.18400 53.56200 41.66800
C  7.30200 52.57700 39.17300
C  7.69900 51.19700 38.56200
H  6.85200 50.54600 37.53500
N  7.78300 58.23500 41.40700
C  8.94700 57.74800 40.77100
C  9.80000 58.83900 40.59900
C  9.16700 59.98600 41.08800
C  7.87600 59.55800 41.67100
C  11.05800 58.79700 39.72000
C  9.59900 61.47800 40.90800
O  10.57400 61.74000 40.25700
C  8.81900 62.63600 41.43000
N  5.11500 58.56300 42.72800
C  5.59400 59.79200 42.68300
C  4.57900 60.80500 43.03300
C  3.38100 59.92300 43.46400
C  3.87500 58.49700 43.21800
C  5.03800 61.77800 44.14400
C  2.10200 60.28400 42.74000
C  0.88500 60.49500 43.58800
N  4.83100 55.69100 43.05700
C  3.67700 56.03900 43.63600
C  3.07300 54.80900 44.15700
C  3.82100 53.70800 43.60400
C  4.89100 54.31400 42.90600
C  1.82800 54.71700 44.90600
C  3.92200 52.24900 43.45800
O  3.19100 51.39100 43.88400
C  5.19100 52.06500 42.58000
C  4.85400 51.18100 41.44300
O  4.13500 51.48800 40.53500
O  5.29300 49.90400 41.63500
C  4.94800 48.78800 40.81000
H  10.20300 56.20800 40.09100
H  7.16400 61.23700 42.54400
H  2.23000 57.38400 44.17500
H  7.98100 51.94900 41.14000
H  9.58600 53.77000 39.61200
H  11.08100 53.15800 41.19900
H  9.84800 52.82500 42.39700
H  10.55400 54.47800 42.12900
H  7.83600 53.25500 38.50700
H  6.23800 52.81500 39.15600
H  7.70300 50.57600 39.45800
H  8.75500 51.28600 38.30600
H  11.04700 59.57600 38.95700
H  11.13100 57.92500 39.07000
H  12.02000 58.90300 40.22200
H  8.76500 62.56700 42.51700
H  7.87300 62.42000 40.93400
H  9.30000 63.54300 41.06400
H  4.42600 61.23400 42.04300
H  3.15300 60.02200 44.52500
H  5.98700 61.58000 44.64100
H  4.27600 62.04900 44.87500
H  5.05200 62.71500 43.58700
H  1.68100 59.42600 42.21700
H  2.17000 61.15000 42.08100
H  0.46000 61.48600 43.42400
H  1.27900 60.46300 44.60400
H  0.07900 59.78100 43.41600
H  1.97800 53.97800 45.69200
H  1.04600 54.19800 44.35100
H  1.44300 55.60000 45.41700
H  5.90000 51.40600 43.08200
H  3.99500 48.28200 40.96300
H  5.64000 47.95300 40.91400
H  5.09600 49.07900 39.77000
Mg -8.75300 40.26200 43.09000
C  -7.72600 37.11900 41.89900
C  -5.90000 41.67000 41.57400
C  -10.22200 43.33600 43.20000
C  -11.78800 38.80400 44.09900
N  -7.02100 39.46800 41.69400
C  -6.82600 38.17200 41.45000
C  -5.64000 37.98900 40.49900
C  -4.87400 39.35000 40.63600
C  -5.94600 40.26700 41.31100
C  -3.57300 39.25800 41.53700
C  -6.07400 37.47800 39.03100
C  -5.19400 36.33000 38.52400
H  -4.22200 36.65400 37.39700
N  -8.18300 42.20000 42.48600
C  -6.96500 42.55400 42.00000
C  -6.85400 44.01900 41.98200
C  -8.03700 44.52800 42.61200
C  -8.87900 43.35100 42.74600
C  -5.82100 44.78900 41.27000
C  -8.24500 45.95800 42.80700
O  -7.30100 46.76000 42.74000
C  -9.63700 46.54200 43.14700
N  -10.68500 40.92800 43.52700
C  -11.05200 42.23600 43.53400
C  -12.49800 42.44900 43.86300
C  -12.99600 41.00600 44.28700
C  -11.77300 40.16800 43.97600
C  -12.77100 43.49600 45.02500
C  -14.37200 40.52500 43.70100
C  -14.35900 40.34800 42.13100
N  -9.51300 38.26800 43.22100
C  -10.73900 37.88700 43.70200
C  -10.74000 36.43700 43.64900
C  -9.55200 36.07400 42.91500
C  -8.88800 37.22300 42.69100
C  -11.78600 35.48700 44.16400
C  -8.84100 34.95500 42.31100
O  -9.04400 33.71100 42.28300
C  -7.58300 35.65700 41.56700
C  -6.39000 34.97100 42.10700
O  -5.97100 34.94000 43.24500
O  -5.82700 34.13100 41.19000
C  -4.68700 33.27400 41.63000
H  -4.99700 42.20400 41.27100
H  -10.72900 44.28900 43.36600
H  -12.69200 38.30000 44.44900
H  -5.09500 37.13100 40.89300
H  -4.53600 39.74700 39.67800
H  -3.54700 38.18900 41.74900
H  -3.71700 39.83400 42.45200
H  -2.63500 39.49300 41.03400
H  -6.06700 38.40900 38.46400
H  -7.13200 37.23500 39.13400
H  -5.87400 35.55200 38.17900
H  -4.50500 35.89300 39.24600
H  -6.16500 45.42700 40.45600
H  -5.03200 44.27200 40.72300
H  -5.22300 45.37300 41.96900
H  -9.63700 47.62400 43.28100
H  -9.89900 46.09900 44.10800
H  -10.39600 46.31700 42.39800
H  -13.02100 42.75000 42.95500
H  -13.01700 40.89200 45.37100
H  -13.67700 43.19800 45.55200
H  -12.88700 44.54000 44.73200
H  -11.93800 43.50300 45.72800
H  -15.03600 41.35000 43.95600
H  -14.70900 39.57200 44.10900
H  -13.37400 40.60300 41.73900
H  -15.04600 41.05600 41.66800
H  -14.72000 39.33800 41.93800
H  -11.33600 34.50300 44.03200
H  -12.55200 35.69600 43.41700
H  -12.24800 35.70800 45.12600
H  -7.63300 35.50700 40.48800
H  -3.84000 33.96000 41.59600
H  -4.51200 32.64400 40.75900
H  -4.65400 32.65400 42.52600

