158

Mg 16.80900 -1.94500 27.69800
C  15.85100 0.15700 30.26600
C  18.82300 -3.57300 29.78800
C  17.98700 -3.64000 25.11000
C  14.99900 0.17300 25.41200
N  17.26400 -1.71600 29.75100
C  16.75300 -0.85600 30.63300
C  17.30400 -1.00600 32.05000
C  18.50500 -1.96800 31.85600
C  18.20900 -2.46100 30.40900
C  19.90600 -1.40900 32.02200
C  16.20400 -1.66000 32.96900
C  16.12200 -1.05900 34.36400
H  17.35500 -0.44300 34.95700
N  18.01300 -3.56000 27.49300
C  18.74500 -4.05400 28.49700
C  19.27000 -5.26500 28.04500
C  19.10600 -5.37900 26.68600
C  18.34200 -4.18800 26.35000
C  20.18900 -6.15500 28.96600
C  19.57800 -6.50300 25.66900
O  19.51600 -6.37900 24.45900
C  20.18900 -7.77100 26.24300
N  16.44400 -1.85200 25.57800
C  17.14700 -2.62400 24.70900
C  16.79800 -2.29500 23.21500
C  15.76800 -1.14800 23.32500
C  15.74200 -0.94100 24.88400
C  18.14500 -1.96600 22.54500
C  14.33600 -1.45200 22.79100
C  13.96300 -0.62200 21.50600
N  15.75900 -0.19600 27.74400
C  15.01000 0.53500 26.79800
C  14.19900 1.54400 27.41200
C  14.56100 1.49800 28.77300
C  15.47500 0.41900 28.94700
C  13.19700 2.47000 26.83900
C  14.30200 2.04700 30.06800
O  13.59800 2.94600 30.43400
C  15.15300 1.16600 31.11000
C  16.09300 2.08500 31.91700
O  17.19500 2.46500 31.63700
O  15.37500 2.39700 33.10100
C  16.15900 3.30200 33.98600
H  19.62600 -3.95700 30.42000
H  18.41200 -4.29200 24.34300
H  14.37800 0.74800 24.72200
H  17.57700 -0.04900 32.49400
H  18.41400 -2.85200 32.48800
H  20.50800 -1.98500 32.72500
H  19.86000 -0.44100 32.52100
H  20.49500 -1.29500 31.11200
H  16.44300 -2.72000 33.04800
H  15.20600 -1.55900 32.54300
H  15.65700 -1.84400 34.96100
H  15.38600 -0.25500 34.35100
H  21.19600 -6.08000 28.55600
H  19.98500 -7.22600 28.94000
H  20.12700 -5.97200 30.03800
H  19.52700 -8.07300 27.05500
H  21.15900 -7.41600 26.58900
H  20.22900 -8.52200 25.45400
H  16.31700 -3.15100 22.74000
H  16.22400 -0.21100 23.00700
H  18.95800 -1.85200 23.26100
H  18.13600 -0.94900 22.15400
H  18.34200 -2.67200 21.73800
H  13.52400 -1.30000 23.50100
H  14.31000 -2.44700 22.34600
H  14.89700 -0.37200 21.00100
H  13.50900 0.32000 21.81300
H  13.34700 -1.22600 20.84000
H  13.71700 3.42300 26.74600
H  12.30900 2.73500 27.41400
H  12.68600 2.17400 25.92300
H  14.38500 0.69500 31.72500
H  16.78400 3.99600 33.42400
H  16.68500 2.79500 34.79500
H  15.50800 3.93600 34.58700
Mg 53.38400 25.47800 44.79300
C  50.96100 27.71700 43.54300
C  51.41500 22.86300 43.81800
C  56.10700 23.27700 45.06600
C  55.51200 28.14800 45.36700
N  51.54000 25.41600 43.58900
C  50.67400 26.35600 43.23400
C  49.53300 25.84700 42.41900
C  49.41000 24.36800 43.07800
C  50.90000 24.18200 43.55100
C  48.43200 24.19900 44.28200
C  49.70100 25.68000 40.84500
C  48.70300 26.26300 39.89800
H  49.21300 26.61100 38.49700
N  53.77500 23.30000 44.44200
C  52.77200 22.47400 44.10300
C  53.31000 21.17000 44.20100
C  54.63500 21.21700 44.57500
C  54.94000 22.59500 44.67000
C  52.38600 19.92500 43.98600
C  55.50700 19.97100 44.87300
O  55.03000 18.86200 44.87000
C  57.01800 20.01100 45.17800
N  55.57400 25.62600 45.08300
C  56.42700 24.56900 45.23900
C  57.80400 25.11700 45.74100
C  57.62900 26.67300 45.74900
C  56.17000 26.87200 45.32700
C  58.32400 24.38100 47.01700
C  58.58100 27.41600 44.75500
C  59.70100 28.15300 45.46700
N  53.21600 27.50500 44.72000
C  54.20000 28.48100 45.03800
C  53.46700 29.74800 45.05100
C  52.22200 29.47600 44.35600
C  52.16100 28.12700 44.16600
C  53.98900 31.01700 45.61600
C  51.00800 30.09300 43.80900
O  50.77500 31.30300 43.69300
C  50.06000 28.91400 43.24900
C  49.67700 29.14400 41.89600
O  50.45200 29.08700 40.93300
O  48.35100 29.44900 41.86600
C  47.81000 29.85800 40.55600
H  50.61700 22.12700 43.69700
H  56.95100 22.63500 45.32600
H  56.12000 28.97800 45.73400
H  48.69900 26.50000 42.67500
H  49.28100 23.61900 42.29700
H  47.83700 23.31000 44.07200
H  47.72500 25.02700 44.34000
H  48.98100 24.09200 45.21800
H  49.89700 24.65300 40.53900
H  50.52600 26.34200 40.58300
H  48.28700 27.16800 40.34100
H  47.87200 25.56000 39.85000
H  52.88900 19.00400 43.69100
H  51.59300 20.21100 43.29600
H  51.86700 19.71800 44.92200
H  57.31600 18.98900 45.40900
H  57.29100 20.69600 45.98100
H  57.53400 20.46500 44.33300
H  58.56800 24.90200 44.99400
H  57.71900 27.04600 46.76900
H  58.91200 25.03900 47.65800
H  58.92200 23.47800 46.89600
H  57.44300 24.10200 47.59500
H  58.03800 28.12000 44.12400
H  59.15300 26.69700 44.16800
H  60.58400 27.52800 45.33800
H  59.52200 28.19900 46.54200
H  59.87000 29.14900 45.05600
H  54.99400 30.85600 46.00600
H  53.39000 31.34800 46.46500
H  54.00800 31.76300 44.82300
H  49.25400 28.69900 43.95100
H  47.32900 29.02000 40.05300
H  48.61700 30.32700 39.99200
H  46.96700 30.53100 40.71600

