158

Mg 44.89000 4.54800 46.44800
C  42.92300 7.47300 46.84300
C  41.91000 2.90000 45.95700
C  46.72900 1.87100 45.80900
C  47.72100 6.53800 46.62000
N  42.67800 5.22000 46.38400
C  42.07900 6.41600 46.60300
C  40.58200 6.37600 46.57200
C  40.29100 4.82400 46.60200
C  41.72200 4.26500 46.30300
C  39.51900 4.28800 47.78400
C  39.98700 7.28800 45.42200
C  40.45900 7.23600 43.98400
H  39.74800 6.38700 42.94400
N  44.39100 2.64700 45.86600
C  43.08300 2.13400 45.78900
C  43.20800 0.71600 45.54200
C  44.60000 0.37800 45.41300
C  45.29700 1.67000 45.64300
C  41.99700 -0.22100 45.27500
C  45.16100 -1.02700 45.11600
O  44.44200 -2.03600 45.17600
C  46.44400 -1.22200 44.52400
N  46.99600 4.33900 45.91300
C  47.53700 3.09500 45.86900
C  48.98700 3.09900 46.24600
C  49.36000 4.66500 46.14200
C  47.90000 5.24100 46.24900
C  49.35300 2.55700 47.65100
C  49.96500 5.20300 44.79100
C  51.44600 5.79200 44.90600
N  45.32300 6.60600 46.67900
C  46.54400 7.26700 46.78600
C  46.34500 8.64500 47.12400
C  44.92700 8.78600 47.12800
C  44.35000 7.52100 46.84600
C  47.38800 9.76500 47.08600
C  43.85800 9.68800 47.30700
O  43.78500 10.86600 47.42400
C  42.52200 8.82000 47.21200
C  41.76000 8.96000 48.42900
O  41.98800 8.29300 49.42200
O  40.58000 9.69700 48.24000
C  39.59000 9.54700 49.33800
H  40.90700 2.46900 45.96000
H  47.30800 0.95900 45.65300
H  48.64800 7.04800 46.89100
H  40.40300 6.83600 47.54300
H  39.58700 4.57900 45.80600
H  39.24000 4.98200 48.57700
H  40.12300 3.45100 48.13500
H  38.62200 3.68800 47.63600
H  40.02700 8.33900 45.70700
H  38.95500 6.97100 45.57500
H  41.45000 6.78600 43.93300
H  40.35600 8.24900 43.59400
H  41.81800 -0.33100 44.20500
H  41.00900 0.04700 45.65000
H  42.31200 -1.21400 45.59800
H  46.38700 -1.85800 43.64200
H  47.15300 -1.73900 45.17000
H  46.92100 -0.29700 44.20100
H  49.45800 2.51000 45.45800
H  49.85600 5.14200 46.98700
H  48.41000 2.34600 48.15500
H  49.88700 3.29000 48.25500
H  50.02300 1.70100 47.56100
H  49.24700 5.92300 44.39900
H  49.95200 4.45400 43.99900
H  51.53500 6.59400 44.17300
H  52.11600 4.96900 44.65700
H  51.63400 6.15700 45.91600
H  46.94000 10.67400 46.68400
H  48.31500 9.57300 46.54500
H  47.63300 10.06000 48.10600
H  41.83900 9.30600 46.51500
H  38.62900 9.67400 48.83900
H  39.74200 10.30700 50.10500
H  39.59500 8.57100 49.82300
Mg 5.79000 53.64000 40.65400
C  4.90000 50.26900 40.64500
C  9.08700 52.46000 39.95200
C  6.69000 56.86000 39.79500
C  2.51800 54.52000 40.86500
N  6.81600 51.60500 40.39500
C  6.23700 50.35600 40.32800
C  7.19300 49.26100 39.80000
C  8.57500 49.97500 40.08800
C  8.15700 51.43600 40.18600
C  9.24300 49.57200 41.39400
C  6.93200 48.85200 38.33000
C  6.91400 49.94200 37.26700
H  5.89400 49.87500 36.19800
N  7.62400 54.55600 40.06400
C  8.86000 53.88100 39.92900
C  9.79200 54.88300 39.59800
C  9.17600 56.10800 39.48000
C  7.77800 55.93100 39.77700
C  11.31900 54.53900 39.51800
C  9.93100 57.36400 39.21900
O  11.07800 57.33500 38.79500
C  9.29900 58.77300 39.39200
N  4.77600 55.39900 40.28300
C  5.33600 56.62100 40.07600
C  4.29500 57.80800 40.16700
C  2.94600 57.00100 40.41500
C  3.41400 55.53200 40.50700
C  4.72600 58.79500 41.39200
C  1.87200 57.41300 39.26800
C  1.83200 56.58300 38.00900
N  4.04200 52.66900 41.11300
C  2.71700 53.07600 41.07300
C  1.80600 52.03300 41.41800
C  2.60100 50.87100 41.35600
C  3.96700 51.32100 41.07300
C  0.34900 52.26800 41.85500
C  2.64800 49.43400 41.44300
O  1.82000 48.68500 41.75900
C  4.08500 48.98600 40.95700
C  3.92200 48.11400 39.78400
O  3.54600 48.48400 38.66700
O  4.40700 46.83600 40.02100
C  4.29600 45.86500 38.93200
H  10.08800 52.07200 39.75400
H  7.00700 57.90200 39.88000
H  1.47700 54.76900 41.08200
H  7.12000 48.43300 40.50500
H  9.20200 49.77000 39.22100
H  8.90300 48.60000 41.75200
H  8.93200 50.27400 42.16800
H  10.30700 49.55000 41.16100
H  5.97000 48.35800 38.19300
H  7.69500 48.10700 38.10400
H  7.91200 49.91100 36.83000
H  6.79400 50.88500 37.80000
H  11.75500 53.74000 40.11700
H  11.98500 55.31300 39.90000
H  11.67900 54.34900 38.50700
H  9.99500 59.55500 39.08800
H  8.97000 59.04700 40.39400
H  8.50000 58.80700 38.65100
H  4.24700 58.41100 39.26000
H  2.44700 57.34000 41.32400
H  3.85200 58.92800 42.03000
H  5.10900 59.73500 40.99600
H  5.57700 58.47300 41.99300
H  1.93400 58.43900 38.90500
H  0.90000 57.21300 39.71900
H  2.56300 55.77700 37.94900
H  1.94100 57.13400 37.07600
H  0.90700 56.00800 38.06200
H  -0.14400 53.02200 41.24200
H  0.36700 52.76700 42.82300
H  -0.10800 51.27900 41.90000
H  4.58600 48.42500 41.74600
H  5.25400 45.34700 38.87000
H  3.87900 46.33000 38.03900
H  3.49100 45.19900 39.24200

