158

Mg 54.55600 23.58400 44.75000
C  52.03200 25.66400 43.57200
C  52.96000 20.97800 42.84500
C  57.31500 21.61300 44.85800
C  56.32500 26.32100 45.58700
N  52.85100 23.43400 43.14100
C  51.93900 24.40500 42.88400
C  50.84500 23.98400 41.87400
C  51.05500 22.42700 41.84500
C  52.34200 22.20900 42.70600
C  49.82700 21.58500 42.36100
C  51.06600 24.85500 40.59100
C  51.22000 24.12000 39.26300
H  51.30200 24.84900 37.90600
N  55.03000 21.55500 44.16300
C  54.20400 20.69600 43.42200
C  54.87300 19.36200 43.39400
C  56.06400 19.48100 44.12400
C  56.18300 20.88000 44.50700
C  54.30400 18.34300 42.51200
C  57.04000 18.40800 44.28800
O  56.92700 17.32700 43.67600
C  58.22800 18.46000 45.23400
N  56.53300 23.94900 45.01500
C  57.51400 22.91700 45.11700
C  58.81200 23.56600 45.51200
C  58.58400 25.11000 45.66000
C  57.06600 25.11800 45.43300
C  59.48000 22.95800 46.75500
C  59.44500 26.04600 44.80400
C  60.06400 27.15500 45.63800
N  54.22400 25.62700 44.85500
C  54.97400 26.57000 45.41900
C  54.28400 27.82300 45.46100
C  53.05600 27.50600 44.79000
C  53.12400 26.19400 44.33600
C  54.72700 29.08500 46.10000
C  51.79300 28.01800 44.39300
O  51.37300 29.15400 44.55200
C  51.06600 26.84000 43.60200
C  50.62900 27.42300 42.35400
O  51.38700 27.90300 41.52300
O  49.25800 27.44200 42.27900
C  48.67500 28.09300 41.06100
H  52.46600 20.11500 42.39400
H  58.18800 20.98600 44.66700
H  56.95100 27.15500 45.91100
H  49.89200 24.31500 42.28800
H  51.24100 22.07000 40.83200
H  49.07700 21.63300 41.57100
H  49.45700 21.88300 43.34200
H  50.24800 20.58200 42.29400
H  52.00500 25.40600 40.63500
H  50.31100 25.63800 40.51900
H  50.52300 23.28700 39.17800
H  52.21500 23.67500 39.24000
H  54.11500 18.77400 41.52900
H  53.38300 17.96500 42.95600
H  54.81800 17.40000 42.32300
H  58.17100 19.20000 46.03200
H  58.89300 18.94800 44.52200
H  58.51300 17.47500 45.60500
H  59.57400 23.44600 44.74200
H  58.56700 25.41600 46.70600
H  59.31600 23.60300 47.61700
H  60.56600 23.04600 46.71400
H  59.04400 21.97700 46.94300
H  58.82600 26.46300 44.01000
H  60.24100 25.48500 44.31400
H  59.74400 28.13200 45.27600
H  61.14000 26.98200 45.62300
H  59.80000 27.07800 46.69200
H  55.81000 29.12000 45.98600
H  54.59900 29.15800 47.18000
H  54.35400 29.87300 45.44500
H  50.17200 26.51600 44.13500
H  49.08600 27.64700 40.15600
H  48.91100 29.15600 41.00500
H  47.58700 28.11000 41.12200
Mg -5.37200 25.56800 25.27500
C  -3.83900 27.08900 28.02000
C  -6.97100 23.45500 27.40400
C  -6.62200 23.91900 22.50300
C  -3.22300 27.30100 23.16200
N  -5.38100 25.30600 27.56100
C  -4.73800 26.11600 28.45900
C  -5.38100 25.92300 29.85500
C  -6.24600 24.67100 29.63400
C  -6.25400 24.44700 28.11000
C  -5.68700 23.33700 30.32100
C  -6.25600 27.16500 30.25700
C  -6.45100 27.47900 31.72600
H  -6.12100 26.42200 32.92900
N  -6.66100 23.97200 25.02500
C  -7.21200 23.26500 26.05300
C  -8.01000 22.18500 25.45900
C  -7.85600 22.25800 24.03600
C  -6.99500 23.43600 23.80200
C  -8.85000 21.20800 26.27000
C  -8.35700 21.37300 22.95900
O  -8.09800 21.46200 21.76100
C  -9.17500 20.14900 23.37300
N  -4.99200 25.58200 23.09700
C  -5.69500 24.87300 22.15200
C  -5.15400 25.18900 20.69800
C  -4.09600 26.37300 21.02000
C  -4.03300 26.42600 22.52600
C  -4.67800 23.93700 19.96000
C  -4.47500 27.77000 20.36700
C  -3.99100 27.86300 18.96300
N  -3.81700 26.92700 25.56500
C  -3.03800 27.56700 24.59900
C  -2.16400 28.53500 25.21600
C  -2.54200 28.39500 26.56800
C  -3.46000 27.40200 26.71900
C  -1.09200 29.38400 24.66000
C  -2.26200 28.92100 27.86700
O  -1.57500 29.86200 28.26800
C  -3.08400 28.05800 28.91400
C  -2.11500 27.45700 29.88700
O  -1.16400 26.76400 29.52400
O  -2.47700 27.80200 31.20800
C  -1.49000 27.36200 32.21100
H  -7.48900 22.71900 28.02300
H  -6.98000 23.50100 21.56000
H  -2.68900 27.98200 22.49600
H  -4.52300 25.73100 30.49900
H  -7.27800 24.82000 29.95300
H  -4.77900 23.59900 30.86400
H  -5.39500 22.55100 29.62400
H  -6.32400 22.91000 31.09500
H  -7.25500 26.97200 29.86500
H  -5.72500 27.98400 29.77200
H  -7.49400 27.76700 31.85900
H  -5.93900 28.40600 31.98300
H  -8.94000 21.47100 27.32400
H  -8.37500 20.22700 26.26800
H  -9.86300 21.12800 25.87700
H  -9.28000 19.47100 22.52600
H  -10.14900 20.52400 23.69000
H  -8.66000 19.73600 24.24100
H  -5.98400 25.63500 20.15100
H  -3.11100 26.08100 20.65500
H  -5.01400 23.93500 18.92300
H  -5.05800 23.00700 20.38500
H  -3.59200 23.98900 20.03400
H  -4.04700 28.58800 20.94700
H  -5.54900 27.94300 20.42500
H  -3.42400 26.99500 18.62700
H  -3.39900 28.76200 18.79600
H  -4.82600 27.88400 18.26200
H  -1.51700 30.34400 24.36800
H  -0.57100 28.88300 23.84400
H  -0.33200 29.68900 25.37900
H  -3.71400 28.75600 29.46600
H  -0.45500 27.27900 31.87900
H  -1.84900 26.37700 32.51000
H  -1.54600 28.07200 33.03500

