158

Mg -11.63400 38.31000 41.46700
C  -9.39200 35.69600 40.65900
C  -9.66600 40.49500 39.72400
C  -14.10300 40.52000 41.73600
C  -13.88300 35.77000 42.73800
N  -9.73200 38.10300 40.38500
C  -9.04000 36.92700 40.09000
C  -7.81700 37.24800 39.19800
C  -7.87500 38.81500 39.01900
C  -9.08000 39.20600 39.83900
C  -6.57300 39.56500 39.33500
C  -7.98600 36.49300 37.83500
C  -7.00300 35.33100 37.59500
H  -6.16900 35.33100 36.30100
N  -11.90800 40.14900 40.79200
C  -10.89200 40.94200 40.14900
C  -11.25600 42.35100 40.17100
C  -12.62200 42.35700 40.70500
C  -12.93700 40.98800 41.06500
C  -10.34000 43.51400 39.52500
C  -13.41700 43.61800 40.72400
O  -12.89300 44.66600 40.38900
C  -14.87800 43.73400 41.31100
N  -13.74800 38.07900 42.01200
C  -14.45300 39.24100 42.18500
C  -15.87700 38.89700 42.71400
C  -15.81800 37.36100 42.80600
C  -14.37700 37.07500 42.56300
C  -16.09600 39.59500 44.09900
C  -16.78600 36.52900 41.92000
C  -18.02300 36.01100 42.64900
N  -11.59300 36.26700 41.83800
C  -12.52900 35.39500 42.41500
C  -11.86600 34.08600 42.63600
C  -10.59500 34.13200 41.92600
C  -10.58100 35.45500 41.39600
C  -12.39100 32.81500 43.29200
C  -9.41600 33.42700 41.54000
O  -9.02500 32.27900 41.77600
C  -8.62400 34.40400 40.65300
C  -7.19100 34.48800 41.21000
O  -6.34100 33.62800 41.10400
O  -7.04100 35.70600 41.96100
C  -5.63400 35.89500 42.56300
H  -8.97700 41.18000 39.22700
H  -14.84500 41.31300 41.84500
H  -14.49000 34.93800 43.10000
H  -6.82400 37.03300 39.59300
H  -8.05800 39.10700 37.98500
H  -6.41400 39.71700 40.40300
H  -6.61700 40.54700 38.86400
H  -5.73900 38.93200 39.03300
H  -7.79900 37.23700 37.06100
H  -8.98600 36.06000 37.80600
H  -7.41500 34.32200 37.55300
H  -6.31100 35.16400 38.42000
H  -10.66000 43.90500 38.55900
H  -9.30100 43.22000 39.67200
H  -10.48900 44.43800 40.08400
H  -15.54600 43.22900 40.61300
H  -15.15400 44.78700 41.36800
H  -14.92300 43.33600 42.32500
H  -16.65800 39.32100 42.08300
H  -16.03100 37.27400 43.87100
H  -16.49300 40.57800 43.84600
H  -15.11700 39.68200 44.56900
H  -16.71900 39.15000 44.87500
H  -16.26200 35.65400 41.53600
H  -17.26100 37.17600 41.18200
H  -17.97100 34.93800 42.83200
H  -18.91200 36.31600 42.09700
H  -18.08900 36.49200 43.62400
H  -11.99700 32.76500 44.30700
H  -12.11400 31.96000 42.67500
H  -13.46800 32.96800 43.35100
H  -8.64500 34.03800 39.62600
H  -4.99000 35.86400 41.68400
H  -5.25200 35.15400 43.26600
H  -5.54800 36.84700 43.08700
Mg 1.53100 42.62300 26.41700
C  2.99800 42.63400 29.75400
C  -1.34200 41.42600 27.77300
C  0.40900 41.84400 23.30400
C  4.64300 43.36000 25.11900
N  0.98100 42.00800 28.54700
C  1.58700 42.31000 29.76400
C  0.62200 42.13200 30.93300
C  -0.66300 41.78600 30.21700
C  -0.33000 41.76300 28.71100
C  -1.36000 40.50000 30.78200
C  0.51200 43.51800 31.69000
C  0.99300 43.37900 33.12600
H  0.52100 42.20200 33.97800
N  -0.30600 41.91200 25.64000
C  -1.35900 41.40700 26.36500
C  -2.38300 40.99800 25.41500
C  -1.94700 41.14600 24.08000
C  -0.57600 41.67400 24.29200
C  -3.69700 40.49000 25.94800
C  -2.61600 40.80800 22.71800
O  -1.99200 40.80200 21.67300
C  -4.06800 40.71100 22.73400
N  2.38700 42.57200 24.48500
C  1.67800 42.37000 23.32700
C  2.62500 42.28300 22.14500
C  3.98200 42.95600 22.72600
C  3.71300 43.02400 24.22600
C  2.71600 40.81300 21.61600
C  4.28200 44.40000 22.11300
C  4.96100 44.42200 20.67200
N  3.46300 42.90300 27.21200
C  4.61100 43.24600 26.53100
C  5.66600 43.34300 27.49900
C  5.06200 43.13700 28.75000
C  3.77200 42.85900 28.58200
C  7.11600 43.59100 27.10700
C  5.40800 43.01800 30.17900
O  6.45600 43.15700 30.85900
C  3.96000 42.83400 30.88000
C  4.15100 41.59100 31.72300
O  4.17100 40.43900 31.31400
O  4.57500 41.95000 32.97500
C  5.08700 40.82700 33.83200
H  -2.36100 41.19500 28.09200
H  0.10600 41.58500 22.28700
H  5.63600 43.55400 24.70800
H  0.94900 41.31500 31.57700
H  -1.40700 42.57500 30.33400
H  -1.13500 40.46700 31.84800
H  -1.12700 39.56500 30.27400
H  -2.44600 40.59500 30.80000
H  -0.52600 43.82000 31.83100
H  1.05900 44.31400 31.18500
H  0.75600 44.30700 33.64500
H  2.08300 43.33800 33.14300
H  -4.32000 41.37500 26.07700
H  -3.58500 39.91900 26.87000
H  -4.19200 39.77700 25.28900
H  -4.45400 41.46800 23.41600
H  -4.37500 39.68600 22.94100
H  -4.37400 41.10400 21.76500
H  2.14700 42.79200 21.30700
H  4.85800 42.30900 22.68300
H  3.74400 40.56200 21.35600
H  2.22600 40.54400 20.68000
H  2.37400 40.04700 22.31200
H  4.99000 44.93400 22.74700
H  3.35400 44.96800 22.04900
H  5.01400 43.36800 20.39900
H  6.02400 44.66300 20.66900
H  4.43100 45.09700 20.00000
H  7.62200 42.73500 26.65900
H  7.58300 44.04500 27.98100
H  6.99300 44.44500 26.44100
H  3.77300 43.72900 31.47200
H  5.27200 41.23300 34.82700
H  6.03900 40.63300 33.33700
H  4.47300 39.92900 33.89600

