158

Mg 25.11500 1.69800 29.68700
C  27.21600 1.55200 32.49500
C  22.43600 1.68600 31.89800
C  23.15900 1.39400 27.04200
C  27.93400 0.95600 27.65000
N  24.83000 1.79200 31.88900
C  25.89400 1.82500 32.83200
C  25.39400 2.07100 34.20500
C  23.81700 1.91600 34.03400
C  23.63000 1.77200 32.50100
C  23.14500 0.81600 34.93800
C  25.83000 3.41700 34.80800
C  26.66000 3.35900 36.08600
H  26.23500 4.34100 37.29100
N  23.08900 1.66300 29.47800
C  22.20000 1.65700 30.47600
C  20.89800 1.69400 29.86800
C  21.01200 1.53100 28.50100
C  22.44700 1.55600 28.30300
C  19.68900 1.72100 30.76400
C  19.97500 1.19400 27.48800
O  20.25600 0.96400 26.32600
C  18.55400 1.05700 27.76000
N  25.53100 1.09600 27.71800
C  24.50700 1.16300 26.76500
C  25.06500 1.09600 25.32600
C  26.58500 0.87600 25.44900
C  26.71400 1.03600 27.00800
C  24.49700 0.09900 24.26100
C  27.45200 2.01400 24.78600
C  27.29300 3.44400 25.30600
N  27.10600 1.36700 29.94100
C  28.07700 1.12500 29.02100
C  29.35300 1.03500 29.67800
C  29.06100 1.27100 31.06300
C  27.65300 1.35100 31.16200
C  30.66000 0.73900 29.04400
C  29.65900 1.22900 32.41700
O  30.83700 1.00300 32.77700
C  28.45900 1.54100 33.43800
C  28.37700 0.52900 34.52700
O  28.10300 -0.63000 34.31600
O  28.81100 1.06200 35.68500
C  28.77100 0.12400 36.80700
H  21.69200 1.73400 32.69600
H  22.51900 1.43800 26.15900
H  28.77000 0.75000 26.97900
H  25.84300 1.31900 34.85500
H  23.32300 2.82900 34.36700
H  22.82700 0.11600 34.16500
H  22.23000 1.21000 35.38000
H  23.75500 0.33500 35.70300
H  24.94000 3.98100 35.08600
H  26.46600 3.97700 34.12300
H  27.65700 3.68600 35.78800
H  26.72700 2.37700 36.55300
H  19.10700 0.80700 30.64400
H  19.03500 2.55200 30.50200
H  19.89700 1.95500 31.80800
H  18.38600 0.22800 28.44900
H  18.08800 0.75800 26.82100
H  18.11700 1.94000 28.22600
H  24.90400 2.11800 24.98400
H  26.88900 -0.12900 25.15900
H  24.44900 0.65400 23.32400
H  23.49500 -0.27200 24.47700
H  25.11700 -0.79600 24.21000
H  27.01100 2.05800 23.79000
H  28.49100 1.69100 24.71700
H  28.29200 3.81200 25.54000
H  26.63100 3.37900 26.16900
H  26.80100 4.03400 24.53300
H  30.80500 -0.30900 28.78200
H  31.33700 1.07200 29.83100
H  30.91000 1.37300 28.19400
H  28.61200 2.54400 33.83600
H  29.72400 -0.39000 36.93400
H  28.04300 -0.68500 36.75800
H  28.60900 0.69300 37.72200
Mg 42.76700 42.15300 25.99100
C  42.17200 44.49900 28.42900
C  43.95700 39.96500 28.44000
C  43.90200 40.08500 23.47900
C  41.95800 44.47700 23.61800
N  42.97600 42.19700 28.21800
C  42.59700 43.25700 29.00900
C  42.74600 42.98200 30.51300
C  43.37600 41.55900 30.48400
C  43.50700 41.24300 28.95500
C  44.65600 41.30700 31.32500
C  41.38800 43.06500 31.32500
C  41.38600 43.82300 32.64400
H  42.31900 43.41300 33.81400
N  43.70500 40.21800 25.96800
C  44.08100 39.45500 27.11900
C  44.64100 38.15600 26.66500
C  44.57400 38.18200 25.18300
C  44.07700 39.53400 24.83300
C  45.13100 37.09600 27.67200
C  44.87500 37.10400 24.23800
O  44.94000 37.18000 22.99200
C  45.14600 35.73100 24.80000
N  43.11200 42.37000 23.80900
C  43.43700 41.32600 23.00500
C  43.27200 41.76100 21.53800
C  42.30000 43.00000 21.64400
C  42.41100 43.29500 23.11200
C  44.54700 42.02400 20.61200
C  40.92700 42.75200 21.08400
C  39.97500 41.86600 21.96400
N  42.15000 44.12300 25.99400
C  41.87200 44.95200 24.98200
C  41.60300 46.30200 25.41700
C  41.72200 46.17000 26.82300
C  42.05400 44.80200 27.08900
C  41.19000 47.46600 24.53200
C  41.59900 46.88700 28.06900
O  41.40900 48.02300 28.35500
C  41.78200 45.79600 29.14100
C  42.70000 46.37300 30.15400
O  43.91500 46.44000 30.02700
O  41.97900 46.94500 31.18700
C  42.66000 47.62400 32.26200
H  44.13500 39.28700 29.27700
H  44.13400 39.37000 22.68800
H  41.56800 45.20800 22.90600
H  43.41100 43.73100 30.94300
H  42.68700 40.79200 30.83900
H  44.81200 42.05900 32.09800
H  45.60800 41.18800 30.80700
H  44.44500 40.35600 31.81400
H  40.99700 42.07000 31.53900
H  40.68700 43.53700 30.63700
H  40.36200 43.94500 33.00000
H  41.71900 44.84700 32.47400
H  44.68500 36.11700 27.50000
H  45.02900 37.35800 28.72500
H  46.20100 37.00500 27.48400
H  44.25700 35.48400 25.38200
H  46.02900 36.01800 25.37100
H  45.40200 34.97600 24.05700
H  42.75100 40.90000 21.12100
H  42.71500 43.80500 21.03800
H  45.40900 42.06100 21.27800
H  44.43800 42.95100 20.04900
H  44.62300 41.16000 19.95200
H  41.01800 42.38100 20.06300
H  40.42000 43.71700 21.06800
H  39.34500 41.19900 21.37500
H  39.40200 42.51800 22.62300
H  40.57400 41.23800 22.62400
H  40.56900 48.10700 25.15800
H  40.64900 47.12800 23.64800
H  42.05700 48.01500 24.16400
H  40.86000 45.63000 29.69800
H  42.98400 46.80100 32.89800
H  41.91300 48.19100 32.81900
H  43.42400 48.34100 31.96000

