158

Mg 9.17200 49.36600 24.79500
C  7.16100 49.51200 27.54100
C  12.02200 50.07300 26.73200
C  11.25600 48.87200 22.07400
C  6.45500 48.82600 22.70500
N  9.49500 49.94200 26.84700
C  8.54000 49.75700 27.86700
C  9.19500 49.94500 29.18300
C  10.52800 50.57900 28.79100
C  10.74200 50.12900 27.30700
C  10.68600 52.10600 29.10700
C  9.32600 48.68800 30.08700
C  8.74100 48.97200 31.47200
H  8.60300 47.78300 32.44800
N  11.31900 49.51400 24.43300
C  12.32100 49.67100 25.40300
C  13.65800 49.71000 24.68900
C  13.41600 49.47900 23.34000
C  11.94500 49.32800 23.23100
C  14.96600 49.92400 25.43200
C  14.35800 49.41300 22.26300
O  14.01700 49.35900 21.12600
C  15.80700 49.52900 22.47100
N  8.94900 49.20000 22.59900
C  9.92300 48.84000 21.74000
C  9.41000 48.35300 20.40900
C  7.83400 48.27100 20.63700
C  7.72600 48.73400 22.13100
C  9.82300 49.21100 19.19300
C  7.21800 46.95200 20.29200
C  7.53100 45.71700 21.09600
N  7.19400 49.19300 25.01500
C  6.20200 48.98900 24.11300
C  4.87000 48.80300 24.82400
C  5.18600 49.12900 26.19300
C  6.61000 49.29600 26.24200
C  3.60200 48.42000 24.17300
C  4.61600 49.30200 27.54100
O  3.46300 49.20900 27.98400
C  5.88100 49.43300 28.43100
C  5.82900 48.27400 29.42300
O  6.13500 47.10600 29.16500
O  5.06600 48.68500 30.53900
C  4.67300 47.61300 31.44700
H  12.89800 50.28500 27.35000
H  11.83900 48.52000 21.22000
H  5.62100 48.52900 22.06600
H  8.71600 50.72200 29.77800
H  11.37100 50.03900 29.22300
H  11.52000 52.25000 29.79300
H  9.75600 52.45500 29.55800
H  10.95900 52.51800 28.13600
H  10.37700 48.55400 30.34600
H  8.98000 47.75800 29.63600
H  7.73500 49.38100 31.37600
H  9.31800 49.72800 32.00400
H  15.59600 49.03900 25.35600
H  14.79000 49.98800 26.50500
H  15.55200 50.77900 25.09200
H  16.05200 50.46400 22.97400
H  16.25000 49.71200 21.49200
H  16.16100 48.69700 23.07900
H  9.77300 47.35700 20.15500
H  7.37400 49.07500 20.06100
H  10.55300 49.83400 19.71000
H  9.04100 49.64700 18.57100
H  10.40500 48.64000 18.47000
H  7.59000 46.72000 19.29400
H  6.13600 46.99100 20.16700
H  6.64300 45.08500 21.10200
H  8.04900 45.99100 22.01600
H  8.26700 45.13900 20.53700
H  3.66400 47.37200 23.88300
H  3.55400 49.03600 23.27400
H  2.79000 48.64700 24.86500
H  5.79100 50.34300 29.02300
H  4.98700 46.57000 31.40800
H  3.59100 47.54600 31.33300
H  4.90400 47.98000 32.44700
Mg -4.78900 25.90000 26.62600
C  -3.55800 27.27900 29.54600
C  -6.49300 23.56000 28.50200
C  -5.68200 24.44200 23.81200
C  -2.74500 28.12500 24.82200
N  -4.89300 25.43300 28.76600
C  -4.51500 26.28300 29.73100
C  -5.10100 25.84800 31.09200
C  -5.79100 24.47700 30.81800
C  -5.66900 24.40600 29.25600
C  -5.32700 23.27700 31.72600
C  -6.01700 26.90400 31.64700
C  -5.75800 27.32900 33.13200
H  -5.32100 26.27300 34.14400
N  -6.04000 24.32200 26.22300
C  -6.65700 23.45100 27.07100
C  -7.48600 22.47900 26.33800
C  -7.45000 22.92700 25.01100
C  -6.28600 23.89200 24.95100
C  -8.32600 21.61700 27.10300
C  -8.31900 22.49500 23.87000
O  -8.15900 22.88200 22.75700
C  -9.52300 21.59200 24.08800
N  -4.17000 26.22500 24.56900
C  -4.69700 25.41300 23.60800
C  -4.15800 25.78900 22.18200
C  -3.23400 27.01500 22.52500
C  -3.41400 27.17300 24.05800
C  -3.35900 24.61600 21.61700
C  -3.45800 28.31700 21.75100
C  -2.57900 28.52200 20.47200
N  -3.41100 27.32000 26.98300
C  -2.71500 28.13500 26.19000
C  -1.88600 29.04200 27.05300
C  -2.17700 28.74500 28.34600
C  -3.10200 27.69800 28.25900
C  -0.93900 30.13800 26.45500
C  -1.93000 29.12700 29.76600
O  -1.25500 29.96500 30.34600
C  -2.85800 28.11900 30.55700
C  -1.93500 27.43200 31.41200
O  -0.94600 26.84600 31.02100
O  -2.22500 27.64300 32.69100
C  -1.14500 27.38100 33.67800
H  -7.02700 22.85500 29.14300
H  -6.02300 23.96500 22.89100
H  -2.18500 28.85800 24.23600
H  -4.13600 25.74300 31.58800
H  -6.86300 24.57400 30.99000
H  -4.42000 23.54900 32.26600
H  -5.03100 22.33600 31.26100
H  -6.03200 23.01500 32.51400
H  -7.03600 26.59200 31.41600
H  -5.86100 27.83200 31.09700
H  -6.71900 27.73700 33.44300
H  -5.14800 28.23200 33.11100
H  -7.87000 21.40500 28.07000
H  -8.40400 20.62500 26.65900
H  -9.31000 22.06600 27.24500
H  -9.18000 20.59500 23.81100
H  -10.22700 21.85800 23.30000
H  -9.90400 21.97600 25.03400
H  -4.96700 25.95400 21.47000
H  -2.19200 26.72200 22.39000
H  -2.58700 25.03600 20.97400
H  -4.01800 23.94700 21.06400
H  -2.82800 24.00300 22.34600
H  -3.43000 29.25100 22.31200
H  -4.44700 28.27900 21.29400
H  -3.19400 28.69200 19.58800
H  -2.11800 27.54500 20.32700
H  -1.70500 29.15000 20.64300
H  -1.35700 30.72500 25.63700
H  -0.08300 29.62400 26.01600
H  -0.80900 30.84800 27.27100
H  -3.47700 28.72400 31.21900
H  -1.21000 26.33000 33.96100
H  -1.30700 27.96200 34.58600
H  -0.14500 27.41800 33.24500

