158

Mg 7.50800 3.23200 28.08700
C  8.93800 1.75000 30.92600
C  5.59600 5.19400 30.29000
C  5.71500 4.22600 25.46500
C  9.20800 0.86400 26.05400
N  7.17000 3.34500 30.40200
C  8.05500 2.82000 31.27900
C  7.84600 3.49400 32.64700
C  6.40900 4.20400 32.57900
C  6.41400 4.25400 30.97500
C  5.27900 3.25300 33.09300
C  9.00500 4.39400 33.06000
C  10.02200 4.02300 34.17900
H  10.12600 4.95200 35.41700
N  5.95800 4.60400 27.86400
C  5.38700 5.33000 28.87600
C  4.41700 6.18700 28.25400
C  4.52400 6.09500 26.84200
C  5.44700 4.94700 26.68700
C  3.52400 7.04200 29.14100
C  3.85300 6.86400 25.75000
O  4.14700 6.57500 24.64200
C  2.88000 7.91500 26.03600
N  7.39700 2.57800 26.13700
C  6.65800 3.25000 25.18300
C  6.97500 2.73100 23.76400
C  8.10100 1.71000 23.97100
C  8.30200 1.76800 25.44700
C  5.68200 2.19500 23.09300
C  9.45200 2.06600 23.26200
C  10.51100 2.90900 24.01300
N  8.86300 1.57300 28.35300
C  9.44400 0.71400 27.44000
C  10.23700 -0.24500 28.19100
C  10.20000 0.13700 29.55000
C  9.24700 1.22100 29.62400
C  10.92700 -1.46400 27.71600
C  10.66100 -0.10700 30.88500
O  11.46400 -0.93500 31.40600
C  10.01100 1.06000 31.74000
C  9.36900 0.53100 32.95200
O  8.18600 0.15000 32.95800
O  10.29600 0.50900 34.02300
C  9.81100 0.05700 35.41600
H  5.04600 5.82600 30.99000
H  5.07400 4.44400 24.60900
H  9.70100 0.11200 25.43400
H  7.76700 2.69900 33.38800
H  6.30700 5.17600 33.06200
H  5.03700 3.59900 34.09800
H  5.63000 2.22600 33.19400
H  4.41600 3.28200 32.42800
H  8.62400 5.38200 33.31500
H  9.71100 4.54600 32.24400
H  10.99500 3.96000 33.69200
H  9.84300 2.99800 34.50500
H  2.58200 6.49200 29.15300
H  3.56600 8.06900 28.77900
H  3.86700 7.14900 30.17000
H  1.94800 7.42500 26.31800
H  2.61800 8.45500 25.12600
H  3.09100 8.65700 26.80500
H  7.37600 3.55600 23.17500
H  7.83200 0.70300 23.65100
H  4.87700 2.32700 23.81600
H  5.74300 1.11700 22.93900
H  5.52100 2.88100 22.26200
H  9.13400 2.59800 22.36600
H  9.96300 1.14100 22.99400
H  11.21200 2.18800 24.43200
H  9.95400 3.50600 24.73600
H  11.04300 3.65600 23.42300
H  10.83200 -1.58900 26.63700
H  10.68400 -2.38100 28.25300
H  12.00600 -1.36500 27.83200
H  10.72500 1.79700 32.10900
H  9.03300 -0.65500 35.14100
H  9.53900 0.87600 36.08200
H  10.66900 -0.41600 35.89400
Mg 15.96400 -1.92700 28.29000
C  15.21000 0.33300 30.77000
C  18.21000 -3.36100 30.48300
C  17.09700 -3.75100 25.76600
C  13.97400 -0.09400 26.06900
N  16.55100 -1.54200 30.44000
C  16.09400 -0.59000 31.27000
C  16.61600 -0.76600 32.69000
C  17.74700 -1.82500 32.53900
C  17.55500 -2.20300 31.03200
C  19.14300 -1.29500 33.00600
C  15.43800 -1.24200 33.64000
C  15.57500 -1.08400 35.19700
H  16.82100 -0.43100 35.75100
N  17.48300 -3.40500 28.17400
C  18.16700 -3.88300 29.16800
C  18.90500 -5.04300 28.63500
C  18.66200 -5.21400 27.23600
C  17.71400 -4.09400 26.98800
C  19.76500 -5.85100 29.54400
C  19.21700 -6.16400 26.27800
O  18.93400 -6.12300 25.09500
C  20.09700 -7.33400 26.74500
N  15.67000 -1.87800 26.21200
C  16.11100 -2.86300 25.38000
C  15.61400 -2.57100 23.88500
C  14.45000 -1.54300 24.06800
C  14.71600 -1.14400 25.51800
C  16.78700 -2.09200 22.97300
C  13.05900 -2.14500 23.76500
C  12.17800 -1.60000 22.64100
N  14.82300 -0.28100 28.33700
C  14.06500 0.38300 27.41700
C  13.52600 1.63400 27.93500
C  13.94600 1.56700 29.30200
C  14.68300 0.39900 29.49700
C  12.80100 2.71900 27.13600
C  13.81100 2.34300 30.55000
O  13.26400 3.38700 30.81600
C  14.60300 1.48200 31.60300
C  15.53900 2.34700 32.32100
O  16.67900 2.58800 31.97500
O  14.91000 2.92200 33.36900
C  15.63400 3.88900 34.12000
H  18.88500 -3.85500 31.18500
H  17.46700 -4.29600 24.89500
H  13.18100 0.36600 25.47500
H  16.88300 0.21700 33.07800
H  17.45400 -2.74100 33.05100
H  19.42200 -1.78800 33.93800
H  19.11900 -0.21600 33.15700
H  19.84200 -1.53400 32.20500
H  15.20600 -2.29600 33.49000
H  14.51100 -0.69200 33.47800
H  15.30400 -2.00600 35.71100
H  14.80400 -0.47900 35.67500
H  19.56800 -5.62500 30.59100
H  20.82800 -5.73700 29.32900
H  19.52600 -6.91300 29.48700
H  20.18400 -8.12400 25.99900
H  19.63000 -7.70200 27.65800
H  21.08600 -7.01800 27.07800
H  15.39700 -3.50900 23.37400
H  14.70700 -0.67900 23.45500
H  16.89400 -1.01900 23.13000
H  16.54900 -2.28800 21.92700
H  17.65700 -2.63000 23.35100
H  12.41100 -2.16300 24.64000
H  13.22700 -3.19100 23.50500
H  11.39300 -2.30800 22.37700
H  12.83300 -1.26600 21.83600
H  11.66100 -0.68400 22.92600
H  11.73900 2.47900 27.19700
H  13.09100 2.62400 26.08900
H  13.01600 3.70300 27.55200
H  13.81600 1.10700 32.25700
H  16.57600 3.58900 34.57900
H  15.00000 4.22500 34.94100
H  15.70200 4.84600 33.60300

