158

Mg -1.50300 18.03900 27.84800
C  -2.09800 15.52400 30.44000
C  -2.31300 20.39800 30.23600
C  -1.72700 20.27700 25.39800
C  -1.16700 15.45800 25.62600
N  -2.18200 17.92900 30.08900
C  -2.20500 16.84900 30.90600
C  -2.68600 17.24800 32.38400
C  -2.87500 18.85600 32.17700
C  -2.42000 19.12600 30.74400
C  -4.32900 19.31300 32.54400
C  -1.66800 16.69400 33.40900
C  -1.32900 17.64100 34.56600
H  -0.77800 17.07400 35.85000
N  -1.96200 20.05300 27.82800
C  -2.22900 20.81500 28.93300
C  -2.28300 22.17000 28.50900
C  -2.06200 22.23600 27.12100
C  -1.91500 20.83000 26.71400
C  -2.58100 23.35900 29.42900
C  -1.98500 23.43200 26.17000
O  -1.78800 23.37500 24.92000
C  -2.12800 24.77000 26.77100
N  -1.62900 17.89600 25.81500
C  -1.59700 18.97900 24.97300
C  -1.50600 18.49800 23.52600
C  -1.16000 16.98100 23.66300
C  -1.31900 16.76800 25.16400
C  -2.86300 18.77700 22.74000
C  0.25900 16.69800 22.99700
C  1.48200 17.38600 23.59300
N  -1.59500 15.93500 27.97300
C  -1.47800 15.01600 26.90500
C  -1.50800 13.65700 27.50200
C  -1.74900 13.79600 28.89700
C  -1.86100 15.17500 29.09700
C  -1.39600 12.37400 26.69700
C  -1.93800 13.04300 30.03100
O  -2.05600 11.85800 30.27800
C  -2.13500 14.13700 31.16400
C  -1.07100 13.92000 32.16300
O  0.06400 14.27500 32.02500
O  -1.57800 13.28900 33.22100
C  -0.71600 12.99100 34.29600
H  -2.38400 21.22100 30.95000
H  -1.82800 20.98900 24.57700
H  -0.99900 14.69700 24.86100
H  -3.61100 16.68800 32.52300
H  -2.16100 19.49900 32.69200
H  -4.32400 19.97900 33.40600
H  -4.95600 18.51200 32.93600
H  -4.76200 19.85700 31.70500
H  -0.71400 16.44000 32.94800
H  -2.07200 15.82400 33.92700
H  -2.21900 18.24800 34.72600
H  -0.43400 18.17900 34.25300
H  -1.82000 24.13000 29.31700
H  -2.44700 23.09900 30.47900
H  -3.61600 23.65500 29.25800
H  -3.07000 24.96800 27.28300
H  -2.02500 25.51200 25.97800
H  -1.30400 24.90700 27.47100
H  -0.63400 19.01200 23.12100
H  -1.99600 16.38200 23.30200
H  -2.60200 19.08400 21.72700
H  -3.36700 19.62300 23.20800
H  -3.45800 17.87000 22.84800
H  0.20400 17.07700 21.97700
H  0.31900 15.60900 22.97500
H  1.61500 18.25100 22.94300
H  2.43300 16.85800 23.52700
H  1.33900 17.70000 24.62700
H  -0.82900 12.53700 25.78100
H  -2.38400 12.01800 26.40500
H  -0.82900 11.58300 27.18800
H  -3.06000 14.05800 31.73500
H  -1.45200 12.47100 34.90900
H  -0.31900 13.85900 34.82200
H  0.07500 12.34800 33.90800
Mg 9.03200 4.10400 27.08400
C  9.90800 2.26300 29.91900
C  6.88500 5.99800 28.89100
C  7.76000 5.33300 24.13600
C  10.89300 1.71800 25.17000
N  8.40100 4.04800 29.15500
C  9.11400 3.41000 30.23800
C  8.62300 3.82600 31.61000
C  7.54100 4.97900 31.14800
C  7.59500 5.01300 29.57500
C  6.13000 4.77400 31.75600
C  9.65300 4.31300 32.66500
C  8.96400 5.07500 33.85900
H  9.75300 5.18800 35.19300
N  7.42100 5.43100 26.55400
C  6.70700 6.16200 27.48900
C  5.95500 7.09900 26.79900
C  6.28200 6.96900 25.41100
C  7.19000 5.89600 25.32000
C  4.99700 8.06400 27.52800
C  5.85200 7.90400 24.25800
O  6.18800 7.74500 23.08100
C  5.05600 9.03500 24.52600
N  9.30000 3.54900 24.96900
C  8.68500 4.30700 24.00800
C  9.20500 3.84400 22.62100
C  10.23000 2.73400 22.91300
C  10.20500 2.69200 24.46200
C  8.07800 3.48800 21.63800
C  11.69600 3.05400 22.24900
C  12.55300 4.04500 23.06900
N  10.35600 2.43100 27.46100
C  10.95800 1.54500 26.58400
C  11.67300 0.49400 27.28900
C  11.38400 0.74300 28.69000
C  10.46300 1.90200 28.69700
C  12.47500 -0.66200 26.67000
C  11.39600 0.26100 30.05800
O  11.90600 -0.73600 30.47100
C  10.64800 1.32900 30.92000
C  9.78200 0.61500 31.88700
O  8.63500 0.27800 31.67500
O  10.36600 0.75100 33.11700
C  9.58100 0.42800 34.27200
H  6.54600 6.65000 29.69800
H  7.35200 5.62700 23.16700
H  11.44600 1.00800 24.55300
H  8.17700 2.93300 32.04900
H  7.85400 6.01000 31.30600
H  5.89600 5.73000 32.22400
H  6.03200 4.05300 32.56800
H  5.46300 4.47800 30.94600
H  10.38700 4.99000 32.22800
H  9.99700 3.33400 32.99800
H  7.96500 4.66500 34.00800
H  8.91900 6.07800 33.43400
H  5.03400 7.91000 28.60600
H  4.04100 7.75500 27.10700
H  5.29500 9.10900 27.44300
H  5.54500 9.57500 25.33700
H  4.15200 8.50900 24.83400
H  4.99300 9.70100 23.66500
H  9.77800 4.69600 22.25500
H  9.92100 1.72600 22.63600
H  7.07500 3.61400 22.04500
H  8.19400 2.49200 21.21100
H  8.14300 4.10800 20.74300
H  11.46200 3.50400 21.28400
H  12.22300 2.11500 22.08100
H  13.46800 3.55000 23.39600
H  12.08000 4.40900 23.98100
H  12.93200 4.90100 22.50900
H  12.86000 -0.37700 25.69100
H  11.86700 -1.55500 26.52800
H  13.30000 -0.99700 27.29900
H  11.38700 1.92200 31.45900
H  10.02500 0.98800 35.09500
H  9.52400 -0.60100 34.62600
H  8.55200 0.76600 34.14400

