158

Mg 40.35500 9.45800 29.62700
C  41.96600 10.91800 32.44700
C  38.14600 7.97800 31.84000
C  38.93200 7.98900 26.92500
C  43.15200 10.30900 27.73500
N  40.12500 9.49900 31.89700
C  40.88700 10.14100 32.77200
C  40.41200 9.97400 34.19700
C  39.34300 8.81800 34.01900
C  39.18800 8.66900 32.48100
C  39.67800 7.50300 34.74800
C  39.91400 11.33300 34.79800
C  40.70400 11.75100 36.04800
H  39.93800 12.46400 37.10300
N  38.75800 8.17900 29.41300
C  37.95000 7.70900 30.42600
C  36.85600 7.02900 29.78100
C  36.99000 7.19700 28.33700
C  38.28100 7.80200 28.19500
C  35.72300 6.44900 30.57800
C  36.08000 6.76300 27.16200
O  36.22600 7.14700 25.96700
C  34.89600 5.94300 27.43400
N  41.01600 9.12900 27.65100
C  40.16400 8.61100 26.69800
C  40.56200 9.06500 25.28500
C  42.09200 9.48800 25.56400
C  42.14400 9.56700 27.08700
C  40.50600 7.98900 24.21400
C  42.36600 10.82400 24.83600
C  41.47400 12.08100 25.11000
N  42.18400 10.36700 29.94700
C  43.16300 10.72700 29.06500
C  44.24500 11.46900 29.74500
C  43.81600 11.56300 31.06400
C  42.52600 10.91300 31.11100
C  45.58400 11.89900 29.08700
C  44.08500 12.11700 32.36900
O  45.00000 12.80400 32.74800
C  42.93500 11.58600 33.34200
C  43.56600 10.76300 34.40000
O  43.77200 9.53500 34.25300
O  44.25600 11.53000 35.26000
C  44.86700 10.76900 36.38100
H  37.35700 7.66500 32.52600
H  38.42900 7.55500 26.05900
H  43.90300 10.76200 27.08400
H  41.24500 9.53900 34.74900
H  38.35000 9.05400 34.40300
H  39.78200 6.69200 34.02800
H  38.84000 7.31400 35.41900
H  40.65200 7.35100 35.21200
H  38.87400 11.18700 35.08900
H  40.06400 12.12000 34.05900
H  41.40500 12.47200 35.62800
H  41.37300 11.00000 36.46900
H  35.88200 5.37900 30.45000
H  34.77600 6.78000 30.15300
H  35.86800 6.65600 31.63800
H  34.28800 5.96700 26.53000
H  34.24800 6.37800 28.19500
H  35.18500 4.89900 27.55500
H  39.95400 9.88400 24.90200
H  42.68200 8.71400 25.07300
H  39.48200 7.70700 23.97100
H  41.08300 7.11600 24.52200
H  40.90600 8.32600 23.25800
H  42.16500 10.68300 23.77400
H  43.42200 11.09400 24.87000
H  41.28800 12.58600 24.16200
H  42.09400 12.74300 25.71500
H  40.51400 11.86200 25.57800
H  45.49300 12.44500 28.14800
H  46.17600 11.00100 28.90700
H  46.08700 12.46200 29.87300
H  42.57400 12.48600 33.84000
H  44.11500 10.61000 37.15400
H  45.70600 11.29500 36.83700
H  45.29500 9.83000 36.02900
Mg -1.25500 34.37400 27.13600
C  -3.17300 32.74700 29.69800
C  -0.18000 36.63500 29.50400
C  0.00600 36.11200 24.59400
C  -2.81000 32.17900 24.93800
N  -1.59300 34.60200 29.34100
C  -2.34700 33.79900 30.15200
C  -2.24300 34.26900 31.57400
C  -1.56700 35.66400 31.42900
C  -1.02300 35.63500 30.03100
C  -2.49100 36.88000 31.61400
C  -1.38200 33.38000 32.55400
C  -2.14500 32.74700 33.75400
H  -1.50400 33.03300 35.13200
N  -0.08200 36.05600 27.03700
C  0.28500 36.77300 28.12300
C  1.28800 37.73000 27.69100
C  1.39300 37.59600 26.23400
C  0.41400 36.54100 25.89500
C  1.88900 38.66800 28.76400
C  2.11700 38.50100 25.10700
O  2.01200 38.27900 23.90400
C  3.08700 39.56600 25.50800
N  -1.49300 34.29100 25.07800
C  -0.87300 35.12000 24.17200
C  -1.11800 34.70600 22.70400
C  -1.76800 33.29000 22.93800
C  -1.94800 33.14900 24.41800
C  -2.10800 35.66700 22.02100
C  -1.04700 32.05300 22.31400
C  0.21200 31.62700 23.00200
N  -2.64700 32.64300 27.26400
C  -3.17300 31.88700 26.27300
C  -4.13700 30.98000 26.83300
C  -4.08000 31.15400 28.22400
C  -3.29000 32.28000 28.38500
C  -5.09000 30.17600 26.01900
C  -4.53100 30.77100 29.52300
O  -5.21800 29.88400 29.91400
C  -3.94300 31.81400 30.55700
C  -5.16200 32.19000 31.32800
O  -5.91400 33.08600 31.02000
O  -5.31400 31.45200 32.48300
C  -6.38900 31.88300 33.38200
H  0.25200 37.26900 30.28000
H  0.33100 36.75500 23.77300
H  -3.13000 31.42300 24.21800
H  -3.23600 34.46300 31.97900
H  -0.74200 35.83000 32.12100
H  -3.42300 36.68900 32.14700
H  -2.85300 37.25500 30.65700
H  -1.97100 37.64900 32.18500
H  -0.58500 33.94500 33.03800
H  -0.92800 32.59300 31.95100
H  -2.16700 31.65800 33.77200
H  -3.16300 33.12900 33.83500
H  2.44800 39.41600 28.20200
H  2.64100 38.19700 29.39700
H  1.13100 39.21000 29.33000
H  3.66700 39.86600 24.63600
H  3.83700 39.10400 26.15000
H  2.74700 40.45100 26.04600
H  -0.13600 34.78000 22.23700
H  -2.83500 33.21400 22.72700
H  -2.31900 36.47400 22.72300
H  -3.03900 35.24200 21.64600
H  -1.73200 36.17300 21.13200
H  -0.76200 32.28800 21.28800
H  -1.63400 31.13600 22.36700
H  0.06900 30.60500 23.35100
H  0.47700 32.34200 23.78100
H  0.95200 31.53000 22.20800
H  -6.08000 30.55700 26.27000
H  -5.06600 29.12100 26.29000
H  -4.88600 30.20600 24.94800
H  -3.26300 31.37100 31.28500
H  -6.00200 32.49600 34.19600
H  -6.93600 31.06200 33.84500
H  -7.12400 32.57400 32.97100

