158

Mg 41.14600 41.35700 27.09400
C  40.88600 43.88600 29.63900
C  41.89100 39.22600 29.63800
C  42.00000 39.24800 24.86000
C  41.33300 44.09800 24.78400
N  41.44100 41.60200 29.43400
C  40.98200 42.57800 30.18500
C  40.90300 42.12500 31.70300
C  41.49000 40.67200 31.64600
C  41.56600 40.45000 30.11500
C  42.89600 40.56200 32.30100
C  39.42600 42.23200 32.34400
C  39.23700 42.25400 33.86300
H  38.34600 43.31400 34.52400
N  41.64000 39.40900 27.19300
C  41.95400 38.63700 28.33400
C  42.30000 37.27100 27.88100
C  42.33300 37.26000 26.47200
C  41.95700 38.67500 26.11500
C  42.49900 36.20000 28.85900
C  42.75800 36.17400 25.45600
O  42.66500 36.28700 24.25100
C  43.18900 34.80500 25.97300
N  41.64100 41.62400 25.13400
C  41.83900 40.49400 24.35600
C  41.98400 40.90300 22.83700
C  41.69100 42.43400 22.82100
C  41.61500 42.80600 24.36000
C  43.39200 40.57900 22.15300
C  40.36300 42.77500 22.03900
C  39.10200 42.05800 22.53800
N  41.05700 43.56000 27.08800
C  41.04000 44.49600 26.06300
C  40.82100 45.79800 26.60400
C  40.73300 45.62500 27.99200
C  40.96000 44.24600 28.24300
C  40.73800 47.00600 25.88900
C  40.71800 46.36300 29.23300
O  40.49800 47.52900 29.53100
C  40.73100 45.19900 30.38900
C  41.84000 45.48100 31.30600
O  43.06200 45.47600 31.04100
O  41.37000 45.80400 32.56100
C  42.32100 45.93000 33.67400
H  42.09800 38.40300 30.32500
H  42.20100 38.54000 24.05400
H  41.23600 44.83200 23.98200
H  41.59600 42.85000 32.13200
H  40.78000 39.95700 32.06100
H  43.21000 41.50200 32.75500
H  43.63100 40.15200 31.60800
H  42.72900 39.83000 33.09200
H  38.82500 41.37300 32.04400
H  38.95300 43.09100 31.86800
H  40.26000 42.29900 34.23900
H  38.94100 41.27600 34.24400
H  41.83500 35.37200 28.61100
H  42.52300 36.52100 29.90100
H  43.55700 35.96600 28.74200
H  44.12800 34.89600 26.51800
H  43.19800 34.06400 25.17300
H  42.34400 34.58700 26.62600
H  41.15200 40.36700 22.38200
H  42.48500 42.98000 22.31100
H  43.26300 40.31000 21.10400
H  44.04900 39.99400 22.79600
H  43.93800 41.49800 21.94300
H  40.46000 42.58800 20.97000
H  40.16500 43.82900 22.23100
H  39.36200 41.56300 23.47400
H  38.93100 41.37600 21.70500
H  38.30200 42.79700 22.50400
H  40.39300 47.82100 26.52400
H  40.00000 46.83600 25.10500
H  41.67100 47.40400 25.49100
H  39.90200 45.20600 31.09600
H  42.27300 46.99600 33.90000
H  43.35000 45.68600 33.41100
H  42.07300 45.31300 34.53700
Mg 25.95300 53.08400 26.11700
C  23.69900 53.98300 28.90100
C  28.31300 52.65100 28.45400
C  28.05700 52.72800 23.49300
C  23.39700 53.95700 23.90300
N  25.89600 53.27000 28.46400
C  24.91000 53.47900 29.36700
C  25.40100 53.21200 30.78600
C  26.83600 52.68300 30.53500
C  27.06500 52.89900 29.04900
C  27.95200 53.34000 31.35200
C  24.47700 52.30200 31.61800
C  25.05900 51.67600 32.95200
H  24.42300 52.02100 34.40300
N  27.93400 52.79000 25.96900
C  28.73500 52.60200 27.02700
C  30.07800 52.33200 26.61000
C  30.04500 52.37200 25.16600
C  28.64300 52.60800 24.77300
C  31.21100 52.05500 27.66400
C  31.18400 52.17900 24.15700
O  31.09800 52.29100 22.96700
C  32.61000 51.92700 24.72700
N  25.67400 53.48400 24.00100
C  26.71200 53.11000 23.18800
C  26.25900 53.23600 21.70600
C  24.69700 53.42200 21.77600
C  24.57500 53.61400 23.30700
C  26.93500 54.41000 20.87300
C  23.86900 52.21300 21.27900
C  22.54100 52.60200 20.48800
N  23.99000 53.87100 26.31000
C  23.04700 54.10200 25.24900
C  21.80700 54.66000 25.91000
C  22.03300 54.63700 27.26900
C  23.37900 54.14800 27.47500
C  20.66300 55.06800 25.16900
C  21.42000 54.78400 28.56600
O  20.34500 55.21400 28.82200
C  22.48400 54.34300 29.64000
C  22.65500 55.49400 30.59300
O  23.26000 56.57000 30.39200
O  22.18000 55.07700 31.82900
C  22.42200 56.16600 32.83900
H  29.11700 52.35400 29.13100
H  28.70300 52.54300 22.63200
H  22.57600 54.13700 23.20700
H  25.40800 54.18400 31.28100
H  26.94300 51.61900 30.74400
H  27.67500 53.65100 32.35900
H  28.46000 54.16000 30.84400
H  28.64000 52.54500 31.63900
H  23.93900 51.51200 31.09500
H  23.65000 52.94900 31.91000
H  26.13700 51.82900 33.01600
H  24.91100 50.60700 32.80200
H  31.44100 50.99200 27.74300
H  31.00800 52.54700 28.61500
H  32.21700 52.39700 27.42200
H  33.24900 51.58100 23.91500
H  32.54200 51.14900 25.48700
H  32.78100 52.87200 25.24400
H  26.46800 52.24900 21.29400
H  24.29400 54.29600 21.26300
H  27.67200 54.04800 20.15700
H  27.42300 55.03100 21.62500
H  26.16100 55.05100 20.45200
H  23.45100 51.64100 22.10700
H  24.35700 51.49900 20.61500
H  22.38900 53.66800 20.32000
H  21.66800 52.27700 21.05300
H  22.57100 52.20600 19.47300
H  20.88400 55.34300 24.13700
H  20.28800 56.00300 25.58600
H  19.79000 54.41800 25.21200
H  22.19600 53.50500 30.27500
H  23.47100 56.05700 33.11400
H  21.85900 55.98600 33.75500
H  22.23000 57.17500 32.47300

