158

Mg 1.15400 7.59100 25.92900
C  1.70600 9.63300 28.69100
C  1.47600 4.79000 28.00500
C  0.91100 5.60900 23.15600
C  1.65800 10.39100 23.86800
N  1.60700 7.28900 28.09700
C  1.64500 8.28500 29.06600
C  1.56500 7.63100 30.41900
C  1.91800 6.09300 30.15900
C  1.69600 6.03800 28.68600
C  3.35700 5.60700 30.60900
C  0.23000 7.93400 31.16100
C  0.34100 8.33700 32.62400
H  1.58700 7.89800 33.51700
N  1.08700 5.52700 25.65200
C  1.19900 4.52600 26.62000
C  1.06000 3.26700 26.02800
C  0.85700 3.45700 24.60200
C  0.89600 4.87700 24.38100
C  1.00200 1.92600 26.82300
C  0.79000 2.41800 23.50500
O  0.78700 2.77100 22.36100
C  0.65900 0.89300 23.79800
N  1.29100 7.96500 23.72200
C  1.03700 6.97100 22.87100
C  0.98000 7.55500 21.44800
C  1.41200 9.03000 21.67800
C  1.38800 9.21600 23.16000
C  1.78100 6.77300 20.37000
C  0.56900 10.06300 20.95600
C  -0.66200 10.52600 21.68800
N  1.54100 9.58100 26.17100
C  1.70900 10.59100 25.26100
C  1.88200 11.85100 25.91800
C  1.83800 11.52500 27.32300
C  1.71500 10.14900 27.39700
C  2.14200 13.16800 25.32600
C  1.95800 12.05000 28.64200
O  2.33800 13.17400 28.98500
C  1.83500 10.87400 29.60500
C  3.01800 10.79300 30.49700
O  4.10700 10.20900 30.32100
O  2.73400 11.47500 31.66900
C  3.93100 11.92300 32.45700
H  1.46100 3.92300 28.66800
H  0.80000 5.03700 22.23300
H  1.80200 11.25700 23.21900
H  2.34100 8.15100 30.98000
H  1.18000 5.44500 30.63200
H  3.93300 6.46200 30.96300
H  3.78800 5.07600 29.76000
H  3.29700 4.94700 31.47400
H  -0.38600 7.05000 31.33200
H  -0.28700 8.71300 30.60200
H  -0.56600 7.96600 33.10300
H  0.30300 9.42400 32.70500
H  0.06700 1.62000 27.29300
H  1.69300 2.08800 27.65000
H  1.41500 1.07500 26.28300
H  0.40500 0.53000 22.80200
H  -0.15500 0.68100 24.49100
H  1.64200 0.54800 24.12100
H  -0.04400 7.59700 21.07600
H  2.40700 9.19200 21.26400
H  2.17500 5.84200 20.77800
H  2.57500 7.40900 19.97900
H  1.04000 6.37900 19.67500
H  0.12500 9.74900 20.01100
H  1.25500 10.87600 20.71700
H  -0.53400 11.58900 21.89300
H  -0.84600 9.92000 22.57500
H  -1.51700 10.33500 21.04100
H  1.39400 13.38700 24.56400
H  3.18400 13.33300 25.05100
H  2.08100 13.91900 26.11300
H  0.92400 10.98100 30.19400
H  4.51500 12.40400 31.67200
H  4.34600 10.99100 32.84000
H  3.43500 12.46300 33.26400
Mg -0.06200 43.61400 25.51000
C  2.05500 43.12500 28.21100
C  -2.52400 42.37700 27.39300
C  -2.07700 44.07000 22.84300
C  2.68300 44.07200 23.45600
N  -0.24700 42.90200 27.56200
C  0.73100 42.95000 28.55100
C  0.22300 42.56800 29.90500
C  -1.16700 41.97400 29.58900
C  -1.31200 42.41500 28.07100
C  -1.21200 40.42600 29.90500
C  0.13700 43.94600 30.72400
C  0.34000 43.93400 32.26800
H  0.28100 42.48500 32.92600
N  -2.02900 43.24800 25.18500
C  -2.91000 42.70400 26.07400
C  -4.17600 42.58300 25.45200
C  -4.16400 43.27700 24.18900
C  -2.70400 43.58400 24.03000
C  -5.44000 42.00700 26.19100
C  -5.21400 43.80600 23.33000
O  -5.04600 44.54300 22.38300
C  -6.59900 43.26800 23.48500
N  0.24500 43.97200 23.45400
C  -0.77400 44.38100 22.61400
C  -0.24800 44.85200 21.21700
C  1.29700 44.82100 21.49600
C  1.42600 44.21300 22.91400
C  -0.72600 43.88500 20.06300
C  2.16600 46.07800 21.33200
C  2.17000 47.17900 22.45800
N  1.96900 43.62200 25.73500
C  2.99700 43.74400 24.78400
C  4.29600 43.55300 25.47700
C  3.96900 43.28200 26.76400
C  2.53200 43.29300 26.88600
C  5.68700 43.72000 24.86100
C  4.57700 43.00800 28.08300
O  5.75900 42.84500 28.33900
C  3.28500 42.92600 29.05400
C  3.34100 41.64100 29.68000
O  2.70400 40.63100 29.39500
O  4.33600 41.67800 30.58800
C  4.94900 40.44400 30.97000
H  -3.26700 41.84100 27.98700
H  -2.74000 44.16900 21.98100
H  3.55400 44.24600 22.82100
H  0.79500 41.77200 30.38200
H  -1.91900 42.49000 30.18600
H  -2.14700 40.32800 30.45600
H  -0.46000 40.00900 30.57500
H  -1.23900 39.74000 29.05800
H  -0.84700 44.36800 30.52400
H  0.80300 44.67600 30.26400
H  -0.32100 44.57400 32.85200
H  1.36500 44.24000 32.48100
H  -5.10400 41.46900 27.07700
H  -5.78600 41.19500 25.55200
H  -6.28000 42.69800 26.26300
H  -7.06400 43.65100 24.39300
H  -6.53700 42.18300 23.39300
H  -7.23900 43.54500 22.64700
H  -0.50500 45.89300 21.02100
H  1.63700 44.09700 20.75500
H  0.12500 43.48900 19.50800
H  -1.37500 44.53300 19.47500
H  -1.23100 43.00700 20.46500
H  1.80700 46.49400 20.39100
H  3.20300 45.78100 21.18100
H  3.19200 47.37300 22.78100
H  1.50600 47.03500 23.31000
H  1.80200 48.08000 21.96600
H  5.75800 44.59100 24.21000
H  6.04500 42.85700 24.30000
H  6.35500 44.06500 25.65100
H  3.25200 43.66500 29.85500
H  4.81500 39.60000 30.29300
H  4.47800 40.11200 31.89600
H  6.02100 40.59500 31.09400

