158

Mg 30.29600 58.96800 40.59400
C  27.31600 57.53700 39.29800
C  32.03700 56.38400 39.38100
C  33.06600 60.92500 40.91000
C  28.28900 61.94000 41.06300
N  29.73900 57.16400 39.57000
C  28.53900 56.80600 39.07900
C  28.62800 55.49300 38.27900
C  30.06200 55.03700 38.54600
C  30.68200 56.23900 39.24700
C  30.32400 53.72700 39.32900
C  28.15300 55.67200 36.77500
C  27.01800 54.75400 36.23300
H  26.13600 55.43300 35.30400
N  32.31900 58.54200 40.35900
C  32.86600 57.41700 39.92700
C  34.24500 57.43300 40.17600
C  34.62400 58.80800 40.63000
C  33.32200 59.53600 40.63300
C  35.10300 56.26200 40.07500
C  35.94300 59.27800 41.15000
O  36.94600 58.59700 41.14800
C  36.10700 60.67500 41.68300
N  30.64400 61.18400 40.73800
C  31.90600 61.65500 40.92500
C  31.89900 63.17000 41.13900
C  30.36200 63.51500 41.27100
C  29.70500 62.12900 41.07200
C  32.80000 63.86300 42.23100
C  29.92900 64.52000 40.20600
C  29.50100 65.94000 40.74600
N  28.17000 59.60900 40.45000
C  27.58000 60.78100 40.70000
C  26.11800 60.63700 40.48700
C  25.98400 59.31500 40.01700
C  27.26300 58.77700 39.97800
C  25.11400 61.73400 40.63900
C  25.05500 58.40900 39.42100
O  23.87100 58.59700 39.09900
C  25.86800 57.16100 38.95200
C  25.39500 56.02700 39.77200
O  25.55800 55.81500 40.93500
O  24.80600 55.13200 38.84900
C  24.15200 53.97400 39.39800
H  32.58200 55.48100 39.09800
H  33.82800 61.63900 41.23000
H  27.74700 62.88700 41.10500
H  27.99000 54.84500 38.88100
H  30.61400 54.81600 37.63300
H  30.92000 53.94200 40.21600
H  30.90300 53.02200 38.73200
H  29.31500 53.36300 39.52400
H  29.04700 55.32100 36.25900
H  27.88900 56.70500 36.54700
H  26.50500 54.28200 37.07100
H  27.54100 53.92800 35.75100
H  35.08700 55.87700 39.05500
H  34.87900 55.44400 40.75900
H  36.13000 56.56600 40.27700
H  37.02700 60.66400 42.26800
H  35.34600 60.62600 42.46200
H  36.07700 61.49000 40.96100
H  32.22200 63.55500 40.17200
H  30.20700 63.89400 42.28200
H  32.15500 64.33200 42.97500
H  33.36400 64.68700 41.79500
H  33.52000 63.15500 42.64100
H  29.00400 64.16100 39.75400
H  30.62700 64.60900 39.37400
H  29.58500 65.92000 41.83300
H  28.48900 66.18200 40.42200
H  30.10300 66.71500 40.27100
H  24.62800 62.06300 39.72000
H  25.51200 62.61300 41.14600
H  24.30800 61.30500 41.23400
H  25.68000 56.95000 37.89900
H  23.60000 54.31100 40.27500
H  25.00900 53.36400 39.68400
H  23.63500 53.56100 38.53300
Mg 26.21200 51.77300 26.65100
C  23.80400 51.91100 29.29900
C  28.48800 50.47700 28.83000
C  28.33900 51.83600 24.05900
C  23.59400 52.36000 24.34200
N  26.13000 51.26500 28.83700
C  25.07100 51.47200 29.71300
C  25.52000 51.06800 31.07700
C  27.05700 50.77300 30.94100
C  27.29100 50.88200 29.42200
C  28.03100 51.42200 31.80700
C  24.71300 49.86400 31.66800
C  24.00100 50.05800 33.02600
H  24.74000 50.92000 34.13800
N  28.17700 51.28000 26.47600
C  28.89500 50.70100 27.50400
C  30.26800 50.53300 26.97500
C  30.32200 51.10200 25.66500
C  28.89000 51.45600 25.31700
C  31.39100 49.85900 27.74200
C  31.50200 51.28600 24.74700
O  31.33600 51.90000 23.67600
C  32.85800 50.81500 25.06100
N  25.97700 52.21800 24.48700
C  27.02200 52.06000 23.65400
C  26.60100 52.10900 22.11700
C  25.01800 51.92100 22.27600
C  24.86200 52.23500 23.78500
C  27.12300 53.32000 21.32800
C  24.43400 50.52700 21.94300
C  23.65900 50.42000 20.67500
N  24.17500 52.10300 26.75100
C  23.25100 52.34600 25.72700
C  22.03000 52.62700 26.34800
C  22.18600 52.45700 27.67300
C  23.50800 52.16900 27.92400
C  20.79600 52.93900 25.55900
C  21.48400 52.53600 28.95600
O  20.33200 53.01000 29.09000
C  22.46100 52.19800 30.06600
C  22.58200 53.39500 30.96200
O  23.19200 54.41300 30.72600
O  21.82300 53.20900 32.08500
C  21.76000 54.31700 33.12900
H  29.25800 49.97900 29.42200
H  29.02200 51.79200 23.20700
H  22.76500 52.34400 23.63100
H  25.40900 51.91300 31.75700
H  27.19900 49.71800 31.17700
H  28.90400 51.75000 31.24300
H  28.23900 50.76600 32.65200
H  27.44400 52.14000 32.37900
H  25.27200 48.93900 31.81000
H  23.91200 49.62800 30.96700
H  23.90800 49.09100 33.51900
H  22.98400 50.43100 32.90100
H  31.18300 49.42200 28.71800
H  32.17000 50.61800 27.81600
H  31.84400 49.07800 27.13200
H  32.85800 49.76500 25.35400
H  33.32100 51.41800 25.84100
H  33.51000 50.85300 24.18800
H  26.99500 51.20000 21.66400
H  24.50900 52.58800 21.58000
H  27.81100 52.83300 20.63700
H  27.75400 53.90000 22.00100
H  26.36600 53.97300 20.89400
H  23.79600 50.13700 22.73600
H  25.21400 49.77800 21.80700
H  24.07000 49.80300 19.87500
H  23.37700 51.35400 20.18900
H  22.68600 49.99500 20.92000
H  20.48100 51.95500 25.21100
H  21.07000 53.48000 24.65300
H  19.99700 53.38300 26.15200
H  22.06700 51.40300 30.70000
H  21.65900 55.28900 32.64500
H  22.73300 54.55500 33.55800
H  20.98100 54.22700 33.88700

