158

Mg 24.66700 1.23600 29.86500
C  26.89600 1.33400 32.58900
C  22.10800 1.63100 32.03600
C  22.77500 1.01500 27.20500
C  27.46500 0.74600 27.82100
N  24.55600 1.50600 32.06300
C  25.53700 1.49000 32.98800
C  24.99600 1.66200 34.39900
C  23.45500 1.58000 34.22500
C  23.30100 1.65400 32.68300
C  22.71600 0.33500 34.85500
C  25.36000 2.96200 35.11000
C  26.01200 2.84400 36.53400
H  25.57300 3.79200 37.58900
N  22.73100 1.41400 29.64000
C  21.81500 1.61300 30.64900
C  20.50000 1.71900 30.05000
C  20.68200 1.38700 28.66900
C  22.13600 1.22600 28.48200
C  19.17900 2.02900 30.80800
C  19.60200 1.32200 27.58300
O  19.80800 0.95000 26.45300
C  18.18200 1.68800 27.86000
N  25.12000 0.87000 27.73100
C  24.09400 0.89500 26.90400
C  24.57700 0.84000 25.49900
C  26.14800 0.91700 25.58500
C  26.29700 0.91400 27.10300
C  23.94300 -0.35700 24.62600
C  26.77600 2.18200 24.98800
C  26.58300 3.50400 25.80000
N  26.74300 1.00000 30.07600
C  27.72900 0.80300 29.19300
C  29.04100 0.64200 29.83500
C  28.74500 0.97600 31.14400
C  27.37500 1.09700 31.29100
C  30.38700 0.39500 29.18800
C  29.29800 1.11600 32.50100
O  30.49200 0.98100 32.90300
C  28.06600 1.28500 33.49000
C  27.93900 0.18600 34.49100
O  27.48500 -0.95200 34.37200
O  28.62200 0.51500 35.66100
C  28.73800 -0.41200 36.80200
H  21.17100 1.77600 32.57900
H  22.24300 1.20300 26.27100
H  28.30900 0.69900 27.13000
H  25.29300 0.78200 34.97000
H  22.82700 2.38200 34.61200
H  21.82200 0.57300 35.43300
H  23.39500 -0.06300 35.60900
H  22.51100 -0.43800 34.11500
H  24.52900 3.66600 35.13700
H  26.11400 3.38500 34.44500
H  27.06400 2.96300 36.27400
H  25.78000 1.83000 36.85900
H  18.59400 1.11300 30.72600
H  18.63900 2.80300 30.26200
H  19.24500 2.32000 31.85600
H  17.64600 1.63600 26.91300
H  18.24300 2.71800 28.21000
H  17.71300 0.94700 28.50700
H  24.26300 1.79100 25.07000
H  26.54500 0.03100 25.08900
H  23.23300 -0.90500 25.24600
H  24.65000 -1.17600 24.49200
H  23.58400 -0.08500 23.63400
H  26.31300 2.22500 24.00200
H  27.85000 2.12800 24.80900
H  25.59200 3.80900 25.46300
H  27.30900 4.21700 25.40800
H  26.58400 3.46000 26.88900
H  31.10300 0.60000 29.98300
H  30.52500 1.10700 28.37400
H  30.42500 -0.68200 29.02400
H  28.23900 2.15000 34.13000
H  29.63600 -0.26600 37.40300
H  28.69000 -1.48300 36.60500
H  27.87600 -0.19300 37.43300
Mg 47.77400 25.76300 28.06700
C  48.53800 28.07200 30.65600
C  46.29800 23.69800 30.54600
C  47.20400 23.50300 25.63200
C  49.33500 27.87000 25.77200
N  47.52500 25.94000 30.33300
C  47.79600 26.97400 31.11500
C  47.37100 26.69900 32.49200
C  46.66300 25.27800 32.52300
C  46.82300 24.94100 31.04300
C  47.30300 24.23600 33.48300
C  46.42400 27.81800 33.02100
C  45.71200 27.45400 34.34200
H  45.53300 28.46000 35.45500
N  46.84400 23.92700 28.07800
C  46.29900 23.24800 29.16600
C  45.84500 21.89800 28.71000
C  46.09500 21.89400 27.31200
C  46.78100 23.18300 26.93900
C  45.26200 20.84200 29.62100
C  45.84700 20.71900 26.24700
O  46.22800 20.78900 25.06800
C  44.96000 19.58800 26.59000
N  48.16900 25.70200 25.95100
C  47.80100 24.63100 25.22400
C  48.10800 24.92800 23.71400
C  48.67600 26.41100 23.74100
C  48.84400 26.68300 25.24900
C  49.18200 23.85800 23.20800
C  47.65800 27.41300 23.08300
C  48.03900 27.56900 21.52900
N  48.72600 27.51100 28.16900
C  49.32100 28.27300 27.13000
C  49.88900 29.53000 27.69900
C  49.59800 29.45900 29.09200
C  48.95600 28.21200 29.27500
C  50.71400 30.49000 26.93900
C  49.81300 30.13400 30.31900
O  50.49200 31.11100 30.57700
C  49.05800 29.27600 31.41900
C  49.87300 28.96000 32.63200
O  50.75500 28.10200 32.67400
O  49.42900 29.73200 33.74500
C  50.13500 29.41000 34.93000
H  45.84300 22.98600 31.23700
H  47.03700 22.79600 24.81700
H  49.67600 28.65200 25.09000
H  48.30000 26.80700 33.05200
H  45.59000 25.41300 32.66400
H  48.13300 24.58700 34.09700
H  47.64400 23.46000 32.79800
H  46.50500 23.76700 34.05800
H  45.72900 28.18900 32.26800
H  47.04100 28.66900 33.30900
H  46.19800 26.53900 34.67900
H  44.70300 27.16300 34.05100
H  45.27600 19.81300 29.26200
H  44.17800 20.93300 29.70200
H  45.65300 20.84400 30.63900
H  45.56900 18.84100 27.09900
H  44.62700 19.10400 25.67200
H  44.19700 20.02900 27.23300
H  47.20900 24.75700 23.12300
H  49.72900 26.47500 23.46700
H  50.16800 24.24000 22.94500
H  48.75600 23.34200 22.34800
H  49.36000 23.13700 24.00600
H  47.73900 28.35400 23.62700
H  46.64500 27.03300 23.21800
H  47.40300 26.94300 20.90300
H  49.03600 27.20000 21.28900
H  48.03700 28.58600 21.13500
H  51.61900 29.92400 26.71400
H  50.94100 31.22000 27.71600
H  50.40700 30.78600 25.93600
H  48.15800 29.77300 31.77900
H  51.12200 29.82700 34.72600
H  50.34400 28.38500 35.23400
H  49.79000 30.00000 35.77900

