158

Mg 35.64400 2.77700 29.41200
C  33.65500 3.95700 32.11100
C  38.22800 2.44000 31.46500
C  37.36000 2.15400 26.69000
C  32.72800 3.27900 27.38100
N  35.87400 3.32400 31.59300
C  34.91200 3.59300 32.54900
C  35.51700 3.57500 33.90000
C  37.03500 3.25400 33.63500
C  37.00800 2.84800 32.14600
C  37.96900 4.45500 33.95100
C  34.76600 2.64400 34.90000
C  34.32900 3.24100 36.27700
H  35.30000 4.16800 36.93900
N  37.57200 2.25100 29.12900
C  38.57500 2.21700 30.07200
C  39.84400 1.83500 29.49200
C  39.56300 1.75700 28.04000
C  38.10600 2.03300 27.88900
C  41.07700 1.54100 30.23200
C  40.37700 1.37100 26.85000
O  39.92800 1.09700 25.77000
C  41.86300 1.14700 27.15900
N  35.15700 2.74100 27.34300
C  36.07100 2.46700 26.41700
C  35.44700 2.39100 25.01600
C  33.97400 2.70600 25.29600
C  33.95000 2.90900 26.77400
C  36.08200 3.21800 23.92300
C  32.93000 1.58200 24.78100
C  31.62900 2.18000 24.17500
N  33.62100 3.60100 29.56300
C  32.58400 3.70400 28.68900
C  31.43100 4.35400 29.39900
C  31.81900 4.39700 30.68900
C  33.15200 3.97300 30.79100
C  30.02500 4.50200 28.95800
C  31.29900 4.76500 31.96200
O  30.26600 5.24500 32.38900
C  32.52600 4.43400 33.01900
C  32.77800 5.74700 33.77300
O  33.55600 6.60300 33.47100
O  31.95500 5.81000 34.86700
C  31.93700 7.04400 35.66300
H  39.00900 2.28000 32.21200
H  37.92000 1.92500 25.78100
H  31.81600 3.35100 26.78500
H  35.46400 4.61300 34.23000
H  37.39700 2.38500 34.18400
H  37.57800 5.24200 34.59600
H  38.04100 4.96800 32.99200
H  38.92600 4.11100 34.34200
H  35.40500 1.77200 35.03900
H  33.84400 2.31500 34.42000
H  34.24500 2.38900 36.95200
H  33.38100 3.75100 36.10700
H  41.44300 0.58000 29.87300
H  40.99800 1.38700 31.30800
H  41.75400 2.38900 30.12400
H  42.19700 2.01300 27.73000
H  42.24400 1.25200 26.14400
H  42.05600 0.18700 27.63900
H  35.63500 1.32800 24.86900
H  33.76200 3.69800 24.89600
H  35.25600 3.70700 23.40600
H  36.67200 2.61600 23.23300
H  36.68500 4.02200 24.34600
H  32.51200 0.91400 25.53500
H  33.37300 1.01600 23.96200
H  30.81900 1.85100 24.82600
H  31.45100 1.92900 23.12900
H  31.61100 3.27000 24.18300
H  29.75600 3.60500 28.40100
H  29.67400 5.41700 28.48100
H  29.21100 4.43500 29.68000
H  32.09600 3.70200 33.70200
H  32.82200 7.68000 35.64800
H  31.85100 6.55000 36.63100
H  31.03600 7.62900 35.48000
Mg 26.38000 50.05400 26.20600
C  24.47100 51.02700 28.91000
C  28.59800 48.72100 28.47100
C  28.44000 49.31300 23.55100
C  24.31400 51.72200 24.02700
N  26.50900 49.83400 28.40300
C  25.58600 50.29400 29.28600
C  25.91300 49.92800 30.75200
C  27.32200 49.31500 30.59000
C  27.53200 49.32100 29.05800
C  28.37200 50.06500 31.54700
C  24.86900 48.94100 31.26800
C  24.53300 48.95100 32.74700
H  25.36300 49.60500 33.87200
N  28.22800 49.13300 26.02300
C  28.99900 48.66700 27.08700
C  30.17400 48.01500 26.53400
C  30.14700 48.13700 25.09300
C  28.88800 48.84300 24.80400
C  31.23100 47.38300 27.44800
C  31.18900 47.65200 24.08300
O  31.08000 47.81000 22.90000
C  32.50500 47.08400 24.57900
N  26.35700 50.40300 24.11500
C  27.29900 49.99000 23.19600
C  26.93200 50.36600 21.73000
C  25.48700 50.94800 21.90300
C  25.40100 51.08100 23.45200
C  27.99400 51.34500 21.02600
C  24.33300 50.00600 21.48700
C  23.14400 50.67100 20.78000
N  24.76700 51.16400 26.39800
C  24.03400 51.78700 25.41200
C  22.92800 52.43500 25.99000
C  23.09700 52.19100 27.38900
C  24.21300 51.47100 27.58800
C  21.94200 53.28000 25.18400
C  22.53000 52.61300 28.66500
O  21.54500 53.31800 28.89000
C  23.48300 51.89500 29.73800
C  24.01600 52.92100 30.62600
O  25.04600 53.60000 30.33100
O  23.29500 53.03400 31.77700
C  23.62000 54.13300 32.71600
H  29.27300 48.20100 29.15300
H  29.04400 49.16500 22.65400
H  23.71000 52.28100 23.31000
H  25.94200 50.89400 31.25600
H  27.26900 48.28800 30.95000
H  29.12100 50.33900 30.80300
H  28.90000 49.38300 32.21400
H  27.94500 50.94000 32.03600
H  25.21600 47.92200 31.09800
H  23.89800 48.96500 30.77300
H  24.50100 47.95800 33.19700
H  23.50900 49.29300 32.89900
H  32.13100 47.99500 27.38900
H  31.51800 46.42700 27.00900
H  30.81100 47.28000 28.44900
H  33.18600 46.94200 23.74000
H  32.39400 46.15600 25.13900
H  32.87200 47.89300 25.21000
H  26.88800 49.40900 21.21000
H  25.52800 51.92400 21.42000
H  28.85800 51.66500 21.60800
H  27.43800 52.17300 20.58700
H  28.35400 50.72700 20.20300
H  23.85100 49.58600 22.37000
H  24.75400 49.21900 20.86100
H  23.24600 51.73900 20.58600
H  22.26800 50.43900 21.38700
H  23.11800 50.10400 19.84900
H  21.42300 52.50200 24.62500
H  22.39800 54.02400 24.53000
H  21.25200 53.84100 25.81400
H  22.91000 51.25400 30.40800
H  23.85200 55.02800 32.13900
H  24.46200 53.70900 33.26400
H  22.82800 54.36600 33.42900

