158

Mg 48.05600 34.02400 26.77700
C  46.21500 32.76700 29.40000
C  48.35400 37.01600 28.63100
C  49.18400 35.57900 24.07900
C  47.23600 31.24000 24.93400
N  47.29700 34.85200 28.68100
C  46.84700 33.97500 29.65500
C  46.91400 34.63100 31.06200
C  47.11700 36.05700 30.65800
C  47.64100 35.99500 29.25700
C  45.94000 37.04400 30.91000
C  48.12600 34.05300 31.86100
C  48.14300 34.03200 33.40100
H  47.41100 35.09400 34.15600
N  48.67600 36.06300 26.38900
C  48.85600 37.04600 27.32300
C  49.49000 38.12700 26.62800
C  49.66200 37.79800 25.20200
C  49.15700 36.41900 25.16100
C  49.69900 39.42800 27.23000
C  50.13600 38.63500 23.99300
O  50.09000 38.26300 22.80500
C  50.76300 39.93000 24.34500
N  48.08400 33.54800 24.69400
C  48.74400 34.32000 23.81600
C  48.79300 33.60600 22.39500
C  48.29200 32.17900 22.73600
C  47.78800 32.37400 24.18100
C  47.98100 34.46500 21.36700
C  49.41900 31.10800 22.85300
C  48.88400 29.68800 22.61800
N  47.09100 32.21000 27.10600
C  46.79600 31.20600 26.26000
C  45.92600 30.19900 26.88100
C  45.67500 30.84800 28.14400
C  46.38400 32.05500 28.17700
C  45.40800 28.89600 26.35000
C  44.95400 30.65200 29.40400
O  44.25200 29.75000 29.80400
C  45.24300 31.94000 30.25100
C  45.48900 31.67700 31.67800
O  46.25800 30.83700 32.15400
O  44.71100 32.51900 32.45500
C  44.58800 32.24800 33.87000
H  48.41300 37.88900 29.28400
H  49.56100 35.85100 23.09100
H  46.92000 30.31000 24.45700
H  45.96900 34.60300 31.60400
H  47.89700 36.46500 31.30100
H  45.96800 37.86100 30.18800
H  46.05600 37.48000 31.90200
H  44.97700 36.53400 30.91100
H  49.08600 34.54900 31.72100
H  48.15900 32.98000 31.67200
H  49.18600 34.07000 33.71600
H  47.77000 33.06200 33.73000
H  50.62100 39.86200 26.84400
H  49.84000 39.29300 28.30300
H  48.82200 40.07100 27.16200
H  51.66300 39.73700 24.92900
H  49.96100 40.50600 24.80600
H  50.93900 40.43900 23.39800
H  49.84300 33.50500 22.12100
H  47.43100 31.89100 22.13200
H  47.02100 34.61300 21.86200
H  47.83900 33.91400 20.43700
H  48.38800 35.46400 21.21300
H  49.87300 31.11400 23.84300
H  50.09600 31.44600 22.06800
H  49.45500 29.12400 21.88000
H  47.90100 29.70900 22.14700
H  48.79800 29.17700 23.57700
H  45.73800 28.50200 25.38900
H  44.33300 29.07500 26.38600
H  45.80900 28.21000 27.09700
H  44.34000 32.54800 30.18900
H  45.51000 32.60000 34.33300
H  44.49900 31.20400 34.17100
H  43.81700 32.83400 34.36900
Mg 17.16400 51.52900 25.74100
C  18.90800 50.60300 28.49000
C  14.57100 52.66800 27.80600
C  15.29700 51.93600 23.03500
C  19.74900 50.56600 23.71000
N  16.82400 51.68000 27.95900
C  17.70000 51.25300 28.91400
C  17.21700 51.50500 30.28900
C  15.80200 52.14200 30.06600
C  15.67900 52.18200 28.50900
C  14.60900 51.39600 30.74600
C  18.14700 52.30700 31.21800
C  18.23200 51.73000 32.61100
H  17.08000 50.90000 33.20200
N  15.27100 52.28600 25.39100
C  14.35500 52.73600 26.37900
C  13.08200 53.08600 25.74800
C  13.30900 52.96600 24.32200
C  14.62200 52.35600 24.14500
C  11.86300 53.60300 26.53000
C  12.43700 53.39700 23.19400
O  12.77900 53.34000 22.01400
C  11.04500 53.87300 23.47200
N  17.52400 51.46300 23.64800
C  16.56800 51.46300 22.79600
C  16.97800 51.09600 21.36600
C  18.50700 50.88800 21.53200
C  18.64200 51.03900 23.05900
C  16.03400 50.05400 20.72900
C  19.56100 51.92800 20.89500
C  20.80500 51.15800 20.26000
N  18.90000 50.70800 26.00800
C  19.89100 50.40100 25.10200
C  20.98000 49.76700 25.80200
C  20.65300 49.84200 27.10900
C  19.42700 50.48800 27.24400
C  22.05900 48.97000 25.17100
C  20.94800 49.33800 28.39100
O  21.98000 48.75400 28.76700
C  19.79900 49.79400 29.42200
C  19.14100 48.62800 30.04400
O  18.18000 48.00600 29.55900
O  19.79600 48.24500 31.21700
C  19.15300 47.22100 32.11300
H  13.79400 53.04200 28.47600
H  14.70200 52.03900 22.12500
H  20.61500 50.19700 23.15600
H  17.13100 50.50700 30.71700
H  15.70900 53.13100 30.51600
H  13.95000 51.12800 29.91900
H  14.06800 52.08000 31.40000
H  15.03600 50.58600 31.33700
H  17.78500 53.33500 31.20700
H  19.14200 52.28300 30.77300
H  18.34800 52.60000 33.25700
H  19.15600 51.15900 32.70000
H  11.54300 54.61700 26.28900
H  12.08600 53.63700 27.59600
H  11.11600 52.82900 26.35100
H  10.59600 53.96900 22.48400
H  10.96700 54.74600 24.12000
H  10.53900 53.09000 24.03600
H  16.82900 52.02600 20.81700
H  18.70300 49.85900 21.23100
H  15.41600 49.62800 21.52000
H  16.59800 49.24000 20.27400
H  15.38800 50.44600 19.94300
H  19.93500 52.62300 21.64700
H  19.09400 52.57100 20.15000
H  21.69800 51.14400 20.88400
H  21.06900 51.58400 19.29200
H  20.61600 50.14400 19.90800
H  22.35000 49.47900 24.25200
H  21.79200 47.91600 25.10800
H  22.86900 49.03300 25.89700
H  20.12400 50.27800 30.34300
H  18.65600 47.75700 32.92100
H  19.93300 46.61600 32.57700
H  18.51600 46.48200 31.62800

