158

Mg 29.48100 59.93400 41.06900
C  26.28200 58.75500 40.04200
C  30.88300 57.09400 39.67000
C  32.36700 61.47000 41.22700
C  27.76700 63.12400 41.66000
N  28.65000 58.20300 39.96600
C  27.34600 57.92400 39.63200
C  27.28400 56.67200 38.88300
C  28.74600 56.03100 39.12600
C  29.44900 57.19000 39.68900
C  28.74000 54.97300 40.21200
C  26.85600 56.77600 37.40100
C  26.06600 55.56600 36.85700
H  26.42900 55.08300 35.53000
N  31.37000 59.29000 40.73600
C  31.78100 58.11300 40.17800
C  33.22700 58.04000 40.19600
C  33.69300 59.28500 40.63000
C  32.46000 60.07300 40.97500
C  34.00100 56.86400 39.72700
C  35.13500 59.64200 40.81500
O  36.02100 58.84200 40.55100
C  35.67500 60.93100 41.35700
N  30.02200 62.06500 41.32600
C  31.34000 62.31400 41.40900
C  31.60800 63.77900 41.61200
C  30.17700 64.28600 42.02900
C  29.18400 63.15200 41.61600
C  32.59500 64.11500 42.77800
C  29.83600 65.59000 41.27300
C  30.06200 66.87000 42.16100
N  27.48900 60.83400 40.99200
C  26.97900 62.07000 41.29200
C  25.50800 61.94400 41.35900
C  25.20900 60.66400 40.88500
C  26.43000 60.04500 40.63000
C  24.44400 63.00900 41.72000
C  24.18800 59.74300 40.55300
O  22.96100 59.83600 40.72500
C  24.77900 58.45800 39.98700
C  24.42300 57.17500 40.60900
O  24.20800 56.90100 41.77600
O  24.08700 56.32000 39.63400
C  23.44200 54.96700 39.96600
H  31.31200 56.12400 39.41000
H  33.35100 61.94200 41.26600
H  27.36300 64.08400 41.98800
H  26.48600 56.00400 39.20700
H  29.18200 55.76000 38.16400
H  27.77300 54.83300 40.69600
H  29.44900 55.07400 41.03400
H  28.94400 54.01200 39.73900
H  27.81400 56.93500 36.90600
H  26.30700 57.66000 37.07800
H  25.01600 55.84200 36.76700
H  26.18900 54.62300 37.39000
H  34.52500 57.10100 38.80100
H  33.38000 55.96900 39.70300
H  34.76200 56.73100 40.49700
H  35.57000 61.71500 40.60800
H  36.73300 60.81800 41.59200
H  35.21600 61.29900 42.27500
H  31.93200 64.19400 40.65700
H  29.97200 64.41400 43.09200
H  32.73300 63.28400 43.47000
H  32.32600 65.04900 43.27200
H  33.52000 64.30600 42.23300
H  28.80500 65.67800 40.93100
H  30.48900 65.71500 40.41000
H  31.04700 67.29500 41.97100
H  30.11900 66.59800 43.21500
H  29.26200 67.60900 42.10000
H  24.26000 63.44100 40.73600
H  24.78700 63.76900 42.42200
H  23.60900 62.44600 42.13600
H  24.39200 58.44800 38.96800
H  23.51900 54.37300 39.05500
H  22.37700 55.12600 40.13800
H  23.89200 54.41000 40.78900
Mg 35.88200 49.83900 25.36300
C  35.40300 48.04500 28.36800
C  34.27600 52.55100 26.87700
C  35.85300 51.21900 22.41800
C  36.61500 46.75900 23.84900
N  34.85300 50.23500 27.36900
C  35.02400 49.36700 28.42500
C  34.49700 50.08100 29.72700
C  34.15200 51.56200 29.22200
C  34.46100 51.46500 27.71300
C  32.63900 52.04000 29.57200
C  35.56900 50.06900 30.93900
C  35.11600 49.36700 32.26400
H  33.62700 49.60200 32.58700
N  35.26100 51.58600 24.73700
C  34.56500 52.60300 25.51800
C  34.46700 53.83500 24.63300
C  34.85900 53.43600 23.33800
C  35.37200 52.03700 23.42200
C  33.96100 55.21500 25.13100
C  34.79500 54.18300 21.96200
O  35.12900 53.80600 20.85100
C  34.10900 55.56900 22.01100
N  36.27500 49.09500 23.45300
C  36.31900 49.92900 22.35400
C  36.80000 49.19900 21.04600
C  37.03200 47.77900 21.51600
C  36.60200 47.83500 23.01500
C  35.76600 49.25300 19.90000
C  38.47400 47.38700 21.36700
C  39.48200 48.20800 22.34400
N  36.05600 47.79300 25.89700
C  36.30700 46.69600 25.20100
C  36.34800 45.51500 26.05200
C  36.03000 46.02400 27.31800
C  35.81200 47.41900 27.15800
C  36.65000 44.15500 25.73600
C  35.84300 45.64300 28.68500
O  35.94200 44.53600 29.21300
C  35.30800 46.95500 29.43500
C  33.93400 46.60800 29.76200
O  33.05400 46.77200 28.89200
O  33.80800 46.06900 31.01500
C  32.44900 45.52600 31.32800
H  33.78100 53.38700 27.37400
H  35.76100 51.63800 21.41400
H  36.82300 45.81200 23.34600
H  33.57600 49.58300 30.03000
H  34.82700 52.34900 29.55800
H  32.02300 51.30600 30.09100
H  32.23100 52.25000 28.58400
H  32.64400 52.97200 30.13800
H  35.86400 51.08400 31.20600
H  36.50300 49.59600 30.63700
H  35.62700 49.83400 33.10600
H  35.31100 48.29500 32.23500
H  34.23200 56.07700 24.52100
H  34.38300 55.33800 26.12800
H  32.88300 55.06700 25.07600
H  34.80900 56.28400 22.44200
H  33.13200 55.59400 22.49300
H  33.84800 55.85000 20.99000
H  37.70300 49.66300 20.64900
H  36.47200 46.99800 21.00200
H  34.94800 49.95200 20.08000
H  35.34700 48.29200 19.60300
H  36.34100 49.65000 19.06400
H  38.76400 47.65500 20.35100
H  38.46700 46.31200 21.54900
H  40.11400 47.51500 22.90000
H  38.95100 48.87400 23.02500
H  40.17500 48.84400 21.79400
H  37.36000 43.70200 26.42700
H  37.12000 44.19200 24.75300
H  35.69400 43.63200 25.76500
H  35.87900 47.15800 30.34000
H  32.39600 44.50600 30.94800
H  31.62400 46.02300 30.81800
H  32.17200 45.64400 32.37500

