158

Mg 25.93800 -6.13500 47.19200
C  27.34300 -3.14700 46.05200
C  23.27300 -5.52200 44.97500
C  24.83900 -9.21100 47.88000
C  29.05000 -6.75600 48.84700
N  25.46800 -4.52200 45.60300
C  26.11700 -3.39700 45.31900
C  25.44900 -2.50600 44.21500
C  23.99600 -3.20900 44.24800
C  24.29600 -4.52200 44.92200
C  22.85200 -2.40600 44.89600
C  26.19700 -2.78300 42.87600
C  26.71700 -1.64900 41.96000
H  25.87000 -1.35600 40.72300
N  24.30900 -7.26800 46.47200
C  23.30200 -6.80900 45.68300
C  22.22600 -7.73200 45.73200
C  22.63200 -8.77200 46.52900
C  23.99200 -8.47600 46.98900
C  20.82400 -7.47000 45.06900
C  21.60300 -9.94900 46.77700
O  20.51400 -10.09400 46.34000
C  22.06300 -11.00800 47.63300
N  26.76800 -7.65900 48.30100
C  26.11000 -8.90100 48.41800
C  26.90600 -9.94500 49.26100
C  28.24600 -9.11400 49.61500
C  28.05600 -7.78200 48.78200
C  26.19900 -10.54700 50.50400
C  29.57400 -9.85500 49.12700
C  30.77300 -9.84000 50.20000
N  27.84100 -5.15800 47.40700
C  28.95800 -5.49500 48.12200
C  29.86300 -4.38400 48.13900
C  29.24500 -3.44900 47.36700
C  28.02600 -3.98600 46.92600
C  31.19100 -4.53900 48.74500
C  29.33200 -2.10800 46.96800
O  30.16400 -1.22400 47.21900
C  28.15600 -1.85000 45.89200
C  27.43200 -0.57100 46.22200
O  27.34200 0.37600 45.46900
O  26.86600 -0.65500 47.44700
C  25.92100 0.36300 47.83600
H  22.39600 -5.43000 44.33000
H  24.46700 -10.21600 48.08800
H  29.98600 -7.03200 49.33700
H  25.35800 -1.44700 44.45700
H  23.52400 -3.42500 43.28900
H  22.42600 -2.88800 45.77600
H  22.07600 -2.41300 44.13100
H  23.23800 -1.42500 45.17100
H  25.48800 -3.38600 42.30800
H  27.02100 -3.46200 43.09600
H  27.72400 -1.82100 41.58100
H  26.92800 -0.67700 42.40700
H  20.13800 -7.41700 45.91500
H  20.64100 -8.29400 44.38000
H  20.92400 -6.56100 44.47700
H  23.04100 -11.24700 47.21600
H  21.41400 -11.87200 47.49000
H  22.23400 -10.86500 48.70000
H  27.11600 -10.74000 48.54600
H  28.27400 -8.84200 50.67000
H  26.18700 -11.63400 50.57300
H  25.12900 -10.34700 50.46500
H  26.49600 -10.03100 51.41700
H  29.86600 -9.41300 48.17400
H  29.32400 -10.87600 48.83800
H  31.68100 -10.09100 49.65200
H  30.62800 -10.61500 50.95300
H  30.94100 -8.85800 50.64200
H  31.93600 -4.76900 47.98300
H  31.23700 -5.26700 49.55400
H  31.51100 -3.53500 49.02200
H  28.54900 -1.71100 44.88400
H  26.12400 0.52900 48.89400
H  24.90200 -0.01700 47.91100
H  25.96300 1.26700 47.22800
Mg -3.42700 34.65100 25.99500
C  -4.94400 32.71200 28.64400
C  -2.08900 36.64800 28.50100
C  -2.33400 36.73300 23.65500
C  -5.18700 32.70400 23.74200
N  -3.62400 34.63900 28.26200
C  -4.08400 33.66500 29.13200
C  -3.68300 33.98600 30.65700
C  -2.79100 35.30000 30.46300
C  -2.81400 35.53400 28.96600
C  -3.26600 36.52400 31.31300
C  -3.04300 32.81000 31.44600
C  -3.70200 32.40000 32.80200
H  -2.84200 32.47200 33.98700
N  -2.23300 36.32000 26.09200
C  -1.73500 36.97600 27.20800
C  -0.81700 38.07900 26.76100
C  -0.81900 37.99700 25.30600
C  -1.84700 37.01400 24.93300
C  -0.05000 38.94700 27.73200
C  0.06700 38.83900 24.32300
O  0.04800 38.74800 23.10400
C  0.97600 39.91700 24.89500
N  -3.88300 34.75400 24.07900
C  -3.32300 35.78200 23.27300
C  -3.87300 35.68400 21.81900
C  -4.40500 34.19900 21.77900
C  -4.50000 33.86000 23.24500
C  -4.93000 36.82800 21.48600
C  -3.45300 33.22300 21.04100
C  -2.13200 32.83400 21.68800
N  -4.83200 33.03900 26.15300
C  -5.45200 32.34700 25.10300
C  -6.24600 31.25700 25.62100
C  -6.13200 31.33500 27.06600
C  -5.24500 32.49000 27.29500
C  -7.08400 30.31800 24.85400
C  -6.40500 30.68500 28.29700
O  -7.01000 29.66200 28.59100
C  -5.73300 31.64200 29.37700
C  -6.78900 32.14400 30.27500
O  -7.80200 32.77500 30.01800
O  -6.50400 31.74000 31.60600
C  -7.57400 31.93600 32.60300
H  -1.57200 37.21400 29.27800
H  -2.08400 37.47300 22.89200
H  -5.51800 31.95900 23.01600
H  -4.60700 34.28300 31.15400
H  -1.79300 35.05400 30.82700
H  -2.44500 37.04100 31.80900
H  -3.92700 36.16800 32.10400
H  -3.82200 37.28000 30.75900
H  -2.07200 33.14400 31.81300
H  -2.92600 31.85800 30.92800
H  -4.09500 31.39800 32.62500
H  -4.62400 32.89700 33.10300
H  -0.44900 39.96000 27.68000
H  1.02300 38.94300 27.53800
H  -0.14900 38.58400 28.75500
H  1.56500 40.33400 24.07800
H  1.73200 39.43000 25.51000
H  0.47700 40.65300 25.52500
H  -3.00600 35.89200 21.19200
H  -5.39500 34.13400 21.32800
H  -4.37400 37.61600 20.97900
H  -5.46200 37.15800 22.37800
H  -5.73300 36.47300 20.84000
H  -3.16300 33.60200 20.06200
H  -4.13900 32.39600 20.85800
H  -1.94100 31.76400 21.77400
H  -1.97800 33.29100 22.66500
H  -1.33000 33.33500 21.14600
H  -7.46300 29.71600 25.68000
H  -6.47900 29.86900 24.06600
H  -7.98000 30.70100 24.36500
H  -5.08700 30.95700 29.92700
H  -7.26900 31.51000 33.55800
H  -8.42100 31.33700 32.27000
H  -7.92400 32.96400 32.70400

