158

Mg 17.56400 -2.00400 27.85200
C  16.22600 0.02800 30.50100
C  19.59700 -3.40500 30.11100
C  19.13600 -3.45300 25.37700
C  15.63200 0.01700 25.65100
N  17.86100 -1.65100 30.13100
C  17.21300 -0.88300 30.94300
C  17.60100 -1.18700 32.39600
C  18.96000 -1.94100 32.19300
C  18.78200 -2.39900 30.71100
C  20.19300 -0.98700 32.51500
C  16.51000 -1.71900 33.31600
C  16.23000 -0.83400 34.50700
H  17.31400 -0.34400 35.49500
N  18.96400 -3.47600 27.77800
C  19.65200 -3.97800 28.83000
C  20.59000 -5.01000 28.41600
C  20.35300 -5.09300 26.97100
C  19.47200 -3.97700 26.64300
C  21.55900 -5.71300 29.28400
C  20.94400 -6.09500 25.95000
O  20.63700 -6.00400 24.74300
C  21.92000 -7.22600 26.35600
N  17.46400 -1.67000 25.89500
C  18.25200 -2.38500 25.05900
C  18.04700 -1.92800 23.61700
C  16.89300 -0.98600 23.65700
C  16.56400 -0.86100 25.15500
C  19.23500 -1.31000 22.78500
C  15.61600 -1.28200 22.70700
C  15.21300 -0.09700 21.87800
N  16.11700 -0.37900 27.97500
C  15.38200 0.29700 27.03000
C  14.38400 1.14600 27.65900
C  14.69200 1.11100 29.03000
C  15.77400 0.19600 29.15800
C  13.26300 1.84400 26.97300
C  14.35100 1.62500 30.29100
O  13.59400 2.48300 30.67000
C  15.29900 0.88000 31.29300
C  15.89000 1.95700 32.09400
O  16.86100 2.61200 31.75900
O  15.17600 2.03600 33.23600
C  15.56700 3.13500 34.16400
H  20.40700 -3.63200 30.80700
H  19.50800 -3.82600 24.42000
H  14.99700 0.52900 24.92400
H  17.90900 -0.23900 32.83700
H  19.00800 -2.83200 32.81900
H  20.93100 -1.14700 31.72900
H  20.68000 -1.29800 33.43900
H  20.06500 0.09600 32.53200
H  16.83400 -2.72600 33.57800
H  15.52700 -1.83700 32.85900
H  15.49800 -1.32100 35.15100
H  15.63200 -0.00200 34.13400
H  21.30800 -6.77300 29.32400
H  21.66000 -5.36100 30.31100
H  22.51300 -5.40400 28.85800
H  22.87800 -6.80200 26.65700
H  22.15600 -7.88900 25.52300
H  21.43000 -7.78900 27.15100
H  17.81700 -2.79300 22.99500
H  17.22600 0.04800 23.56700
H  19.22900 -0.22100 22.76700
H  19.29200 -1.61900 21.74100
H  20.12500 -1.69000 23.28700
H  14.81800 -1.37900 23.44400
H  15.76400 -2.19500 22.12900
H  14.84800 -0.47000 20.92100
H  15.98500 0.64100 21.66200
H  14.34500 0.37900 22.33300
H  12.63100 2.23400 27.77100
H  12.60300 1.14100 26.46400
H  13.55600 2.66300 26.31600
H  14.58300 0.21600 31.77800
H  15.26000 4.09900 33.75900
H  16.64400 3.04200 34.30500
H  15.24000 2.98800 35.19300
Mg 25.51400 1.66800 29.73000
C  27.53600 1.74100 32.53000
C  22.74800 2.04700 31.80000
C  23.54500 1.83900 26.97100
C  28.25000 1.00300 27.72600
N  25.24100 1.82700 32.01700
C  26.20600 1.89700 32.94400
C  25.64700 2.02500 34.33100
C  24.05700 1.98600 34.10300
C  23.96600 1.91500 32.56300
C  23.42500 0.73500 34.82700
C  26.17500 3.38000 35.02200
C  26.89900 3.19000 36.40500
H  26.29800 4.10400 37.59800
N  23.46200 1.95800 29.39700
C  22.47500 2.08100 30.42300
C  21.17500 2.13100 29.76500
C  21.39600 2.00200 28.36800
C  22.87000 1.88300 28.17900
C  19.88700 2.30600 30.46500
C  20.33200 1.78900 27.32100
O  20.58800 1.54700 26.18300
C  18.89500 1.82000 27.65300
N  25.78300 1.39700 27.62800
C  24.87400 1.65700 26.65000
C  25.47300 1.69300 25.26500
C  26.98100 1.67100 25.55400
C  27.08700 1.27700 27.05200
C  24.94300 0.62100 24.28400
C  27.75100 2.92200 25.25100
C  27.46300 4.17100 26.09300
N  27.51500 1.37800 30.02500
C  28.47900 1.03400 29.11300
C  29.72400 0.85700 29.76900
C  29.45700 1.13300 31.14500
C  28.00900 1.41300 31.25400
C  31.14200 0.49400 29.14300
C  30.01900 1.27000 32.54600
O  31.18300 1.18400 32.91300
C  28.75800 1.57200 33.42500
C  28.70200 0.36400 34.27600
O  28.04100 -0.60300 34.11800
O  29.36400 0.70300 35.37400
C  29.46900 -0.31900 36.42700
H  21.85500 2.28800 32.38200
H  22.90600 1.94600 26.09200
H  29.05000 0.75400 27.02500
H  26.06700 1.17600 34.87000
H  23.55300 2.84600 34.54300
H  24.00600 -0.16800 35.01700
H  22.72900 0.38300 34.06500
H  22.66600 0.97200 35.57300
H  25.28300 3.97400 35.21900
H  26.82100 4.03000 34.43200
H  27.98100 3.28300 36.30900
H  26.59400 2.20700 36.76300
H  19.37900 3.23500 30.20400
H  20.12200 2.29500 31.53000
H  19.14100 1.51800 30.36300
H  18.61200 2.81800 27.98700
H  18.44600 0.98900 28.19700
H  18.37300 1.62400 26.71700
H  25.24100 2.68600 24.87900
H  27.45600 0.88900 24.96300
H  25.71200 -0.11100 24.03900
H  24.75700 1.13600 23.34200
H  23.97900 0.17000 24.51900
H  27.56700 3.10200 24.19200
H  28.79000 2.59100 25.25800
H  27.95800 3.98600 27.04600
H  26.37700 4.26300 26.09800
H  27.79600 5.07700 25.58500
H  31.93400 0.55600 29.89000
H  31.49600 1.11000 28.31700
H  31.07000 -0.54900 28.83300
H  28.83400 2.48600 34.01300
H  28.57400 -0.06100 36.99200
H  30.38700 -0.24300 37.00900
H  29.42000 -1.34800 36.07100

