158

Mg 45.21100 3.75800 48.02200
C  43.50000 6.65600 47.47200
C  42.37700 2.00300 47.36700
C  47.18200 1.05400 47.77000
C  48.19100 5.69600 47.94000
N  43.24000 4.25000 47.55500
C  42.69300 5.49000 47.39400
C  41.24800 5.42700 46.89500
C  40.81600 3.99100 47.44100
C  42.23500 3.40900 47.40200
C  40.28400 3.92100 48.84700
C  41.22700 5.56900 45.34700
C  40.02100 6.37700 44.89600
H  40.13100 6.79700 43.41100
N  44.80200 1.77100 47.72400
C  43.56100 1.24300 47.39000
C  43.72500 -0.20500 47.24400
C  45.07500 -0.56000 47.45900
C  45.78900 0.75700 47.68700
C  42.48000 -1.06500 46.93100
C  45.64600 -2.03700 47.52100
O  44.92800 -3.02100 47.29200
C  47.08600 -2.30700 47.88600
N  47.37200 3.44000 47.62600
C  47.87500 2.17600 47.82300
C  49.36700 2.17100 48.01800
C  49.68900 3.68600 47.63700
C  48.34700 4.31000 47.79400
C  49.91800 1.62100 49.30700
C  50.33700 3.87700 46.26200
C  51.84300 3.98800 46.24000
N  45.78100 5.78000 47.92400
C  46.97600 6.42000 47.95100
C  46.71500 7.87200 47.94600
C  45.35300 7.99300 47.79600
C  44.84900 6.69900 47.72500
C  47.79000 8.97100 47.91900
C  44.17600 8.91500 47.55400
O  44.19900 10.12500 47.51100
C  42.98000 8.12200 47.32300
C  41.98600 8.55800 48.34000
O  41.94900 8.27800 49.48000
O  41.13700 9.42800 47.75300
C  40.13600 9.94100 48.64200
H  41.48000 1.39400 47.23300
H  47.75700 0.12500 47.76500
H  49.12000 6.26800 47.90800
H  40.65600 6.18300 47.41000
H  40.15700 3.34700 46.85800
H  40.06100 4.96600 49.06300
H  40.86300 3.46900 49.65200
H  39.26100 3.54700 48.85700
H  41.30100 4.57000 44.91600
H  42.12800 6.06600 44.98700
H  39.99700 7.22700 45.57800
H  39.15100 5.75700 45.11200
H  42.73300 -1.81200 46.17800
H  41.58400 -0.65100 46.46700
H  42.14000 -1.53800 47.85200
H  47.14600 -3.29300 48.34600
H  47.21800 -1.59500 48.70000
H  47.65800 -2.09400 46.98300
H  49.79000 1.51900 47.25300
H  50.30300 4.01300 48.47600
H  50.83800 2.12700 49.60000
H  50.21000 0.57200 49.26100
H  49.15000 1.64300 50.08000
H  49.92500 4.75400 45.76400
H  50.00800 3.07500 45.60100
H  52.30800 3.20900 45.63500
H  52.28100 3.84200 47.22800
H  52.15800 4.97200 45.89300
H  48.43700 8.93400 47.04400
H  48.37100 8.96500 48.84100
H  47.32600 9.94800 47.78400
H  42.51000 8.36600 46.37100
H  40.44400 10.98500 48.70000
H  39.85900 9.45600 49.57800
H  39.24200 9.88900 48.02100
Mg 48.16800 15.82800 29.02700
C  46.09900 15.79700 31.67800
C  50.55400 17.65700 30.69700
C  50.08300 15.71500 26.20800
C  45.58200 14.16000 27.11600
N  48.27900 16.55000 30.99000
C  47.28600 16.39900 31.95200
C  47.89500 16.82800 33.32200
C  49.09700 17.69200 32.90700
C  49.37300 17.31600 31.39900
C  48.95700 19.24100 33.11100
C  48.27800 15.54500 34.20700
C  48.04500 15.69000 35.74800
H  47.74600 17.10600 36.29500
N  50.12600 16.47500 28.56700
C  50.92100 17.19700 29.46500
C  52.16800 17.47500 28.72800
C  52.09700 16.76700 27.46700
C  50.73600 16.37400 27.35200
C  53.41100 18.04000 29.45000
C  53.10500 16.46400 26.46400
O  52.84500 15.84400 25.43500
C  54.58000 16.79600 26.83300
N  47.88600 15.10700 27.00800
C  48.76000 15.26800 26.05100
C  48.16100 14.95900 24.62100
C  46.92800 14.24000 24.94900
C  46.75900 14.47900 26.46400
C  48.12900 16.21400 23.70600
C  46.95700 12.73800 24.53600
C  46.16900 12.19400 23.42500
N  46.26700 15.10900 29.28400
C  45.37800 14.43000 28.48500
C  44.19400 14.01000 29.16000
C  44.39800 14.51300 30.44200
C  45.68000 15.20000 30.46400
C  43.11900 13.09400 28.62100
C  43.85700 14.54300 31.77900
O  42.79600 14.15600 32.20800
C  45.02700 15.31600 32.69400
C  44.40900 16.44800 33.47900
O  44.05100 17.51100 33.09700
O  44.11800 15.93200 34.74000
C  43.16200 16.65500 35.59000
H  51.35800 18.13600 31.26000
H  50.57800 15.83800 25.24200
H  44.73000 13.80300 26.53300
H  47.15900 17.35600 33.92700
H  50.07200 17.48000 33.34600
H  47.99500 19.55300 33.51800
H  48.91400 19.68100 32.11500
H  49.73300 19.69700 33.72700
H  49.34600 15.59100 33.99600
H  47.85900 14.61100 33.83200
H  48.88400 15.38600 36.37300
H  47.25100 15.04000 36.11500
H  53.06000 18.85800 30.07900
H  54.04600 18.61900 28.78000
H  53.85200 17.20400 29.99300
H  55.02300 16.32900 27.71300
H  54.58800 17.87900 26.94900
H  55.13500 16.56900 25.92300
H  48.77500 14.23700 24.08300
H  46.08600 14.64900 24.38900
H  48.53200 17.04900 24.28000
H  47.11300 16.49400 23.42800
H  48.73800 15.99300 22.82900
H  46.52100 12.17400 25.36100
H  47.96700 12.34100 24.43200
H  46.57800 11.23100 23.12000
H  46.22500 12.94000 22.63200
H  45.11900 12.14300 23.71100
H  43.25000 12.70200 27.61200
H  42.17700 13.62400 28.48300
H  43.02700 12.21300 29.25600
H  45.42300 14.56700 33.38000
H  43.72500 17.41600 36.13000
H  42.73700 16.12500 36.44300
H  42.38600 17.06400 34.94300

