158

Mg 47.97800 24.58800 28.17300
C  48.71100 26.97600 30.60300
C  46.65700 22.42900 30.43100
C  47.68300 22.26200 25.67000
C  49.81600 26.57800 25.91200
N  47.74800 24.77000 30.27700
C  48.11600 25.76200 31.10400
C  47.80800 25.35100 32.55500
C  47.33900 23.88600 32.47400
C  47.17500 23.65500 30.96500
C  48.12500 22.72400 33.18500
C  46.78600 26.35300 33.27500
C  47.23800 26.81200 34.72400
H  47.00800 25.90700 35.89400
N  47.21200 22.58800 28.08500
C  46.62400 21.93000 29.13800
C  45.94900 20.69600 28.60700
C  46.26400 20.60700 27.18800
C  47.04800 21.84700 26.91000
C  45.25500 19.75700 29.47900
C  45.82600 19.58800 26.10700
O  46.03800 19.78400 24.88100
C  45.03100 18.38600 26.54800
N  48.70000 24.39100 26.14700
C  48.43900 23.37000 25.26500
C  49.09600 23.61800 23.87500
C  49.70700 25.01700 24.03200
C  49.35800 25.41900 25.47700
C  50.15800 22.54900 23.52500
C  49.06100 26.02700 22.98200
C  47.54500 26.30400 22.98500
N  49.01600 26.44900 28.13700
C  49.76400 27.06000 27.16900
C  50.40000 28.28100 27.71200
C  49.88000 28.35400 29.05500
C  49.12700 27.17000 29.26500
C  51.22300 29.29800 26.94900
C  49.82400 29.14000 30.24100
O  50.20100 30.24100 30.38900
C  49.16200 28.23600 31.30200
C  50.21800 27.95700 32.33300
O  51.26900 27.26900 32.17900
O  49.98100 28.74200 33.39600
C  50.87000 28.96700 34.54500
H  46.28600 21.75900 31.20900
H  47.57200 21.57100 24.83100
H  50.39500 27.16200 25.19300
H  48.73700 25.33000 33.12600
H  46.32500 23.76900 32.85700
H  48.83100 22.22300 32.52300
H  47.41800 21.99200 33.57500
H  48.66300 23.13600 34.03900
H  45.85800 25.80200 33.42500
H  46.55400 27.20300 32.63300
H  46.74300 27.71500 35.07900
H  48.27900 27.13400 34.74100
H  44.16900 19.74100 29.38100
H  45.42000 20.01100 30.52600
H  45.66100 18.78700 29.19200
H  44.08600 18.82800 26.86700
H  45.53900 17.81500 27.32500
H  44.85500 17.73300 25.69400
H  48.33900 23.62000 23.09000
H  50.78700 24.87600 24.06900
H  50.61000 22.18300 24.44700
H  50.83900 23.18400 22.95700
H  49.62300 21.80100 22.93900
H  49.31100 25.46500 22.08200
H  49.68500 26.91400 22.88000
H  47.06600 26.18900 22.01300
H  47.42800 27.33400 23.32100
H  46.97400 25.59100 23.57900
H  50.88800 29.37200 25.91400
H  52.21100 28.83700 26.94100
H  51.31500 30.21900 27.52400
H  48.37700 28.82300 31.77900
H  51.79600 28.41800 34.37300
H  50.47400 28.52500 35.45900
H  51.13300 30.01100 34.71600
Mg -12.88000 16.48600 41.12600
C  -10.02100 14.89900 40.31400
C  -11.56600 19.36000 39.86500
C  -16.09200 17.74500 40.92600
C  -14.34100 13.29900 41.54200
N  -10.97200 17.00600 39.95400
C  -9.90700 16.20500 39.87600
C  -8.62200 16.97100 39.44000
C  -9.18500 18.43200 39.37500
C  -10.69600 18.29200 39.79900
C  -8.36900 19.57300 40.11900
C  -8.08700 16.39500 38.14200
C  -6.52500 16.18900 38.14200
H  -5.62300 16.82600 37.07500
N  -13.71300 18.28000 40.62600
C  -12.95200 19.38100 40.20200
C  -13.79900 20.55700 40.10200
C  -15.12600 20.15600 40.35400
C  -15.04800 18.66700 40.67600
C  -13.33100 21.92900 39.68100
C  -16.31300 20.99700 40.27000
O  -16.29300 22.15700 40.02800
C  -17.70700 20.45800 40.45400
N  -14.94400 15.63500 41.42700
C  -16.04100 16.39900 41.24000
C  -17.33900 15.48000 41.19400
C  -16.71300 14.17500 41.70600
C  -15.27400 14.35900 41.38800
C  -18.58000 15.92700 42.05800
C  -17.31600 12.76200 41.15900
C  -17.90500 11.73800 42.13800
N  -12.34000 14.59400 41.18300
C  -13.00200 13.35300 41.40800
C  -12.09100 12.21100 41.29700
C  -10.86400 12.82500 41.02500
C  -11.06900 14.23100 40.86600
C  -12.33300 10.75800 41.50700
C  -9.49700 12.52700 40.77700
O  -8.86900 11.46100 40.76500
C  -8.92100 13.83700 40.25000
C  -7.65000 14.06600 40.83700
O  -7.38100 14.87100 41.72000
O  -6.68300 13.39800 40.17300
C  -5.25800 13.49600 40.57200
H  -11.07100 20.28000 39.54600
H  -17.14500 18.01500 40.81900
H  -14.78600 12.30900 41.66000
H  -7.91100 16.87100 40.25900
H  -9.19000 18.67800 38.31300
H  -7.29500 19.39100 40.11800
H  -8.67100 19.59900 41.16600
H  -8.55100 20.55900 39.69200
H  -8.36200 17.01200 37.28700
H  -8.45000 15.37300 38.04300
H  -6.36100 15.12200 37.99300
H  -6.07900 16.40400 39.11400
H  -13.78800 22.35400 38.78800
H  -12.26300 21.90500 39.46600
H  -13.55700 22.60900 40.50200
H  -18.49600 21.10100 40.06300
H  -18.01400 20.31700 41.49100
H  -17.85000 19.53700 39.88900
H  -17.63500 15.48900 40.14500
H  -16.64800 14.05400 42.78700
H  -18.36000 16.89700 42.50400
H  -18.60500 15.24700 42.90900
H  -19.51500 15.82700 41.50700
H  -16.67900 12.14800 40.52300
H  -18.12800 13.02900 40.48200
H  -18.95300 11.63600 41.85300
H  -17.91000 12.03000 43.18800
H  -17.36100 10.79400 42.17800
H  -12.59800 10.59900 42.55300
H  -11.41000 10.21700 41.30100
H  -13.12500 10.39400 40.85400
H  -8.69300 13.67400 39.19700
H  -4.79000 12.56900 40.90500
H  -5.05600 14.39400 41.15500
H  -4.66500 13.70500 39.68100

