158

Mg 25.23400 -0.42000 29.15700
C  27.30400 -0.40700 32.17100
C  22.53700 -0.33700 31.05800
C  23.70100 -0.72800 26.28400
C  28.48900 -1.10200 27.53200
N  25.00100 -0.36100 31.34700
C  25.90100 -0.26200 32.36800
C  25.19000 -0.05300 33.74600
C  23.69200 -0.39300 33.36500
C  23.73100 -0.41700 31.82800
C  22.88300 -1.54200 34.16500
C  25.49400 1.29200 34.47100
C  26.22300 1.24000 35.84300
H  25.86000 2.22100 36.95800
N  23.37800 -0.31700 28.67700
C  22.35000 -0.38900 29.62500
C  21.09100 -0.37500 28.84100
C  21.38800 -0.34300 27.40900
C  22.86700 -0.42100 27.39100
C  19.73900 -0.28100 29.58100
C  20.37100 -0.20800 26.17500
O  20.78200 -0.20900 25.05800
C  18.87700 -0.25700 26.47700
N  26.03500 -0.87800 27.20200
C  25.10200 -0.87400 26.14400
C  25.76300 -0.84100 24.78400
C  27.27900 -0.94600 25.21200
C  27.31500 -0.94100 26.73600
C  25.29500 -1.92500 23.77900
C  27.97200 0.36300 24.70700
C  27.73700 1.74400 25.47000
N  27.43300 -0.68000 29.72400
C  28.56300 -0.89500 28.92900
C  29.77500 -0.90800 29.76900
C  29.27400 -0.74400 31.01500
C  27.95100 -0.55300 30.94300
C  31.16800 -1.03400 29.26200
C  29.70800 -0.66100 32.44800
O  30.80200 -0.95000 32.95200
C  28.35200 -0.44000 33.26500
C  28.15600 -1.66100 34.16900
O  27.89300 -2.79100 33.80200
O  28.35800 -1.22200 35.47100
C  28.40500 -2.18400 36.57400
H  21.63100 -0.36300 31.66700
H  23.03400 -0.85700 25.42900
H  29.36800 -1.36000 26.93800
H  25.55100 -0.86000 34.38400
H  23.19100 0.56100 33.52900
H  22.27300 -2.19500 33.54000
H  22.11700 -1.08400 34.79000
H  23.61700 -2.05100 34.79000
H  24.50100 1.73100 34.56700
H  26.13500 1.90000 33.83300
H  27.20700 1.57700 35.51700
H  26.26800 0.24600 36.28700
H  19.36100 0.73300 29.45300
H  19.88300 -0.48800 30.64200
H  19.10700 -1.08100 29.19600
H  18.65400 -1.24500 26.88100
H  18.46200 -0.07200 25.48600
H  18.56300 0.57000 27.11400
H  25.48600 0.13100 24.37600
H  27.78400 -1.81800 24.79800
H  25.94000 -2.74500 23.46400
H  24.98400 -1.49000 22.82900
H  24.41500 -2.45500 24.14400
H  27.62900 0.55900 23.69100
H  29.05300 0.22900 24.66800
H  27.56400 1.53900 26.52600
H  26.93900 2.31000 24.98800
H  28.68100 2.27400 25.59700
H  31.19100 -2.02900 28.81700
H  31.83700 -0.82800 30.09700
H  31.44700 -0.29500 28.51100
H  28.41200 0.52700 33.76500
H  29.27800 -1.89400 37.15900
H  28.47000 -3.18500 36.14700
H  27.51800 -2.09700 37.20100
Mg 35.31100 1.79700 29.95700
C  32.83000 2.84200 32.17700
C  37.54800 1.85700 32.64100
C  37.71800 1.19800 27.83400
C  32.90000 2.10300 27.35700
N  35.23700 2.48300 32.08400
C  34.10000 2.71600 32.80000
C  34.31500 2.85100 34.27100
C  35.89100 2.85800 34.47200
C  36.29300 2.40300 32.92400
C  36.54800 4.29300 34.78400
C  33.69500 1.63100 35.08500
C  33.60700 1.86700 36.60500
H  34.03500 3.22800 37.27500
N  37.32200 1.47500 30.22900
C  38.05100 1.48200 31.36500
C  39.44700 0.95700 31.18600
C  39.53300 0.78200 29.73300
C  38.16400 1.14300 29.17300
C  40.56400 0.89600 32.25900
C  40.56400 0.09700 28.89100
O  40.39000 -0.25300 27.72100
C  41.88300 -0.28700 29.54200
N  35.21500 1.72200 27.94300
C  36.42000 1.34900 27.30700
C  36.08200 1.18700 25.78500
C  34.56400 1.55400 25.65600
C  34.17000 1.85400 27.04400
C  36.98700 2.09100 24.84100
C  33.70700 0.46300 24.92300
C  33.35700 0.75300 23.43500
N  33.19800 2.30800 29.69500
C  32.36100 2.35300 28.63900
C  31.00800 2.63800 29.04900
C  31.10900 2.83900 30.44100
C  32.53600 2.65800 30.78800
C  29.73300 2.84900 28.30600
C  30.40700 3.11200 31.65800
O  29.19200 3.18500 31.82200
C  31.50800 3.18500 32.77300
C  31.42200 4.60200 33.33400
O  31.84900 5.62500 32.78600
O  30.88800 4.48100 34.60300
C  30.64900 5.75300 35.19600
H  38.27100 1.69600 33.44400
H  38.49600 0.86700 27.14200
H  32.16000 2.22100 26.56300
H  33.96800 3.83000 34.60100
H  36.22300 2.15300 35.23500
H  37.29200 4.41300 33.99700
H  37.17800 4.16400 35.66400
H  35.83500 5.10400 34.93300
H  34.42700 0.82300 35.07500
H  32.77200 1.37900 34.56300
H  34.17900 1.03900 37.02200
H  32.57100 1.81500 36.93800
H  40.58500 -0.12100 32.65100
H  40.47900 1.67000 33.02200
H  41.54100 1.16500 31.85800
H  41.76300 -0.91300 30.42600
H  42.42000 0.62600 29.79800
H  42.39500 -0.87000 28.77600
H  36.24400 0.12000 25.63000
H  34.65000 2.47500 25.08000
H  37.53500 1.39700 24.20400
H  37.62600 2.73600 25.44400
H  36.46400 2.76500 24.16200
H  32.82500 0.25300 25.52800
H  34.14400 -0.53500 24.93600
H  33.46300 -0.11900 22.78900
H  33.89000 1.63300 23.07300
H  32.28700 0.95400 23.46700
H  29.20100 1.93200 28.05400
H  30.03100 3.36700 27.39400
H  29.21900 3.66300 28.81700
H  31.18800 2.41300 33.47400
H  31.36600 6.51600 34.89400
H  30.76200 5.52300 36.25600
H  29.62200 6.10700 35.10600

