158

Mg 17.09000 -1.15200 28.35200
C  15.86100 0.71200 31.10300
C  18.96400 -2.97900 30.48600
C  18.46600 -2.56900 25.67200
C  15.41100 1.13300 26.22900
N  17.43400 -1.01900 30.60200
C  16.70500 -0.29600 31.50200
C  17.19700 -0.61100 32.88600
C  18.36800 -1.66000 32.68500
C  18.25600 -1.91400 31.17800
C  19.85800 -1.18600 33.12600
C  15.96700 -0.98400 33.83000
C  15.86400 -0.32400 35.24400
H  17.16900 0.15200 35.91100
N  18.42000 -2.66500 28.06200
C  19.06800 -3.35800 29.07700
C  19.75300 -4.49000 28.50600
C  19.71100 -4.31900 27.07400
C  18.83700 -3.19200 26.86100
C  20.49900 -5.51900 29.39700
C  20.34100 -5.12100 26.00100
O  20.28400 -4.80500 24.83000
C  21.18400 -6.33200 26.24300
N  16.91200 -0.78900 26.27800
C  17.67400 -1.44300 25.35000
C  17.42300 -0.98200 23.96400
C  16.21500 0.00800 24.13400
C  16.12700 0.10500 25.61200
C  18.69700 -0.38800 23.26500
C  14.91200 -0.40000 23.40100
C  13.80700 -0.94600 24.29900
N  15.87700 0.53300 28.53200
C  15.28800 1.41600 27.58700
C  14.47900 2.42600 28.27600
C  14.70800 2.08300 29.64300
C  15.61400 0.98500 29.72600
C  13.71600 3.54000 27.53000
C  14.30300 2.46100 30.94100
O  13.55800 3.39600 31.30700
C  15.22000 1.77000 31.98900
C  16.17900 2.82900 32.53800
O  17.18900 3.18300 32.00300
O  15.69900 3.34800 33.68800
C  16.72100 4.06100 34.53300
H  19.61600 -3.63900 31.06200
H  18.75300 -2.93600 24.68500
H  14.85700 1.72400 25.49700
H  17.63900 0.28800 33.31800
H  18.21300 -2.55100 33.29300
H  20.26800 -1.98800 33.73900
H  19.85300 -0.25000 33.68500
H  20.43300 -1.12100 32.20200
H  16.08200 -2.05300 34.00700
H  15.04100 -0.79100 33.28800
H  15.33000 -1.05200 35.85600
H  15.22500 0.54300 35.07900
H  19.89000 -5.75500 30.27000
H  21.33900 -4.91200 29.73400
H  20.85000 -6.44000 28.93100
H  20.67100 -7.05500 26.87800
H  22.04500 -5.87800 26.73400
H  21.49800 -6.81600 25.31800
H  17.19800 -1.91600 23.45000
H  16.62500 0.94700 23.76400
H  19.45900 -0.14400 24.00400
H  18.48900 0.54000 22.73200
H  19.13800 -1.12800 22.59800
H  15.09200 -1.01600 22.52000
H  14.50600 0.51300 22.96600
H  13.28800 -0.07400 24.69700
H  14.19400 -1.65300 25.03300
H  13.09600 -1.40800 23.61400
H  12.66900 3.30300 27.71400
H  13.92700 3.56600 26.46100
H  13.93000 4.53700 27.91700
H  14.63500 1.32300 32.79200
H  16.97800 4.97300 33.99500
H  17.68800 3.55800 34.56200
H  16.36600 4.22100 35.55100
Mg 0.96100 43.06200 26.51700
C  2.97400 43.28700 29.31800
C  -1.81700 42.47900 28.67700
C  -1.04300 42.95300 23.87900
C  3.73100 43.32500 24.58100
N  0.55000 42.80800 28.73700
C  1.59200 43.02500 29.63900
C  1.11200 43.13900 31.05600
C  -0.37900 42.54600 30.85600
C  -0.57000 42.51900 29.34900
C  -0.49200 41.10100 31.42600
C  1.04400 44.57500 31.68700
C  1.23500 44.65200 33.16800
H  0.88900 43.36600 34.01200
N  -1.18000 42.82100 26.29800
C  -2.12700 42.68000 27.30900
C  -3.40500 42.64300 26.62600
C  -3.18100 42.93200 25.24700
C  -1.76900 42.91600 25.08300
C  -4.69700 42.48400 27.44100
C  -4.16300 43.18800 24.16800
O  -3.81000 43.51400 23.03000
C  -5.66000 43.20000 24.32800
N  1.28900 43.15500 24.52200
C  0.32000 43.06100 23.54400
C  0.78300 43.06400 22.13700
C  2.29000 43.43900 22.45800
C  2.46100 43.38800 23.97000
C  0.54000 41.70600 21.44600
C  2.63900 44.82100 21.93600
C  3.81500 44.98100 20.93100
N  2.95700 43.22500 26.84200
C  4.01300 43.37900 25.97900
C  5.29700 43.34800 26.68600
C  4.89800 43.38100 28.01900
C  3.52700 43.26200 28.07600
C  6.61800 43.45000 26.17200
C  5.44800 43.46800 29.38400
O  6.60000 43.60200 29.76700
C  4.12700 43.42100 30.25400
C  4.32500 42.14800 31.05500
O  4.19000 41.01300 30.71900
O  4.71400 42.55900 32.32000
C  4.96900 41.41400 33.24800
H  -2.63300 42.31700 29.38400
H  -1.54900 42.93000 22.91100
H  4.54100 43.37200 23.85000
H  1.76900 42.50400 31.65000
H  -1.14300 43.19000 31.29000
H  0.13400 40.99000 32.31200
H  -0.28000 40.33800 30.67700
H  -1.50800 40.98200 31.80200
H  0.08300 45.02500 31.43600
H  1.81400 45.11800 31.14000
H  0.66700 45.52500 33.49000
H  2.29600 44.84700 33.32700
H  -5.38000 41.71200 27.08700
H  -5.25300 43.41700 27.35200
H  -4.44100 42.19400 28.46100
H  -5.95600 42.15800 24.45400
H  -6.23700 43.67200 23.53200
H  -5.93500 43.75000 25.22800
H  0.23000 43.89400 21.69600
H  2.87400 42.69000 21.92300
H  1.44100 41.13400 21.22700
H  -0.00600 41.89300 20.52200
H  -0.00700 40.98900 22.05800
H  2.79700 45.43900 22.82100
H  1.81900 45.26800 21.37500
H  4.46000 44.16900 20.59600
H  4.38400 45.83900 21.29000
H  3.42900 45.35300 19.98200
H  6.66700 44.18200 25.36500
H  7.11500 42.51800 25.90300
H  7.21600 43.92300 26.95200
H  4.05600 44.25100 30.95600
H  5.61200 40.72700 32.69800
H  3.98100 41.05800 33.54000
H  5.65800 41.81800 33.98900

