158

Mg 30.12800 58.02600 40.53600
C  27.11400 56.28500 39.87300
C  31.89300 55.33000 39.43500
C  32.86800 59.99900 40.09100
C  28.17300 60.87600 41.20900
N  29.47600 56.06500 39.65400
C  28.19500 55.49500 39.56700
C  28.32500 54.02800 39.22400
C  29.87400 53.82100 39.07000
C  30.47100 55.15400 39.48900
C  30.41100 52.56300 39.83400
C  27.40400 53.51600 38.06400
C  27.19500 54.33100 36.81500
H  27.97400 54.07500 35.50900
N  32.13700 57.67700 40.15000
C  32.61300 56.48000 39.68500
C  34.06000 56.53000 39.65900
C  34.36800 57.90500 39.80600
C  33.09800 58.61700 39.97200
C  34.95300 55.43800 39.28100
C  35.73700 58.51300 39.56700
O  36.72000 57.83300 39.35000
C  35.92500 60.03100 39.70200
N  30.47500 60.16200 40.59800
C  31.70800 60.72700 40.45800
C  31.66800 62.26900 40.63100
C  30.16500 62.49700 41.04700
C  29.54100 61.11500 40.92200
C  32.73000 62.79100 41.70600
C  29.36400 63.51700 40.15700
C  28.44700 64.50300 40.99900
N  28.04900 58.54700 40.70800
C  27.45000 59.72400 40.99000
C  26.00300 59.53200 40.97000
C  25.81700 58.24800 40.53300
C  27.09300 57.64900 40.33200
C  25.01600 60.62300 41.33800
C  24.81300 57.24400 40.12100
O  23.61300 57.29500 40.20900
C  25.60700 55.93500 39.79100
C  25.30500 54.81500 40.73600
O  25.95100 54.48200 41.66000
O  24.12300 54.22600 40.23300
C  23.70500 52.98800 40.96200
H  32.53800 54.46900 39.24700
H  33.63200 60.77100 40.20000
H  27.47900 61.65400 41.53500
H  28.01200 53.46800 40.10500
H  30.12000 53.63000 38.02500
H  31.39700 52.21900 39.52300
H  29.70900 51.77800 39.55200
H  30.49300 52.72800 40.90800
H  26.39000 53.44600 38.45800
H  27.68200 52.50500 37.76500
H  27.26700 55.38400 37.08900
H  26.19300 54.17200 36.41600
H  35.64600 55.81500 38.52900
H  34.55400 54.58600 38.73100
H  35.55000 55.21100 40.16400
H  35.57600 60.35800 40.68100
H  35.32300 60.34200 38.84900
H  36.97200 60.33200 39.65100
H  31.79400 62.79300 39.68400
H  30.20700 62.79600 42.09400
H  33.18500 61.94800 42.22700
H  32.29300 63.41000 42.49000
H  33.53200 63.31100 41.18300
H  28.80100 63.00400 39.37700
H  30.08800 64.19900 39.71200
H  28.68400 65.56300 41.09800
H  28.46100 64.30700 42.07100
H  27.39800 64.45000 40.71000
H  25.44800 61.51200 41.79600
H  24.43700 60.11400 42.10900
H  24.43500 60.95700 40.47800
H  25.44200 55.69300 38.74100
H  22.70800 52.66600 40.66400
H  23.79200 53.06100 42.04700
H  24.52600 52.28400 40.82800
Mg -11.25800 14.86600 41.47700
C  -7.87100 14.32800 41.30400
C  -10.92100 17.83700 39.81300
C  -14.65700 15.02800 41.28600
C  -11.55300 11.53700 42.73800
N  -9.56600 15.88300 40.53400
C  -8.26600 15.50600 40.64800
C  -7.36700 16.36800 39.83300
C  -8.28200 17.54900 39.31300
C  -9.62400 17.11900 39.98200
C  -7.81900 19.01200 39.47000
C  -6.66400 15.53500 38.67100
C  -5.17100 15.71200 38.45500
H  -4.66500 16.38100 37.11500
N  -12.61200 16.20100 40.52400
C  -12.28900 17.45400 40.10200
C  -13.46900 18.12500 39.73200
C  -14.57900 17.31700 40.17200
C  -13.98700 16.12100 40.67600
C  -13.51400 19.51800 39.09900
C  -16.01200 17.77200 40.03200
O  -16.18900 18.83200 39.42000
C  -17.20800 17.02500 40.48700
N  -12.87300 13.45500 41.76100
C  -14.17800 13.79100 41.74700
C  -15.06900 12.66600 42.09000
C  -14.06000 11.54500 42.61600
C  -12.70900 12.17700 42.32100
C  -16.21800 13.06400 43.09200
C  -14.22700 10.10900 42.11000
C  -14.93300 9.00300 43.00100
N  -10.04000 13.27400 42.10000
C  -10.24200 12.02500 42.63500
C  -9.01700 11.36900 42.90500
C  -8.03200 12.24000 42.34600
C  -8.71200 13.35900 41.85500
C  -8.85700 10.10400 43.59300
C  -6.60800 12.42100 42.21100
O  -5.66500 11.68800 42.60100
C  -6.46600 13.80000 41.56600
C  -5.70300 14.69200 42.47900
O  -6.25600 15.31800 43.40700
O  -4.35800 14.75600 42.02800
C  -3.61400 15.81600 42.74700
H  -10.78900 18.74500 39.22100
H  -15.72300 15.08800 41.51500
H  -11.60500 10.63300 43.34800
H  -6.68800 16.75400 40.59300
H  -8.48300 17.37500 38.25600
H  -7.05800 18.92200 40.24500
H  -8.65800 19.58900 39.85800
H  -7.31500 19.33600 38.55900
H  -7.18900 15.82100 37.76000
H  -7.03000 14.50900 38.68200
H  -4.76200 14.70800 38.56700
H  -4.61200 16.41900 39.06900
H  -14.01900 20.30300 39.66200
H  -13.94900 19.54000 38.09900
H  -12.51700 19.92000 38.92200
H  -18.16000 17.55100 40.41500
H  -17.01800 16.71700 41.51500
H  -17.15800 16.02100 40.06800
H  -15.39400 12.34100 41.10100
H  -14.05700 11.52600 43.70600
H  -17.20400 12.99600 42.63400
H  -16.06100 14.07400 43.47000
H  -16.27200 12.49200 44.01800
H  -13.28000 9.69200 41.76500
H  -14.80800 9.99900 41.19500
H  -15.47300 8.31200 42.35400
H  -15.66000 9.44400 43.68400
H  -14.15700 8.48200 43.56100
H  -9.60600 10.13900 44.38400
H  -7.84200 9.86200 43.91000
H  -9.13000 9.29900 42.91100
H  -5.94600 13.81600 40.60900
H  -4.17700 16.73600 42.90300
H  -2.62500 15.95000 42.30800
H  -3.58800 15.59100 43.81300

