158

Mg 16.76600 -0.79000 27.43300
C  15.79900 1.23600 30.13300
C  19.03600 -2.36500 29.55300
C  18.04000 -2.31300 24.74500
C  14.86700 1.38100 25.35300
N  17.31800 -0.57300 29.60900
C  16.69300 0.23500 30.48800
C  17.28400 0.01500 31.82300
C  18.43600 -1.00200 31.59400
C  18.30900 -1.29100 30.13000
C  19.90900 -0.66000 32.06600
C  16.20200 -0.51700 32.84500
C  16.29000 0.17600 34.26500
H  17.74500 0.48300 34.72000
N  18.22700 -2.27100 27.18800
C  18.95500 -2.88400 28.17700
C  19.80400 -3.82600 27.58500
C  19.56700 -3.89100 26.19900
C  18.55800 -2.84500 25.96700
C  20.82600 -4.67800 28.53000
C  20.17700 -4.72900 25.15900
O  19.85500 -4.59400 23.98700
C  21.14200 -5.88600 25.52700
N  16.58000 -0.44500 25.34300
C  17.17500 -1.18100 24.44900
C  16.80800 -0.77800 22.97200
C  15.79400 0.35900 23.23500
C  15.69200 0.43100 24.73500
C  18.09500 -0.33300 22.21600
C  14.45900 0.21300 22.46500
C  13.45500 -0.66400 23.21900
N  15.44400 0.86200 27.64100
C  14.72500 1.62900 26.71200
C  14.02700 2.63600 27.39100
C  14.35500 2.46400 28.73300
C  15.31900 1.46500 28.80500
C  13.14200 3.73400 26.79400
C  14.09200 2.99900 30.00700
O  13.30900 3.82900 30.48500
C  15.09500 2.22200 31.02300
C  16.03700 3.08300 31.82100
O  17.19400 3.30000 31.53700
O  15.42300 3.51700 32.95100
C  16.27000 4.29800 33.96100
H  19.63200 -2.94600 30.25900
H  18.38900 -2.89300 23.88800
H  14.22900 1.92800 24.65700
H  17.82500 0.89400 32.17300
H  18.23400 -1.93500 32.11900
H  20.14500 -1.49400 32.72500
H  19.82000 0.31900 32.53700
H  20.60600 -0.62300 31.22800
H  16.10100 -1.59100 33.00100
H  15.26900 -0.09900 32.46600
H  15.79900 -0.33000 35.09600
H  15.70500 1.09200 34.17400
H  20.91200 -4.34100 29.56300
H  21.80800 -4.69700 28.05900
H  20.31000 -5.63800 28.54700
H  22.03100 -5.41300 25.94400
H  21.38800 -6.55300 24.70200
H  20.56200 -6.45100 26.25700
H  16.32200 -1.63600 22.50800
H  16.28500 1.25300 22.85100
H  18.30600 -1.03400 21.40900
H  18.99400 -0.21800 22.82200
H  18.06400 0.58000 21.62200
H  14.81200 -0.25600 21.54700
H  14.01300 1.14900 22.13000
H  13.69300 -1.01600 24.22300
H  13.19300 -1.49900 22.57000
H  12.56300 -0.05100 23.34600
H  12.30600 3.17200 26.37800
H  13.72800 4.16600 25.98300
H  12.83100 4.43600 27.56800
H  14.49800 1.71600 31.78200
H  15.67500 5.17400 34.22000
H  17.20400 4.63500 33.51100
H  16.38400 3.76100 34.90300
Mg 41.13400 41.01700 26.95400
C  40.38200 43.59200 29.32600
C  42.14600 39.11900 29.66300
C  41.70400 38.58800 24.76400
C  40.56700 43.24100 24.48400
N  41.21700 41.27400 29.22300
C  40.91600 42.41900 29.94400
C  41.02300 42.20500 31.54100
C  41.56600 40.74600 31.55500
C  41.70200 40.36600 30.03900
C  42.81400 40.50000 32.39100
C  39.67600 42.38900 32.26300
C  39.63800 43.31900 33.48800
H  38.89000 42.79200 34.76000
N  41.82800 39.12800 27.19300
C  42.19600 38.50100 28.35400
C  42.58900 37.12700 28.10100
C  42.53700 37.00200 26.62400
C  42.02800 38.26700 26.12100
C  43.17500 36.21800 29.17200
C  43.03400 35.73300 25.90500
O  43.10000 35.67200 24.70100
C  43.57500 34.55400 26.61300
N  41.40300 40.98400 24.86500
C  41.45200 39.81600 24.19000
C  41.06900 40.02300 22.68300
C  40.64500 41.48400 22.59600
C  40.83200 41.92000 24.07800
C  42.26200 39.75200 21.67300
C  39.19800 41.54900 22.21000
C  38.21900 40.94900 23.21600
N  40.57800 43.08100 26.90900
C  40.44700 43.80500 25.78500
C  40.04500 45.12700 26.19200
C  39.97600 45.14700 27.62800
C  40.31500 43.82500 27.93800
C  39.68800 46.31000 25.32100
C  39.67700 45.92300 28.76800
O  39.22000 47.04900 28.83600
C  39.77400 44.91700 29.89000
C  40.70400 45.63700 30.81500
O  41.91400 45.71600 30.69400
O  40.02600 46.08000 31.88800
C  40.89200 46.54600 33.00400
H  42.32700 38.53600 30.56900
H  41.77200 37.75900 24.05500
H  40.36900 43.77300 23.55100
H  41.77900 42.95800 31.76400
H  40.81700 40.08400 31.98800
H  43.45600 39.97500 31.68300
H  42.57300 39.85900 33.23800
H  43.32300 41.37200 32.80200
H  39.42000 41.40900 32.66400
H  38.83400 42.60000 31.60400
H  39.04600 44.20100 33.24200
H  40.67900 43.55900 33.70400
H  42.53900 35.33300 29.16700
H  43.11600 36.74000 30.12700
H  44.19200 35.89400 28.95200
H  42.81500 34.16600 27.29100
H  44.50900 34.83400 27.10100
H  44.00800 33.80600 25.94900
H  40.27900 39.32500 22.40600
H  41.34600 42.15600 22.10000
H  43.03500 39.14600 22.14600
H  42.69500 40.68500 21.31100
H  41.97400 39.11800 20.83500
H  39.19500 40.95600 21.29500
H  38.92500 42.59500 22.07000
H  38.40700 41.22200 24.25400
H  38.00600 39.90500 22.98600
H  37.25400 41.43000 23.05600
H  39.08600 46.02600 24.45700
H  40.63700 46.77800 25.06000
H  39.03400 46.87600 25.98500
H  38.82800 44.75500 30.40800
H  40.23400 46.77500 33.84200
H  41.53800 47.32800 32.60500
H  41.60700 45.82400 33.39700

