158

Mg 47.75600 25.08100 28.20300
C  48.96700 27.28600 30.74600
C  46.79800 22.96100 30.62600
C  47.27000 22.86300 25.71600
C  49.17800 27.30200 25.80300
N  47.93400 25.07800 30.45800
C  48.25600 26.19800 31.27600
C  47.97600 25.91200 32.69400
C  47.43800 24.48200 32.73600
C  47.30200 24.18000 31.23800
C  48.28200 23.36800 33.41400
C  47.00300 27.06300 33.26500
C  46.15100 26.76900 34.48400
H  45.95400 27.80800 35.59000
N  47.19800 23.22200 28.17500
C  46.85300 22.47200 29.29500
C  46.39800 21.15700 28.92200
C  46.60200 21.08300 27.49700
C  47.08000 22.44300 27.04600
C  45.73600 20.15100 29.88300
C  46.18300 19.96600 26.54100
O  46.57000 19.92900 25.40200
C  45.28400 18.87200 27.01400
N  48.16900 25.08700 26.06900
C  47.88800 24.05000 25.28900
C  48.26200 24.26600 23.80000
C  48.67900 25.79600 23.80200
C  48.72200 26.10100 25.30300
C  49.32100 23.29200 23.17000
C  47.78200 26.76600 23.04700
C  48.33200 28.00900 22.41400
N  48.81800 26.90600 28.19100
C  49.35300 27.64000 27.17900
C  49.98200 28.76200 27.73900
C  49.90800 28.70600 29.13700
C  49.18000 27.50600 29.35000
C  50.58800 29.84700 26.94400
C  50.23300 29.36100 30.38700
O  50.83300 30.44700 30.52400
C  49.60900 28.45100 31.47600
C  50.63600 28.16100 32.48300
O  51.29900 27.17300 32.39100
O  50.72000 29.11600 33.38700
C  51.84100 28.83000 34.31000
H  46.37600 22.42000 31.47500
H  47.10400 22.18300 24.87800
H  49.72100 28.05000 25.22100
H  48.94700 25.95400 33.18800
H  46.43400 24.37500 33.14800
H  47.69900 22.70100 34.04900
H  48.99000 23.84700 34.09000
H  48.68900 22.72600 32.63300
H  46.29600 27.39100 32.50300
H  47.78500 27.77800 33.52200
H  46.44900 25.86200 35.01000
H  45.17500 26.57600 34.04000
H  46.41500 19.31300 30.03800
H  44.80600 19.72800 29.50300
H  45.58100 20.60900 30.86000
H  45.73500 18.24300 27.78100
H  45.05300 18.22200 26.17000
H  44.30600 19.20900 27.35600
H  47.34500 24.31400 23.21300
H  49.68800 25.89400 23.40200
H  49.82600 22.68900 23.92400
H  50.08600 23.76800 22.55600
H  48.73500 22.63400 22.52900
H  47.04000 27.12200 23.76300
H  47.32000 26.14400 22.28000
H  47.76700 28.15900 21.49400
H  49.40100 27.95800 22.20900
H  48.19200 28.86100 23.07900
H  49.86700 30.13700 26.17900
H  51.45400 29.38800 26.46800
H  50.83900 30.64900 27.63700
H  49.00700 29.12600 32.08400
H  52.78400 28.84600 33.76300
H  51.77100 27.97900 34.98700
H  51.88800 29.74700 34.89700
Mg 49.03300 34.93400 27.33600
C  46.78200 33.47300 29.66900
C  49.57300 37.28700 29.37000
C  50.18600 36.58400 24.62600
C  48.21200 32.24600 25.14500
N  48.26900 35.27100 29.26600
C  47.43100 34.60500 30.08800
C  47.54600 35.12800 31.52300
C  48.09000 36.52600 31.39700
C  48.78500 36.34600 29.97800
C  47.08700 37.62700 31.37400
C  48.50000 34.24100 32.36600
C  48.19000 34.22400 33.87700
H  49.18500 34.89900 34.83200
N  49.80400 36.75200 27.06400
C  50.01300 37.59000 28.03000
C  50.60200 38.80400 27.51100
C  50.76800 38.65300 26.10400
C  50.22600 37.27900 25.86000
C  51.02400 39.91400 28.42600
C  51.34800 39.58700 25.03300
O  51.35900 39.35400 23.84500
C  51.91600 40.90600 25.46700
N  49.14700 34.47400 25.13800
C  49.70500 35.34700 24.27800
C  49.57900 34.68200 22.88600
C  49.37500 33.18800 23.15900
C  48.86400 33.26500 24.58200
C  48.44200 35.44900 22.08300
C  50.66800 32.29000 23.11900
C  50.62400 31.04600 22.22000
N  47.84500 33.10100 27.36800
C  47.68100 32.13400 26.41400
C  46.73800 31.16100 26.91800
C  46.36800 31.69000 28.23300
C  47.04100 32.87500 28.37000
C  46.40700 29.88700 26.16700
C  45.45900 31.43900 29.36500
O  44.82000 30.41800 29.61600
C  45.70100 32.63400 30.40600
C  46.00300 32.06800 31.73200
O  46.89200 31.28100 32.05900
O  45.09600 32.62500 32.57600
C  45.15400 32.26500 33.91400
H  49.78300 38.12600 30.03800
H  50.59200 37.11500 23.76300
H  47.98600 31.48400 24.39600
H  46.49800 35.09500 31.82300
H  48.73200 36.86000 32.21300
H  47.12300 38.20100 32.30000
H  46.04900 37.30200 31.30300
H  47.22500 38.22600 30.47400
H  49.48600 34.70600 32.35200
H  48.54800 33.27100 31.87200
H  48.30700 33.17700 34.15500
H  47.15500 34.51100 34.06400
H  50.33800 40.75800 28.50300
H  51.97400 40.31900 28.07500
H  51.27700 39.46700 29.38700
H  51.23000 41.61900 25.92500
H  52.25200 41.44300 24.58000
H  52.69100 40.74600 26.21700
H  50.52400 34.68800 22.34100
H  48.57600 32.88700 22.48100
H  47.55700 34.81400 22.03600
H  48.77900 35.53900 21.05100
H  48.30800 36.42800 22.54400
H  50.82700 31.86800 24.11200
H  51.59900 32.84800 23.01800
H  51.58500 30.79400 21.77100
H  49.82500 31.13900 21.48500
H  50.36800 30.21400 22.87500
H  46.26300 30.18900 25.12900
H  45.35500 29.65800 26.33800
H  47.18500 29.16400 26.41100
H  44.80900 33.25800 30.46700
H  45.06400 33.22800 34.41500
H  46.16100 31.96200 34.19800
H  44.48700 31.48700 34.28600

