158

Mg 36.02000 0.69900 30.82400
C  33.49700 1.97800 32.80500
C  38.19100 0.81700 33.61900
C  38.58400 -0.17600 28.74800
C  33.84500 0.91800 28.08200
N  35.83900 1.49600 32.86300
C  34.71400 1.90100 33.49600
C  34.94600 1.96500 35.06400
C  36.52700 1.81400 35.16100
C  36.89400 1.32800 33.80400
C  37.16200 3.13400 35.45000
C  34.21800 0.79700 35.79800
C  33.76400 1.10400 37.20200
H  34.31400 2.33800 37.99700
N  38.09600 0.35500 31.13000
C  38.77000 0.33100 32.37200
C  40.10200 -0.16700 32.09000
C  40.26200 -0.49800 30.75100
C  38.96400 -0.12500 30.13700
C  41.11900 -0.26800 33.18800
C  41.44800 -1.07800 30.06400
O  41.35000 -1.28300 28.86900
C  42.66800 -1.58800 30.84800
N  36.19500 0.48000 28.77600
C  37.35800 0.12400 28.14400
C  37.06000 0.00400 26.59200
C  35.55400 0.18600 26.47600
C  35.12700 0.55600 27.86100
C  37.78400 1.03100 25.62000
C  34.85100 -1.17100 26.02400
C  33.82800 -1.11700 24.93000
N  34.04600 1.22200 30.50400
C  33.27600 1.24300 29.31500
C  31.93300 1.68200 29.59800
C  31.93300 1.96400 31.01200
C  33.28300 1.76000 31.47900
C  30.92600 1.85900 28.56800
C  31.15400 2.32200 32.20700
O  29.97200 2.50100 32.44400
C  32.17600 2.38500 33.45800
C  31.97400 3.67600 34.09800
O  32.46000 4.72400 33.66300
O  31.38700 3.49800 35.33400
C  31.16600 4.85400 35.90600
H  38.81500 0.82100 34.51600
H  39.37400 -0.35400 28.01600
H  33.16500 0.92000 27.22700
H  34.56800 2.92000 35.43000
H  36.88300 1.12700 35.92800
H  37.86500 3.00300 36.27200
H  36.42800 3.88300 35.75000
H  37.64000 3.48300 34.53500
H  34.94500 -0.00400 35.93000
H  33.34800 0.42100 35.25900
H  33.95600 0.20300 37.78400
H  32.68000 1.20600 37.25300
H  40.96700 0.46700 33.97900
H  42.03000 0.12400 32.73600
H  41.17600 -1.32900 33.43000
H  43.36500 -0.81300 31.16700
H  43.21900 -2.20200 30.13600
H  42.23900 -2.25900 31.59300
H  37.41300 -1.01200 26.41500
H  35.27800 0.93900 25.73800
H  37.14000 1.88800 25.42200
H  38.22600 0.55700 24.74400
H  38.65900 1.42700 26.13500
H  34.31200 -1.67700 26.82400
H  35.61900 -1.80600 25.58200
H  34.01800 -1.80200 24.10400
H  33.77700 -0.11300 24.51000
H  32.88300 -1.43200 25.37300
H  30.77600 0.85400 28.17300
H  31.33100 2.59200 27.87000
H  30.08500 2.31100 29.09400
H  31.75600 1.61800 34.10900
H  31.96100 5.11900 36.60200
H  30.29400 4.91500 36.55800
H  31.02300 5.68700 35.21800
Mg -10.85500 17.27500 42.92900
C  -7.54100 18.22800 42.95900
C  -11.66200 20.65800 42.53100
C  -14.21300 16.42400 42.60200
C  -10.04500 13.93900 43.02500
N  -9.73100 19.13700 42.74800
C  -8.34000 19.31200 42.75100
C  -7.94100 20.80100 42.56700
C  -9.28800 21.55200 42.97000
C  -10.33300 20.42600 42.80400
C  -9.23200 22.16200 44.34300
C  -7.55700 21.17200 41.16600
C  -6.24800 21.87800 40.94100
H  -5.24100 21.25800 39.94000
N  -12.71900 18.38300 42.47600
C  -12.77500 19.75900 42.45600
C  -14.09800 20.15900 42.10700
C  -14.90600 18.93900 42.13300
C  -13.97800 17.83900 42.36000
C  -14.41200 21.58000 41.96100
C  -16.39500 18.91600 41.88900
O  -16.97600 19.89400 41.44200
C  -17.19000 17.64400 42.09800
N  -11.95600 15.49700 42.79200
C  -13.31600 15.38600 42.81700
C  -13.76500 14.02300 43.25100
C  -12.43100 13.16500 42.92200
C  -11.36500 14.26800 42.85500
C  -14.29200 13.87000 44.72900
C  -12.39100 12.42800 41.55200
C  -11.93400 10.93200 41.58800
N  -9.14800 16.23300 42.95500
C  -8.94300 14.86100 43.03400
C  -7.48300 14.67900 43.08500
C  -6.89800 15.94300 43.11400
C  -7.94000 16.84600 43.06300
C  -6.70500 13.39800 43.30700
C  -5.64500 16.65800 43.11400
O  -4.52900 16.32800 43.06800
C  -6.10300 18.16200 43.21200
C  -5.78300 18.56500 44.62300
O  -6.25900 18.22300 45.69700
O  -4.72800 19.39300 44.55500
C  -3.97700 19.78600 45.84100
H  -11.98300 21.69800 42.61700
H  -15.23300 16.04000 42.66900
H  -9.88100 12.86000 42.97100
H  -7.14300 21.00200 43.28200
H  -9.48400 22.31800 42.22000
H  -8.26900 21.95900 44.81100
H  -9.89200 21.61700 45.01800
H  -9.37100 23.24300 44.35800
H  -8.23900 21.91600 40.75400
H  -7.77800 20.33400 40.50500
H  -5.69400 22.01500 41.87000
H  -6.45900 22.90600 40.64500
H  -15.27000 21.82200 41.33300
H  -13.54800 22.15900 41.63500
H  -14.69200 21.94900 42.94700
H  -18.27900 17.63900 42.15400
H  -16.76600 17.19200 42.99400
H  -16.85500 16.98900 41.29400
H  -14.60100 13.73200 42.61600
H  -12.30000 12.47100 43.75200
H  -14.40300 14.88200 45.11900
H  -13.61200 13.34800 45.40300
H  -15.26500 13.38100 44.77000
H  -11.69600 12.98600 40.92500
H  -13.34800 12.52800 41.04100
H  -10.90900 10.95200 41.21600
H  -12.61000 10.45600 40.87700
H  -12.06500 10.53400 42.59500
H  -6.13800 13.38300 44.23800
H  -6.03100 13.26700 42.46100
H  -7.35400 12.52200 43.31500
H  -5.47500 18.73100 42.52600
H  -3.95300 20.86300 46.00700
H  -2.96400 19.38800 45.79600
H  -4.56100 19.36700 46.66000

