158

Mg 45.09900 4.77200 46.31400
C  43.11300 7.58800 46.07500
C  42.26700 2.74000 46.13900
C  47.18800 2.09200 45.54300
C  47.91500 6.79200 45.72800
N  42.89600 5.13600 45.96700
C  42.34800 6.38100 45.97000
C  40.84300 6.31300 45.79100
C  40.56400 4.77000 46.13600
C  41.96000 4.11000 46.16100
C  39.83400 4.60500 47.58400
C  40.09100 6.90400 44.58000
C  41.02800 7.38500 43.39300
H  40.38300 7.48800 41.98400
N  44.78400 2.73500 45.78900
C  43.53000 2.12800 45.83800
C  43.78700 0.71600 45.83500
C  45.14400 0.47300 45.54800
C  45.79200 1.80100 45.57600
C  42.69200 -0.24600 46.14800
C  45.81500 -0.82100 45.17000
O  45.06300 -1.76400 45.27100
C  47.22000 -1.11400 44.67500
N  47.30000 4.46900 45.76400
C  47.88200 3.25600 45.61400
C  49.47400 3.44700 45.61000
C  49.58000 4.93500 45.03400
C  48.18200 5.43100 45.50700
C  50.12800 3.12100 46.99300
C  49.77100 5.00100 43.47000
C  51.22500 5.33700 42.91400
N  45.50500 6.76700 46.13800
C  46.72200 7.46400 46.05100
C  46.42800 8.88300 46.14300
C  45.07400 8.97000 46.25700
C  44.52200 7.67900 46.10600
C  47.23200 10.05600 46.00300
C  43.99700 9.89200 46.47900
O  43.92600 11.07900 46.64400
C  42.70800 9.03900 46.49200
C  41.97500 9.14400 47.77500
O  41.78500 8.31400 48.69300
O  41.34300 10.30400 47.76600
C  40.71400 10.71700 49.01500
H  41.37700 2.12300 46.28100
H  47.86400 1.23700 45.61800
H  48.77500 7.46500 45.70500
H  40.52400 6.94800 46.61800
H  39.98000 4.23000 45.39100
H  39.49000 5.50000 48.10300
H  40.58200 4.11400 48.20600
H  38.94200 3.98100 47.65000
H  39.49600 7.69500 45.03600
H  39.51000 6.06200 44.20500
H  41.89900 6.73100 43.34600
H  41.36900 8.35000 43.76800
H  42.68100 -0.84300 45.23600
H  41.69400 0.16600 46.30000
H  42.94400 -0.90200 46.98100
H  47.31100 -2.10900 44.23900
H  47.80300 -1.08700 45.59600
H  47.38800 -0.29600 43.97400
H  49.96300 2.77600 44.90400
H  50.24600 5.44900 45.72600
H  49.19800 2.91700 47.52400
H  50.60500 3.97400 47.47500
H  50.83800 2.31400 46.81000
H  49.06000 5.70600 43.04000
H  49.51000 4.01600 43.08500
H  51.61900 4.49900 42.34000
H  51.96600 5.56800 43.67900
H  51.27700 6.29700 42.40000
H  47.34200 10.11600 44.92000
H  48.24400 10.03100 46.40600
H  46.67100 10.89600 46.41300
H  42.01900 9.45300 45.75500
H  41.40200 11.04200 49.79600
H  40.15200 9.90300 49.47400
H  39.99900 11.52500 48.86200
Mg -13.02500 16.56300 41.26700
C  -10.22700 14.45800 40.75300
C  -11.13200 19.10900 40.03400
C  -15.82200 18.21500 41.12500
C  -14.92600 13.59800 42.00500
N  -10.82000 16.74800 40.40600
C  -9.88700 15.77500 40.38400
C  -8.56900 16.27400 39.81400
C  -8.88800 17.83800 39.58600
C  -10.33900 17.93200 40.05100
C  -8.00300 18.92300 40.38200
C  -8.18600 15.52800 38.56900
C  -6.72300 15.13100 38.45900
H  -6.02900 15.59300 37.16100
N  -13.39600 18.46200 40.71300
C  -12.52900 19.41400 40.31100
C  -13.19200 20.71700 40.29000
C  -14.55800 20.43300 40.35200
C  -14.70800 18.92900 40.69700
C  -12.41600 22.01500 40.14100
C  -15.54200 21.50100 40.25900
O  -15.25200 22.69700 40.19300
C  -16.98300 21.16100 39.96500
N  -15.14000 15.93200 41.40700
C  -16.06700 16.88400 41.44600
C  -17.47000 16.25600 41.60400
C  -17.17500 14.84900 42.01200
C  -15.72300 14.80500 41.82800
C  -18.38500 16.94500 42.60900
C  -17.94300 13.72000 41.20900
C  -19.07900 13.08500 41.96800
N  -12.66000 14.53000 41.51800
C  -13.52200 13.46400 41.80400
C  -12.73700 12.22700 42.06700
C  -11.47900 12.53700 41.55600
C  -11.48400 13.93400 41.25400
C  -13.20600 10.86000 42.51300
C  -10.14000 12.03400 41.25100
O  -9.67200 10.92100 41.31100
C  -9.27300 13.31000 40.78700
C  -8.12300 13.55700 41.65100
O  -8.10400 14.26100 42.63800
O  -6.97600 12.92200 41.15300
C  -5.73100 13.09800 41.88500
H  -10.48900 19.96800 39.83200
H  -16.76800 18.74900 41.00800
H  -15.41700 12.67300 42.31600
H  -7.84800 16.24100 40.63000
H  -8.83100 18.09700 38.52900
H  -7.35500 18.45500 41.12400
H  -8.63600 19.50100 41.05600
H  -7.43600 19.52700 39.67400
H  -8.41300 16.10700 37.67400
H  -8.76800 14.63600 38.33900
H  -6.58400 14.05200 38.53400
H  -6.21000 15.52200 39.33800
H  -12.21200 22.48400 41.10300
H  -12.80500 22.70800 39.39400
H  -11.42700 21.75600 39.76500
H  -17.43400 20.80000 40.88900
H  -17.08600 20.41900 39.17300
H  -17.31300 22.13200 39.59700
H  -17.88300 16.32800 40.59800
H  -17.40200 14.77500 43.07600
H  -19.20500 17.49700 42.15100
H  -17.77400 17.67100 43.14500
H  -18.85700 16.42600 43.44400
H  -17.21200 12.92000 41.09000
H  -18.16000 14.05400 40.19400
H  -19.27700 13.66300 42.87100
H  -18.76400 12.07100 42.21500
H  -19.97200 13.07700 41.34400
H  -12.69400 10.27200 41.75100
H  -14.27400 10.64500 42.47400
H  -12.82000 10.56700 43.48900
H  -8.79400 13.12700 39.82500
H  -5.05200 12.66000 41.15300
H  -5.70600 12.39800 42.72000
H  -5.48300 14.13300 42.12000

