158

Mg 40.82000 41.08800 27.45500
C  39.92400 43.51100 29.87800
C  41.47800 38.86500 29.96700
C  41.85200 38.99000 25.04200
C  40.27800 43.51300 25.04900
N  40.90400 41.31500 29.77200
C  40.35500 42.31700 30.50300
C  40.34100 42.01200 32.03300
C  40.76200 40.50700 32.00300
C  40.99600 40.10700 30.49600
C  41.87200 39.96200 32.95700
C  39.02400 42.31500 32.79600
C  38.50200 41.43600 33.88900
H  37.79600 42.09900 35.11700
N  41.46200 39.14400 27.47700
C  41.63900 38.35600 28.63100
C  41.92800 37.02400 28.22800
C  41.91300 37.00500 26.79700
C  41.76400 38.41300 26.35000
C  42.22600 35.87900 29.18500
C  41.99000 35.84700 25.87900
O  41.80300 35.97100 24.66000
C  42.00000 34.45100 26.41800
N  41.20600 41.33800 25.39900
C  41.51400 40.29000 24.64100
C  41.32100 40.60100 23.13300
C  40.70700 42.03200 23.10900
C  40.76200 42.35900 24.61000
C  42.74500 40.50800 22.41100
C  39.28500 42.04100 22.45900
C  38.12500 41.48400 23.26400
N  40.28700 43.08600 27.45800
C  40.09900 43.92200 26.37500
C  39.59000 45.23300 26.80200
C  39.42600 45.08900 28.15200
C  39.92000 43.80200 28.54000
C  39.31200 46.50000 26.05800
C  39.03300 45.74300 29.41200
O  38.66300 46.88300 29.57500
C  39.31900 44.78900 30.47300
C  40.19900 45.47300 31.50300
O  41.32400 45.78300 31.30800
O  39.57300 45.60700 32.72800
C  40.46000 46.04500 33.86100
H  41.75800 38.09900 30.69300
H  42.15800 38.33200 24.22500
H  40.05200 44.27600 24.30100
H  41.19000 42.62700 32.33000
H  39.80400 40.05100 32.25200
H  42.70700 39.59300 32.36200
H  41.52000 39.15400 33.59800
H  42.30000 40.73900 33.59100
H  38.24200 42.63800 32.10900
H  39.38000 43.19600 33.33000
H  39.36100 40.84800 34.21400
H  37.73500 40.69500 33.66700
H  41.34800 35.24000 29.09200
H  42.27300 36.14200 30.24200
H  43.06700 35.22100 28.96700
H  41.24000 34.49700 27.19700
H  42.96900 34.18100 26.83700
H  41.76300 33.78300 25.58900
H  40.62400 39.87200 22.71900
H  41.38400 42.75800 22.66000
H  43.27400 39.73300 22.96500
H  43.25300 41.45300 22.21500
H  42.46000 40.16500 21.41700
H  39.30600 41.51800 21.50300
H  39.04800 43.08700 22.26600
H  38.53400 40.76500 23.97400
H  37.43900 41.00400 22.56600
H  37.61200 42.24700 23.85000
H  38.69900 46.22700 25.19900
H  40.24100 47.03600 25.86300
H  38.80300 47.13100 26.78600
H  38.37500 44.53400 30.95600
H  41.51800 45.81300 33.73500
H  40.07800 45.42500 34.67300
H  40.40000 47.10800 34.09200
Mg -4.75500 24.87900 25.85700
C  -3.03800 26.58200 28.35400
C  -6.18000 22.90000 28.27000
C  -6.51100 23.37900 23.41500
C  -3.10500 26.92500 23.53500
N  -4.52500 24.65500 28.07000
C  -3.84300 25.54500 28.88900
C  -4.11800 25.24400 30.35200
C  -5.17100 24.04100 30.29400
C  -5.31300 23.84200 28.80700
C  -4.75100 22.71700 31.08200
C  -4.67700 26.50100 31.07100
C  -4.18000 26.74500 32.44900
H  -3.95000 25.51600 33.34300
N  -6.17100 23.33300 25.86100
C  -6.54200 22.60900 26.93400
C  -7.48000 21.53100 26.50900
C  -7.57300 21.70400 25.12400
C  -6.77600 22.87700 24.69600
C  -8.09900 20.54200 27.50400
C  -8.44800 20.92700 24.12900
O  -8.39000 21.16500 22.92600
C  -9.52100 19.86600 24.60600
N  -4.44400 24.87200 23.67300
C  -5.58900 24.39000 23.03400
C  -5.76500 25.00500 21.67200
C  -4.61700 26.08600 21.59600
C  -3.98100 25.96100 23.00800
C  -5.70200 23.91200 20.51500
C  -5.16500 27.49300 21.31900
C  -4.65100 28.18700 20.02600
N  -3.24100 26.23800 25.83800
C  -2.72600 27.10100 24.85700
C  -1.97600 28.19500 25.37600
C  -1.97700 27.92100 26.76100
C  -2.77800 26.83700 27.00400
C  -1.28300 29.29500 24.65800
C  -1.38600 28.39000 28.00200
O  -0.53100 29.20500 28.29300
C  -2.14600 27.55000 29.08100
C  -1.15800 26.79600 29.97900
O  -0.45400 25.89500 29.61600
O  -1.10300 27.28000 31.29400
C  -0.23300 26.64400 32.24600
H  -6.79800 22.42700 29.03600
H  -7.23800 23.15100 22.63300
H  -2.79900 27.71700 22.84800
H  -3.17000 25.00800 30.83600
H  -6.15900 24.32200 30.65700
H  -4.54500 21.93500 30.35200
H  -5.56200 22.28900 31.67000
H  -3.92600 22.92200 31.76400
H  -5.75400 26.37400 31.18200
H  -4.49500 27.27200 30.32200
H  -4.91000 27.25800 33.07500
H  -3.37600 27.45800 32.26400
H  -7.57400 20.57700 28.45800
H  -8.02000 19.53200 27.10100
H  -9.14100 20.82000 27.66300
H  -9.03500 19.08200 25.18700
H  -9.82100 19.39600 23.67000
H  -10.27500 20.44200 25.14300
H  -6.79600 25.35800 21.69100
H  -4.04200 25.83000 20.70600
H  -5.35400 22.96200 20.92100
H  -5.12800 24.12200 19.61200
H  -6.71300 23.65000 20.20100
H  -5.08100 28.17500 22.16500
H  -6.23700 27.48300 21.12100
H  -5.39900 28.14100 19.23400
H  -3.67200 27.85700 19.68000
H  -4.46100 29.25400 20.14300
H  -1.10800 30.14100 25.32200
H  -1.91600 29.69000 23.86300
H  -0.30000 29.17300 24.20300
H  -2.81000 28.20800 29.64100
H  0.78000 27.04600 32.28200
H  -0.23900 25.55700 32.17100
H  -0.46300 27.02000 33.24300

