158

Mg 35.18600 2.36500 29.91900
C  32.64200 2.94700 32.10500
C  37.44100 2.24900 32.54800
C  37.52400 1.50000 27.67400
C  32.69500 2.07600 27.29500
N  35.08300 2.65800 32.10500
C  33.88900 2.86400 32.73400
C  34.17500 3.18400 34.24800
C  35.75700 2.90600 34.41700
C  36.11000 2.56700 32.97400
C  36.70200 4.11500 34.90900
C  33.25900 2.29000 35.14900
C  33.70800 2.03900 36.62200
H  33.94800 3.25100 37.55500
N  37.16700 2.07800 30.00600
C  37.92200 1.99200 31.18100
C  39.23900 1.61100 30.91200
C  39.30300 1.24700 29.48800
C  37.95300 1.55700 28.97900
C  40.33300 1.56800 31.93000
C  40.45100 0.76100 28.67700
O  40.30500 0.35700 27.51100
C  41.82900 0.74300 29.27200
N  35.05000 1.71700 27.80600
C  36.21400 1.59600 27.10300
C  36.04800 1.50800 25.60300
C  34.48300 1.35100 25.53000
C  33.98700 1.62200 26.98300
C  36.69900 2.64800 24.67400
C  33.84300 -0.00800 25.01800
C  32.46900 0.15400 24.36200
N  33.15400 2.50400 29.71100
C  32.26700 2.39800 28.62600
C  30.87900 2.71700 29.03800
C  30.99500 2.91900 30.41100
C  32.39000 2.76600 30.73300
C  29.68500 2.75200 28.05800
C  30.27000 3.34200 31.58900
O  29.07800 3.63000 31.74800
C  31.31600 3.19800 32.77900
C  31.29500 4.55800 33.48000
O  31.79500 5.58200 33.03900
O  30.57200 4.45100 34.63500
C  30.57200 5.63800 35.46600
H  38.22200 2.20700 33.31100
H  38.23300 1.29800 26.86900
H  31.97500 1.96600 26.48200
H  33.93600 4.23500 34.41200
H  35.93500 1.89000 34.77000
H  37.30600 4.60900 34.14700
H  37.38400 3.74100 35.67300
H  36.07000 4.93400 35.25100
H  33.19900 1.36600 34.57400
H  32.26900 2.73200 35.25900
H  34.47300 1.26700 36.70000
H  32.84000 1.60900 37.12200
H  40.67100 0.54100 32.06400
H  40.14900 1.93400 32.94000
H  41.29200 1.95800 31.59000
H  42.53800 0.27500 28.58900
H  41.90900 0.15200 30.18400
H  42.10100 1.78900 29.41000
H  36.54000 0.56300 25.37200
H  34.10200 2.11200 24.85000
H  35.91500 3.35100 24.39200
H  37.18100 2.15000 23.83300
H  37.46900 3.21700 25.19400
H  33.70100 -0.73300 25.81900
H  34.48700 -0.56400 24.33700
H  31.66700 -0.28100 24.95900
H  32.47600 -0.27800 23.36200
H  32.23700 1.21500 24.26600
H  29.11100 3.67600 28.11600
H  28.92000 1.98800 28.19400
H  30.07700 2.66300 27.04400
H  30.94000 2.50600 33.53300
H  31.51400 5.66600 36.01400
H  29.78600 5.53400 36.21500
H  30.35400 6.56500 34.93700
Mg 30.89400 59.46600 40.60200
C  27.94100 57.88100 39.42300
C  32.57800 56.84900 39.19900
C  33.81000 61.14800 41.25500
C  29.03900 62.30400 41.37000
N  30.29400 57.58900 39.34100
C  29.04400 57.17900 39.03900
C  29.13300 55.88500 38.12600
C  30.62300 55.41000 38.43900
C  31.16000 56.72200 38.97200
C  30.75100 54.30000 39.54400
C  29.01500 56.22300 36.57700
C  27.83200 55.57600 35.82300
H  27.99400 55.61600 34.31300
N  32.97000 59.05300 40.24000
C  33.38500 57.87100 39.74700
C  34.84000 57.87700 39.79600
C  35.23200 59.13300 40.30500
C  34.00900 59.85200 40.60300
C  35.71300 56.76700 39.15900
C  36.66000 59.62500 40.45100
O  37.69800 59.00000 40.17100
C  36.92900 60.98700 40.87900
N  31.38200 61.43400 41.15300
C  32.60700 61.86200 41.50800
C  32.55300 63.31600 41.98300
C  31.02600 63.57300 42.21700
C  30.44100 62.38600 41.53800
C  33.46300 63.67300 43.07900
C  30.45400 64.96400 41.82400
C  29.29300 65.57800 42.71400
N  28.84900 59.99000 40.57700
C  28.22700 61.15400 40.95300
C  26.78900 61.08800 40.71100
C  26.63900 59.75200 40.12000
C  27.90300 59.20100 40.06000
C  25.74800 62.15600 40.92700
C  25.71500 58.73200 39.54100
O  24.53100 58.86000 39.34700
C  26.50000 57.53400 39.16100
C  26.03200 56.35100 39.89000
O  26.45600 55.94700 40.95600
O  24.93000 55.87000 39.11900
C  24.13000 54.86500 39.77500
H  33.14400 55.96300 38.90300
H  34.67600 61.72900 41.57900
H  28.30900 63.04800 41.69400
H  28.37800 55.12500 38.33000
H  31.04000 54.95900 37.53800
H  30.97300 54.54900 40.58200
H  31.56900 53.64800 39.23700
H  29.90300 53.61900 39.46500
H  29.91800 56.17600 35.96700
H  28.69600 57.26300 36.51800
H  26.90900 55.99400 36.22500
H  27.97900 54.52900 36.09000
H  36.10200 57.03400 38.17600
H  35.21500 55.80100 39.07100
H  36.51200 56.58200 39.87700
H  36.67000 61.16000 41.92400
H  36.31600 61.58300 40.20300
H  37.96500 61.22200 40.63600
H  32.96800 63.93600 41.18700
H  30.85100 63.42600 43.28200
H  32.93000 64.30800 43.78700
H  34.34600 64.24200 42.78800
H  33.88600 62.76900 43.51800
H  30.01900 64.75300 40.84700
H  31.26000 65.69000 41.71300
H  28.42700 65.70000 42.06400
H  29.58300 66.59800 42.96700
H  29.00700 64.98700 43.58400
H  25.97100 62.76500 41.80200
H  24.85000 61.57900 41.15100
H  25.62400 62.76300 40.03000
H  26.25200 57.34000 38.11700
H  24.32200 54.73200 40.84000
H  24.24500 53.90300 39.27500
H  23.06500 55.09600 39.76300

