158

Mg 47.95400 34.72400 26.73600
C  46.01700 33.03800 29.38600
C  48.05900 37.41300 28.60700
C  49.33800 36.16400 24.12000
C  47.05900 31.75400 24.71400
N  47.01300 35.15200 28.75700
C  46.41200 34.34900 29.66200
C  46.57600 35.03400 31.05400
C  46.66800 36.59100 30.76700
C  47.21100 36.42500 29.26200
C  45.42100 37.45800 30.92100
C  47.66900 34.44900 31.99700
C  47.72800 35.05900 33.42000
H  46.50400 35.82000 33.96800
N  48.60300 36.58400 26.41300
C  48.68500 37.49300 27.38400
C  49.51000 38.61100 26.88400
C  49.80900 38.36500 25.58100
C  49.25800 36.97400 25.30600
C  50.03200 39.85200 27.65200
C  50.44700 39.21600 24.54100
O  50.60600 38.85300 23.39200
C  50.89400 40.55600 24.83400
N  48.10700 34.06600 24.75700
C  48.76400 34.91900 23.90800
C  49.11300 34.03100 22.60600
C  48.45500 32.64800 22.75000
C  47.86100 32.78800 24.12800
C  48.85000 34.85500 21.23500
C  49.36900 31.37700 22.54600
C  49.10700 30.54900 21.35100
N  46.86800 32.73300 26.99700
C  46.58100 31.72900 26.04900
C  45.82600 30.67000 26.64300
C  45.61400 31.17200 27.95500
C  46.19700 32.45700 28.08100
C  45.29400 29.46700 25.94000
C  44.87700 30.88700 29.21500
O  44.11900 29.94100 29.45000
C  45.25100 31.99400 30.22000
C  46.11200 31.35000 31.28500
O  47.31300 31.13700 31.25800
O  45.38300 31.19900 32.38100
C  45.91000 30.67700 33.65800
H  48.14700 38.28600 29.25700
H  49.85600 36.50200 23.22000
H  46.82900 30.95400 24.00800
H  45.65600 34.71300 31.54300
H  47.43800 36.97500 31.43700
H  44.64000 36.89200 31.42900
H  45.01600 37.78600 29.96400
H  45.66600 38.39300 31.42400
H  48.65600 34.65600 31.58400
H  47.53000 33.37800 32.14500
H  48.60800 35.69500 33.51800
H  47.90400 34.19100 34.05600
H  51.09100 39.90900 27.40100
H  50.13800 39.84100 28.73700
H  49.36500 40.67000 27.38000
H  50.03500 41.04900 25.28800
H  51.13600 41.02600 23.88000
H  51.78200 40.55100 25.46500
H  50.18300 33.87800 22.74400
H  47.54200 32.64400 22.15400
H  48.78200 34.01100 20.54800
H  49.58800 35.56000 20.85300
H  47.88400 35.34800 21.12800
H  49.28600 30.81000 23.47300
H  50.43700 31.59600 22.53900
H  49.93200 30.63300 20.64400
H  48.11900 30.64100 20.90100
H  49.23500 29.54000 21.74100
H  46.11500 28.78800 25.71000
H  44.69000 29.81000 25.10000
H  44.58200 28.92700 26.56500
H  44.44400 32.54100 30.70800
H  45.17400 29.92600 33.94300
H  45.85800 31.48800 34.38500
H  46.89800 30.23800 33.51700
Mg -4.59000 25.49800 26.49200
C  -3.41100 26.82100 29.54100
C  -6.31500 23.09600 28.42000
C  -5.47400 23.86500 23.67900
C  -2.38500 27.44900 24.82700
N  -4.64500 24.90900 28.69800
C  -4.15200 25.67900 29.68600
C  -4.65800 25.13700 31.02800
C  -5.34500 23.77300 30.69700
C  -5.47800 23.92300 29.21800
C  -4.53700 22.52100 31.18600
C  -5.70200 26.15600 31.59200
C  -5.57200 26.47800 33.09100
H  -5.17200 25.40600 34.06100
N  -5.81300 23.81900 26.06800
C  -6.51800 22.99000 26.99800
C  -7.38200 22.06800 26.36700
C  -7.11100 22.22900 24.92200
C  -6.03400 23.29500 24.84000
C  -8.26900 21.09700 26.99300
C  -7.70800 21.42000 23.76900
O  -7.37300 21.61400 22.59800
C  -8.71600 20.36800 23.94600
N  -4.02200 25.64300 24.43000
C  -4.56200 24.89400 23.41200
C  -3.83200 25.24500 22.04900
C  -3.05600 26.52600 22.48000
C  -3.16700 26.60600 24.03200
C  -2.98300 24.01000 21.52400
C  -3.53800 27.85700 21.76800
C  -3.06200 28.22500 20.30400
N  -3.09100 26.86000 27.03800
C  -2.32900 27.71100 26.24200
C  -1.68000 28.74000 26.99400
C  -2.05500 28.45500 28.33500
C  -2.90100 27.32400 28.29300
C  -0.76100 29.74800 26.46200
C  -2.02700 28.88200 29.69700
O  -1.51400 29.86200 30.21400
C  -2.88700 27.87100 30.54400
C  -1.81100 27.29400 31.40700
O  -1.33600 26.21600 31.22400
O  -1.84100 27.88400 32.64600
C  -1.00600 27.15600 33.68200
H  -6.93900 22.45700 29.04800
H  -5.87600 23.37400 22.79000
H  -1.87300 28.22400 24.25200
H  -3.88300 25.04700 31.79000
H  -6.33000 23.81300 31.16100
H  -3.63300 22.95200 31.61600
H  -4.28300 21.97700 30.27600
H  -5.12000 21.99100 31.93900
H  -6.73400 25.88900 31.36700
H  -5.44400 27.12400 31.16100
H  -6.53900 26.85600 33.42200
H  -4.92500 27.33000 33.30200
H  -8.20400 21.23600 28.07200
H  -7.90200 20.09200 26.78400
H  -9.31900 21.17600 26.71300
H  -9.62500 20.76600 24.39800
H  -8.28900 19.59800 24.58900
H  -9.03400 19.97000 22.98200
H  -4.61300 25.51900 21.34000
H  -1.98400 26.40300 22.32300
H  -1.98300 24.34300 21.24600
H  -3.43200 23.57800 20.63000
H  -2.90700 23.17500 22.22100
H  -3.19000 28.59700 22.48900
H  -4.62700 27.85800 21.78400
H  -3.89600 28.39200 19.62300
H  -2.45200 27.42700 19.88000
H  -2.38400 29.07700 20.24700
H  -0.28000 29.33100 25.57700
H  -0.01000 30.11000 27.16400
H  -1.42100 30.60800 26.34900
H  -3.76600 28.30600 31.01900
H  0.02300 27.08900 33.33000
H  -1.39200 26.18000 33.97500
H  -0.94300 27.85700 34.51400

