158

Mg -1.60200 33.66400 27.12000
C  -3.44500 32.28000 29.85400
C  0.09700 35.69500 29.30900
C  -0.28400 35.25500 24.40900
C  -3.73200 32.02200 24.92100
N  -1.67800 33.96700 29.42200
C  -2.42500 33.24500 30.31300
C  -2.01000 33.67100 31.77100
C  -0.93900 34.82800 31.46800
C  -0.84600 34.89900 29.95300
C  -1.31800 36.22200 32.11700
C  -1.54300 32.47500 32.68700
C  -2.48500 31.92500 33.65800
H  -2.07700 31.89100 35.13500
N  -0.20200 35.21600 26.86800
C  0.33600 35.94100 27.91600
C  1.30200 36.82200 27.37000
C  1.16100 36.76900 25.90500
C  0.20800 35.71600 25.65000
C  2.07200 37.75900 28.22300
C  1.84300 37.56400 24.90800
O  1.70900 37.38100 23.68200
C  2.86400 38.65500 25.36400
N  -1.97200 33.74900 24.98400
C  -1.26400 34.34500 24.09100
C  -1.66100 34.03900 22.63600
C  -2.48400 32.71500 22.84700
C  -2.78000 32.82300 24.35800
C  -2.48100 35.15000 22.04300
C  -1.78100 31.31700 22.53600
C  -2.68500 30.18800 21.93100
N  -3.21000 32.35500 27.26000
C  -3.96200 31.73200 26.29200
C  -4.87100 30.85100 26.92000
C  -4.65600 30.99600 28.30700
C  -3.70200 31.95100 28.47800
C  -5.93500 29.99200 26.18800
C  -5.12600 30.63700 29.60800
O  -6.04500 29.78600 29.89900
C  -4.37200 31.48300 30.65400
C  -5.45600 32.37000 31.13700
O  -6.13300 33.19200 30.55500
O  -5.82700 31.97200 32.35900
C  -7.05200 32.62200 32.82700
H  0.69100 36.23000 30.05400
H  0.06400 35.58900 23.43000
H  -4.29700 31.52200 24.13200
H  -2.88300 34.13200 32.23200
H  0.07000 34.62400 31.82700
H  -1.75600 36.86900 31.35700
H  -0.44700 36.76400 32.48600
H  -2.07600 36.17500 32.89800
H  -0.69800 32.87800 33.24400
H  -1.12200 31.69000 32.05900
H  -2.69300 30.86400 33.52200
H  -3.47100 32.37600 33.54700
H  1.67100 37.74400 29.23700
H  1.92300 38.80400 27.94900
H  3.13300 37.51200 28.25600
H  3.42700 39.06300 24.52400
H  3.57500 38.13200 26.00400
H  2.29000 39.42700 25.87600
H  -0.75600 33.80400 22.07600
H  -3.42000 32.74200 22.28900
H  -2.35200 36.07100 22.61000
H  -3.52100 34.92400 21.80600
H  -2.04600 35.48200 21.10100
H  -1.48300 30.99800 23.53400
H  -0.84500 31.51800 22.01300
H  -2.86300 29.41200 22.67600
H  -2.20600 29.60300 21.14600
H  -3.63300 30.57900 21.56100
H  -5.46500 29.04100 25.93700
H  -6.33000 30.66500 25.42700
H  -6.74600 29.75900 26.87700
H  -3.90500 30.83300 31.39400
H  -7.82700 32.44900 32.08100
H  -6.86100 33.68800 32.95400
H  -7.44100 32.12300 33.71500
Mg -5.93800 24.69900 26.33300
C  -4.56200 26.34200 29.16600
C  -7.93300 22.92100 28.53100
C  -6.62400 22.65500 23.84600
C  -3.66200 26.37900 24.40100
N  -6.06200 24.58300 28.67100
C  -5.45400 25.35800 29.55400
C  -6.01800 25.02500 31.00100
C  -6.95600 23.77000 30.77300
C  -6.97400 23.71500 29.19600
C  -6.59300 22.47200 31.47000
C  -6.68900 26.37700 31.59600
C  -6.74600 26.41900 33.17300
H  -6.40200 25.12800 33.99700
N  -7.19900 23.08800 26.21300
C  -8.06800 22.56000 27.12200
C  -8.89000 21.60300 26.48100
C  -8.41400 21.41900 25.13400
C  -7.36500 22.42500 25.00300
C  -9.96300 20.81200 27.26700
C  -8.80700 20.49200 24.10000
O  -8.37200 20.42200 22.93000
C  -9.96000 19.57800 24.36900
N  -5.28200 24.52100 24.28900
C  -5.71500 23.63100 23.45300
C  -5.11600 23.82600 22.04200
C  -4.03100 24.97800 22.33400
C  -4.34900 25.33200 23.79600
C  -4.57500 22.67600 21.29000
C  -3.97900 26.14400 21.36000
C  -2.59400 26.57100 20.83000
N  -4.48600 26.11700 26.60300
C  -3.70900 26.78900 25.73800
C  -2.80300 27.64900 26.47300
C  -3.11300 27.55100 27.81400
C  -4.19800 26.60800 27.79700
C  -1.74900 28.46700 25.77100
C  -2.81600 28.00500 29.12500
O  -2.00600 28.82000 29.50600
C  -3.73100 27.20200 30.14200
C  -2.87400 26.34200 31.02500
O  -2.35000 25.30500 30.71800
O  -2.66800 27.02300 32.21400
C  -1.99500 26.15100 33.16000
H  -8.48300 22.24100 29.18600
H  -6.80900 22.00600 22.98800
H  -2.97400 26.94600 23.77000
H  -5.16300 24.70900 31.59700
H  -7.98100 24.00700 31.06000
H  -5.56700 22.46300 31.83800
H  -6.71600 21.78300 30.63500
H  -7.28200 22.30400 32.29800
H  -7.71300 26.52800 31.25500
H  -6.10800 27.22600 31.23400
H  -7.60600 26.93400 33.60000
H  -5.86400 27.02600 33.37600
H  -10.94700 21.10300 26.89900
H  -10.13200 21.15600 28.28800
H  -9.98100 19.73100 27.12900
H  -9.70100 18.81600 25.10400
H  -10.05400 19.00600 23.44500
H  -10.93000 20.06400 24.47300
H  -5.94700 24.09400 21.39000
H  -3.05600 24.49300 22.37800
H  -3.54200 22.92600 21.05100
H  -5.26500 22.53000 20.45800
H  -4.53300 21.77900 21.90700
H  -4.52500 26.98000 21.79700
H  -4.47300 25.98300 20.40200
H  -2.72100 26.99900 19.83600
H  -1.97500 25.67500 20.89000
H  -2.13500 27.24000 21.55800
H  -1.35100 28.00500 24.86800
H  -0.95100 28.57300 26.50700
H  -2.10200 29.46500 25.50800
H  -4.25500 27.95900 30.72600
H  -2.39500 26.39200 34.14500
H  -0.90900 26.23700 33.12000
H  -2.31300 25.11200 33.07200

