158

Mg 41.86500 41.21700 26.88400
C  41.39600 43.70400 29.23000
C  42.43400 38.97600 29.47500
C  42.74600 39.01500 24.58200
C  41.51500 43.66900 24.36000
N  42.02800 41.37900 29.07500
C  41.74000 42.49000 29.81100
C  41.81800 42.23900 31.30600
C  42.29000 40.74100 31.30600
C  42.18400 40.25900 29.83700
C  43.73900 40.53900 31.77500
C  40.46800 42.57900 32.00400
C  40.63100 43.29100 33.31800
H  39.63100 42.98200 34.45800
N  42.26700 39.22600 27.01700
C  42.49700 38.48500 28.18000
C  42.89700 37.15200 27.76000
C  42.93700 37.12400 26.33800
C  42.69300 38.56400 25.94300
C  42.89200 36.00800 28.70200
C  43.11600 35.86100 25.35300
O  43.17600 35.99300 24.12200
C  43.22000 34.41300 25.85800
N  42.20800 41.32500 24.77800
C  42.46400 40.26400 24.00600
C  42.51300 40.54700 22.44300
C  42.03000 42.05900 22.47200
C  41.95600 42.42600 23.95700
C  43.81800 40.28900 21.67900
C  40.71800 42.32700 21.69100
C  39.52100 41.46300 22.29700
N  41.56600 43.26200 26.73400
C  41.39100 44.09200 25.68000
C  40.99000 45.37800 26.20700
C  41.01900 45.28200 27.57300
C  41.38600 43.97900 27.79900
C  40.59300 46.56300 25.35000
C  40.85900 46.05500 28.78000
O  40.79200 47.32700 28.91900
C  40.99200 45.02700 29.90200
C  42.21800 45.60200 30.63500
O  43.37500 45.52600 30.36500
O  41.77900 46.14600 31.81800
C  42.73900 47.06700 32.44400
H  42.62100 38.27700 30.29300
H  43.07100 38.26400 23.85900
H  41.44200 44.42000 23.57100
H  42.51400 42.94700 31.75700
H  41.59300 40.25600 31.98900
H  43.89500 39.88800 32.63600
H  44.25300 41.47000 32.01600
H  44.42300 40.17000 31.01100
H  39.87800 41.66700 32.10300
H  39.90300 43.19900 31.30800
H  40.48200 44.32100 32.99500
H  41.60300 43.15400 33.79200
H  43.89200 35.57800 28.75100
H  42.26300 35.22500 28.28000
H  42.56700 36.32400 29.69300
H  42.19300 34.19800 26.15300
H  43.69000 34.31800 26.83600
H  43.58800 33.64100 25.18200
H  41.79900 39.86300 21.98400
H  42.77800 42.72000 22.03500
H  44.63000 40.05600 22.36800
H  44.04100 41.16300 21.06600
H  43.58100 39.52100 20.94300
H  40.87300 41.89200 20.70400
H  40.48800 43.39300 21.68200
H  39.74100 41.04300 23.27800
H  39.24900 40.64800 21.62600
H  38.60700 42.01900 22.50100
H  39.69300 46.94700 25.83000
H  40.33100 46.33200 24.31700
H  41.17000 47.48700 25.30700
H  40.06100 45.16900 30.44900
H  43.22800 46.44000 33.18900
H  42.21000 47.89300 32.92000
H  43.55300 47.44500 31.82400
Mg 9.51100 47.16400 27.49300
C  7.28400 47.24000 30.24400
C  12.13200 47.95000 29.45300
C  11.39900 47.74700 24.66700
C  6.55700 47.16000 25.36800
N  9.72600 47.38900 29.57700
C  8.70100 47.46000 30.52200
C  9.30500 47.60900 31.89800
C  10.87600 47.87900 31.58900
C  10.93200 47.74400 30.08100
C  11.40100 49.20700 31.98300
C  8.90000 46.50300 32.90700
C  9.90400 46.20900 34.01200
H  9.38700 45.89700 35.46000
N  11.48400 47.61900 27.15900
C  12.38200 47.94300 28.10300
C  13.71100 48.14800 27.45400
C  13.54800 47.98000 26.06600
C  12.12800 47.79200 25.93100
C  14.97300 48.37800 28.22100
C  14.60900 47.96100 24.97100
O  14.35500 47.77300 23.81500
C  16.05100 48.10100 25.30300
N  9.02400 47.59600 25.35000
C  10.00400 47.72100 24.43100
C  9.47500 47.70700 23.01700
C  7.91300 47.32200 23.18100
C  7.80700 47.33900 24.73100
C  9.79900 49.09500 22.39500
C  7.35900 46.10200 22.51800
C  7.09200 46.20900 21.02300
N  7.36500 47.09100 27.67800
C  6.29700 47.05900 26.78000
C  4.98800 47.01100 27.43200
C  5.35300 47.00400 28.75900
C  6.78900 47.06900 28.88500
C  3.67700 47.03000 26.73600
C  4.82000 46.95100 30.15200
O  3.67900 46.84100 30.53300
C  6.02800 47.02800 31.09700
C  5.95800 45.68800 31.79900
O  6.41600 44.65100 31.34000
O  5.43900 45.83500 33.04700
C  5.60400 44.73300 33.98500
H  12.95100 48.09900 30.15900
H  12.04600 47.80100 23.78800
H  5.65300 47.02500 24.77000
H  8.94800 48.57200 32.26500
H  11.51100 47.18100 32.13400
H  10.74000 49.53300 32.78700
H  11.47000 49.89900 31.14400
H  12.34100 49.10700 32.52500
H  8.67100 45.63200 32.29300
H  7.94300 46.81000 33.32800
H  10.58600 47.05900 34.04800
H  10.57000 45.39400 33.73100
H  15.52700 47.47100 27.97900
H  14.82200 48.44200 29.29900
H  15.52800 49.23800 27.84800
H  16.43000 47.27200 25.90100
H  16.16000 49.08600 25.75700
H  16.50200 47.97300 24.31800
H  9.96300 46.89600 22.47700
H  7.26400 48.11400 22.80800
H  10.38400 49.71600 23.07400
H  8.82600 49.52500 22.15900
H  10.45900 49.00700 21.53200
H  6.35200 45.95200 22.90900
H  8.01100 45.29400 22.85000
H  7.67100 45.55800 20.36900
H  7.25000 47.19700 20.59000
H  6.04900 46.06000 20.74300
H  3.48600 46.03100 26.34300
H  3.63300 47.66900 25.85400
H  2.84400 47.25800 27.40100
H  5.83100 47.95000 31.64400
H  6.61300 44.33000 33.90600
H  4.90600 43.91400 33.81000
H  5.54700 45.10200 35.00900

