158

Mg 43.82800 3.45500 48.04900
C  41.52600 5.91700 47.13200
C  41.30000 1.15700 47.72600
C  46.04900 1.02700 48.22200
C  46.39200 5.86800 47.83000
N  41.72500 3.54000 47.25400
C  40.92300 4.68100 47.02400
C  39.44500 4.31200 46.77100
C  39.44100 2.80200 47.28100
C  40.93200 2.48400 47.59000
C  38.46700 2.63300 48.57300
C  39.06100 4.50000 45.22000
C  37.86400 5.38600 44.95100
H  38.00300 6.25500 43.77400
N  43.68700 1.33400 47.89100
C  42.56500 0.54700 47.92900
C  42.88400 -0.84700 48.04900
C  44.29200 -0.89300 48.31300
C  44.74200 0.47600 48.14400
C  41.83600 -1.92400 48.11100
C  45.04800 -2.16700 48.75400
O  44.49700 -3.24400 48.87300
C  46.49200 -2.16900 49.04500
N  45.93600 3.41100 47.59400
C  46.63600 2.26700 47.90100
C  48.18800 2.49000 47.82500
C  48.21500 4.04900 47.62100
C  46.78100 4.49700 47.58700
C  48.92700 2.03500 49.11200
C  49.00500 4.43300 46.35300
C  50.42900 3.86800 46.27200
N  43.99200 5.54400 47.74000
C  45.11100 6.32400 47.60300
C  44.65300 7.68900 47.43500
C  43.23900 7.57600 47.27700
C  42.91100 6.23700 47.40800
C  45.52400 8.87700 47.27400
C  42.00800 8.36900 47.15500
O  41.82800 9.57600 47.03500
C  40.86200 7.29900 47.14900
C  40.06000 7.47400 48.39500
O  40.27800 7.01100 49.51400
O  39.09700 8.41700 48.05700
C  38.07900 8.89200 49.03900
H  40.44200 0.48300 47.74800
H  46.79600 0.24400 48.37400
H  47.18200 6.61200 47.94900
H  38.85500 4.94200 47.43800
H  39.02600 2.25800 46.43200
H  37.87100 1.72100 48.52800
H  37.72300 3.42900 48.59400
H  39.03300 2.68100 49.50400
H  38.69100 3.55400 44.82700
H  39.84900 4.88500 44.57300
H  37.66300 6.02500 45.81100
H  37.01800 4.72300 44.77100
H  42.13100 -2.64400 47.34900
H  40.80100 -1.73300 47.82800
H  41.74800 -2.57600 48.98000
H  47.04000 -1.96900 48.12500
H  46.74900 -3.09200 49.56600
H  46.62000 -1.39600 49.80300
H  48.58800 2.01600 46.92900
H  48.68000 4.47000 48.51200
H  49.73000 2.71600 49.39200
H  49.28600 1.08600 48.71500
H  48.32300 1.82300 49.99500
H  49.02300 5.52200 46.40200
H  48.55100 4.00500 45.45900
H  50.53200 3.16300 45.44700
H  50.70400 3.33200 47.18000
H  51.11500 4.71000 46.18200
H  45.12200 9.70100 47.86200
H  45.59600 9.25900 46.25600
H  46.57100 8.81400 47.57100
H  40.27100 7.52800 46.26200
H  37.75800 9.87500 48.69600
H  38.35700 8.98300 50.09000
H  37.23800 8.20300 48.96300
Mg -11.76500 17.02900 42.33500
C  -8.27200 18.22600 42.23700
C  -12.55200 20.38500 41.66900
C  -14.75800 16.06000 42.07100
C  -10.44900 13.77900 42.47600
N  -10.51300 19.05400 41.83200
C  -9.16300 19.27900 42.03400
C  -8.75100 20.73800 41.85900
C  -10.19800 21.38400 41.93800
C  -11.18000 20.23400 41.70500
C  -10.42100 22.07800 43.34000
C  -8.05900 20.96000 40.50700
C  -6.66000 21.53200 40.42600
H  -5.71000 20.74500 39.62700
N  -13.43600 17.96500 41.81600
C  -13.62300 19.34100 41.64400
C  -15.07600 19.59300 41.45000
C  -15.77200 18.37000 41.58200
C  -14.65400 17.38600 41.81600
C  -15.57100 20.97900 41.12100
C  -17.28600 18.14900 41.46400
O  -17.99400 19.13900 41.30700
C  -17.92000 16.78100 41.33200
N  -12.48000 15.10400 41.95900
C  -13.83200 15.05600 42.24100
C  -14.23700 13.59200 42.59200
C  -12.88000 12.89700 42.76600
C  -11.86900 13.95600 42.41700
C  -15.19100 13.40500 43.82000
C  -12.63300 11.62300 41.99100
C  -13.78600 10.59300 41.97500
N  -9.74000 16.14600 42.29300
C  -9.39000 14.80400 42.34000
C  -7.91400 14.68800 42.56700
C  -7.44700 16.05600 42.66800
C  -8.56900 16.87000 42.34400
C  -7.07000 13.42600 42.67300
C  -6.27300 16.85400 42.83000
O  -5.07600 16.64200 43.01900
C  -6.82900 18.34400 42.50700
C  -6.42000 19.10700 43.69700
O  -6.83800 18.95600 44.85000
O  -5.49200 19.99100 43.35500
C  -4.70500 20.76000 44.32600
H  -12.84400 21.42900 41.54200
H  -15.77500 15.76100 42.33400
H  -10.14100 12.76000 42.72300
H  -8.13900 20.99000 42.72500
H  -10.37000 22.23400 41.27900
H  -9.49900 22.05000 43.92100
H  -11.21500 21.58700 43.90400
H  -10.57000 23.14700 43.18900
H  -8.64000 21.72900 39.99900
H  -8.10000 20.04300 39.92000
H  -6.19400 21.55000 41.41100
H  -6.55900 22.60200 40.24700
H  -16.55400 21.08700 40.66200
H  -14.80000 21.41200 40.48400
H  -15.48000 21.51700 42.06400
H  -18.82400 16.81000 40.72400
H  -18.12000 16.26800 42.27300
H  -17.20800 16.27600 40.67900
H  -14.83300 13.17900 41.77800
H  -12.74500 12.73100 43.83400
H  -14.67200 12.79800 44.56100
H  -16.09500 12.84000 43.59100
H  -15.37600 14.33400 44.35800
H  -11.85300 10.95700 42.35900
H  -12.27000 11.89700 41.00100
H  -13.66400 9.73900 42.64200
H  -13.95800 10.22700 40.96200
H  -14.73400 11.05000 42.25800
H  -6.05800 13.63800 42.32800
H  -7.49300 12.58200 42.12900
H  -7.01300 12.90100 43.62700
H  -6.29800 18.72800 41.63600
H  -3.87700 21.24900 43.81200
H  -4.27800 20.08400 45.06700
H  -5.34900 21.48200 44.82700

