158

Mg 46.89900 16.08600 28.07900
C  44.98700 15.82300 30.74700
C  49.20500 17.84900 29.94200
C  48.58000 17.04100 25.20100
C  44.47700 14.50000 26.17600
N  46.98900 16.78200 30.05700
C  46.09100 16.56900 31.02400
C  46.65900 16.99700 32.38000
C  47.74600 18.08700 31.97600
C  48.00500 17.58500 30.50300
C  47.33100 19.56600 32.07900
C  47.04400 15.72800 33.28100
C  46.46700 15.82300 34.70400
H  46.31300 17.17900 35.41700
N  48.78200 17.04800 27.63500
C  49.54700 17.62200 28.60900
C  50.82300 18.02600 27.97600
C  50.65600 17.89500 26.54500
C  49.25800 17.33000 26.41100
C  51.99900 18.63100 28.78500
C  51.60900 18.32300 25.49500
O  51.32400 18.32200 24.32500
C  52.91400 18.95500 25.83100
N  46.57100 15.87700 26.01800
C  47.34000 16.45000 25.03800
C  46.81000 16.04100 23.69700
C  45.63900 15.12000 24.02900
C  45.48700 15.18300 25.51000
C  46.43100 17.33500 22.82600
C  45.80900 13.70300 23.57200
C  44.69200 13.15500 22.64900
N  45.05000 15.26500 28.36200
C  44.25800 14.60600 27.54700
C  43.10500 14.10400 28.31000
C  43.35100 14.46800 29.62000
C  44.57600 15.24400 29.55000
C  41.91800 13.34700 27.75400
C  42.85400 14.52300 30.94200
O  41.90600 13.96900 31.49900
C  43.93800 15.35100 31.71200
C  43.32800 16.43800 32.52300
O  43.00200 17.55600 32.08700
O  43.17000 15.97300 33.77300
C  42.36000 16.86200 34.51800
H  50.02000 18.33600 30.48000
H  49.16000 17.32500 24.32100
H  43.65600 13.92600 25.74100
H  45.85300 17.49400 32.92100
H  48.59200 17.87100 32.62800
H  46.28400 19.69800 32.35400
H  47.53000 20.02000 31.10800
H  47.78000 20.20900 32.83600
H  48.13200 15.66200 33.29300
H  46.74200 14.81400 32.76900
H  47.18300 15.24700 35.29100
H  45.50800 15.33600 34.87900
H  51.93600 18.53200 29.86900
H  51.84300 19.69300 28.59400
H  52.90500 18.16800 28.39400
H  52.59700 19.81800 26.41700
H  53.42100 19.40000 24.97500
H  53.53700 18.29000 26.42900
H  47.60200 15.54600 23.13300
H  44.76800 15.66200 23.66200
H  46.57400 18.30600 23.29900
H  45.42900 17.31300 22.39800
H  47.13200 17.38600 21.99200
H  45.84900 13.12100 24.49300
H  46.74300 13.62700 23.01500
H  43.71700 13.62700 22.77000
H  44.51600 12.09900 22.85600
H  45.01000 13.24600 21.61000
H  42.40900 12.38600 27.60000
H  41.60800 13.76100 26.79500
H  41.11100 13.38200 28.48700
H  44.40500 14.67900 32.43100
H  41.34000 17.04500 34.18000
H  42.91300 17.76900 34.76300
H  42.26500 16.39000 35.49600
Mg 50.18700 46.70700 42.86500
C  46.94500 47.26300 41.53900
C  50.25200 43.78200 41.21000
C  53.23500 46.45900 43.83700
C  50.18200 50.18300 43.75800
N  48.81800 45.69600 41.43100
C  47.50600 45.98800 41.20600
C  46.75500 44.98700 40.40200
C  47.67500 43.77500 40.60800
C  48.99700 44.41500 41.11000
C  47.16600 42.63100 41.55200
C  46.61800 45.45100 38.89000
C  45.27100 45.74400 38.34100
H  44.70500 44.63300 37.39200
N  51.58700 45.30200 42.51100
C  51.46000 44.12200 41.81800
C  52.64700 43.27700 42.07400
C  53.53400 44.04300 42.87200
C  52.83400 45.32200 43.08800
C  52.88900 41.89400 41.51900
C  54.92800 43.59700 43.41200
O  55.32900 42.46700 43.21100
C  55.73000 44.48200 44.36400
N  51.54800 48.21400 43.48300
C  52.76300 47.75700 43.90100
C  53.72700 48.84500 44.42300
C  52.64900 50.05600 44.47200
C  51.35800 49.47100 43.88800
C  54.52400 48.43200 45.71200
C  53.15900 51.30400 43.60500
C  53.43100 52.59100 44.33500
N  48.84900 48.42200 42.67500
C  49.00400 49.76200 43.06300
C  47.83200 50.52200 42.76300
C  46.92600 49.59400 42.22500
C  47.64800 48.33600 42.11700
C  47.63900 51.92800 43.03800
C  45.65300 49.42100 41.57900
O  44.66200 50.11800 41.36800
C  45.58200 47.85600 41.20600
C  44.42500 47.23200 41.80500
O  44.25400 46.93300 42.99500
O  43.39600 47.15600 40.86100
C  42.10100 46.77400 41.32500
H  50.30800 42.77400 40.79400
H  54.30300 46.44600 44.06300
H  50.19000 51.20800 44.13400
H  45.81800 44.70200 40.88100
H  47.91500 43.35200 39.63300
H  46.17800 42.85400 41.95300
H  47.87100 42.52100 42.37700
H  46.96200 41.80100 40.87600
H  47.22900 44.70100 38.38700
H  47.18600 46.37500 38.77900
H  45.35700 46.71900 37.86100
H  44.44800 45.84600 39.04800
H  53.95100 41.78200 41.29700
H  52.36800 41.61300 40.60400
H  52.64200 41.16000 42.28600
H  55.20800 44.79300 45.26900
H  55.89500 45.37800 43.76600
H  56.69900 44.08200 44.66300
H  54.49200 48.97500 43.65800
H  52.51200 50.34600 45.51400
H  54.39600 49.25500 46.41500
H  55.58900 48.37900 45.48500
H  54.19800 47.51800 46.20800
H  52.44900 51.58100 42.82500
H  54.14500 51.11300 43.18100
H  54.48600 52.85500 44.26400
H  53.13200 52.44400 45.37300
H  52.80300 53.40700 43.97800
H  48.46400 52.30600 43.64000
H  46.78800 52.04900 43.70800
H  47.52400 52.44300 42.08400
H  45.51300 47.86200 40.11800
H  42.24400 45.87100 41.91800
H  41.50500 46.62700 40.42400
H  41.48600 47.44700 41.92300

