158

Mg 16.83400 -1.97400 27.42700
C  16.13000 0.36500 30.05600
C  18.83000 -3.71800 29.63500
C  18.14000 -3.69500 24.78200
C  15.44600 0.40600 25.25000
N  17.48800 -1.63400 29.63800
C  16.90200 -0.75100 30.54200
C  17.28100 -1.16300 31.94900
C  18.17800 -2.43600 31.79900
C  18.17900 -2.61500 30.28600
C  19.53500 -2.53500 32.57800
C  15.98800 -1.49900 32.72400
C  15.93700 -1.32300 34.27800
H  17.24900 -0.76500 34.91000
N  17.99800 -3.61700 27.26600
C  18.71900 -4.22600 28.27500
C  19.33700 -5.49500 27.87200
C  19.08900 -5.49100 26.40300
C  18.38000 -4.19800 26.08800
C  20.06900 -6.56200 28.79700
C  19.51700 -6.60800 25.42000
O  19.21500 -6.55000 24.22400
C  20.15100 -7.79700 25.91500
N  16.80200 -1.66800 25.35200
C  17.42100 -2.51700 24.45500
C  17.28600 -2.09000 22.90600
C  16.48900 -0.75400 23.15600
C  16.16100 -0.64100 24.67300
C  18.68800 -1.85900 22.16100
C  15.18500 -0.45600 22.30900
C  13.97800 -1.33300 22.66000
N  15.91000 0.00200 27.55200
C  15.36200 0.78500 26.56700
C  14.75900 1.96800 27.15700
C  15.03600 1.86100 28.53400
C  15.75500 0.63000 28.74700
C  14.03600 3.06500 26.46900
C  14.90600 2.43200 29.86200
O  14.47200 3.54100 30.17600
C  15.51700 1.46800 30.86100
C  16.47300 2.14400 31.87200
O  17.67400 2.38000 31.72000
O  15.78700 2.57500 32.97400
C  16.46300 3.49100 33.86200
H  19.32400 -4.29500 30.42000
H  18.56400 -4.25500 23.94600
H  15.05400 1.17100 24.57700
H  17.87700 -0.32100 32.30000
H  17.70500 -3.26800 32.32100
H  19.50500 -3.08500 33.51900
H  19.72800 -1.50800 32.88600
H  20.34200 -2.92800 31.95900
H  15.72900 -2.55300 32.62800
H  15.16000 -0.95400 32.27000
H  15.78900 -2.28700 34.76400
H  15.13900 -0.66600 34.62400
H  19.64100 -7.56500 28.79600
H  20.03000 -6.31000 29.85700
H  21.12000 -6.56100 28.50900
H  21.17600 -7.65800 26.25900
H  20.43200 -8.44200 25.08300
H  19.45100 -8.29800 26.58400
H  16.59400 -2.69000 22.31600
H  17.14200 0.07600 22.88700
H  19.05800 -0.83500 22.11000
H  18.71400 -2.19300 21.12400
H  19.51000 -2.40500 22.62500
H  15.35200 -0.46700 21.23200
H  14.95600 0.58000 22.55900
H  13.23000 -0.66700 23.09100
H  14.09800 -2.13700 23.38500
H  13.60200 -1.66100 21.69100
H  13.71700 2.70400 25.49200
H  14.71000 3.91300 26.35000
H  13.16300 3.25400 27.09500
H  14.68800 1.03100 31.41700
H  16.84900 4.29900 33.24100
H  17.30200 3.03500 34.38800
H  15.71200 3.94100 34.51200
Mg -11.88300 16.62300 42.38500
C  -8.52800 17.68600 42.67500
C  -12.83400 19.95800 42.19700
C  -14.87200 15.67800 41.46100
C  -10.68500 13.29800 42.17500
N  -10.85000 18.53400 42.40200
C  -9.41600 18.72400 42.49700
C  -9.13500 20.14800 42.26700
C  -10.39000 20.90500 42.60400
C  -11.46800 19.72800 42.46300
C  -10.46600 21.59000 44.03600
C  -8.59300 20.36300 40.77300
C  -7.20900 21.10100 40.58000
H  -6.13600 20.35200 39.84000
N  -13.65500 17.67700 42.01700
C  -13.82000 19.00300 41.94600
C  -15.17600 19.30200 41.39500
C  -15.82900 18.05300 41.17900
C  -14.74900 17.06300 41.50600
C  -15.71900 20.73300 41.26200
C  -17.29800 17.77100 40.84600
O  -18.04100 18.65400 40.51700
C  -17.84400 16.36300 40.85300
N  -12.60800 14.72300 41.52900
C  -13.99000 14.67300 41.66100
C  -14.44200 13.23500 41.83400
C  -13.07900 12.48300 41.81500
C  -12.04300 13.55000 41.89100
C  -15.24100 12.96800 43.08800
C  -12.84500 11.72300 40.48800
C  -13.48600 10.37100 40.51200
N  -10.07100 15.64800 42.56200
C  -9.71500 14.30000 42.44000
C  -8.26400 14.15800 42.60500
C  -7.81700 15.51800 42.71900
C  -8.94800 16.30900 42.74900
C  -7.51000 12.95600 42.47100
C  -6.57600 16.34600 42.73800
O  -5.42500 16.04800 42.66400
C  -7.03500 17.76400 42.76200
C  -6.57400 18.45200 43.91800
O  -6.53600 17.94500 45.02500
O  -6.16500 19.70900 43.61900
C  -5.61300 20.52100 44.76300
H  -13.18100 20.99400 42.18500
H  -15.81500 15.18200 41.22100
H  -10.44300 12.23800 42.27000
H  -8.31300 20.45500 42.91400
H  -10.53700 21.63700 41.81000
H  -10.68900 22.64500 43.87600
H  -9.49000 21.51700 44.51700
H  -11.17900 21.08800 44.69000
H  -9.25500 20.94800 40.13400
H  -8.50600 19.36500 40.34400
H  -6.88000 21.39800 41.57500
H  -7.48900 22.00500 40.03800
H  -16.21800 21.02100 42.18700
H  -16.53100 20.80000 40.53800
H  -14.96400 21.41600 40.87000
H  -18.91500 16.52400 40.72600
H  -17.82700 15.94300 41.85800
H  -17.34600 15.75500 40.09700
H  -14.99800 12.97900 40.93200
H  -12.74000 11.78000 42.57600
H  -16.30800 12.83200 42.91100
H  -15.09300 13.70600 43.87700
H  -14.91800 12.05500 43.58700
H  -11.78000 11.57200 40.30800
H  -13.28100 12.27900 39.65900
H  -14.09800 10.05900 41.35900
H  -12.67800 9.63900 40.52300
H  -13.98700 10.10100 39.58300
H  -6.49900 13.03400 42.86800
H  -7.36900 12.85500 41.39400
H  -7.98300 12.04400 42.83500
H  -6.55700 18.19200 41.88200
H  -6.04300 20.36300 45.75200
H  -5.87400 21.52200 44.42100
H  -4.52700 20.50200 44.67600

