158

Mg 44.19800 5.23900 47.92000
C  42.08300 7.94400 46.97800
C  41.79300 3.13700 47.26100
C  46.53900 2.85000 48.04000
C  46.73300 7.64500 48.30200
N  42.14600 5.59600 47.26800
C  41.49000 6.73900 46.85400
C  40.08400 6.34500 46.33800
C  39.89700 4.86200 46.84500
C  41.38500 4.52000 47.13700
C  38.97000 4.70000 48.08000
C  40.02100 6.36700 44.78500
C  39.15900 7.48600 44.14500
H  39.92200 8.48200 43.24600
N  44.14900 3.30800 47.73000
C  43.04700 2.59900 47.56100
C  43.40200 1.20100 47.56500
C  44.85300 1.10400 47.68800
C  45.25900 2.48600 47.73600
C  42.37500 0.09000 47.47000
C  45.60700 -0.19300 47.65000
O  44.98300 -1.24600 47.81100
C  47.10300 -0.31800 47.38400
N  46.36800 5.29900 47.90200
C  47.07800 4.17900 48.16400
C  48.57000 4.41600 48.38800
C  48.66200 6.00400 48.28200
C  47.16800 6.34800 48.19600
C  49.07300 3.83500 49.79600
C  49.57300 6.58100 47.17300
C  50.65400 7.57300 47.61700
N  44.41600 7.35600 47.76500
C  45.50900 8.16700 47.96500
C  45.12800 9.57800 47.81600
C  43.77300 9.51400 47.42200
C  43.44000 8.15300 47.37900
C  45.96300 10.83600 47.90800
C  42.68400 10.33300 47.08800
O  42.56000 11.53900 46.97500
C  41.50700 9.34700 46.79000
C  40.58100 9.71400 47.87800
O  40.58000 9.20700 49.04300
O  39.68900 10.67000 47.54400
C  38.66500 11.03900 48.54100
H  40.87000 2.55400 47.30200
H  47.33300 2.12400 48.22600
H  47.48600 8.41100 48.49800
H  39.35200 7.00600 46.80200
H  39.39500 4.28800 46.06600
H  38.42800 5.62800 48.26100
H  39.51200 4.35100 48.95900
H  38.22800 3.94700 47.81400
H  39.70800 5.40800 44.37300
H  41.02500 6.53000 44.39200
H  38.63600 8.03300 44.92900
H  38.31400 7.16600 43.53500
H  42.40600 -0.72200 48.19500
H  42.42400 -0.34100 46.47000
H  41.44300 0.65000 47.54800
H  47.44600 0.28300 46.54200
H  47.40400 -1.35600 47.24000
H  47.66700 -0.01500 48.26700
H  49.20300 3.94400 47.63700
H  48.86200 6.48600 49.23900
H  48.34400 3.09800 50.13300
H  49.33500 4.65900 50.45900
H  50.00000 3.26200 49.76800
H  48.86100 7.07400 46.51000
H  49.99500 5.80000 46.54100
H  50.14500 8.50900 47.84800
H  51.51300 7.68700 46.95700
H  51.08500 7.29700 48.57900
H  45.38000 11.73700 48.09600
H  46.59900 10.90200 47.02500
H  46.50100 10.78600 48.85500
H  41.05600 9.47900 45.80700
H  37.75000 10.53100 48.23500
H  38.67000 12.12900 48.52800
H  38.80800 10.72600 49.57600
Mg -11.45100 16.16500 41.47400
C  -8.86400 13.91400 41.11100
C  -9.68800 18.64600 39.95100
C  -14.40600 17.91600 40.86800
C  -13.57000 13.29800 42.18700
N  -9.61500 16.19100 40.53700
C  -8.64000 15.19800 40.61700
C  -7.27100 15.71800 40.26000
C  -7.55200 17.27900 40.08900
C  -9.06400 17.37100 40.16100
C  -6.76300 18.05100 41.17000
C  -6.61000 15.10600 38.96000
C  -5.13000 15.08100 38.65300
H  -4.77400 15.42600 37.20000
N  -11.97100 18.07300 40.69700
C  -11.09900 18.91800 40.09300
C  -11.74900 20.19100 39.85100
C  -13.10000 20.03600 40.25400
C  -13.21500 18.62400 40.64300
C  -10.95500 21.35400 39.40200
C  -14.13900 21.08100 40.21200
O  -13.91900 22.15000 39.71500
C  -15.46800 20.90300 40.95600
N  -13.72900 15.56100 41.32300
C  -14.73200 16.60000 41.16800
C  -16.13100 15.94200 41.15800
C  -15.72200 14.54600 41.70200
C  -14.25400 14.42200 41.81800
C  -17.00000 16.80300 42.05700
C  -16.47700 13.38400 40.93100
C  -17.05100 12.24800 41.77800
N  -11.25100 14.04600 41.82400
C  -12.14200 13.02800 42.12900
C  -11.39000 11.86300 42.45700
C  -10.07500 12.15700 42.08000
C  -10.08200 13.47900 41.71700
C  -12.02800 10.56200 42.97000
C  -8.75700 11.59900 41.99600
O  -8.36700 10.49500 42.23300
C  -7.85600 12.81200 41.49600
C  -6.88900 13.29500 42.48400
O  -7.11500 13.74600 43.59600
O  -5.60700 13.18200 42.00300
C  -4.53600 13.61300 42.89500
H  -8.93100 19.37600 39.65700
H  -15.30600 18.44700 40.55100
H  -14.15700 12.46000 42.56900
H  -6.57500 15.58500 41.08700
H  -7.22300 17.68500 39.13200
H  -6.14300 17.39200 41.77800
H  -7.42700 18.58500 41.84900
H  -6.13800 18.78200 40.65600
H  -7.22500 15.49700 38.14900
H  -6.94000 14.06900 39.02500
H  -4.84900 14.04000 38.81000
H  -4.70700 15.95400 39.14900
H  -10.25300 21.59400 40.20100
H  -11.53600 22.25000 39.18500
H  -10.48300 20.98300 38.49300
H  -16.34700 20.62700 40.37200
H  -15.68600 21.89400 41.35500
H  -15.31700 20.33700 41.87500
H  -16.45800 15.82400 40.12500
H  -16.06100 14.49600 42.73700
H  -16.42900 17.53000 42.63500
H  -17.72400 16.22600 42.63200
H  -17.70200 17.41500 41.49200
H  -15.80300 12.90200 40.22200
H  -17.34900 13.79000 40.42000
H  -16.84800 11.30800 41.26600
H  -18.11900 12.31400 41.98400
H  -16.54300 12.24300 42.74300
H  -12.77300 10.88300 43.69800
H  -11.38000 9.81400 43.42500
H  -12.57400 10.07200 42.16300
H  -7.26200 12.54100 40.62300
H  -3.69300 13.71200 42.21100
H  -4.28600 12.81300 43.59100
H  -4.73500 14.60800 43.29500

