158

Mg 0.40900 7.58800 26.08900
C  0.95600 9.83600 28.83200
C  0.73000 5.00500 28.47200
C  0.13500 5.41000 23.57400
C  0.73000 10.23100 23.80800
N  0.80500 7.52900 28.39600
C  0.90700 8.52400 29.32900
C  0.85600 7.98300 30.72600
C  1.12000 6.45900 30.62500
C  0.87800 6.32300 29.04000
C  2.42100 5.91700 31.11800
C  -0.47100 8.21200 31.56800
C  -0.38000 8.25200 33.14700
H  0.97500 8.15800 33.76000
N  0.35900 5.53600 26.04600
C  0.52900 4.65000 27.12100
C  0.33600 3.30600 26.63800
C  0.31400 3.32400 25.20500
C  0.25400 4.78700 24.89400
C  0.30200 2.09300 27.49100
C  0.34300 2.23800 24.16300
O  0.28800 2.45500 22.99800
C  0.43400 0.77700 24.56100
N  0.41000 7.84100 24.03300
C  0.10000 6.76900 23.19100
C  0.13100 7.20800 21.66600
C  0.18100 8.74500 21.81500
C  0.45700 8.99800 23.29400
C  1.37600 6.53700 20.85000
C  -1.03100 9.54000 21.19100
C  -0.71600 10.78400 20.38300
N  0.70800 9.57100 26.21800
C  0.80200 10.58400 25.20400
C  0.96500 11.87700 25.85600
C  1.03300 11.61200 27.23100
C  0.89500 10.20700 27.43400
C  0.93400 13.25100 25.22200
C  1.17800 12.30400 28.52900
O  1.37700 13.49700 28.83300
C  1.05600 11.10100 29.60400
C  2.11500 11.22600 30.57900
O  3.14100 10.63300 30.57200
O  1.78500 12.14200 31.57500
C  2.70100 12.19100 32.71600
H  0.88600 4.13300 29.11200
H  0.01300 4.74300 22.71700
H  0.74800 10.91300 22.95500
H  1.62700 8.57600 31.21800
H  0.23500 5.96700 31.02700
H  2.80700 5.12800 30.47300
H  2.44000 5.41600 32.08600
H  3.12300 6.75200 31.11700
H  -1.20200 7.46600 31.25700
H  -0.79500 9.16300 31.14500
H  -0.95400 7.35000 33.35900
H  -0.87600 9.16100 33.48600
H  0.99900 1.29300 27.24000
H  -0.68300 1.71700 27.21300
H  0.43800 2.31200 28.55000
H  0.59700 0.10700 23.71600
H  -0.45200 0.43200 25.09300
H  1.25300 0.58500 25.25500
H  -0.73900 6.84300 21.12000
H  1.09400 9.10500 21.34200
H  1.07900 6.46400 19.80300
H  1.74100 5.59700 21.26300
H  2.20800 7.24000 20.83900
H  -1.71900 9.75800 22.00800
H  -1.61900 8.99200 20.45400
H  -0.91900 10.46200 19.36200
H  0.37000 10.86800 20.43000
H  -1.30800 11.61400 20.76900
H  0.92100 13.45900 24.15300
H  1.78800 13.78400 25.63900
H  0.05800 13.78100 25.59600
H  0.11800 11.15000 30.15700
H  3.33000 13.08100 32.69500
H  3.40100 11.37500 32.89700
H  2.02900 12.16200 33.57400
Mg 25.41900 1.83700 30.00700
C  27.65100 2.00600 32.73000
C  22.87800 2.05600 32.31400
C  23.23600 1.77700 27.49200
C  27.98900 1.00500 27.95700
N  25.31200 2.17300 32.33300
C  26.35400 2.28600 33.21300
C  25.88000 2.52100 34.64000
C  24.34500 2.42100 34.46100
C  24.14300 2.11000 32.94500
C  23.51400 1.50500 35.45500
C  26.39300 3.78600 35.36200
C  26.85500 3.51700 36.81500
H  26.36400 4.51800 37.95600
N  23.39100 1.86200 29.90900
C  22.52100 2.01500 30.94100
C  21.10400 1.98400 30.45200
C  21.19100 1.95000 29.03500
C  22.65000 1.89100 28.77900
C  19.84800 2.25600 31.29600
C  20.08900 2.05300 27.93700
O  20.25300 1.86100 26.72200
C  18.68800 2.14400 28.39000
N  25.54200 1.30300 27.97800
C  24.53000 1.44100 27.16300
C  25.02800 1.32300 25.68100
C  26.54500 0.91000 25.82000
C  26.69900 1.11000 27.35800
C  24.20300 0.30000 24.81100
C  27.53700 1.80100 24.93700
C  27.75300 3.30000 25.25100
N  27.43600 1.49400 30.27000
C  28.36500 1.24300 29.31200
C  29.63400 0.99500 29.93900
C  29.40700 1.29900 31.26000
C  28.02000 1.61000 31.39700
C  30.89200 0.49900 29.19700
C  30.00400 1.39500 32.62700
O  31.12900 1.08100 32.90700
C  28.89400 1.88500 33.61000
C  28.79500 0.85800 34.68500
O  28.08100 -0.09300 34.77400
O  29.79800 1.09100 35.59700
C  29.67400 0.26100 36.83600
H  22.06000 2.24900 33.01100
H  22.55700 1.83800 26.63800
H  28.76500 0.72900 27.24100
H  26.19300 1.67000 35.24500
H  23.84900 3.38600 34.55500
H  22.49400 1.28900 35.13900
H  23.46600 2.00300 36.42400
H  23.96000 0.52700 35.63300
H  25.67300 4.59400 35.49100
H  27.19800 4.19700 34.75400
H  27.91800 3.75900 36.80700
H  26.75500 2.48000 37.13600
H  20.15900 2.33600 32.33700
H  19.15700 1.42500 31.44000
H  19.33600 3.16300 30.97400
H  17.87000 1.83100 27.74000
H  18.67200 3.19600 28.67500
H  18.54600 1.46900 29.23300
H  24.90300 2.25200 25.12500
H  26.71300 -0.15300 25.65000
H  23.91900 0.86100 23.92000
H  23.26400 0.16200 25.34700
H  24.44500 -0.73800 24.58300
H  27.14700 1.85000 23.92100
H  28.46500 1.23600 24.85800
H  27.58500 3.97200 24.40900
H  28.80200 3.49500 25.47600
H  27.06100 3.54300 26.05700
H  30.92100 0.89300 28.18100
H  30.76200 -0.56300 29.40600
H  31.72900 0.80000 29.82700
H  28.99500 2.89200 34.01500
H  29.95800 -0.79000 36.88700
H  28.62700 0.30600 37.13600
H  30.22100 0.88300 37.54400

