158

Mg 28.30300 56.76700 40.79500
C  26.20100 54.04100 39.79300
C  31.05100 54.79200 39.66000
C  30.28300 59.46000 41.01200
C  25.47400 58.69800 40.88500
N  28.50000 54.75600 39.49200
C  27.54900 53.80800 39.34000
C  28.11500 52.40200 38.96600
C  29.68500 52.63100 39.15200
C  29.80600 54.21300 39.33300
C  30.31900 51.82900 40.23800
C  27.52100 51.92700 37.59100
C  28.08300 52.60500 36.38000
H  27.08300 53.16300 35.38200
N  30.39400 57.07500 40.51800
C  31.34600 56.11800 40.11600
C  32.64800 56.61200 40.20800
C  32.53700 57.98700 40.68700
C  31.02400 58.24600 40.75700
C  33.90100 55.77700 39.95300
C  33.64700 58.93800 40.98000
O  34.80200 58.47500 40.82200
C  33.41600 60.38300 41.32600
N  27.92500 58.81200 40.82400
C  28.90800 59.72400 41.06200
C  28.37800 61.12600 41.33500
C  26.81800 60.85300 41.31400
C  26.70800 59.35600 41.01000
C  28.84700 61.84400 42.64700
C  26.10900 61.73700 40.15000
C  25.21700 62.86000 40.65500
N  26.15700 56.45700 40.55200
C  25.16100 57.33700 40.75500
C  23.84700 56.64400 40.70300
C  24.21200 55.31700 40.40900
C  25.61800 55.28900 40.21600
C  22.44900 57.14500 40.76400
C  23.71500 53.94400 40.23000
O  22.61700 53.41500 40.42700
C  25.00000 53.13000 39.75200
C  25.18100 51.93100 40.62400
O  25.14400 50.78700 40.19500
O  25.31000 52.23200 41.94500
C  25.32600 51.14700 42.93700
H  31.88900 54.09300 39.71100
H  30.81400 60.38700 41.23700
H  24.52400 59.23100 40.96400
H  27.77600 51.63100 39.65800
H  30.22800 52.38300 38.24000
H  29.55400 51.08300 40.45400
H  30.57800 52.34600 41.16200
H  31.20800 51.30200 39.89000
H  26.45500 52.15300 37.61400
H  27.63300 50.84600 37.51000
H  28.72700 51.88300 35.88000
H  28.74800 53.39700 36.72300
H  34.63600 56.35100 39.39000
H  33.74700 54.86300 39.37900
H  34.28900 55.55700 40.94800
H  33.04100 60.42000 42.34900
H  32.71100 60.80300 40.60900
H  34.32900 60.96700 41.21400
H  28.68900 61.83100 40.56400
H  26.40800 61.01300 42.31200
H  28.03200 62.29800 43.21100
H  29.66500 62.55100 42.51200
H  29.23600 61.13100 43.37400
H  25.42900 61.05100 39.64500
H  26.76200 61.96900 39.31000
H  25.59900 63.18600 41.62300
H  24.18600 62.51900 40.75000
H  25.42000 63.64500 39.92700
H  22.41100 57.94900 41.50000
H  21.69700 56.39900 41.02200
H  22.06600 57.63600 39.86900
H  24.82200 52.83700 38.71800
H  24.34300 50.99600 43.38400
H  25.98700 51.56900 43.69500
H  25.67500 50.24200 42.43900
Mg 6.21200 53.29500 41.23300
C  5.33500 49.85000 40.99000
C  9.04500 52.63400 39.91300
C  6.48300 56.65300 40.72500
C  2.79500 53.86900 41.76100
N  7.00300 51.38400 40.22800
C  6.54300 50.11500 40.40200
C  7.63300 49.20500 39.78900
C  8.94200 50.01800 39.99200
C  8.27900 51.45000 39.96800
C  9.84100 49.74000 41.21600
C  7.27300 48.85700 38.34900
C  7.74200 49.68600 37.12900
H  6.88700 49.76700 35.85800
N  7.60200 54.45000 40.48400
C  8.79200 53.96000 40.05400
C  9.72900 55.07700 39.82300
C  9.05200 56.25200 40.15300
C  7.66100 55.86500 40.49600
C  11.08600 54.91800 39.21800
C  9.66100 57.71300 40.15600
O  10.88800 57.75900 39.85400
C  8.95600 58.93100 40.54200
N  4.81500 55.00600 41.17700
C  5.21900 56.26600 41.04700
C  4.10100 57.27600 41.06500
C  2.88500 56.35400 41.42800
C  3.50300 54.97300 41.36900
C  4.32900 58.42600 42.14200
C  1.68700 56.62200 40.44700
C  1.56100 55.71200 39.27500
N  4.52700 52.12300 41.64200
C  3.19300 52.49200 41.83200
C  2.30200 51.35800 42.13900
C  3.16100 50.25400 41.88600
C  4.43800 50.81300 41.46700
C  0.87300 51.38800 42.63300
C  3.23400 48.81200 41.71600
O  2.38600 47.92400 41.94400
C  4.67000 48.50600 41.23000
C  4.63900 47.61200 39.97300
O  4.08500 47.87000 38.92100
O  5.34100 46.40400 40.25600
C  5.25800 45.47600 39.08900
H  10.08500 52.39600 39.68000
H  6.63600 57.72700 40.59900
H  1.75900 54.19000 41.89100
H  7.88000 48.37200 40.44700
H  9.56100 50.01000 39.09500
H  10.83900 49.68400 40.78000
H  9.59100 48.76100 41.62500
H  9.81300 50.54000 41.95500
H  6.20200 48.66200 38.29500
H  7.75800 47.89500 38.17900
H  8.72100 49.35000 36.78900
H  7.77000 50.74100 37.40300
H  11.23200 55.74300 38.52000
H  11.17700 53.96100 38.70400
H  11.81400 54.93500 40.02900
H  9.60800 59.79600 40.42200
H  8.63800 58.69800 41.55800
H  8.15300 59.02300 39.81100
H  3.88700 57.69100 40.08000
H  2.65200 56.40000 42.49200
H  3.59600 58.48400 42.94600
H  4.19400 59.33500 41.55500
H  5.38300 58.50200 42.40700
H  1.57300 57.67200 40.17800
H  0.83300 56.45500 41.10400
H  2.58300 55.43300 39.01900
H  1.19300 56.26900 38.41400
H  0.90100 54.88500 39.54000
H  0.34100 52.17200 42.09500
H  0.78400 51.36200 43.71900
H  0.40400 50.44100 42.36500
H  5.17500 47.95300 42.02200
H  5.63100 44.50000 39.40000
H  5.91100 45.69400 38.24400
H  4.23200 45.34900 38.74300

