158

Mg 25.42900 52.15800 26.91700
C  22.91700 52.83400 29.46200
C  27.51000 51.24900 29.56800
C  28.01300 52.17000 24.81600
C  23.33100 53.49900 24.63600
N  25.23500 52.17100 29.28400
C  24.10000 52.27600 30.07700
C  24.32400 51.94700 31.52200
C  25.89100 51.68100 31.55900
C  26.26600 51.69900 30.04700
C  26.74500 52.76400 32.39900
C  23.41400 50.76600 32.06900
C  23.01300 50.65600 33.52900
H  23.70300 51.44800 34.60800
N  27.38500 51.64300 27.15100
C  28.04300 51.21500 28.23500
C  29.44100 50.88100 27.95600
C  29.66100 51.23200 26.60300
C  28.34300 51.70800 26.14200
C  30.43100 50.41100 28.98200
C  30.85400 51.13200 25.73400
O  30.87200 51.49900 24.54200
C  32.11200 50.57600 26.33000
N  25.62900 52.69600 24.94500
C  26.77400 52.65800 24.25100
C  26.66600 53.18000 22.84900
C  25.17000 53.46500 22.79000
C  24.63700 53.21500 24.21600
C  27.58000 54.35500 22.44800
C  24.40600 52.63300 21.74100
C  23.62100 51.39400 22.17500
N  23.47000 52.91100 27.01600
C  22.70300 53.38600 25.93500
C  21.42400 53.79900 26.39700
C  21.52700 53.71500 27.82100
C  22.72800 53.07100 28.09100
C  20.20700 54.36000 25.72800
C  20.77400 53.95500 29.07300
O  19.66700 54.32700 29.22000
C  21.67000 53.33900 30.15700
C  22.02500 54.33000 31.21800
O  22.75700 55.27000 31.09400
O  21.16500 54.11500 32.28300
C  21.19600 55.25200 33.20000
H  28.18800 50.96500 30.37600
H  28.76300 52.25900 24.02700
H  22.67600 54.09900 24.00000
H  23.92900 52.80900 32.05800
H  26.06800 50.67400 31.93700
H  27.29600 53.52400 31.84500
H  27.41000 52.23400 33.08000
H  26.17100 53.41700 33.05800
H  23.93900 49.83900 31.84200
H  22.47700 50.78600 31.51300
H  23.07100 49.59000 33.74500
H  21.97900 50.93300 33.73500
H  30.09800 50.46300 30.01900
H  31.35900 50.97400 28.87900
H  30.61600 49.38100 28.67800
H  31.90100 49.62200 26.81300
H  32.29100 51.33000 27.09700
H  33.00300 50.52400 25.70500
H  26.94400 52.36400 22.18100
H  25.02400 54.54200 22.71800
H  28.36500 54.00400 21.77800
H  28.03800 54.89900 23.27400
H  26.96200 55.06100 21.89300
H  25.14600 52.28800 21.01800
H  23.70700 53.23500 21.16000
H  24.01800 51.07100 23.13800
H  23.87400 50.57700 21.49900
H  22.54100 51.50700 22.08200
H  20.64000 54.60800 24.75900
H  19.84400 55.28000 26.18700
H  19.32500 53.72300 25.66400
H  21.21600 52.50500 30.69100
H  21.25500 56.26700 32.80700
H  22.00000 55.10800 33.92200
H  20.20000 55.19300 33.64000
Mg 15.62600 52.24400 26.00800
C  17.66700 51.22400 28.58500
C  13.01700 52.64100 28.02700
C  13.73200 52.72300 23.28900
C  18.34300 51.13400 23.79200
N  15.35600 51.90400 28.04500
C  16.33400 51.70500 28.95100
C  15.80400 51.96000 30.38300
C  14.26100 52.10200 30.15900
C  14.16700 52.25400 28.69200
C  13.47500 50.91400 30.58800
C  16.42700 53.20100 30.99300
C  16.65200 53.13900 32.60700
H  16.03200 52.07700 33.40600
N  13.67200 52.76300 25.74800
C  12.71900 52.88900 26.67700
C  11.49500 53.41400 26.14000
C  11.59100 53.36100 24.74300
C  13.08800 52.94700 24.48900
C  10.27300 53.69600 27.01300
C  10.46100 53.50900 23.66700
O  10.58500 53.26300 22.50400
C  9.05600 53.93200 24.07500
N  15.99900 52.02900 23.81700
C  15.02300 52.36200 22.95700
C  15.52800 52.26100 21.51500
C  17.04400 51.86600 21.66400
C  17.16400 51.72700 23.21000
C  14.73400 51.30700 20.54100
C  18.05500 52.89300 21.05700
C  19.26100 52.27700 20.22400
N  17.55300 51.25500 26.09900
C  18.59400 51.01700 25.16400
C  19.75800 50.49300 25.82300
C  19.43500 50.53200 27.19300
C  18.08700 51.00100 27.29300
C  21.03500 50.10400 25.07900
C  19.91000 50.27400 28.52100
O  21.06800 49.98200 28.87200
C  18.77100 50.72600 29.47800
C  18.41100 49.49800 30.24200
O  17.90900 48.49200 29.72500
O  18.66500 49.66300 31.56400
C  18.20300 48.63800 32.48600
H  12.22800 53.00100 28.69100
H  13.13200 52.91900 22.39800
H  19.20100 51.04600 23.12300
H  15.99900 51.10700 31.03300
H  13.89300 53.03100 30.59600
H  12.72200 51.16900 31.33400
H  14.09600 50.09100 30.94200
H  12.89700 50.48300 29.77000
H  15.88300 54.11800 30.76600
H  17.43300 53.18500 30.57500
H  16.31800 54.10700 32.98100
H  17.73100 53.06100 32.74000
H  10.41300 53.68500 28.09400
H  9.50000 52.93300 26.92000
H  9.87500 54.66100 26.70000
H  9.05500 54.99900 24.29400
H  8.61400 53.38900 24.91000
H  8.52400 53.70200 23.15100
H  15.46900 53.29400 21.17100
H  17.20800 50.94300 21.10800
H  13.80500 51.02800 21.03900
H  15.36600 50.45900 20.27600
H  14.49300 51.86700 19.63800
H  18.43900 53.56100 21.82700
H  17.54100 53.44600 20.27100
H  19.35900 51.19700 20.32800
H  20.12600 52.69200 20.74100
H  19.34100 52.63000 19.19600
H  21.16700 50.63700 24.13800
H  21.02000 49.02500 24.92500
H  21.84800 50.30500 25.77600
H  19.22000 51.36300 30.24000
H  18.81000 47.73300 32.50500
H  17.23400 48.30200 32.11600
H  17.96400 49.01000 33.48200

