158

Mg 47.38700 25.71300 29.49500
C  48.41100 28.17000 31.97400
C  46.15200 23.74600 31.92800
C  47.29800 23.33500 27.23200
C  49.21200 27.73100 27.19300
N  47.14700 26.08400 31.63500
C  47.66700 27.07800 32.40300
C  47.14900 26.89000 33.81900
C  46.57300 25.41600 33.83600
C  46.55700 25.07300 32.33800
C  47.60100 24.50800 34.59100
C  46.09900 27.96900 34.13700
C  46.15800 28.77400 35.50700
H  46.85900 27.91700 36.65800
N  46.64900 23.76700 29.63100
C  46.19100 23.16000 30.67200
C  45.63500 21.92600 30.32600
C  45.97200 21.76200 28.90700
C  46.69800 22.97800 28.51100
C  44.79300 21.04500 31.27600
C  45.58900 20.62300 27.97500
O  45.86400 20.67900 26.78800
C  44.81300 19.47900 28.39800
N  48.09500 25.58900 27.47900
C  47.78900 24.50300 26.75100
C  48.21800 24.71100 25.26100
C  48.66200 26.20600 25.24600
C  48.60600 26.59600 26.69800
C  49.13400 23.65700 24.66900
C  47.80900 27.05300 24.32500
C  48.57500 27.69100 23.15800
N  48.55400 27.67600 29.48400
C  49.28900 28.25500 28.50700
C  49.89600 29.50000 28.94400
C  49.53100 29.54800 30.34300
C  48.77600 28.37800 30.59900
C  50.74100 30.49000 28.08100
C  49.70500 30.23700 31.53100
O  50.25500 31.27200 31.81800
C  49.05000 29.30900 32.71200
C  50.08900 28.95000 33.67600
O  51.15900 28.44800 33.34000
O  49.72600 29.44400 34.91400
C  50.63200 29.17000 36.03600
H  45.70200 23.20200 32.76000
H  47.19700 22.63300 26.40200
H  49.64100 28.25700 26.33800
H  48.08500 27.01300 34.36400
H  45.59100 25.35100 34.30400
H  48.54300 25.02200 34.78200
H  47.92300 23.73900 33.89000
H  47.24900 23.96000 35.46500
H  45.12500 27.48700 34.06100
H  45.99900 28.77300 33.40700
H  45.19400 29.08200 35.91100
H  46.73200 29.70100 35.51100
H  43.87800 20.69400 30.80000
H  44.49300 21.45500 32.24000
H  45.36400 20.22000 31.70200
H  43.74600 19.69500 28.35600
H  45.09400 19.13800 29.39500
H  44.97900 18.66500 27.69200
H  47.32100 24.58300 24.65500
H  49.67800 26.14600 24.85800
H  49.89000 23.45600 25.42800
H  49.54600 24.09700 23.76100
H  48.45800 22.84400 24.40100
H  47.26500 27.77800 24.93000
H  46.96900 26.55700 23.83900
H  48.05500 27.54500 22.21100
H  49.59400 27.31600 23.06700
H  48.43700 28.76900 23.24700
H  50.99400 30.06800 27.10900
H  51.67100 30.53400 28.64900
H  50.16000 31.40700 27.99100
H  48.26600 29.85700 33.23500
H  51.53800 29.67300 35.69700
H  50.80500 28.09500 36.07900
H  50.26700 29.52800 36.99900
Mg 7.76200 52.99600 41.60600
C  6.94800 49.59200 41.35800
C  10.70000 52.21400 40.01100
C  8.25100 56.17100 41.15800
C  4.60000 53.54400 42.92900
N  8.68000 51.14500 40.75600
C  8.13600 49.88100 40.78400
C  9.06900 48.86600 40.12600
C  10.38500 49.68600 40.18400
C  9.93600 51.10700 40.30300
C  11.42200 49.15800 41.13900
C  8.59700 48.48200 38.68100
C  9.13700 49.32200 37.44200
H  8.14200 49.68800 36.41800
N  9.26100 54.11200 40.63400
C  10.38800 53.61900 40.00500
C  11.21100 54.71800 39.61800
C  10.48400 55.87800 39.83200
C  9.28300 55.40800 40.56800
C  12.50400 54.60000 39.03000
C  10.87400 57.22700 39.33600
O  11.95600 57.33100 38.71400
C  9.94800 58.39500 39.36800
N  6.59200 54.62900 42.05700
C  7.01800 55.84500 41.78500
C  6.14000 56.92400 42.47100
C  4.90800 56.06100 42.93700
C  5.39500 54.64000 42.65500
C  6.75900 57.82500 43.55600
C  3.62800 56.25300 42.19400
C  3.56600 56.02500 40.62300
N  6.09400 51.80100 42.31500
C  4.84900 52.16200 42.81900
C  3.98200 50.98200 43.02300
C  4.81200 49.99500 42.45300
C  6.05400 50.52400 42.03000
C  2.49900 50.96300 43.31300
C  4.95500 48.51500 42.24600
O  4.29000 47.54600 42.57300
C  6.24700 48.21900 41.49300
C  5.84900 47.49600 40.21400
O  4.96600 47.97900 39.47800
O  6.41100 46.29000 40.01100
C  6.10900 45.61400 38.79000
H  11.67000 52.01600 39.55000
H  8.45200 57.24500 41.13500
H  3.62300 53.80100 43.34200
H  9.12200 48.10500 40.90400
H  10.85700 49.42800 39.23600
H  12.34000 48.96900 40.58200
H  11.05800 48.33900 41.75900
H  11.72500 49.90900 41.86900
H  7.53100 48.67000 38.54800
H  8.70500 47.41300 38.49800
H  9.66600 48.48500 36.98600
H  9.74900 50.17700 37.72900
H  12.91000 53.60300 39.20200
H  13.27100 55.17900 39.54400
H  12.48900 54.72800 37.94800
H  9.84100 58.80700 40.37100
H  8.96800 58.08200 39.00900
H  10.17600 59.22500 38.69900
H  5.92400 57.48400 41.56100
H  4.84900 56.26500 44.00600
H  6.76300 58.87200 43.25200
H  7.78200 57.59200 43.85000
H  6.18700 57.84000 44.48400
H  3.43700 57.32500 42.25100
H  2.81100 55.69000 42.64700
H  4.30200 55.32300 40.23100
H  3.43500 56.97000 40.09600
H  2.65100 55.51800 40.31800
H  2.08400 51.97000 43.34400
H  2.32600 50.39100 44.22400
H  2.08700 50.36100 42.50200
H  6.84100 47.48300 42.03400
H  6.83100 44.82900 38.56800
H  6.19400 46.28800 37.93700
H  5.14500 45.10900 38.72800

