158

Mg -2.63300 17.11800 26.28500
C  -3.25900 14.89700 28.72600
C  -3.30600 19.78100 28.46300
C  -2.12100 19.38700 23.79800
C  -2.15600 14.52400 23.95400
N  -3.08800 17.34800 28.41300
C  -3.25300 16.22400 29.16600
C  -3.66100 16.71100 30.58700
C  -4.13600 18.20600 30.32700
C  -3.40700 18.47300 29.04900
C  -5.58700 18.39200 30.25200
C  -2.47900 16.53600 31.53700
C  -2.70200 16.00800 32.97900
H  -1.53300 15.63500 33.80900
N  -2.57900 19.34700 26.20600
C  -2.83800 20.18400 27.21600
C  -2.63500 21.53200 26.70700
C  -2.36200 21.46200 25.32100
C  -2.37700 20.02800 25.03100
C  -2.83900 22.85300 27.62900
C  -2.09700 22.56500 24.32800
O  -1.95100 22.43800 23.11300
C  -2.04900 23.98100 24.83200
N  -2.25600 16.97100 24.12900
C  -2.09200 18.06200 23.39100
C  -1.78800 17.71200 21.97700
C  -1.57000 16.14400 21.96700
C  -2.10300 15.81300 23.41000
C  -2.71600 18.23100 20.87200
C  -0.08700 15.83600 21.78500
C  0.83700 16.25300 22.96600
N  -2.81800 15.11700 26.27400
C  -2.53600 14.18700 25.32300
C  -2.75600 12.84600 25.84200
C  -3.11000 13.10700 27.20900
C  -3.08100 14.47700 27.37400
C  -2.49400 11.55000 25.08900
C  -3.54600 12.40500 28.41600
O  -3.69500 11.21200 28.60900
C  -3.43900 13.58200 29.52600
C  -2.15900 13.19300 30.23200
O  -1.11800 13.83100 30.23700
O  -2.40400 12.13600 31.04600
C  -1.59300 12.07600 32.24100
H  -3.40400 20.54300 29.23900
H  -1.89600 20.06900 22.97500
H  -2.09700 13.64200 23.31300
H  -4.53000 16.20000 31.00100
H  -3.72200 18.87200 31.08400
H  -6.10800 17.53700 30.68300
H  -5.82600 18.46700 29.19100
H  -5.87100 19.32000 30.74900
H  -2.14000 17.55600 31.71700
H  -1.69600 15.92800 31.08300
H  -3.26600 15.07800 32.90100
H  -3.40000 16.63700 33.53000
H  -3.23800 22.64100 28.62100
H  -3.65900 23.48700 27.29000
H  -1.94000 23.47000 27.63700
H  -1.24400 24.08500 25.56100
H  -2.96200 24.25200 25.36100
H  -1.89700 24.66600 23.99800
H  -0.82200 18.18500 21.79700
H  -2.18100 15.58200 21.26200
H  -2.09100 18.63200 20.07500
H  -3.27300 19.04300 21.34000
H  -3.40500 17.48800 20.47100
H  0.22700 16.29400 20.84700
H  -0.00800 14.76200 21.61600
H  1.45500 15.51800 23.48100
H  0.36500 16.87400 23.72700
H  1.56600 16.93200 22.52400
H  -3.31400 11.19400 24.46500
H  -2.28700 10.85300 25.90000
H  -1.60000 11.61700 24.47000
H  -4.27000 13.66100 30.22600
H  -0.93800 12.92000 32.45700
H  -1.02600 11.14900 32.32400
H  -2.37700 12.05300 32.99800
Mg 29.93500 58.90500 39.26900
C  27.23800 56.72500 38.40200
C  32.14200 56.39900 38.42300
C  32.38500 61.09000 39.61900
C  27.54500 61.50500 39.59600
N  29.70500 56.81000 38.50800
C  28.55000 56.22400 38.14400
C  28.92200 54.88700 37.33300
C  30.35000 54.55200 37.84400
C  30.80500 56.01800 38.27600
C  30.29200 53.60100 39.00000
C  28.74300 55.04000 35.77200
C  27.72500 54.14800 35.20700
H  26.49800 54.61000 34.37100
N  31.89000 58.74000 39.17400
C  32.67100 57.63600 38.90500
C  34.09100 57.91600 39.12700
C  34.26100 59.32800 39.46700
C  32.78400 59.82800 39.41500
C  35.15700 56.79900 39.01400
C  35.56400 60.02600 39.77100
O  36.64300 59.42200 39.84300
C  35.63000 61.49800 39.95800
N  29.92800 60.96400 39.44000
C  31.12000 61.61600 39.52200
C  30.89100 63.11300 39.70500
C  29.32900 63.27400 39.58500
C  28.92100 61.82200 39.52300
C  31.38100 63.72800 41.06400
C  28.91600 64.27200 38.45800
C  28.67900 65.72000 38.73700
N  27.86600 59.08000 39.26100
C  27.02100 60.23000 39.33400
C  25.68000 59.76700 39.11200
C  25.66500 58.41600 38.81900
C  27.07600 58.05100 38.85400
C  24.50000 60.63900 39.28300
C  24.81100 57.26900 38.40100
O  23.62200 57.13500 38.33800
C  25.80200 56.11600 38.09200
C  25.36800 54.99700 38.93300
O  25.65600 54.75200 40.11000
O  24.43700 54.28300 38.17700
C  23.83800 53.08500 38.80900
H  32.78900 55.55900 38.16500
H  33.23400 61.75400 39.79200
H  26.93200 62.40200 39.70800
H  28.21900 54.15400 37.72800
H  31.00300 54.19700 37.04600
H  29.29000 53.29100 39.29800
H  30.72400 54.08900 39.87400
H  30.98600 52.77200 38.86400
H  29.73400 55.02800 35.31800
H  28.33400 56.04500 35.66400
H  27.21000 53.66700 36.03900
H  28.27000 53.35800 34.69100
H  36.16000 57.22100 38.96500
H  35.04300 56.17200 38.13000
H  34.95100 56.15700 39.87100
H  36.66800 61.78500 40.12400
H  35.08300 61.72800 40.87300
H  35.28400 61.99700 39.05300
H  31.40800 63.64700 38.90800
H  28.92400 63.84200 40.42300
H  31.59500 64.76400 40.80200
H  32.37800 63.36500 41.31300
H  30.62100 63.57300 41.83000
H  28.04300 63.82800 37.98000
H  29.69200 64.19700 37.69600
H  27.60400 65.87900 38.82700
H  29.09500 66.24600 37.87800
H  29.29000 66.09800 39.55700
H  24.05900 60.77400 38.29500
H  24.91300 61.54000 39.73800
H  23.71300 60.16900 39.87300
H  25.71900 55.78300 37.05800
H  22.87100 52.87600 38.35200
H  23.65600 53.20900 39.87700
H  24.40200 52.17800 38.59100

