158

Mg 24.50200 -4.99800 46.10700
C  26.41900 -2.74900 44.23600
C  21.96100 -4.37000 43.99200
C  23.05500 -7.75100 47.38600
C  27.48900 -5.74200 47.97000
N  24.27200 -3.79900 44.23800
C  25.12400 -2.85400 43.73100
C  24.59900 -2.11900 42.56200
C  23.04400 -2.41600 42.67800
C  23.02200 -3.57400 43.73700
C  22.09900 -1.24400 43.05400
C  25.34200 -2.59000 41.22000
C  25.98800 -1.50700 40.29600
H  25.81200 -1.56600 38.71400
N  22.68000 -5.93600 45.74900
C  21.74300 -5.40900 44.93000
C  20.51500 -6.13900 45.06200
C  20.83500 -7.24900 45.99200
C  22.28300 -7.01100 46.45400
C  19.25500 -5.81900 44.26500
C  19.93400 -8.38700 46.41500
O  18.86800 -8.48400 45.76500
C  20.24000 -9.50100 47.30900
N  25.17900 -6.58100 47.39100
C  24.37500 -7.52800 47.88100
C  25.04000 -8.25700 49.05800
C  26.34100 -7.53000 49.21800
C  26.37200 -6.57400 48.08300
C  24.28800 -8.57200 50.33400
C  27.59200 -8.43100 49.28100
C  27.50300 -9.64700 50.22200
N  26.49400 -4.43700 46.20000
C  27.56100 -4.71500 46.97700
C  28.72300 -3.86900 46.78800
C  28.27800 -3.09900 45.70400
C  26.94700 -3.47300 45.39600
C  29.98300 -3.82100 47.63600
C  28.67500 -2.00700 44.75900
O  29.73800 -1.46700 44.48500
C  27.56900 -1.77700 43.80100
C  27.07100 -0.36700 44.03100
O  26.24600 -0.03900 44.84000
O  27.50900 0.36200 43.01700
C  26.76200 1.67200 42.81400
H  21.13100 -4.11100 43.33200
H  22.59700 -8.58000 47.93000
H  28.41600 -5.89200 48.52700
H  24.77400 -1.09300 42.88500
H  22.73300 -2.76600 41.69400
H  22.61000 -0.28400 43.13000
H  21.79700 -1.45300 44.08100
H  21.35700 -1.19400 42.25800
H  24.58100 -3.08300 40.61500
H  26.18000 -3.22400 41.50900
H  27.07300 -1.57900 40.37000
H  25.78200 -0.53800 40.75100
H  18.47400 -6.57800 44.30500
H  19.40800 -6.02300 43.20600
H  18.91500 -4.78500 44.32100
H  21.13900 -10.03500 47.00100
H  19.43800 -10.23900 47.30800
H  20.37000 -9.08500 48.30800
H  25.35700 -9.20600 48.62600
H  26.39100 -6.88900 50.09800
H  24.66700 -8.27300 51.31100
H  24.13100 -9.62700 50.55400
H  23.31000 -8.11400 50.18800
H  28.42900 -7.81900 49.61700
H  27.79600 -8.76300 48.26300
H  28.05500 -9.52500 51.15400
H  27.89100 -10.46000 49.60800
H  26.50000 -9.94700 50.52500
H  30.64000 -4.65400 47.38300
H  29.66500 -3.97300 48.66700
H  30.42300 -2.84700 47.42600
H  27.90300 -1.88200 42.76900
H  25.70900 1.48200 43.02000
H  26.92300 1.99200 41.78500
H  26.93500 2.47900 43.52600
Mg 45.95700 4.72100 48.19800
C  44.23500 7.62700 47.31600
C  43.11800 2.95300 47.46700
C  47.71600 1.75100 48.48700
C  48.91900 6.63400 48.52700
N  43.99400 5.26400 47.30600
C  43.45300 6.51100 47.07700
C  41.97600 6.50800 46.57200
C  41.65200 5.01900 46.82100
C  43.01200 4.35900 47.16400
C  40.57900 4.60800 47.92900
C  41.73700 7.01000 45.12200
C  40.67100 8.05500 44.73400
H  39.54000 7.66100 43.71600
N  45.50000 2.68200 48.05600
C  44.27900 2.15900 47.73600
C  44.32700 0.73900 47.87900
C  45.68700 0.34100 48.18500
C  46.36400 1.63300 48.32200
C  43.19900 -0.25000 47.72600
C  46.29900 -1.06800 48.28400
O  45.61100 -2.06800 48.28300
C  47.77400 -1.28000 48.41900
N  48.08200 4.22100 48.51700
C  48.52700 2.94000 48.52400
C  50.02600 2.93200 48.84700
C  50.47100 4.50500 48.66400
C  49.08500 5.19000 48.63300
C  50.39300 2.43800 50.29600
C  51.31800 4.96400 47.47700
C  52.56100 5.84500 47.65300
N  46.52600 6.74700 48.15400
C  47.77400 7.40900 48.27100
C  47.57700 8.80200 48.16000
C  46.23300 8.98000 47.82200
C  45.62900 7.68000 47.80200
C  48.65200 9.80200 48.15000
C  45.23300 9.90000 47.30000
O  45.30300 11.12300 47.07100
C  43.81600 9.07500 47.03200
C  42.72500 9.53800 47.90500
O  42.53600 9.11900 49.02100
O  42.02800 10.51100 47.27700
C  40.79500 10.96700 47.95800
H  42.18700 2.38400 47.41700
H  48.34100 0.89300 48.74500
H  49.87600 7.15700 48.59000
H  41.46100 7.17400 47.26400
H  41.24100 4.58600 45.91000
H  39.74000 4.09000 47.46500
H  40.14800 5.56200 48.23400
H  41.03100 4.12800 48.79700
H  41.52000 6.18500 44.44300
H  42.74400 7.37900 44.92400
H  41.30600 8.82000 44.28700
H  40.37100 8.47300 45.69500
H  42.74900 -0.41600 48.70400
H  43.52900 -1.24900 47.44100
H  42.49500 0.08900 46.96600
H  48.02600 -2.34000 48.46500
H  47.93400 -0.88300 49.42100
H  48.22900 -0.79400 47.55600
H  50.44200 2.33300 48.03700
H  51.01200 4.76900 49.57300
H  51.31000 2.98200 50.52300
H  50.51700 1.35500 50.29100
H  49.59700 2.68200 51.00000
H  50.67700 5.65500 46.93000
H  51.54800 4.11800 46.83000
H  52.89000 5.94700 48.68700
H  52.31200 6.88800 47.45700
H  53.41200 5.51600 47.05700
H  48.39000 10.70300 48.70400
H  48.93800 10.02800 47.12300
H  49.57000 9.35500 48.53200
H  43.48800 9.16200 45.99600
H  40.68800 10.48900 48.93100
H  39.99900 10.70000 47.26300
H  40.94200 12.04400 48.04200

