158

Mg 53.84500 24.12200 44.81500
C  51.17500 26.25100 43.84300
C  51.90000 21.36000 43.77600
C  56.56400 22.28700 44.83000
C  55.78600 27.05300 45.08100
N  51.83500 23.85000 43.82400
C  50.95200 24.87500 43.64700
C  49.60500 24.34800 43.13300
C  49.73400 22.80700 43.51700
C  51.23400 22.62500 43.77900
C  48.88000 22.41100 44.76100
C  49.37600 24.55800 41.68500
C  47.92100 24.64700 41.22700
H  47.43100 24.05600 39.92500
N  54.21300 22.01100 44.36600
C  53.26400 21.11400 44.06000
C  53.95800 19.83200 44.03400
C  55.26500 20.04500 44.42400
C  55.44500 21.52700 44.49000
C  53.30800 18.56700 43.61200
C  56.27300 18.90500 44.72500
O  55.86600 17.73700 44.53600
C  57.68200 19.15400 45.28800
N  55.83900 24.54300 44.79900
C  56.70900 23.61700 44.97200
C  58.06700 24.26600 45.19200
C  57.86300 25.74800 45.29500
C  56.40900 25.77500 44.99100
C  58.74100 23.72600 46.47800
C  58.76500 26.63300 44.36300
C  58.74600 26.45500 42.83900
N  53.56100 26.28300 44.60900
C  54.41700 27.32900 44.87700
C  53.75200 28.57700 44.84300
C  52.42900 28.20600 44.53000
C  52.38500 26.77700 44.24800
C  54.37300 29.91000 45.03500
C  51.13800 28.67200 44.25300
O  50.69400 29.82600 44.24500
C  50.24200 27.40100 43.72900
C  49.73800 27.89300 42.43600
O  50.35600 28.07200 41.36500
O  48.40000 28.02200 42.53200
C  47.71400 28.63200 41.36100
H  51.24100 20.51200 43.57900
H  57.45900 21.66300 44.77700
H  56.49600 27.87700 45.18400
H  48.78600 24.78800 43.70200
H  49.38400 22.18600 42.69200
H  48.12600 21.63100 44.66000
H  48.35200 23.27900 45.15500
H  49.56700 22.04700 45.52500
H  50.01000 23.87300 41.12200
H  49.79500 25.53500 41.44600
H  47.55600 25.67200 41.15900
H  47.29500 24.22100 42.01200
H  53.95900 17.83000 43.14300
H  52.58500 18.85200 42.84700
H  52.73100 18.08400 44.40200
H  57.77600 18.22400 45.84900
H  57.79300 19.92500 46.05100
H  58.49500 19.17600 44.56300
H  58.62700 24.14500 44.26500
H  58.01900 26.01600 46.34000
H  59.58800 23.10100 46.19700
H  58.06800 23.10700 47.07100
H  59.12500 24.42800 47.21900
H  59.76300 26.51500 44.78500
H  58.54300 27.65600 44.66600
H  58.11600 25.65100 42.45700
H  59.73100 26.26200 42.41500
H  58.41400 27.33100 42.28100
H  53.73300 30.63600 44.53200
H  55.30900 30.17100 44.54100
H  54.49700 30.11800 46.09800
H  49.39100 27.36800 44.40800
H  46.63900 28.76200 41.48600
H  47.95500 28.15600 40.41000
H  48.08400 29.65700 41.33100
Mg 36.24200 49.19700 24.80900
C  36.33200 47.45600 27.77300
C  34.86000 51.96600 26.42900
C  35.58900 50.59800 21.82400
C  37.00600 46.16400 23.17700
N  35.45500 49.61300 26.86600
C  35.73600 48.78200 27.94300
C  35.30500 49.49800 29.25200
C  34.66800 50.87300 28.74200
C  35.12100 50.84500 27.26500
C  33.19200 51.05400 29.11800
C  36.53400 49.73000 30.23100
C  36.34900 49.34600 31.71000
H  34.92300 49.28500 32.35700
N  35.51500 51.09300 24.20900
C  34.98100 52.10200 24.97300
C  34.71500 53.32000 24.21700
C  34.91600 52.92800 22.84100
C  35.41000 51.51500 22.89900
C  34.35400 54.62100 24.87500
C  34.82400 53.72400 21.55100
O  35.21400 53.30900 20.44800
C  34.24300 55.03300 21.56700
N  36.11900 48.42900 22.84500
C  35.93700 49.24100 21.81200
C  35.85400 48.30500 20.55800
C  36.63700 47.07700 20.91000
C  36.46400 47.15600 22.36800
C  34.42600 48.05700 20.05300
C  38.10700 46.85000 20.43800
C  39.15500 47.97600 20.71500
N  36.61100 47.19200 25.29000
C  36.99800 46.10400 24.56200
C  37.39100 45.03400 25.48400
C  37.11300 45.50000 26.75300
C  36.67200 46.80700 26.53700
C  37.86800 43.68800 25.04300
C  37.25400 45.21400 28.21300
O  37.59100 44.23000 28.86900
C  36.68600 46.40400 28.89100
C  35.53800 45.85600 29.69300
O  34.40800 45.60400 29.29800
O  36.01800 45.74200 31.01900
C  35.06500 45.08200 31.90400
H  34.47500 52.79400 27.02800
H  35.23800 50.90400 20.83600
H  37.41700 45.25100 22.74200
H  34.49000 48.89100 29.64700
H  35.24200 51.71000 29.13900
H  32.65700 50.10800 29.20100
H  32.64800 51.58200 28.33500
H  33.18200 51.50800 30.10900
H  36.90800 50.75300 30.18900
H  37.39500 49.14700 29.90500
H  36.93100 50.10800 32.22900
H  36.90000 48.41900 31.86800
H  33.29600 54.88100 24.89400
H  34.76100 55.41500 24.24900
H  34.55000 54.66400 25.94600
H  34.05200 55.45500 20.58100
H  35.06400 55.62800 21.96700
H  33.35400 54.92100 22.18700
H  36.38200 48.75400 19.71700
H  36.13700 46.17200 20.56300
H  33.64800 48.74200 20.39000
H  34.11200 47.03400 20.25700
H  34.48300 48.15800 18.96900
H  37.96600 46.78900 19.35900
H  38.53700 45.88000 20.68700
H  38.77500 48.91300 21.12300
H  39.60300 48.07300 19.72600
H  39.92800 47.66600 21.41800
H  37.34400 43.29800 24.17000
H  37.75800 42.93600 25.82400
H  38.90100 43.80800 24.71500
H  37.51600 46.78600 29.48500
H  34.81400 44.09800 31.50700
H  34.17000 45.67200 32.09900
H  35.53600 45.05300 32.88700

