158

Mg 26.74000 49.29100 26.51900
C  24.72200 50.81300 28.97800
C  28.88400 48.42100 29.02900
C  28.74900 48.25100 24.18000
C  24.56700 50.86400 24.13800
N  26.80200 49.69500 28.66700
C  25.79100 50.10100 29.43000
C  25.97600 49.93700 30.96800
C  27.38800 49.33100 30.95300
C  27.70800 49.07800 29.44500
C  28.58300 50.09800 31.59500
C  24.86200 49.00600 31.60000
C  24.09300 49.47700 32.89000
H  23.93500 48.48800 34.06400
N  28.58800 48.34100 26.63000
C  29.32800 48.05700 27.73300
C  30.59000 47.41400 27.31000
C  30.52900 47.34500 25.86400
C  29.28300 48.01900 25.46400
C  31.64000 46.89300 28.21900
C  31.54300 46.78100 24.95200
O  31.39400 46.88900 23.74800
C  32.76600 46.00600 25.41700
N  26.62200 49.49000 24.43700
C  27.68700 48.95700 23.71000
C  27.50200 49.25200 22.21500
C  26.05300 49.83500 22.20900
C  25.67800 50.09700 23.66700
C  28.51800 50.27300 21.57300
C  25.06600 48.90100 21.53500
C  24.14200 47.98000 22.37800
N  25.03400 50.64100 26.47000
C  24.32500 51.19300 25.48800
C  23.24800 52.03600 26.03600
C  23.30800 51.74200 27.41700
C  24.43700 51.00900 27.62200
C  22.17200 52.86900 25.28300
C  22.65100 52.04000 28.67300
O  21.59400 52.68300 28.89900
C  23.52200 51.38500 29.74800
C  23.99400 52.44600 30.73200
O  24.79100 53.32300 30.52100
O  23.36600 52.26800 31.93700
C  23.56800 53.33800 32.91200
H  29.60200 48.13500 29.80100
H  29.22300 47.78800 23.31200
H  23.76500 51.19800 23.47700
H  25.99900 50.92900 31.42000
H  27.29100 48.36000 31.43700
H  29.42000 50.46400 31.00000
H  29.15500 49.53000 32.32900
H  28.21000 50.97300 32.12700
H  25.42100 48.09500 31.81300
H  24.20600 48.80900 30.75200
H  23.11800 49.88300 32.62000
H  24.67600 50.29300 33.31800
H  31.85500 45.82400 28.22500
H  31.37700 47.11400 29.25400
H  32.51800 47.49000 27.97600
H  33.41300 46.79500 25.80200
H  33.18500 45.58400 24.50300
H  32.65200 45.20800 26.15000
H  27.60500 48.27200 21.75000
H  26.06300 50.82400 21.75200
H  29.28000 50.45000 22.33200
H  27.88300 51.07600 21.19600
H  28.95500 49.75200 20.72100
H  25.54000 48.31400 20.74800
H  24.37000 49.55600 21.01100
H  24.48200 47.70300 23.37500
H  24.22000 47.04400 21.82500
H  23.14100 48.41100 22.36400
H  21.98500 53.73600 25.91700
H  21.29900 52.25000 25.07700
H  22.62700 53.30100 24.39200
H  22.98000 50.58100 30.24700
H  23.46500 54.35600 32.53500
H  24.56600 53.21800 33.33400
H  22.85500 53.18400 33.72200
Mg 0.59900 43.06000 25.59300
C  1.84200 43.29600 28.69300
C  -2.59100 42.64500 26.90000
C  -0.53400 42.41000 22.48900
C  3.70500 43.77500 24.38400
N  -0.26400 42.95600 27.57700
C  0.45800 43.04400 28.72700
C  -0.44700 42.96800 29.97700
C  -1.85900 42.61400 29.37900
C  -1.59000 42.81500 27.83900
C  -2.48800 41.32600 29.84200
C  -0.45100 44.35400 30.70700
C  -0.37500 44.37200 32.26900
H  -0.49500 43.01100 33.03600
N  -1.31100 42.61000 24.76700
C  -2.48400 42.49600 25.47300
C  -3.60600 42.39700 24.54500
C  -3.03800 42.36500 23.26600
C  -1.57200 42.46700 23.45600
C  -5.08700 42.32900 24.86600
C  -3.70600 42.17600 21.92600
O  -3.12500 41.97200 20.90900
C  -5.15200 42.44100 21.74200
N  1.42400 43.21100 23.62400
C  0.82400 42.71200 22.51700
C  1.79300 42.64500 21.34000
C  3.04200 43.46200 21.93500
C  2.70000 43.49800 23.42900
C  2.08100 41.21200 20.73300
C  3.17000 44.88100 21.35600
C  2.50500 46.05000 22.17200
N  2.42300 43.35900 26.34400
C  3.63800 43.58100 25.77300
C  4.63600 43.87500 26.70800
C  3.99500 43.77200 27.90100
C  2.60600 43.40500 27.61400
C  6.14000 44.41100 26.47400
C  4.17800 43.85600 29.34800
O  5.12000 44.04100 30.04400
C  2.75700 43.53600 29.95200
C  2.97200 42.34300 30.82400
O  2.60200 41.19500 30.51800
O  3.80800 42.72400 31.87700
C  4.30800 41.70700 32.71500
H  -3.52600 42.59100 27.46100
H  -0.83800 42.07500 21.49500
H  4.69800 44.02900 24.00600
H  0.01200 42.28100 30.68700
H  -2.58800 43.36900 29.67300
H  -1.91300 40.76600 30.57900
H  -2.64400 40.60100 29.04400
H  -3.42500 41.57000 30.34200
H  -1.34600 44.92500 30.46100
H  0.42300 44.88800 30.33500
H  -1.20100 44.95900 32.67100
H  0.51900 44.90100 32.59800
H  -4.95900 41.89700 25.85900
H  -5.58400 41.59500 24.23300
H  -5.61700 43.27900 24.94100
H  -5.65900 41.55600 22.12600
H  -5.39500 42.47800 20.68000
H  -5.48400 43.32800 22.28200
H  1.32000 43.36800 20.67500
H  3.98900 42.94400 21.77800
H  3.01400 41.14300 20.17600
H  1.38100 40.97800 19.93100
H  2.01400 40.40600 21.46400
H  2.87600 44.82800 20.30700
H  4.25000 45.02300 21.37900
H  1.68200 45.77600 22.83200
H  2.02900 46.70100 21.44000
H  3.26700 46.68500 22.62400
H  6.84600 43.60500 26.27200
H  6.51800 44.63600 27.47100
H  6.22600 45.18200 25.70900
H  2.58000 44.39700 30.59700
H  4.32200 42.07500 33.74100
H  5.34600 41.45700 32.49800
H  3.65000 40.83800 32.71400

