158

Mg -2.96400 16.50400 26.85700
C  -3.47400 14.65100 29.83100
C  -3.78800 19.26200 28.64700
C  -3.25500 18.10000 23.93500
C  -2.93900 13.45300 25.12100
N  -3.55100 16.87100 29.16100
C  -3.63500 15.99900 30.17400
C  -4.03300 16.66500 31.49200
C  -4.18000 18.14700 31.04300
C  -3.86600 18.10300 29.49500
C  -5.48400 18.88100 31.34400
C  -3.14300 16.53700 32.75500
C  -3.87300 16.33500 34.01700
H  -2.96900 16.22000 35.29100
N  -3.33700 18.42200 26.39800
C  -3.53300 19.42300 27.25400
C  -3.58100 20.68300 26.50400
C  -3.28600 20.40300 25.12100
C  -3.33100 18.88900 25.07600
C  -3.68900 22.05500 27.20900
C  -3.16400 21.34100 23.94100
O  -3.14000 21.03200 22.74300
C  -3.21500 22.82600 24.21700
N  -3.07600 15.82400 24.86500
C  -3.21600 16.73400 23.75500
C  -3.11800 15.98400 22.42700
C  -2.60700 14.61500 22.89100
C  -2.86100 14.58600 24.40400
C  -4.34300 15.91900 21.49900
C  -1.11000 14.32800 22.63200
C  -0.05600 15.26200 23.17700
N  -3.17800 14.49200 27.33300
C  -3.25100 13.40700 26.47400
C  -3.60000 12.16800 27.30900
C  -3.60400 12.62500 28.65500
C  -3.33700 14.01500 28.57600
C  -3.80700 10.77900 26.77000
C  -3.82100 12.23400 30.03500
O  -4.19000 11.20200 30.53600
C  -3.76600 13.54500 30.89200
C  -2.72800 13.48000 31.83700
O  -1.58700 13.73800 31.61000
O  -3.19100 12.88800 33.01500
C  -2.22300 12.65400 34.07200
H  -3.88000 20.16200 29.25800
H  -2.95700 18.62200 23.02400
H  -2.75600 12.59700 24.46900
H  -5.00800 16.29400 31.80700
H  -3.39900 18.76400 31.48700
H  -5.91200 19.43700 30.50900
H  -5.14900 19.67100 32.01600
H  -6.10100 18.06800 31.72400
H  -2.62100 17.47000 32.97000
H  -2.37900 15.77000 32.62700
H  -4.28300 15.34300 33.82700
H  -4.74700 16.94900 34.23600
H  -2.71500 22.53700 27.29000
H  -3.96800 22.06400 28.26300
H  -4.55700 22.60500 26.84600
H  -2.51400 22.99300 25.03500
H  -4.13500 23.30500 24.55000
H  -2.70300 23.41700 23.45700
H  -2.32600 16.44000 21.83300
H  -3.17000 13.79000 22.45300
H  -4.94100 16.80700 21.70500
H  -4.93000 15.00400 21.56900
H  -3.94000 16.10200 20.50300
H  -1.04500 14.31800 21.54400
H  -0.77700 13.29700 22.75400
H  0.15500 16.07600 22.48300
H  0.90400 14.75400 23.07800
H  -0.24000 15.72800 24.14400
H  -2.83400 10.34600 26.53900
H  -4.43900 10.73200 25.88300
H  -4.24100 10.28500 27.63900
H  -4.65600 13.75400 31.48600
H  -1.56700 13.52100 34.14400
H  -1.66100 11.75800 33.80500
H  -2.67100 12.70500 35.06400
Mg -13.36400 16.02200 42.05300
C  -10.19200 14.59500 41.32800
C  -12.21100 19.07300 40.67200
C  -16.52500 17.13200 41.95000
C  -14.58700 12.75600 42.74200
N  -11.41500 16.71300 40.99100
C  -10.19200 15.98000 40.99800
C  -8.97900 16.86800 40.56500
C  -9.64800 18.25400 40.60800
C  -11.21000 18.05900 40.77400
C  -9.13700 19.30500 41.68300
C  -8.25400 16.50400 39.27500
C  -6.84900 15.98800 39.31100
H  -6.53500 14.69100 38.61900
N  -14.22700 17.83700 41.55500
C  -13.56100 18.98900 40.99600
C  -14.50000 20.03600 40.66000
C  -15.79300 19.55100 41.12100
C  -15.55600 18.12500 41.67700
C  -14.15000 21.34700 40.04600
C  -17.06100 20.34800 41.07400
O  -17.09800 21.44500 40.43600
C  -18.35900 19.82200 41.65700
N  -15.34600 15.15100 42.58700
C  -16.47400 15.80300 42.38800
C  -17.74400 14.88100 42.60300
C  -17.05800 13.49600 42.96200
C  -15.54100 13.80800 42.72500
C  -18.75400 15.41500 43.68700
C  -17.68000 12.26700 42.18900
C  -17.12600 11.93300 40.74300
N  -12.62900 14.06500 42.22900
C  -13.18300 12.85500 42.57600
C  -12.21300 11.84800 42.76300
C  -11.02800 12.43000 42.23300
C  -11.30700 13.80600 41.94100
C  -12.48800 10.57500 43.27500
C  -9.65600 12.25700 41.94800
O  -8.97500 11.21600 42.13000
C  -9.05100 13.59700 41.32500
C  -8.05800 13.98100 42.33100
O  -8.38100 14.54600 43.36700
O  -6.78600 13.63400 41.92700
C  -5.65400 13.63900 42.91200
H  -11.89000 20.10000 40.48600
H  -17.55100 17.48900 41.84000
H  -14.94100 11.74400 42.94600
H  -8.25400 16.68400 41.35800
H  -9.53800 18.75200 39.64400
H  -8.89000 20.26100 41.22100
H  -8.32600 18.82000 42.22700
H  -9.93200 19.36200 42.42600
H  -8.12900 17.49000 38.82700
H  -8.78400 15.88100 38.55500
H  -6.45100 15.81600 40.31100
H  -6.12600 16.72900 38.97000
H  -13.75800 21.99700 40.82900
H  -14.89100 21.93000 39.49900
H  -13.37200 21.21500 39.29500
H  -18.99100 20.70600 41.74400
H  -18.26000 19.46600 42.68200
H  -18.78100 19.05700 41.00600
H  -18.26200 14.73900 41.65500
H  -17.00800 13.31600 44.03600
H  -19.72900 15.48300 43.20400
H  -18.62100 16.45700 43.97500
H  -18.88700 14.72600 44.52100
H  -18.75400 12.42200 42.08900
H  -17.44400 11.41300 42.82400
H  -16.74000 10.92100 40.62200
H  -16.22800 12.50700 40.51200
H  -17.89900 12.04600 39.98300
H  -12.90700 10.72500 44.27000
H  -11.54000 10.03800 43.27200
H  -13.24300 10.04200 42.69700
H  -8.54800 13.41300 40.37600
H  -5.31000 14.67400 42.91400
H  -4.91200 12.87800 42.67400
H  -5.89500 13.42000 43.95200

