158

Mg 49.90600 45.93700 42.14700
C  46.77500 46.28200 40.42800
C  49.86800 42.63400 40.85700
C  53.13200 45.89400 42.85200
C  49.95100 49.53200 42.36700
N  48.46200 44.61100 40.65200
C  47.28900 45.04100 40.20200
C  46.58400 43.87100 39.47300
C  47.46800 42.62600 39.86700
C  48.66300 43.33700 40.51900
C  46.84500 41.51800 40.75900
C  46.53600 44.12100 37.94900
C  45.24700 43.73800 37.29100
H  44.82500 44.38400 35.96100
N  51.25300 44.45200 41.94800
C  51.06400 43.20900 41.40700
C  52.29000 42.42500 41.61900
C  53.20300 43.30800 42.30700
C  52.56700 44.60500 42.36200
C  52.46600 40.90000 41.22500
C  54.57000 42.92500 42.88400
O  54.93900 41.78000 42.93300
C  55.68100 43.88200 43.45500
N  51.27700 47.50300 42.67100
C  52.56900 47.18100 42.95500
C  53.38300 48.50300 43.24500
C  52.48200 49.61200 42.80200
C  51.14300 48.88500 42.62400
C  53.83100 48.58900 44.64700
C  53.00600 50.36800 41.52000
C  53.26900 51.87200 41.87200
N  48.62400 47.55900 41.74300
C  48.78300 48.94200 41.84600
C  47.60600 49.66100 41.37400
C  46.82300 48.65600 40.90200
C  47.45300 47.39800 41.13900
C  47.41700 51.12100 41.22100
C  45.58900 48.39400 40.21600
O  44.80400 49.20700 39.78500
C  45.43200 46.93100 39.91300
C  44.33500 46.38800 40.78600
O  44.43000 46.09400 41.97600
O  43.18800 46.43200 40.02600
C  41.99400 46.13900 40.85700
H  49.93600 41.59200 40.53500
H  54.17100 45.79900 43.17300
H  49.96100 50.61700 42.49300
H  45.60500 43.67200 39.91100
H  47.87200 42.06100 39.02700
H  46.92800 41.59300 41.84400
H  47.51600 40.71700 40.45200
H  45.80800 41.33400 40.47700
H  47.22500 43.45600 37.42900
H  46.81900 45.11100 37.59200
H  44.34100 43.87600 37.88100
H  45.21600 42.66100 37.12800
H  52.01300 40.30800 42.02000
H  53.46800 40.65200 40.87300
H  51.93300 40.69500 40.29700
H  55.18700 44.43500 44.25400
H  55.79300 44.52700 42.58400
H  56.57900 43.33900 43.75000
H  54.27300 48.43200 42.61900
H  52.30900 50.30200 43.62800
H  54.85500 48.96000 44.68600
H  53.83400 47.61500 45.13700
H  53.12100 49.16000 45.24600
H  52.34500 50.27800 40.65700
H  53.95000 49.95000 41.16800
H  52.83800 52.47300 41.07200
H  54.35800 51.84100 41.84200
H  52.93100 52.12200 42.87700
H  47.38200 51.52000 42.23500
H  46.43900 51.28700 40.76900
H  48.18400 51.55500 40.58100
H  45.19500 46.78100 38.86000
H  41.11800 46.08300 40.21100
H  41.92700 46.96500 41.56600
H  41.99800 45.14500 41.30500
Mg 9.42800 47.84000 25.60900
C  6.94700 48.22100 28.22700
C  11.71200 48.82100 28.14700
C  11.72100 47.87800 23.36200
C  6.88200 47.59400 23.30200
N  9.29500 48.53000 27.92300
C  8.22300 48.44900 28.74800
C  8.62600 48.64800 30.23100
C  10.14500 49.07400 30.15000
C  10.43900 48.71300 28.68800
C  10.37500 50.56500 30.60000
C  8.42700 47.32800 31.05800
C  9.30600 46.87400 32.21000
H  8.55700 46.27800 33.41300
N  11.41200 48.23800 25.74400
C  12.19100 48.61800 26.81300
C  13.56100 48.72700 26.45700
C  13.65700 48.24300 25.11800
C  12.24500 48.09800 24.65800
C  14.57800 49.20700 27.39500
C  14.82200 47.91800 24.25600
O  14.76700 47.63300 23.07600
C  16.21700 48.06400 24.83800
N  9.36700 47.67700 23.63900
C  10.39400 47.74900 22.84300
C  10.12500 47.29100 21.41100
C  8.56500 47.20000 21.38700
C  8.15700 47.50200 22.87800
C  10.71100 48.14900 20.21500
C  8.16000 45.75800 20.97300
C  8.34800 44.64400 22.04300
N  7.38000 47.96600 25.69300
C  6.46600 47.74300 24.65400
C  5.06600 47.58900 25.16300
C  5.24600 47.80600 26.57200
C  6.62000 48.04300 26.83200
C  3.81600 47.38400 24.41100
C  4.51500 47.88000 27.79700
O  3.29300 47.80500 28.00100
C  5.55800 48.13300 28.88700
C  5.49100 46.92200 29.73900
O  5.95700 45.83600 29.51500
O  4.59900 47.23200 30.74000
C  4.40700 46.23900 31.85200
H  12.40900 49.11500 28.93400
H  12.42100 47.82500 22.52500
H  6.07700 47.50000 22.57100
H  8.00500 49.37100 30.75900
H  10.75000 48.36700 30.71800
H  9.40900 51.06300 30.52700
H  10.96600 51.11000 29.86400
H  10.81400 50.51400 31.59600
H  8.55600 46.51000 30.34900
H  7.42900 47.43500 31.48200
H  9.92200 47.71700 32.52500
H  9.96600 46.08600 31.84900
H  15.31600 49.89400 26.98100
H  15.00200 48.48500 28.09300
H  14.10100 49.96000 28.02300
H  17.06800 48.02400 24.15800
H  16.33800 47.24700 25.55100
H  16.55900 48.95500 25.36500
H  10.56600 46.29800 21.32500
H  8.19300 47.93400 20.67300
H  11.31300 48.96500 20.61500
H  9.94000 48.52100 19.54000
H  11.43100 47.52500 19.68500
H  8.76100 45.35100 20.16000
H  7.12300 45.90600 20.67200
H  7.35500 44.28700 22.31700
H  8.82400 45.09400 22.91400
H  8.98300 43.80100 21.76900
H  3.80100 46.40900 23.92500
H  3.76300 48.06800 23.56400
H  2.99000 47.59200 25.09100
H  5.26200 49.03800 29.41600
H  3.53900 45.60400 31.67900
H  4.19600 46.75100 32.79000
H  5.34100 45.69800 32.00700

