158

Mg 35.24700 0.44800 29.43300
C  33.05900 1.52200 31.68900
C  37.79300 0.62400 31.83800
C  37.71200 -0.09600 27.03300
C  32.88600 0.70500 26.90100
N  35.46000 1.06400 31.48100
C  34.35700 1.50100 32.19900
C  34.72400 1.68600 33.73800
C  36.34500 1.63900 33.65000
C  36.56200 1.04000 32.30300
C  37.10900 2.99200 33.88400
C  34.11400 0.62700 34.69900
C  33.97300 1.04900 36.10200
H  35.05900 2.03000 36.74500
N  37.39600 0.09300 29.43000
C  38.19500 0.13900 30.57200
C  39.55100 -0.26700 30.21700
C  39.54800 -0.44900 28.79600
C  38.18800 -0.07200 28.35600
C  40.73800 -0.40600 31.18000
C  40.79900 -0.80800 27.86200
O  40.83000 -0.77700 26.63000
C  42.05000 -1.21500 28.49800
N  35.28000 0.31700 27.23900
C  36.40100 0.06900 26.50300
C  36.09700 0.06000 25.01900
C  34.51300 0.17500 24.91500
C  34.16600 0.43400 26.42000
C  36.80100 1.39400 24.44400
C  33.79200 -1.15500 24.58400
C  32.40700 -1.02000 23.87600
N  33.29600 0.97100 29.25100
C  32.41400 0.96500 28.18500
C  31.05700 1.18800 28.64900
C  31.25400 1.52500 30.04000
C  32.67200 1.33400 30.33600
C  29.77900 1.22800 27.79200
C  30.69200 1.94400 31.29900
O  29.50400 2.14700 31.61100
C  31.79100 1.86600 32.38800
C  31.77600 3.24400 33.02800
O  31.62700 4.34500 32.53200
O  31.93700 3.14000 34.36500
C  31.97700 4.39100 35.19400
H  38.58600 0.62400 32.58800
H  38.41100 -0.25100 26.20900
H  32.25600 0.81300 26.01600
H  34.46200 2.71900 33.96600
H  36.78800 0.95900 34.37700
H  37.93300 2.81300 34.57500
H  36.42900 3.75500 34.26300
H  37.62400 3.35600 32.99500
H  34.68200 -0.29700 34.59300
H  33.17700 0.26900 34.27300
H  34.10700 0.11100 36.64100
H  32.96200 1.44200 36.20600
H  41.47300 0.38400 31.02500
H  41.14500 -1.39600 30.97000
H  40.44300 -0.48900 32.22600
H  41.80300 -1.93800 29.27600
H  42.27900 -0.38000 29.16000
H  42.84500 -1.54500 27.82900
H  36.50400 -0.88400 24.65600
H  34.22600 0.94900 24.20300
H  37.51700 1.84500 25.13000
H  36.07500 2.16500 24.18600
H  37.33400 1.11400 23.53500
H  33.59100 -1.78200 25.45300
H  34.52800 -1.73800 24.03100
H  31.62900 -1.54700 24.42800
H  32.67200 -1.46800 22.91800
H  32.13900 0.03700 23.85700
H  30.04400 0.62800 26.92200
H  29.29400 2.19000 27.62600
H  28.97500 0.70900 28.31300
H  31.42900 1.04400 33.00600
H  30.98600 4.84100 35.12500
H  32.74000 5.04500 34.77400
H  32.27400 4.29100 36.23800
Mg 8.72500 47.38800 27.18900
C  7.09500 46.85500 30.25100
C  11.64800 47.81300 28.97200
C  10.25300 48.68000 24.29000
C  5.64700 47.94000 25.64300
N  9.31400 47.35900 29.39000
C  8.53000 47.03000 30.42600
C  9.28000 47.17900 31.81300
C  10.71000 47.70600 31.31800
C  10.56700 47.66800 29.81400
C  11.01100 49.13600 31.82900
C  9.34900 45.84200 32.76800
C  9.04900 46.14900 34.27300
H  9.25600 45.14600 35.34900
N  10.68700 48.03000 26.66500
C  11.73300 47.95200 27.54200
C  12.98900 48.28200 26.82500
C  12.61000 48.47200 25.46700
C  11.17000 48.43000 25.38200
C  14.35000 48.39200 27.44300
C  13.52300 48.62000 24.28100
O  13.14700 48.86300 23.16700
C  14.96500 48.61600 24.37500
N  8.10200 48.18900 25.33200
C  8.88800 48.48500 24.31100
C  8.09700 48.91100 23.00500
C  6.59100 48.48300 23.41800
C  6.82900 48.07200 24.86900
C  8.34000 50.42800 22.55400
C  6.15200 47.28600 22.48200
C  5.85500 47.65400 20.97500
N  6.76900 47.25600 27.73100
C  5.65100 47.57000 27.05400
C  4.49100 47.22300 27.84500
C  5.02800 46.91300 29.14100
C  6.44400 47.00600 29.04000
C  3.08800 47.36100 27.39700
C  4.71200 46.71100 30.53500
O  3.63200 46.69700 31.04800
C  6.05200 46.52400 31.28600
C  6.07900 45.20100 32.03600
O  6.49700 44.12800 31.52300
O  5.71100 45.30000 33.34000
C  5.87700 44.10100 34.10500
H  12.55200 47.75300 29.58200
H  10.62500 49.12000 23.36200
H  4.68300 47.95000 25.12900
H  8.70600 47.90500 32.38900
H  11.50300 47.03000 31.63900
H  10.83600 49.87200 31.04400
H  12.09700 49.21500 31.88100
H  10.56100 49.48500 32.75800
H  10.35200 45.42000 32.70300
H  8.75100 45.07400 32.27700
H  8.04000 46.54300 34.39800
H  9.71100 46.94200 34.62300
H  14.99100 47.57000 27.12600
H  14.14600 48.33500 28.51200
H  14.70300 49.35800 27.08000
H  15.27700 49.44200 25.01500
H  15.36700 48.78600 23.37700
H  15.21900 47.62800 24.75800
H  8.48300 48.29400 22.19400
H  5.99700 49.39200 23.31700
H  8.93300 50.53700 21.64600
H  8.83600 51.04600 23.30300
H  7.38900 50.93700 22.39400
H  5.27100 46.73800 22.81900
H  6.96000 46.55500 22.50500
H  6.67900 47.23100 20.39900
H  5.68600 48.71800 20.81200
H  4.93300 47.09200 20.82800
H  2.90300 48.00900 26.54000
H  2.45500 47.56500 28.26000
H  2.81200 46.35400 27.08200
H  6.15700 47.28300 32.06100
H  5.86800 44.31700 35.17300
H  6.89000 43.70100 34.04600
H  5.31400 43.26500 33.68900

