158

Mg -2.14200 17.23200 25.94100
C  -2.46200 15.00800 28.86100
C  -3.49400 19.76900 28.03800
C  -2.20300 19.09800 23.37800
C  -1.73300 14.34000 24.04300
N  -3.07000 17.24900 28.18000
C  -2.90200 16.34200 29.15000
C  -3.37300 16.91700 30.52800
C  -3.96300 18.31000 30.15500
C  -3.44600 18.50300 28.72600
C  -5.47100 18.33000 30.23100
C  -2.20800 17.03200 31.50900
C  -2.25300 16.06100 32.67300
H  -2.73300 16.52700 34.05900
N  -2.52800 19.17600 25.69800
C  -3.07300 20.06300 26.68800
C  -3.19400 21.39000 26.12500
C  -2.86600 21.24500 24.69200
C  -2.52700 19.81400 24.49500
C  -3.37000 22.62200 26.94100
C  -2.86000 22.35900 23.60600
O  -2.68100 22.04700 22.43800
C  -3.06500 23.77100 23.93100
N  -1.89600 16.80000 24.02900
C  -1.95500 17.76900 23.08800
C  -1.65000 17.15900 21.71300
C  -1.32500 15.68200 21.94500
C  -1.65400 15.56900 23.38300
C  -2.81400 17.43600 20.64700
C  0.11000 15.32600 21.61900
C  1.24500 15.86300 22.55100
N  -2.00100 15.12900 26.32500
C  -1.82900 14.11500 25.39900
C  -1.77600 12.85300 26.08300
C  -1.94100 13.18500 27.44900
C  -2.15500 14.53100 27.55900
C  -1.68200 11.50700 25.47200
C  -2.09900 12.60100 28.77600
O  -1.98600 11.45400 29.21400
C  -2.44400 13.72000 29.65700
C  -1.38300 13.76800 30.66200
O  -0.31100 14.38500 30.59300
O  -1.67100 13.00200 31.74900
C  -0.76200 12.79600 32.86600
H  -3.81400 20.62000 28.64300
H  -2.07900 19.64400 22.44000
H  -1.59400 13.46200 23.40800
H  -4.14000 16.23200 30.89000
H  -3.46300 19.11200 30.69700
H  -5.96400 17.42400 30.58400
H  -6.07800 18.46400 29.33600
H  -5.85800 19.12000 30.87500
H  -2.14500 18.02100 31.96400
H  -1.25300 16.91200 30.99800
H  -1.22800 15.73500 32.84500
H  -2.87100 15.18600 32.47500
H  -3.60900 22.47700 27.99400
H  -4.21900 23.18000 26.54500
H  -2.42900 23.16500 26.85300
H  -2.17200 24.35900 24.14200
H  -3.89800 24.00900 24.59300
H  -3.24700 24.25900 22.97300
H  -0.84600 17.78200 21.32100
H  -1.96500 15.02000 21.36100
H  -2.51900 18.08200 19.82100
H  -3.71000 17.82300 21.13300
H  -3.09900 16.46000 20.25400
H  0.32000 15.84300 20.68300
H  0.17900 14.24800 21.47800
H  0.82400 16.46500 23.35600
H  1.95100 16.44300 21.95600
H  1.69100 14.96600 22.98100
H  -1.09700 11.68600 24.57000
H  -2.61900 10.97600 25.30700
H  -1.01400 10.97000 26.14500
H  -3.37300 13.48600 30.17700
H  0.26000 13.04500 32.57900
H  -0.78400 11.79200 33.29000
H  -1.11500 13.53400 33.58600
Mg 25.66700 0.20300 29.02900
C  27.75500 -0.34400 31.83400
C  23.11100 0.67900 31.16800
C  23.64100 0.33900 26.32000
C  28.43100 -0.62500 27.01000
N  25.49800 0.04000 31.26200
C  26.48500 0.01200 32.24100
C  25.97700 0.22800 33.71700
C  24.42300 0.29100 33.35900
C  24.30500 0.38300 31.78900
C  23.52900 -0.86100 33.88200
C  26.66600 1.36100 34.56800
C  27.15400 1.12000 36.01300
H  26.42600 1.95100 37.13300
N  23.66100 0.44500 28.85100
C  22.75400 0.68900 29.83100
C  21.48000 0.97800 29.29700
C  21.59100 0.75700 27.86800
C  23.01500 0.50400 27.63000
C  20.27000 1.32900 30.13800
C  20.54100 0.76600 26.79100
O  20.70300 0.33100 25.67900
C  19.16600 1.31900 27.06600
N  26.02300 0.11800 27.00600
C  25.06000 0.21700 26.05000
C  25.63100 0.02000 24.61600
C  27.10100 -0.27800 24.81500
C  27.19000 -0.30000 26.39000
C  24.86300 -1.00400 23.70400
C  28.13400 0.72900 24.16000
C  29.35800 0.03500 23.54400
N  27.65900 -0.42600 29.26600
C  28.66200 -0.74100 28.39100
C  29.82100 -1.07400 29.05600
C  29.53700 -0.91500 30.45600
C  28.17200 -0.49800 30.50400
C  31.19300 -1.38000 28.47600
C  30.13900 -1.03500 31.73400
O  31.28900 -1.37000 32.08000
C  28.98400 -0.54200 32.71300
C  28.85300 -1.49600 33.74700
O  28.17600 -2.49900 33.67200
O  29.50400 -1.06100 34.86000
C  29.40300 -1.93200 35.99700
H  22.28400 0.81500 31.86900
H  22.98100 0.47700 25.46100
H  29.21800 -1.00000 26.35300
H  26.14500 -0.71400 34.23700
H  24.07900 1.22400 33.80600
H  23.13900 -0.38200 34.78100
H  24.15600 -1.70800 34.15900
H  22.74800 -1.20500 33.20300
H  25.82500 2.04900 34.65200
H  27.43900 1.79000 33.93000
H  28.19900 1.43000 36.02300
H  27.04000 0.04700 36.16700
H  19.37800 0.81800 29.77800
H  20.18800 2.39900 29.94300
H  20.45200 1.10900 31.19000
H  18.65200 1.36500 26.10600
H  19.35300 2.28900 27.52700
H  18.63500 0.66300 27.75600
H  25.57900 0.97800 24.09800
H  27.25900 -1.31700 24.52700
H  25.39600 -1.87800 23.33000
H  24.30400 -0.47700 22.93000
H  24.18900 -1.50000 24.40300
H  28.41600 1.46500 24.91300
H  27.72600 1.28300 23.31400
H  29.54400 0.52100 22.58700
H  29.14400 -1.02100 23.38000
H  30.11800 0.14700 24.31700
H  32.05800 -1.08100 29.06800
H  31.26600 -0.77000 27.57600
H  31.22300 -2.40400 28.10100
H  29.32600 0.39700 33.14900
H  28.69700 -1.55800 36.73800
H  30.40200 -2.09000 36.40300
H  28.96900 -2.92300 35.86400

