158

Mg 47.99600 34.80400 26.82200
C  46.33900 33.39800 29.64400
C  48.22000 37.73900 28.77500
C  49.07500 36.28200 24.19100
C  47.49200 31.80400 25.13500
N  47.53400 35.45900 29.02900
C  46.89200 34.64600 29.95100
C  46.94600 35.29700 31.31100
C  47.10200 36.77700 30.95000
C  47.62200 36.71000 29.51400
C  45.84600 37.68000 31.10500
C  48.12200 34.65200 32.10100
C  48.09700 34.79100 33.64800
H  47.05000 35.68000 34.40200
N  48.67900 36.68500 26.53800
C  48.75700 37.70900 27.46300
C  49.36600 38.80900 26.77900
C  49.62600 38.49000 25.40300
C  49.14800 37.11900 25.31500
C  49.79800 40.15100 27.49700
C  50.39100 39.19300 24.27400
O  50.52800 38.74100 23.13100
C  50.91000 40.58800 24.53300
N  48.33200 34.10400 24.94500
C  48.75400 34.97700 23.96700
C  48.82000 34.17300 22.65100
C  48.70800 32.68500 23.02100
C  48.07200 32.87900 24.41200
C  47.77000 34.68400 21.61600
C  50.07300 31.86100 22.88500
C  51.16100 31.89300 24.04200
N  47.03400 32.99400 27.18300
C  46.94400 31.84700 26.44900
C  46.18900 30.81700 27.18800
C  45.89100 31.44400 28.41800
C  46.42800 32.73400 28.38600
C  45.75500 29.40100 26.71300
C  45.13900 31.28800 29.64500
O  44.42400 30.32800 29.99800
C  45.29600 32.59700 30.44000
C  45.47900 32.40100 31.89900
O  46.50400 32.05200 32.50700
O  44.25500 32.36600 32.56300
C  44.08400 32.01000 33.97400
H  48.16600 38.73100 29.22900
H  49.48300 36.74200 23.28800
H  47.47100 30.89300 24.53200
H  46.01500 35.13200 31.85400
H  47.84100 37.28200 31.57200
H  45.89400 38.28100 32.01300
H  45.00300 37.00100 31.23300
H  45.60500 38.28300 30.22900
H  49.01300 35.21400 31.81900
H  48.31500 33.60700 31.86200
H  49.14300 35.03800 33.83000
H  48.00400 33.75200 33.96600
H  50.87400 40.31600 27.55600
H  49.24800 40.09100 28.43700
H  49.40700 40.98100 26.91000
H  50.22300 41.24800 25.06400
H  50.93400 41.02800 23.53500
H  51.87600 40.54000 25.03500
H  49.74600 34.31000 22.09200
H  47.95100 32.26500 22.35900
H  48.10200 34.61500 20.58000
H  47.41400 35.71100 21.69200
H  46.83600 34.12200 21.65800
H  50.43000 32.19900 21.91200
H  49.56600 30.90800 22.73100
H  50.98300 30.96300 24.58100
H  50.88500 32.75100 24.65600
H  52.15900 32.08500 23.64700
H  45.90400 29.38600 25.63300
H  44.68200 29.34800 26.89900
H  46.16400 28.54900 27.25500
H  44.46000 33.29500 30.38200
H  43.10700 31.55800 34.14200
H  44.26900 32.85500 34.63800
H  44.87100 31.30000 34.23100
Mg 42.91000 41.93100 25.65700
C  42.18800 44.15400 28.24300
C  43.97900 39.76800 28.10000
C  44.03300 40.04400 23.20800
C  42.21800 44.51600 23.31900
N  42.98500 41.91800 27.95700
C  42.65100 42.95500 28.78900
C  42.71200 42.63200 30.28500
C  43.53900 41.26200 30.18800
C  43.57200 40.96700 28.69300
C  45.03600 41.33400 30.74600
C  41.31200 42.49500 30.99300
C  41.18300 41.80000 32.25500
H  40.45200 42.57800 33.40900
N  43.81800 40.11000 25.64700
C  44.15100 39.31800 26.76500
C  44.63200 38.06500 26.30100
C  44.51500 38.08000 24.88300
C  44.22500 39.49800 24.52800
C  44.83200 36.86700 27.19000
C  44.61300 36.97400 23.92400
O  44.43200 37.19400 22.74200
C  44.65400 35.46500 24.36500
N  43.33400 42.33500 23.58400
C  43.63200 41.29600 22.77500
C  43.54100 41.71900 21.29300
C  42.95200 43.18000 21.28600
C  42.76300 43.33700 22.84500
C  44.79800 41.50300 20.46200
C  41.72300 43.49100 20.37700
C  40.32400 43.11000 20.90700
N  42.43900 43.88300 25.66800
C  42.04800 44.80800 24.65600
C  41.47200 45.96000 25.30000
C  41.48500 45.68100 26.66200
C  42.04300 44.42600 26.85900
C  40.90600 47.15600 24.48900
C  41.08400 46.20100 27.93100
O  40.52700 47.25500 28.15100
C  41.58100 45.27600 29.07000
C  42.61100 46.02600 29.77800
O  43.72100 46.36600 29.33800
O  42.17600 46.45600 30.97700
C  43.02400 47.37700 31.65800
H  44.23800 39.07000 28.89900
H  44.24600 39.45200 22.31500
H  41.81100 45.28100 22.65500
H  43.25100 43.32800 30.92800
H  43.08200 40.46500 30.77400
H  45.34700 42.37800 30.74400
H  45.65300 40.79600 30.02700
H  45.25400 40.86100 31.70400
H  40.64900 42.05700 30.24800
H  41.04400 43.53100 31.20400
H  42.17200 41.48200 32.58400
H  40.65100 40.86500 32.07700
H  44.89600 37.16700 28.23600
H  45.71500 36.24400 27.05000
H  43.96800 36.20500 27.13300
H  44.72300 34.91300 23.42700
H  43.65700 35.34300 24.78900
H  45.45200 35.05400 24.98300
H  42.72200 41.13500 20.87400
H  43.71400 43.91700 21.03500
H  45.65200 41.25700 21.09300
H  45.08600 42.32200 19.80300
H  44.70200 40.61700 19.83600
H  41.95300 43.14300 19.37000
H  41.73000 44.58100 20.41300
H  40.52300 42.33900 21.65100
H  39.70900 42.60600 20.16200
H  39.90000 43.97800 21.41300
H  40.71000 46.91000 23.44600
H  41.67200 47.93000 24.44600
H  40.12100 47.73500 24.97500
H  40.81100 44.95200 29.77000
H  43.75700 46.75600 32.17300
H  42.43100 47.98300 32.34200
H  43.59500 47.97800 30.95000

