158

Mg 25.64700 1.80600 29.30200
C  27.66900 1.42200 32.23500
C  22.95000 2.11300 31.41900
C  23.81900 2.02300 26.68200
C  28.40400 0.75500 27.39300
N  25.37600 2.01200 31.67600
C  26.32100 1.79200 32.57800
C  25.73600 1.93400 34.03100
C  24.19900 2.01800 33.70400
C  24.15500 1.94500 32.16600
C  23.39200 0.93800 34.40600
C  26.36100 3.20900 34.77500
C  26.77600 2.99400 36.31100
H  26.47800 4.04700 37.36200
N  23.63200 2.05900 29.03500
C  22.71700 2.26900 30.02200
C  21.39300 2.47400 29.38100
C  21.55700 2.39100 27.99900
C  23.04700 2.07800 27.87000
C  20.10500 2.76300 30.10300
C  20.53700 2.55000 26.84400
O  20.85900 2.54900 25.65200
C  19.10400 2.61000 27.12500
N  26.12600 1.51000 27.32600
C  25.16500 1.77900 26.42300
C  25.67900 1.63600 24.97800
C  27.21600 1.28500 25.16500
C  27.24700 1.20100 26.70300
C  24.86700 0.57800 24.15400
C  28.24300 2.35900 24.71300
C  29.66900 1.77700 24.27100
N  27.58200 1.13200 29.71300
C  28.60000 0.68100 28.77700
C  29.75700 0.43100 29.58700
C  29.44000 0.76100 30.93300
C  28.08500 1.08200 30.93600
C  30.98800 -0.13700 29.06600
C  29.94300 0.79200 32.31800
O  31.07800 0.56500 32.65400
C  28.80400 1.21900 33.21400
C  28.55200 0.06400 34.05700
O  28.00400 -0.97200 33.81600
O  28.99500 0.34200 35.31500
C  28.75000 -0.63700 36.40300
H  22.07900 2.33000 32.04100
H  23.21600 2.26100 25.80300
H  29.21300 0.24900 26.86300
H  26.03900 1.06100 34.61000
H  23.78300 2.96000 34.06000
H  23.95300 0.13100 34.87900
H  22.76600 0.46800 33.64800
H  22.74700 1.30100 35.20700
H  25.66900 4.03700 34.62600
H  27.25700 3.44800 34.20300
H  27.86300 2.92900 36.26500
H  26.34300 2.08200 36.72300
H  19.75000 3.69000 29.65100
H  20.18500 2.86700 31.18500
H  19.46400 1.89800 29.93000
H  18.76600 1.88900 27.86900
H  18.74100 2.34000 26.13300
H  18.80900 3.62400 27.39200
H  25.70800 2.61000 24.49000
H  27.48300 0.31400 24.74700
H  25.42500 -0.33400 23.94200
H  24.51800 1.03100 23.22600
H  24.04000 0.21900 24.76600
H  28.31700 3.16400 25.44500
H  27.89500 2.79500 23.77600
H  29.74800 2.04800 23.21800
H  29.79200 0.70700 24.43400
H  30.39600 2.28500 24.90400
H  31.39900 0.55000 28.32600
H  30.68700 -1.04500 28.54300
H  31.64500 -0.30900 29.91800
H  29.11500 2.09700 33.78100
H  29.61400 -0.69000 37.06500
H  28.54600 -1.67100 36.12500
H  27.80000 -0.40700 36.88600
Mg 50.26400 45.76800 41.13400
C  47.34000 47.41200 39.87900
C  48.89300 42.79500 40.35400
C  53.41700 44.36900 41.21200
C  51.66500 48.85200 41.78800
N  48.45000 45.24700 40.03800
C  47.29500 45.99600 39.77300
C  46.17200 45.15800 39.15300
C  46.55100 43.72400 39.66800
C  48.09600 43.89900 40.02900
C  45.76300 43.40400 40.92200
C  46.16600 45.24400 37.59400
C  44.75600 45.24400 37.05700
H  44.53300 44.28200 35.89000
N  51.05300 43.80000 40.77800
C  50.26500 42.70600 40.60400
C  51.05300 41.54600 40.55600
C  52.41100 41.94600 40.74000
C  52.35500 43.41600 40.91700
C  50.38500 40.15500 40.54100
C  53.57600 40.96800 40.85900
O  53.41400 39.75800 40.68300
C  54.89900 41.55600 41.28100
N  52.32400 46.51600 41.31700
C  53.40100 45.76100 41.36200
C  54.70800 46.59300 41.74200
C  54.07100 47.97200 41.86900
C  52.58900 47.77500 41.76500
C  55.45500 46.18100 42.97700
C  54.65400 48.99700 40.91700
C  55.64800 49.98300 41.39900
N  49.69600 47.73100 40.96300
C  50.31000 48.88500 41.26800
C  49.50400 50.07400 41.00300
C  48.36800 49.53400 40.37900
C  48.51200 48.06200 40.43700
C  49.88500 51.51700 41.40800
C  47.12900 49.92700 39.75500
O  46.66800 51.05100 39.49100
C  46.39800 48.49400 39.38200
C  45.16800 48.39400 40.16700
O  45.04500 48.30000 41.37900
O  44.11100 48.19700 39.23600
C  42.76000 47.88200 39.72200
H  48.38600 41.82800 40.38500
H  54.43300 43.97400 41.14500
H  52.21900 49.72700 42.13300
H  45.20000 45.48600 39.52200
H  46.24200 42.98500 38.92900
H  46.40500 43.24800 41.78900
H  45.19300 42.49300 40.73900
H  45.05700 44.18800 41.19400
H  46.66200 44.39400 37.12600
H  46.73000 46.03500 37.09900
H  44.60500 46.21000 36.57500
H  43.94800 45.12300 37.77900
H  50.48500 39.76400 39.52900
H  49.32900 40.23800 40.79900
H  50.92200 39.57300 41.29000
H  54.60700 42.04300 42.21200
H  55.35000 42.23200 40.55500
H  55.60200 40.77600 41.57500
H  55.43900 46.59600 40.93400
H  54.35900 48.33800 42.85500
H  54.80000 46.28700 43.84200
H  56.31100 46.83500 43.14200
H  55.87100 45.18900 42.80200
H  53.88700 49.56300 40.38800
H  55.08400 48.50100 40.04600
H  56.56300 50.10500 40.82000
H  55.88900 49.85000 42.45400
H  55.15000 50.95300 41.38300
H  49.11400 51.67900 42.16100
H  49.87300 52.23300 40.58600
H  50.88600 51.54300 41.83900
H  46.12500 48.47000 38.32700
H  42.64000 46.84400 40.03200
H  41.92100 47.84000 39.02800
H  42.52000 48.55400 40.54600

