158

Mg 8.99300 4.15700 27.63200
C  10.29300 2.42400 30.37100
C  7.07800 5.96100 29.69400
C  7.66200 5.49100 24.90800
C  10.70700 1.83500 25.55300
N  8.62700 4.02800 29.76100
C  9.35700 3.43000 30.72500
C  9.22600 4.00900 32.09900
C  8.02600 4.98400 31.91600
C  7.83200 5.01000 30.35200
C  6.69600 4.64100 32.65300
C  10.57300 4.77700 32.57700
C  10.50300 5.51200 33.88400
H  11.41300 4.95000 35.02000
N  7.63900 5.57900 27.34700
C  6.94900 6.26700 28.34800
C  6.07200 7.26500 27.75000
C  6.13100 7.08300 26.31900
C  7.18200 6.06700 26.14100
C  5.08900 8.08100 28.59300
C  5.38900 7.86300 25.27000
O  5.52300 7.57300 24.08500
C  4.63500 9.15700 25.63800
N  9.31000 3.85300 25.50700
C  8.55400 4.51700 24.63500
C  8.61800 3.96000 23.19000
C  9.81600 2.97100 23.39100
C  9.89900 2.81400 24.87800
C  7.28800 3.27100 22.78700
C  11.25400 3.36500 22.87100
C  11.81700 2.25500 21.98200
N  10.33400 2.59500 27.88000
C  10.87300 1.69800 26.95300
C  11.67500 0.74000 27.60300
C  11.56100 0.98800 29.00600
C  10.70000 2.05800 29.07700
C  12.18600 -0.47200 27.02000
C  11.95300 0.56100 30.22300
O  12.77100 -0.34100 30.61000
C  11.17700 1.55100 31.25000
C  10.38700 0.83000 32.27900
O  9.45400 0.04400 32.06800
O  10.70500 1.31100 33.53300
C  9.84900 1.00700 34.67600
H  6.55700 6.58700 30.42200
H  7.16500 5.95600 24.05500
H  11.18300 1.02700 24.99300
H  8.97700 3.23500 32.82500
H  8.34000 5.99100 32.19100
H  6.90500 4.00700 33.51400
H  5.99000 4.14800 31.98500
H  6.30000 5.53600 33.13500
H  10.75000 5.47800 31.76100
H  11.35600 4.02000 32.62400
H  9.48600 5.44300 34.27200
H  10.83800 6.53200 33.69600
H  4.06600 7.80000 28.34500
H  5.20100 9.16100 28.49800
H  5.04500 7.93800 29.67200
H  4.30000 9.73700 24.77800
H  5.31900 9.71600 26.27600
H  3.75100 8.86500 26.20400
H  8.87700 4.85000 22.61800
H  9.59300 1.97000 23.02200
H  6.58500 3.88300 22.22100
H  6.75900 3.13800 23.73100
H  7.45200 2.36200 22.20900
H  11.89000 3.55000 23.73700
H  11.17800 4.28800 22.29500
H  11.59200 2.39900 20.92500
H  11.58900 1.24800 22.33300
H  12.90000 2.33400 22.06900
H  12.94600 -0.22500 26.27800
H  11.39400 -1.01900 26.50900
H  12.60000 -1.15600 27.76100
H  11.96100 2.09900 31.77200
H  10.16200 0.01400 34.99900
H  8.80500 1.05700 34.36600
H  10.00900 1.75100 35.45600
Mg 10.64500 47.41200 25.50000
C  8.93400 47.73000 28.45600
C  13.40900 48.59000 27.06800
C  12.18800 47.19800 22.62700
C  7.61600 46.98000 23.85000
N  11.16500 47.87800 27.67000
C  10.30000 48.00300 28.69000
C  11.00500 48.53900 29.97400
C  12.30800 49.17500 29.37000
C  12.31600 48.49200 27.92600
C  12.12600 50.77100 29.26200
C  11.29300 47.55100 31.12200
C  11.14100 47.94500 32.61100
H  10.58700 46.82900 33.57500
N  12.64100 47.67900 24.95800
C  13.60800 48.11900 25.76100
C  14.89500 48.26900 25.04500
C  14.60200 47.84000 23.73600
C  13.09000 47.54700 23.69500
C  16.19600 48.67900 25.68100
C  15.49200 47.74000 22.40200
O  15.02600 47.39600 21.33700
C  16.98800 47.91600 22.48100
N  9.97300 47.45500 23.44700
C  10.79700 47.12800 22.45900
C  10.11200 46.74400 21.06100
C  8.70300 46.49400 21.62600
C  8.72300 47.02400 23.03800
C  10.09000 47.87700 20.00600
C  8.28900 44.98200 21.74000
C  9.30800 44.04600 22.48900
N  8.61600 47.31100 26.00000
C  7.47500 47.11100 25.23300
C  6.34100 46.96300 26.09300
C  6.82500 47.25800 27.37100
C  8.27300 47.44300 27.24600
C  4.95900 46.70100 25.57200
C  6.45900 47.46900 28.76500
O  5.38100 47.59500 29.36500
C  7.84400 47.67400 29.53700
C  7.89100 46.59700 30.58400
O  8.56800 45.57000 30.57500
O  6.90800 46.98300 31.44200
C  6.44000 45.93500 32.38100
H  14.26900 49.10900 27.49600
H  12.67900 46.91500 21.69300
H  6.61700 46.87600 23.41900
H  10.28200 49.28800 30.29600
H  13.14900 48.98000 30.03500
H  11.14200 51.14700 29.54200
H  12.30800 51.13100 28.24900
H  12.84700 51.23900 29.93300
H  12.31000 47.17600 31.00200
H  10.72900 46.62900 30.98000
H  10.53400 48.85000 32.60900
H  12.13800 48.22800 32.94800
H  16.56400 47.81200 26.22900
H  16.03100 49.45200 26.43100
H  16.92900 49.01600 24.94800
H  17.50900 47.51200 21.61300
H  17.38900 47.36300 23.33100
H  17.33400 48.91300 22.75200
H  10.40000 45.78000 20.64100
H  7.88300 46.95600 21.07600
H  11.10000 48.05400 19.63500
H  9.76500 48.72600 20.60700
H  9.38500 47.48900 19.27100
H  8.17600 44.64500 20.70900
H  7.33100 44.88800 22.25100
H  10.20300 44.62300 22.72000
H  9.55800 43.23000 21.81000
H  8.83500 43.65500 23.39000
H  4.96700 47.05200 24.54100
H  4.10400 47.05700 26.14700
H  4.74200 45.63500 25.63400
H  7.84100 48.66000 30.00100
H  5.51800 46.29600 32.83800
H  7.07400 45.76900 33.25200
H  6.23000 45.09400 31.72000

