158

Mg 36.30900 49.37200 24.83600
C  36.26600 47.81700 27.98500
C  34.94600 52.13100 26.30600
C  36.23900 50.78500 21.72000
C  37.35800 46.35500 23.44400
N  35.75700 49.92800 26.93200
C  35.90200 49.18100 28.07200
C  35.71800 49.97900 29.35400
C  35.14900 51.36800 28.78500
C  35.27300 51.14900 27.20400
C  33.70300 51.80800 29.08100
C  36.90900 49.98200 30.34100
C  36.75800 49.61000 31.90100
H  35.47100 49.52500 32.69400
N  35.63200 51.17900 24.09700
C  35.13900 52.15900 24.85200
C  34.85100 53.34200 24.01100
C  35.25400 53.03700 22.73800
C  35.79300 51.58800 22.78900
C  34.21400 54.47100 24.62500
C  35.22000 53.79300 21.33300
O  35.65900 53.39700 20.29200
C  34.68000 55.29900 21.32400
N  36.35700 48.62100 22.84200
C  36.53200 49.41300 21.73100
C  37.06000 48.71400 20.47100
C  37.63600 47.41000 21.12300
C  37.09800 47.46200 22.61700
C  35.91300 48.40400 19.44800
C  39.16700 47.24400 21.04400
C  39.75800 45.96800 20.47900
N  36.62500 47.34700 25.47300
C  37.15300 46.25900 24.80100
C  37.42100 45.23200 25.80900
C  36.98500 45.75400 27.04700
C  36.55800 47.06900 26.77900
C  38.05300 43.89200 25.57400
C  36.90500 45.53600 28.47800
O  37.29000 44.57900 29.14000
C  36.37400 46.84700 29.17800
C  35.18100 46.62200 30.01000
O  33.97400 46.88500 29.69600
O  35.63900 45.92200 31.16200
C  34.38000 45.46100 31.86100
H  34.56700 53.02200 26.81000
H  36.38600 51.25000 20.74300
H  37.77100 45.40100 23.11100
H  34.91600 49.53200 29.94200
H  35.81600 52.13000 29.18700
H  33.28300 51.31600 29.95900
H  32.97400 51.60500 28.29700
H  33.61800 52.86900 29.31200
H  37.40900 50.93600 30.17500
H  37.62900 49.31400 29.86700
H  37.30100 50.38500 32.44300
H  37.32000 48.69100 32.06500
H  34.08400 55.32600 23.96300
H  34.78600 54.81400 25.48700
H  33.23300 54.13500 24.96100
H  33.60500 55.12500 21.35700
H  34.96400 55.76800 20.38200
H  34.95300 56.01000 22.10400
H  37.88300 49.22900 19.97400
H  37.10100 46.53100 20.76400
H  35.08500 49.08700 19.63900
H  35.63200 47.36300 19.60400
H  36.23200 48.54000 18.41400
H  39.63800 47.39600 22.01600
H  39.60900 48.00800 20.40400
H  40.04200 46.21100 19.45500
H  39.04000 45.15800 20.35000
H  40.51400 45.50300 21.11200
H  38.78400 43.83900 26.38100
H  38.40900 43.80700 24.54700
H  37.25900 43.15500 25.69000
H  37.17600 47.11400 29.86600
H  34.01400 44.71500 31.15500
H  33.57200 46.17200 32.03600
H  34.73200 44.93200 32.74700
Mg 0.65600 43.30700 26.39500
C  2.96800 43.14900 29.09900
C  -1.86800 42.84900 28.54500
C  -1.25900 43.26800 23.74600
C  3.55000 43.61900 24.28500
N  0.62900 43.05300 28.57000
C  1.62400 43.07700 29.50900
C  1.11000 42.93400 30.93800
C  -0.36600 42.44700 30.66600
C  -0.58300 42.79400 29.14500
C  -0.69300 41.00100 31.08900
C  1.28100 44.26800 31.82300
C  1.88100 44.04700 33.23100
H  1.55300 42.69500 33.81500
N  -1.35000 43.23000 26.18800
C  -2.27500 43.13000 27.21300
C  -3.61600 43.20200 26.59900
C  -3.44700 43.29700 25.23000
C  -1.99500 43.23700 24.97600
C  -4.96400 43.28000 27.43000
C  -4.52100 43.48200 24.14200
O  -4.23000 43.63000 22.94300
C  -6.01700 43.54100 24.47200
N  1.11300 43.16500 24.30100
C  0.15500 43.23200 23.40300
C  0.61700 43.38700 21.91200
C  2.09700 43.72700 22.19400
C  2.22700 43.55500 23.70900
C  0.29800 42.12600 21.00900
C  2.63200 45.09000 21.59400
C  1.94100 46.33200 22.11300
N  2.84400 43.28700 26.59000
C  3.86400 43.41700 25.62800
C  5.17600 43.38200 26.20900
C  4.86400 43.29700 27.64500
C  3.46500 43.27700 27.77100
C  6.39600 43.66600 25.44800
C  5.50500 43.25800 28.96100
O  6.68700 43.24000 29.24900
C  4.19300 43.26300 29.95000
C  4.48200 42.17100 30.82700
O  4.25800 41.00900 30.61400
O  5.11800 42.69700 31.92700
C  5.42000 41.72800 32.99800
H  -2.78900 42.56600 29.05900
H  -1.83600 43.26100 22.81900
H  4.39200 43.91400 23.65400
H  1.74500 42.16800 31.38100
H  -1.06100 43.06400 31.23600
H  -0.90200 40.37300 30.22300
H  -1.49300 41.00600 31.82900
H  0.19800 40.58900 31.56500
H  0.33100 44.76500 32.02200
H  1.90600 45.01900 31.34100
H  1.58900 44.83000 33.93000
H  2.93400 44.19100 32.98800
H  -5.34800 42.26500 27.53000
H  -5.73900 43.95600 27.06800
H  -4.77200 43.65000 28.43700
H  -6.40500 42.86200 25.23100
H  -6.50200 43.32000 23.52100
H  -6.20500 44.54500 24.85200
H  -0.00600 44.22000 21.58600
H  2.74100 42.94000 21.80100
H  -0.52500 41.58700 21.47800
H  1.12100 41.41200 21.05000
H  0.06400 42.43700 19.99100
H  2.53000 45.17700 20.51300
H  3.69100 45.16800 21.84300
H  1.33900 46.72100 21.29200
H  2.72700 47.06600 22.29200
H  1.37100 46.27400 23.04100
H  6.36400 44.26600 24.53900
H  6.91400 42.71700 25.30500
H  7.06600 44.21900 26.10600
H  4.21600 44.20900 30.49100
H  6.37200 41.25400 32.76000
H  4.72700 40.92800 33.25900
H  5.46300 42.28000 33.93700

