158

Mg 48.47400 33.63100 26.72600
C  46.48500 32.23400 29.35400
C  48.80600 36.46400 28.63600
C  50.01000 34.94600 24.17600
C  47.48400 30.90100 24.73500
N  47.69500 34.24000 28.75300
C  47.10100 33.42900 29.71300
C  47.19200 34.14200 31.08500
C  47.57000 35.62400 30.67900
C  48.10300 35.42600 29.22700
C  46.35800 36.63700 30.75600
C  48.33200 33.52500 31.97100
C  48.15800 33.63900 33.56700
H  47.07900 34.46800 34.30600
N  49.26400 35.44100 26.36700
C  49.40400 36.42000 27.29200
C  50.17500 37.49000 26.70300
C  50.61300 37.03400 25.38000
C  49.98800 35.77000 25.25300
C  50.44300 38.77300 27.57700
C  51.35100 37.80500 24.29900
O  51.64000 37.27700 23.17600
C  51.84300 39.10700 24.52300
N  48.41200 33.18400 24.65600
C  49.30900 33.82600 23.88900
C  49.58500 33.10000 22.59100
C  48.86200 31.76300 22.83700
C  48.21500 31.92300 24.15600
C  49.11000 33.80200 21.31800
C  49.90100 30.54300 22.74600
C  49.93500 29.93200 21.37500
N  47.28000 31.96000 26.94400
C  46.97900 30.89500 26.04800
C  46.12700 29.82300 26.72100
C  45.90900 30.38800 27.99400
C  46.65200 31.65100 28.09600
C  45.58200 28.62800 26.09400
C  45.26100 30.11900 29.30600
O  44.64400 29.16800 29.71100
C  45.46400 31.42900 30.21700
C  45.93600 31.06500 31.63900
O  46.99800 30.60100 31.93700
O  44.93200 31.35500 32.55600
C  45.14200 30.64900 33.81300
H  48.98200 37.30300 29.31200
H  50.80600 35.08400 23.44200
H  47.42500 29.98200 24.14800
H  46.31300 34.15700 31.72900
H  48.35200 36.06800 31.29600
H  46.69600 37.55500 31.23700
H  45.54900 36.27200 31.38900
H  45.95800 36.87500 29.77100
H  49.35100 33.82900 31.73600
H  48.36400 32.46900 31.70300
H  49.17100 33.97800 33.78600
H  48.17100 32.62000 33.95200
H  49.57400 39.02100 28.18600
H  50.74800 39.64300 26.99600
H  51.29400 38.62100 28.24100
H  51.04600 39.78800 24.82300
H  52.23100 39.52300 23.59400
H  52.48800 38.96100 25.39000
H  50.67100 33.00700 22.62500
H  48.07900 31.45900 22.14200
H  48.04300 33.69600 21.12200
H  49.53000 33.56200 20.34100
H  49.19400 34.88100 21.44500
H  49.70300 29.72000 23.43300
H  50.93800 30.82500 22.92700
H  50.85400 30.25400 20.88600
H  49.06700 30.15500 20.75500
H  50.07800 28.85200 21.42900
H  46.34600 28.29900 25.38900
H  44.67200 28.92500 25.57300
H  45.30600 27.79700 26.74400
H  44.50700 31.94700 30.27300
H  45.87400 31.19000 34.41200
H  45.44700 29.62000 33.62500
H  44.19100 30.72200 34.34100
Mg -9.17700 17.82600 41.57600
C  -5.74400 17.96000 42.13000
C  -9.08400 21.28700 40.97000
C  -12.42900 17.77400 40.59100
C  -9.06000 14.38800 41.71400
N  -7.63300 19.30400 41.39000
C  -6.23900 19.13100 41.69400
C  -5.48400 20.47500 41.41100
C  -6.66200 21.39900 41.75700
C  -7.92400 20.63000 41.36100
C  -6.65400 21.60800 43.31100
C  -5.11400 20.64100 39.91800
C  -3.74400 20.11700 39.54600
H  -3.65500 19.06800 38.49700
N  -10.57500 19.31500 40.84500
C  -10.32400 20.64200 40.70600
C  -11.46100 21.30200 40.13800
C  -12.47800 20.32700 39.99900
C  -11.84800 19.06200 40.51400
C  -11.49200 22.76500 39.88200
C  -13.92900 20.53700 39.44300
O  -14.32100 21.64500 39.16000
C  -14.93800 19.48000 39.25800
N  -10.54200 16.33200 41.16000
C  -11.86300 16.54400 41.02000
C  -12.61400 15.18100 41.11400
C  -11.56100 14.25600 41.59900
C  -10.24800 15.03500 41.42100
C  -13.80600 15.20400 42.02600
C  -11.53700 12.88100 40.78400
C  -12.35700 11.70300 41.39300
N  -7.68300 16.35800 41.83300
C  -7.80600 14.98400 41.80800
C  -6.55000 14.44800 42.05300
C  -5.68700 15.60200 42.22200
C  -6.42400 16.66600 42.11100
C  -6.10100 12.95500 42.17800
C  -4.34000 16.09800 42.48100
O  -3.33800 15.48200 42.74600
C  -4.33700 17.65800 42.38700
C  -3.81200 18.37300 43.60100
O  -4.09000 18.13500 44.73400
O  -2.95300 19.39300 43.25200
C  -2.50400 20.28500 44.33600
H  -9.02200 22.37600 41.01800
H  -13.48900 17.59400 40.40400
H  -8.98800 13.30700 41.85400
H  -4.59800 20.73400 41.99000
H  -6.58900 22.37100 41.26900
H  -5.76400 21.15800 43.75000
H  -7.45100 21.08000 43.83500
H  -6.81000 22.65200 43.58100
H  -5.18700 21.68300 39.60500
H  -5.76000 20.00700 39.31200
H  -3.23300 19.86000 40.47400
H  -3.17200 20.99700 39.25000
H  -11.07200 22.98700 38.90100
H  -11.00700 23.30100 40.69700
H  -12.50600 23.15200 39.98100
H  -14.45500 18.67900 38.69800
H  -15.89900 19.72100 38.80400
H  -15.13500 19.12300 40.26800
H  -13.06200 14.92500 40.15400
H  -11.69300 13.94900 42.63700
H  -14.57100 14.73700 41.40700
H  -14.25100 16.13700 42.37000
H  -13.84400 14.54400 42.89300
H  -10.52500 12.51600 40.61200
H  -12.05900 13.13900 39.86300
H  -12.34900 10.92600 40.62900
H  -13.34500 12.01300 41.73500
H  -11.87200 11.22000 42.24200
H  -5.80600 12.83000 43.22000
H  -5.33100 12.86000 41.41200
H  -6.94700 12.30200 41.96400
H  -3.67000 17.91200 41.56400
H  -3.17500 20.50400 45.16700
H  -2.07300 21.13600 43.81000
H  -1.65800 19.79600 44.81800

