158

Mg 16.86000 -2.49500 28.22500
C  16.04900 -0.29800 30.96200
C  18.71700 -4.21100 30.44500
C  18.04600 -4.05900 25.62600
C  15.17100 -0.30800 26.22100
N  17.16400 -2.34000 30.47900
C  16.84600 -1.34500 31.34100
C  17.21200 -1.66000 32.76300
C  18.11700 -2.92300 32.64500
C  17.99500 -3.21200 31.13800
C  19.54300 -2.87900 33.28500
C  15.91900 -1.83600 33.65100
C  15.95800 -1.22800 35.09300
H  17.35700 -0.77500 35.61500
N  18.15900 -4.05100 28.06200
C  18.80900 -4.64300 29.10100
C  19.56200 -5.70700 28.52400
C  19.31100 -5.70600 27.14900
C  18.47200 -4.58400 26.88900
C  20.33000 -6.79100 29.36400
C  19.78400 -6.67900 26.05000
O  19.43200 -6.59300 24.86800
C  20.83700 -7.73800 26.49200
N  16.61000 -2.30500 26.23700
C  17.28600 -2.99400 25.32700
C  17.13500 -2.47500 23.90600
C  16.04900 -1.30300 24.07100
C  15.84100 -1.34300 25.63200
C  18.42800 -2.10800 23.11100
C  14.66800 -1.51300 23.28800
C  13.57000 -2.33700 24.03100
N  15.73800 -0.80800 28.49300
C  15.05300 -0.03200 27.57100
C  14.35500 1.07100 28.18500
C  14.76900 1.03200 29.49600
C  15.58100 -0.12800 29.62800
C  13.47200 2.03100 27.47800
C  14.59300 1.69400 30.70200
O  13.97200 2.71300 30.99000
C  15.39900 0.87100 31.70700
C  16.50300 1.73300 32.30500
O  17.55100 2.01100 31.77800
O  16.02700 2.39200 33.45000
C  16.75600 3.41800 34.15500
H  19.40400 -4.74300 31.10700
H  18.47100 -4.60900 24.78400
H  14.72000 0.41500 25.53900
H  17.78300 -0.80500 33.12600
H  17.66200 -3.77400 33.15100
H  20.28100 -3.34100 32.62900
H  19.49400 -3.56500 34.13000
H  19.84600 -1.88400 33.61100
H  15.77000 -2.90800 33.77900
H  15.03300 -1.48300 33.12300
H  15.73200 -2.01900 35.80800
H  15.23500 -0.41400 35.15700
H  21.38200 -6.52300 29.45700
H  19.97200 -7.74800 28.98600
H  19.87800 -6.84700 30.35500
H  20.37000 -8.56400 27.02800
H  21.57000 -7.27700 27.15300
H  21.25800 -8.14400 25.57200
H  16.70300 -3.23500 23.25500
H  16.47100 -0.31100 23.91100
H  18.36200 -1.09800 22.70700
H  18.79200 -2.83800 22.38700
H  19.21200 -1.99600 23.86000
H  14.77400 -2.11200 22.38400
H  14.28500 -0.52400 23.04000
H  12.95500 -1.61600 24.57000
H  14.09500 -2.99600 24.72200
H  12.97400 -2.81400 23.25300
H  13.03000 1.45800 26.66300
H  14.02000 2.78300 26.91100
H  12.75000 2.55300 28.10600
H  14.71400 0.69900 32.53700
H  17.00300 4.24500 33.49000
H  17.51700 2.95300 34.78200
H  16.12100 3.90600 34.89400
Mg 47.96600 34.70600 26.95500
C  46.51800 33.34500 29.70200
C  48.01500 37.82300 28.60800
C  49.09300 36.05100 24.19800
C  47.33000 31.61900 25.21500
N  47.37800 35.43200 28.97300
C  46.84900 34.67400 29.94700
C  46.76500 35.40600 31.29700
C  46.98300 36.83800 30.81900
C  47.46400 36.72800 29.34500
C  45.87800 37.76000 31.02200
C  47.81400 34.88700 32.35900
C  47.41000 34.84200 33.83300
H  46.33200 35.89000 34.35900
N  48.66600 36.61800 26.48600
C  48.63100 37.74500 27.31600
C  49.35700 38.80600 26.59800
C  49.64000 38.31900 25.25000
C  49.11400 36.94700 25.24900
C  49.63400 40.09700 27.38900
C  50.32500 38.89700 24.06600
O  50.64100 38.27000 23.06000
C  50.71300 40.28800 24.13400
N  47.95700 34.02100 24.95300
C  48.61100 34.80300 24.02900
C  48.80200 34.05700 22.72000
C  48.30400 32.62700 23.05600
C  47.79300 32.74900 24.47400
C  48.13400 34.74900 21.42100
C  49.40300 31.56100 22.99200
C  50.64000 31.72200 24.01500
N  47.13300 32.86100 27.37200
C  46.90600 31.67500 26.53400
C  46.29600 30.67800 27.40400
C  46.00500 31.33400 28.61700
C  46.58900 32.60300 28.53900
C  45.94700 29.20700 27.11400
C  45.29600 31.19800 29.83700
O  44.62200 30.27500 30.28400
C  45.49700 32.52100 30.58300
C  45.65700 32.26700 32.01100
O  46.51200 31.48300 32.47300
O  44.57100 32.74700 32.70700
C  44.21000 32.35900 34.16000
H  48.20500 38.77000 29.11800
H  49.45800 36.36900 23.21900
H  47.30800 30.71200 24.60700
H  45.76300 35.32400 31.71700
H  47.85500 37.28300 31.29900
H  46.20600 38.72900 31.39600
H  45.07400 37.40400 31.66600
H  45.30900 37.94200 30.11000
H  48.78600 35.32700 32.13800
H  47.99900 33.85700 32.05500
H  48.34800 34.85600 34.38700
H  47.04000 33.87800 34.18300
H  50.24000 39.69100 28.19900
H  48.69400 40.53800 27.72000
H  50.21700 40.82600 26.82500
H  51.55400 40.30100 24.82800
H  49.86500 40.85600 24.51800
H  50.98000 40.68500 23.15500
H  49.87700 33.93700 22.59100
H  47.46900 32.38700 22.39800
H  48.86000 35.22600 20.76200
H  47.46200 35.57000 21.66900
H  47.54900 33.98400 20.91100
H  49.73200 31.52900 21.95300
H  48.92800 30.58900 23.11800
H  51.54900 31.67600 23.41600
H  50.96900 30.83100 24.55000
H  50.66700 32.58700 24.67800
H  46.19900 28.55300 27.94900
H  46.52400 28.92400 26.23300
H  44.94400 29.12100 26.69600
H  44.58300 33.11000 30.51400
H  43.17100 32.03200 34.10400
H  44.29700 33.27000 34.75200
H  44.92700 31.71700 34.67200

