158

Mg 8.04400 3.02200 28.34500
C  9.61000 1.58800 31.15200
C  6.14600 4.97000 30.65400
C  6.53700 4.22300 25.86200
C  9.59900 0.66500 26.39100
N  7.84700 3.24200 30.68300
C  8.80000 2.64600 31.54100
C  8.62700 3.17600 33.00200
C  7.37000 4.04100 32.81800
C  7.08800 4.07000 31.28800
C  6.18900 3.66200 33.74900
C  9.84100 3.88600 33.43900
C  10.25700 3.75700 34.92500
H  9.10400 3.41500 35.86200
N  6.71000 4.49000 28.24700
C  6.01600 5.13800 29.21300
C  5.12500 6.14400 28.59100
C  5.20700 5.99700 27.24000
C  6.21400 4.87000 27.04800
C  4.22200 7.02700 29.37400
C  4.50200 6.71100 26.08100
O  4.71800 6.53000 24.89200
C  3.51000 7.72500 26.50300
N  8.01300 2.43800 26.37900
C  7.36200 3.15700 25.52900
C  7.36800 2.55200 24.06400
C  8.37100 1.42000 24.31200
C  8.72000 1.50300 25.73500
C  5.97700 2.14700 23.54000
C  9.53200 1.27100 23.38500
C  10.60000 2.39100 23.56600
N  9.28900 1.41100 28.66700
C  9.83600 0.57000 27.74000
C  10.78600 -0.36400 28.40500
C  10.72600 0.01500 29.72800
C  9.79200 1.11600 29.86300
C  11.47600 -1.52900 27.76600
C  11.25300 -0.25500 31.05400
O  12.02300 -1.11100 31.52400
C  10.52300 0.73600 32.02800
C  9.83300 -0.00800 33.07700
O  8.61400 -0.13700 33.13800
O  10.74300 -0.53900 33.97400
C  10.14100 -1.06400 35.19600
H  5.70700 5.77000 31.25300
H  6.07900 4.75800 25.02700
H  10.16800 -0.09400 25.85000
H  8.40800 2.30200 33.61400
H  7.63300 5.09700 32.88200
H  5.27100 3.51500 33.18000
H  6.10000 4.40400 34.54400
H  6.43400 2.68600 34.16600
H  9.75100 4.96400 33.30200
H  10.68600 3.62700 32.80100
H  10.75800 4.66400 35.26500
H  11.00700 2.97800 35.06100
H  4.29100 8.04300 28.98400
H  4.45300 7.19800 30.42500
H  3.21000 6.65400 29.21800
H  2.97800 8.02700 25.60100
H  3.89100 8.66500 26.90000
H  2.63800 7.51000 27.12100
H  7.71000 3.41400 23.49000
H  7.84500 0.46600 24.27200
H  5.94400 2.58400 22.54200
H  5.13200 2.46600 24.15100
H  6.01000 1.05900 23.48700
H  9.14500 1.26800 22.36600
H  9.87700 0.24300 23.49600
H  11.51400 1.99900 24.01300
H  10.08100 3.18700 24.10000
H  10.83400 2.81200 22.58800
H  12.48300 -1.28500 27.42700
H  10.97800 -1.98400 26.91000
H  11.37000 -2.40700 28.40400
H  11.21300 1.38400 32.56900
H  10.86700 -1.62500 35.78500
H  9.36700 -1.79000 34.94600
H  9.72400 -0.24700 35.78500
Mg 34.82900 2.00900 29.11300
C  32.69100 3.08800 31.68500
C  37.43300 2.04000 31.33800
C  37.07400 1.95000 26.48700
C  32.34800 2.86800 26.80100
N  35.04000 2.47600 31.27300
C  34.02900 2.81900 32.10700
C  34.52700 2.72300 33.53600
C  36.08900 2.64900 33.42300
C  36.27300 2.33300 31.94000
C  36.79600 3.98400 33.95800
C  33.85800 1.69000 34.45300
C  33.40800 2.16400 35.88000
H  34.14200 3.27200 36.55900
N  36.91300 1.71800 28.96900
C  37.77600 1.79100 30.00000
C  39.10200 1.62000 29.49300
C  39.04700 1.64100 28.09100
C  37.59900 1.76300 27.75500
C  40.33000 1.43700 30.40200
C  40.18700 1.59400 27.09600
O  40.05300 1.65500 25.86500
C  41.62200 1.44800 27.62000
N  34.66900 2.24100 26.96100
C  35.72600 2.09000 26.11200
C  35.27400 2.26100 24.65800
C  33.71700 2.31500 24.77700
C  33.52900 2.44600 26.21600
C  35.87900 3.54800 24.04000
C  32.97200 1.06800 24.25200
C  33.03600 -0.25000 25.08000
N  32.81800 2.64400 29.16800
C  31.97500 2.98600 28.15500
C  30.65800 3.31500 28.69100
C  30.83400 3.35300 30.09100
C  32.22400 2.99800 30.33300
C  29.38800 3.74100 27.93800
C  30.24200 3.56900 31.35100
O  29.11900 3.95600 31.60700
C  31.47000 3.37700 32.47000
C  31.61200 4.62700 33.39600
O  32.31000 5.64200 33.17900
O  30.92100 4.34400 34.55200
C  30.84800 5.55500 35.43000
H  38.38300 2.02600 31.87700
H  37.77500 1.96900 25.65000
H  31.48300 3.18700 26.21700
H  34.27200 3.74600 33.81200
H  36.46000 1.76600 33.94200
H  36.20600 4.62400 34.61400
H  37.16600 4.54900 33.10300
H  37.64500 3.75300 34.60100
H  34.56500 0.87600 34.61600
H  33.11500 1.11000 33.90500
H  33.37900 1.25000 36.47400
H  32.38800 2.53200 35.77300
H  40.91800 0.60700 30.00800
H  40.07200 1.19900 31.43400
H  40.90900 2.35100 30.27000
H  41.90900 0.40000 27.70400
H  41.75300 2.12900 28.46100
H  42.20900 1.90800 26.82500
H  35.47600 1.42900 23.98200
H  33.28200 3.06700 24.12000
H  35.13800 4.30000 23.77000
H  36.44100 3.42800 23.11300
H  36.59200 4.02000 24.71500
H  33.31500 0.86600 23.23700
H  31.89200 1.22000 24.26400
H  32.04100 -0.53600 25.42200
H  33.76100 -0.13300 25.88600
H  33.44700 -1.05000 24.46400
H  28.59500 3.00200 28.05100
H  29.48700 3.97700 26.87800
H  28.91200 4.59300 28.42300
H  31.33600 2.57200 33.19300
H  29.95900 5.35400 36.02700
H  30.69800 6.43000 34.79800
H  31.67400 5.66300 36.13400

