158

Mg 29.67400 57.56700 39.93800
C  27.08700 55.37000 38.82100
C  31.92100 55.10800 38.83900
C  32.20900 59.88700 40.12600
C  27.33000 60.15700 40.26600
N  29.46000 55.42200 39.05900
C  28.35500 54.74300 38.72000
C  28.62100 53.27900 38.25900
C  30.14300 53.21900 38.48900
C  30.56200 54.61100 38.94300
C  30.59100 52.21400 39.50800
C  28.16900 53.04100 36.77100
C  28.75300 53.97300 35.61600
H  27.74700 54.77200 34.69700
N  31.77200 57.48900 39.70600
C  32.48600 56.36500 39.15500
C  33.87100 56.69600 39.15900
C  33.98300 58.02100 39.73200
C  32.64800 58.52900 39.95200
C  34.98900 55.70500 38.73300
C  35.32600 58.81600 39.91600
O  36.35900 58.35300 39.48100
C  35.41700 60.25900 40.54400
N  29.74000 59.79200 40.08500
C  30.91900 60.46200 40.25400
C  30.61000 62.02000 40.31000
C  28.98400 62.00300 40.37400
C  28.65500 60.58700 40.29300
C  31.29700 62.86500 41.31100
C  28.22000 62.91800 39.44300
C  26.92200 63.65300 39.92600
N  27.57800 57.73900 39.81500
C  26.83500 58.86300 39.95300
C  25.48600 58.50500 39.77300
C  25.53000 57.15200 39.35200
C  26.86500 56.70100 39.34000
C  24.34100 59.52300 39.94300
C  24.70800 56.00500 38.86200
O  23.51900 55.88200 38.66900
C  25.69100 54.90600 38.46500
C  25.44600 53.67900 39.24000
O  25.67100 53.48900 40.42400
O  24.78400 52.78100 38.44200
C  24.30300 51.51400 39.02700
H  32.56300 54.24300 38.66500
H  33.00100 60.63900 40.11600
H  26.61700 60.95800 40.47200
H  28.03400 52.69600 38.96800
H  30.62500 52.95700 37.54700
H  31.11100 51.51800 38.85000
H  29.73800 51.79500 40.04200
H  31.33200 52.67300 40.16300
H  27.09100 52.90700 36.86100
H  28.69700 52.10200 36.60800
H  29.38900 53.40600 34.93600
H  29.54500 54.65800 35.91900
H  35.53300 56.04400 37.85100
H  34.52000 54.72600 38.64300
H  35.67900 55.45700 39.53900
H  36.36200 60.56000 40.99500
H  34.68200 60.46100 41.32300
H  35.11900 60.90000 39.71300
H  30.83200 62.45900 39.33700
H  28.84900 62.36700 41.39200
H  31.99100 63.43700 40.69500
H  31.74200 62.28100 42.11600
H  30.63900 63.59800 41.78000
H  28.02800 62.33100 38.54500
H  28.90000 63.74000 39.22300
H  26.07100 63.48800 39.26500
H  27.00600 64.73800 39.98300
H  26.58200 63.29600 40.89900
H  24.24200 59.75200 41.00400
H  23.37400 59.16700 39.58700
H  24.45800 60.49400 39.46300
H  25.50800 54.77100 37.39900
H  24.64500 51.30800 40.04100
H  24.53100 50.63800 38.42000
H  23.22400 51.64800 39.10200
Mg 10.05400 48.53400 25.81000
C  8.14700 49.03700 28.65500
C  12.72400 50.01600 27.44200
C  11.86900 47.98600 23.09800
C  7.16000 47.87300 23.98100
N  10.44300 49.25200 27.91100
C  9.50000 49.34000 28.91300
C  10.05900 49.93300 30.15500
C  11.34400 50.71100 29.55800
C  11.50600 50.02300 28.17800
C  11.44800 52.26100 29.51200
C  10.26100 48.89000 31.27900
C  9.51900 49.19900 32.57600
H  9.33300 48.09500 33.58000
N  12.05700 48.83400 25.38600
C  12.97800 49.43200 26.19800
C  14.23200 49.15800 25.58800
C  14.05600 48.51000 24.28600
C  12.62200 48.39900 24.18100
C  15.49500 49.40700 26.29500
C  15.10800 48.04600 23.31800
O  14.85500 47.53200 22.29100
C  16.56200 48.17500 23.62100
N  9.50600 48.10200 23.78300
C  10.46600 47.83300 22.88600
C  9.89600 47.23400 21.55300
C  8.35500 47.17500 21.83900
C  8.29900 47.75700 23.24800
C  10.33800 48.07500 20.25200
C  7.80400 45.76100 21.67100
C  7.94300 44.80600 22.88500
N  8.11500 48.33600 26.18200
C  7.02200 48.13900 25.33200
C  5.81300 48.29800 26.06100
C  6.20900 48.64800 27.36100
C  7.64400 48.64400 27.36900
C  4.44900 48.35200 25.54200
C  5.70700 48.87600 28.78300
O  4.53400 48.85000 29.18800
C  6.97000 49.06800 29.68100
C  7.01900 47.96000 30.54900
O  7.72100 46.93400 30.44100
O  6.18900 48.05700 31.62000
C  6.07100 46.94900 32.60500
H  13.49500 50.54900 28.00300
H  12.56000 47.82400 22.26800
H  6.24500 47.68300 23.41600
H  9.45400 50.74200 30.56400
H  12.18900 50.30300 30.11200
H  10.47900 52.72600 29.69100
H  11.68500 52.77100 28.57900
H  12.15700 52.71200 30.20700
H  11.32000 48.92200 31.53500
H  9.99700 47.93200 30.83100
H  8.48800 49.49900 32.38900
H  10.00300 50.02900 33.09100
H  15.36000 49.38900 27.37700
H  15.97600 50.35700 26.06300
H  16.29000 48.67000 26.17800
H  16.88100 49.20100 23.80700
H  17.09500 47.84700 22.72800
H  16.65500 47.51900 24.48600
H  10.28500 46.22100 21.44500
H  7.76800 47.84300 21.20900
H  10.98800 48.79300 20.75100
H  9.46500 48.61900 19.89100
H  10.85500 47.57800 19.43000
H  8.36100 45.28000 20.86800
H  6.73800 45.74700 21.44200
H  8.64100 45.18300 23.63300
H  8.23600 43.82600 22.50800
H  6.96200 44.83700 23.35900
H  4.03100 47.36000 25.37200
H  4.35300 48.93200 24.62500
H  3.82200 48.77500 26.32800
H  6.94900 49.99800 30.24800
H  5.04500 46.59000 32.52500
H  6.25000 47.33900 33.60600
H  6.70100 46.10000 32.34000

