158

Mg 8.89900 3.19600 27.42500
C  10.44000 1.59900 30.19900
C  7.52100 5.48300 29.61700
C  7.49300 4.66900 24.80500
C  10.39200 0.86600 25.27400
N  8.95800 3.47800 29.69400
C  9.69900 2.75400 30.61200
C  9.49900 3.24900 32.02500
C  8.51500 4.38700 31.78200
C  8.29700 4.50700 30.31300
C  7.15800 4.17800 32.50500
C  10.78500 3.67200 32.77300
C  10.68200 4.67100 33.94100
H  11.53000 4.31300 35.18400
N  7.64800 4.81800 27.24400
C  7.20700 5.67200 28.21300
C  6.35300 6.68400 27.67700
C  6.33800 6.39700 26.31300
C  7.18800 5.23100 26.06600
C  5.76100 7.79900 28.50500
C  5.67300 7.21800 25.25600
O  5.59100 6.80800 24.09300
C  4.95000 8.45900 25.48700
N  9.01500 2.79700 25.31200
C  8.24100 3.53300 24.49400
C  8.52800 3.04600 22.98400
C  9.58200 1.93500 23.10500
C  9.66800 1.85100 24.62700
C  7.30300 2.67100 22.20700
C  10.97100 2.30000 22.37600
C  11.91800 1.13900 22.14300
N  10.11500 1.53300 27.60900
C  10.64900 0.69800 26.65400
C  11.40800 -0.33400 27.32300
C  11.35700 0.02400 28.69000
C  10.58400 1.15300 28.81800
C  12.15400 -1.45500 26.69200
C  11.71600 -0.44400 30.04600
O  12.24000 -1.48500 30.41400
C  11.24600 0.60600 31.01600
C  10.54500 0.05800 32.16800
O  9.50100 -0.56600 32.11000
O  11.23000 0.27000 33.37400
C  10.58300 -0.21400 34.60700
H  7.15800 6.26500 30.28700
H  7.05200 5.11100 23.91000
H  10.93400 0.08200 24.74100
H  8.97000 2.43800 32.52600
H  8.94700 5.29900 32.19500
H  6.40500 3.94000 31.75300
H  6.77000 5.11600 32.90100
H  7.31000 3.41800 33.27100
H  11.27900 4.14200 31.92300
H  11.38900 2.84500 33.14500
H  9.65200 4.87900 34.23000
H  11.15900 5.54100 33.49000
H  6.31800 8.71200 28.29200
H  5.57200 7.68000 29.57100
H  4.77100 8.02600 28.11000
H  4.59100 8.83600 24.52900
H  5.62000 9.20100 25.92100
H  4.07100 8.34400 26.12100
H  9.00900 3.86800 22.45400
H  9.28300 0.98000 22.67200
H  7.30600 3.30800 21.32200
H  6.41700 2.65800 22.84200
H  7.50100 1.65500 21.86600
H  11.41700 2.93500 23.14200
H  10.72500 2.86000 21.47300
H  11.54700 0.12100 22.26200
H  12.76700 1.12600 22.82600
H  12.32500 1.21400 21.13400
H  11.48900 -2.07900 26.09500
H  12.66100 -2.16000 27.35000
H  12.86800 -1.09300 25.95200
H  12.06400 1.22100 31.38900
H  10.91400 0.55200 35.30800
H  10.98300 -1.15300 34.98900
H  9.49400 -0.19900 34.65000
Mg 41.21700 41.10000 27.01700
C  40.34700 43.39700 29.47300
C  41.96300 38.88800 29.49300
C  42.21100 38.94200 24.60200
C  40.69500 43.53300 24.47000
N  41.24000 41.17900 29.19900
C  40.72800 42.15200 29.99300
C  40.59400 41.79000 31.51900
C  41.05000 40.32600 31.49000
C  41.46000 40.06100 29.95900
C  42.27100 39.92600 32.29400
C  39.14100 42.01400 32.16200
C  38.84500 42.87200 33.45400
H  38.15300 42.10400 34.61300
N  42.16400 39.20600 27.04400
C  42.32800 38.45600 28.18300
C  42.96000 37.20600 27.83500
C  42.91200 37.18400 26.38500
C  42.38100 38.51000 25.94400
C  43.51900 36.27500 28.77600
C  43.36800 36.08800 25.42500
O  43.18900 36.05700 24.16400
C  44.13700 34.90900 25.98100
N  41.32100 41.20500 24.77200
C  41.70000 40.10800 24.06200
C  41.69400 40.49300 22.50000
C  41.15300 41.99300 22.52700
C  41.07400 42.29300 24.01600
C  43.04300 40.39400 21.74700
C  39.79200 42.04300 21.87100
C  38.56800 41.49000 22.60000
N  40.73000 43.03300 26.94800
C  40.51900 43.95000 25.86000
C  40.15400 45.23300 26.32500
C  40.01400 45.03200 27.75600
C  40.41700 43.72200 28.06100
C  39.86100 46.47700 25.55200
C  39.61200 45.73200 29.03100
O  39.28000 46.89200 29.17500
C  39.86100 44.68100 30.17400
C  40.93200 45.12500 31.12700
O  42.04000 45.48900 30.81200
O  40.49100 45.25700 32.37000
C  41.33500 46.00400 33.26300
H  42.05000 38.18000 30.32000
H  42.57000 38.25800 23.83100
H  40.43900 44.35700 23.80100
H  41.35800 42.44700 31.93300
H  40.26300 39.60900 31.72100
H  42.11400 40.37200 33.27600
H  43.22200 40.19600 31.83700
H  42.27300 38.83600 32.29800
H  38.75000 41.03800 32.44800
H  38.56700 42.29400 31.27900
H  38.24100 43.72000 33.13200
H  39.75500 43.36800 33.79100
H  43.39200 35.20400 28.61700
H  43.03500 36.43000 29.74100
H  44.57700 36.53500 28.80600
H  44.46100 34.16600 25.25200
H  43.60800 34.28000 26.69700
H  45.12000 35.24400 26.31200
H  40.98400 39.82400 22.01500
H  41.84700 42.72300 22.10900
H  43.85800 40.54000 22.45600
H  43.04700 41.17600 20.98800
H  43.05500 39.42700 21.24400
H  39.94100 41.54500 20.91300
H  39.60800 43.10000 21.67400
H  38.37600 40.57100 22.04500
H  37.73000 42.15500 22.39100
H  38.71200 41.27600 23.65900
H  39.54600 46.27300 24.52900
H  40.67200 47.19600 25.66900
H  38.91400 46.81300 25.97600
H  38.98600 44.71300 30.82200
H  40.63900 46.22600 34.07100
H  41.97600 46.82300 32.93700
H  42.03500 45.31400 33.73400

