158

Mg 1.05700 8.07400 27.70700
C  1.96900 10.42300 30.15500
C  1.42000 5.60500 30.00800
C  0.80000 5.95800 25.23400
C  1.29300 10.66400 25.24600
N  1.52600 8.03500 29.92300
C  1.78600 9.14800 30.71200
C  1.69400 8.75500 32.18500
C  2.00500 7.18100 32.08800
C  1.65900 6.85800 30.61500
C  3.47000 6.75100 32.49700
C  0.32500 9.10400 32.83000
C  0.07700 8.91000 34.31600
H  1.18800 8.26200 35.12400
N  0.89700 6.00400 27.62100
C  1.07500 5.16000 28.67700
C  0.95200 3.82300 28.24700
C  0.59200 3.87700 26.87400
C  0.76800 5.28900 26.47100
C  0.93300 2.59300 29.14700
C  0.16300 2.79600 26.00200
O  -0.20300 3.04400 24.85700
C  0.02600 1.43800 26.53800
N  1.19900 8.28100 25.56500
C  1.00100 7.25200 24.78200
C  0.87600 7.65700 23.36000
C  0.76000 9.23100 23.39200
C  1.08600 9.41900 24.84800
C  2.17000 7.22600 22.63100
C  -0.55500 9.80600 22.91100
C  -0.49800 10.85000 21.73300
N  1.47700 10.08400 27.65100
C  1.56200 10.94400 26.60200
C  2.02500 12.23600 27.14400
C  2.26800 12.04900 28.50300
C  1.93300 10.74500 28.76300
C  2.12500 13.42600 26.28300
C  2.59000 12.74600 29.68800
O  3.05600 13.82900 29.91100
C  2.41400 11.68900 30.80600
C  3.62700 11.43900 31.64100
O  4.53800 10.66700 31.36000
O  3.57100 12.18700 32.80300
C  4.73300 12.06400 33.63100
H  1.55100 4.85300 30.78900
H  0.56500 5.26100 24.42700
H  1.43000 11.41800 24.46800
H  2.45200 9.32200 32.72500
H  1.27600 6.68100 32.72600
H  3.83000 6.24000 31.60500
H  3.28600 5.98700 33.25100
H  4.16200 7.48500 32.91200
H  -0.47100 8.55600 32.32500
H  0.24200 10.17300 32.63100
H  -0.88000 8.41800 34.48700
H  -0.08200 9.81200 34.90700
H  -0.11800 2.32100 29.24300
H  1.35900 2.85200 30.11600
H  1.63100 1.79300 28.90300
H  -0.43600 0.90600 25.70600
H  -0.64100 1.42000 27.40000
H  1.03700 1.03200 26.56600
H  -0.03500 7.19500 22.97900
H  1.54600 9.78700 22.88100
H  2.53100 6.29900 23.07600
H  2.94500 7.99100 22.58900
H  2.00200 6.85300 21.62100
H  -1.01100 10.38200 23.71600
H  -1.24000 9.05700 22.51200
H  -0.79800 11.69100 22.35900
H  -1.11800 10.45200 20.93000
H  0.53800 10.97100 21.41800
H  1.12500 13.71400 25.96000
H  2.74200 13.25900 25.40000
H  2.53500 14.27500 26.83100
H  1.66800 11.95700 31.55400
H  4.73900 12.72200 34.50000
H  5.62200 12.44100 33.12600
H  5.00500 11.04000 33.88700
Mg 47.98200 15.35600 28.79200
C  46.00200 15.17100 31.59400
C  50.23500 17.24600 30.72400
C  50.03300 15.60600 26.07000
C  45.50500 14.27300 26.77800
N  48.18800 16.07600 31.04200
C  47.23400 15.79300 31.95700
C  47.66600 16.26600 33.31700
C  48.93800 17.17900 33.01700
C  49.20700 16.77500 31.53800
C  48.54200 18.68900 33.16400
C  48.07900 15.02100 34.17900
C  48.38300 15.24900 35.65700
H  48.23100 16.66300 36.40900
N  49.89600 16.17400 28.45400
C  50.61000 16.93700 29.36500
C  51.92400 17.27200 28.80100
C  51.86200 16.72800 27.45700
C  50.54900 16.08500 27.26200
C  53.08700 17.97300 29.56800
C  52.97300 16.78400 26.45400
O  52.80500 16.27200 25.33900
C  54.35000 17.40600 26.68400
N  47.80400 15.02800 26.71300
C  48.75300 15.20900 25.73200
C  48.30500 14.75300 24.33600
C  46.82000 14.26800 24.65400
C  46.66300 14.55400 26.12300
C  48.47000 15.87000 23.35200
C  46.54200 12.84500 24.27000
C  47.37800 11.69800 24.88000
N  46.18300 14.76200 29.08600
C  45.29600 14.14400 28.16600
C  44.14900 13.71400 28.92100
C  44.36700 14.12300 30.26600
C  45.61000 14.77400 30.29300
C  42.93800 13.03200 28.39300
C  43.83800 14.20700 31.60500
O  42.79000 13.77200 31.94200
C  44.90900 14.91400 32.49900
C  44.30400 16.01500 33.30400
O  43.70100 16.96400 32.84400
O  44.45500 15.78400 34.64700
C  43.84800 16.78000 35.53200
H  50.99500 17.84200 31.23300
H  50.66000 15.75200 25.18900
H  44.67800 13.97000 26.13300
H  46.84100 16.79700 33.79100
H  49.78500 16.99500 33.67700
H  47.60500 18.81900 33.70600
H  48.37300 19.23100 32.23300
H  49.38400 19.27900 33.52600
H  49.02300 14.64600 33.78400
H  47.25900 14.30400 34.22500
H  49.45200 15.04300 35.71700
H  48.05200 14.37500 36.21900
H  53.90900 17.26400 29.65600
H  52.82100 18.42800 30.52200
H  53.47900 18.83400 29.02700
H  54.84400 16.97900 27.55700
H  54.21600 18.47600 26.84000
H  54.98100 17.25200 25.80900
H  48.90000 13.87500 24.08300
H  46.07800 14.89400 24.15800
H  49.52000 16.11900 23.19800
H  47.94700 16.69400 23.83700
H  47.99400 15.68100 22.39000
H  46.79200 12.72600 23.21500
H  45.49400 12.54500 24.29100
H  48.05900 11.23600 24.16500
H  46.75900 10.83200 25.11500
H  47.86000 12.02900 25.80000
H  43.18100 12.03500 28.02500
H  42.53900 13.50600 27.49700
H  42.15800 13.03900 29.15500
H  45.23800 14.15800 33.21200
H  44.28100 17.77400 35.42200
H  44.06200 16.41300 36.53600
H  42.77100 16.86100 35.38100

