158

Mg 1.28100 7.81300 25.79400
C  1.87000 9.82700 28.67300
C  1.63700 5.02700 27.78200
C  0.51300 5.96000 23.11100
C  1.15200 10.72400 23.96000
N  1.76700 7.60700 27.92900
C  1.87200 8.52600 28.98800
C  2.00200 7.84000 30.35900
C  2.18700 6.31700 29.98300
C  1.89300 6.26100 28.42500
C  3.52700 5.71900 30.35800
C  0.72700 8.24100 31.25500
C  0.99600 8.63000 32.70200
H  2.07500 7.75100 33.45100
N  1.10500 5.77100 25.43800
C  1.21400 4.75000 26.38500
C  0.71100 3.47100 25.86600
C  0.46000 3.74700 24.46000
C  0.61500 5.21900 24.28400
C  0.55300 2.23500 26.75800
C  0.07900 2.74800 23.40000
O  -0.07000 3.10500 22.22600
C  -0.23000 1.33900 23.70500
N  1.01600 8.21700 23.74700
C  0.63000 7.36700 22.82200
C  0.47700 8.07000 21.48300
C  0.70700 9.59700 21.78200
C  0.94200 9.56200 23.28600
C  1.40400 7.34600 20.40800
C  -0.52600 10.53100 21.37400
C  -0.10900 11.81500 20.70300
N  1.48200 9.89200 26.19000
C  1.27700 10.96900 25.33800
C  1.51500 12.21800 26.01900
C  1.75900 11.81000 27.40800
C  1.64700 10.40400 27.42700
C  1.36400 13.65100 25.50400
C  2.09800 12.26500 28.67800
O  2.40400 13.35700 29.03200
C  2.09100 10.96600 29.60900
C  3.30900 10.88800 30.31900
O  4.41100 10.65700 29.78900
O  3.06500 11.15300 31.66300
C  4.25100 11.30500 32.54700
H  1.90900 4.11300 28.31300
H  0.16100 5.43900 22.21800
H  1.04200 11.61600 23.33900
H  2.87100 8.37200 30.74800
H  1.38800 5.79300 30.50700
H  3.38500 4.97100 31.13800
H  4.05200 6.55800 30.81600
H  4.14300 5.43200 29.50700
H  -0.06100 7.48900 31.29200
H  0.28500 9.16200 30.87200
H  0.02100 8.38000 33.12100
H  1.03100 9.71400 32.81600
H  -0.32400 1.77500 26.30100
H  0.33800 2.56200 27.77500
H  1.34200 1.48200 26.77000
H  0.55100 0.94300 24.35400
H  -0.38500 0.68600 22.84600
H  -1.14200 1.33200 24.30100
H  -0.56300 7.96500 21.17500
H  1.62700 10.00200 21.36100
H  2.24800 6.80400 20.83500
H  1.80400 8.03100 19.65900
H  0.70500 6.62100 19.99300
H  -1.04600 10.78600 22.29700
H  -1.17900 10.02400 20.66200
H  0.91000 12.08100 20.42000
H  -0.59900 12.58900 21.29400
H  -0.68800 11.78400 19.78000
H  1.40700 14.41900 26.27700
H  0.58200 13.88800 24.78300
H  2.22800 13.84100 24.86800
H  1.25100 11.03100 30.30000
H  4.78800 12.23500 32.35900
H  5.01800 10.54900 32.37700
H  4.02200 11.07900 33.58800
Mg 8.12600 48.19300 27.80500
C  6.05700 47.85700 30.64700
C  10.78800 48.41900 29.99400
C  10.07500 49.11400 25.27100
C  5.30700 49.12000 26.06900
N  8.42700 48.10100 30.08800
C  7.39500 48.03300 31.06000
C  7.97300 48.04700 32.47700
C  9.56100 48.38000 32.25200
C  9.62300 48.32400 30.71700
C  10.01800 49.73800 32.72300
C  7.73300 46.65400 33.30200
C  8.63900 46.40000 34.55000
H  8.11200 45.54400 35.70200
N  10.19800 48.44100 27.56100
C  11.09700 48.49000 28.58100
C  12.46200 48.44200 28.05500
C  12.32500 48.67300 26.66400
C  10.78100 48.72700 26.40500
C  13.69900 48.30700 28.86300
C  13.37100 48.84400 25.54300
O  13.07000 49.21000 24.40100
C  14.78700 48.68700 25.91400
N  7.76900 49.20700 26.00100
C  8.75900 49.43700 25.10800
C  8.21100 50.24100 23.88500
C  6.62500 50.05900 24.07300
C  6.54000 49.45200 25.48400
C  8.61900 51.76700 23.86400
C  5.86000 49.13000 23.05900
C  4.54200 49.62700 22.48700
N  6.07500 48.24000 28.20900
C  5.05100 48.60000 27.39100
C  3.81000 48.24900 27.92200
C  4.16000 47.91200 29.24800
C  5.51000 48.05500 29.41100
C  2.45900 48.30500 27.20200
C  3.61900 47.58900 30.52200
O  2.49400 47.29700 30.89900
C  4.84900 47.45500 31.49600
C  4.83200 46.01800 31.95900
O  5.09200 45.01800 31.33500
O  4.40500 46.00800 33.27300
C  4.17100 44.65200 33.86900
H  11.69500 48.56700 30.58500
H  10.61900 49.50500 24.40900
H  4.42100 49.46100 25.53000
H  7.51100 48.82700 33.08200
H  10.24400 47.64300 32.67600
H  9.23300 50.18700 33.33200
H  10.24300 50.46900 31.94500
H  10.93800 49.60200 33.29100
H  7.79000 45.75300 32.69100
H  6.79000 46.82400 33.82100
H  8.99800 47.35200 34.94200
H  9.46200 45.87900 34.06100
H  14.31700 47.49200 28.48500
H  13.42200 48.10500 29.89800
H  14.26000 49.24100 28.90400
H  15.18100 49.52200 26.49300
H  15.33300 48.63800 24.97200
H  14.84300 47.74600 26.46200
H  8.66200 49.77200 23.01000
H  6.31400 51.10400 24.08100
H  9.29000 51.99300 24.69200
H  7.80600 52.48700 23.77600
H  9.18800 52.02800 22.97100
H  5.66700 48.22600 23.63500
H  6.50500 48.81800 22.23700
H  3.89300 48.78400 22.72600
H  4.65500 49.74800 21.41000
H  4.25800 50.57700 22.93900
H  2.39100 49.31800 26.80400
H  1.76500 48.21800 28.03800
H  2.42600 47.58300 26.38600
H  4.80700 48.17700 32.31100
H  3.49500 44.75600 34.71800
H  5.06200 44.09700 34.16000
H  3.69800 43.99000 33.14400

