158

Mg 25.38700 1.28400 29.86500
C  27.26200 1.40500 32.79200
C  22.56000 1.87200 31.91200
C  23.50900 1.17000 27.09700
C  28.19100 0.52200 27.86500
N  24.96000 1.46700 32.19600
C  25.92700 1.61900 33.13100
C  25.40500 1.88900 34.51000
C  23.78900 1.84600 34.20900
C  23.71100 1.75900 32.63900
C  22.93800 0.70500 34.73000
C  25.90500 3.20100 35.21900
C  26.84900 3.09000 36.45000
H  26.65800 4.06100 37.56900
N  23.34700 1.48600 29.55600
C  22.39000 1.67700 30.54500
C  21.13300 1.60400 29.89800
C  21.35000 1.45300 28.48000
C  22.78300 1.37400 28.27900
C  19.80200 1.53200 30.65800
C  20.36300 1.25800 27.40600
O  20.64800 0.99400 26.24300
C  18.92900 1.37500 27.70500
N  25.80300 0.66300 27.67700
C  24.80500 0.81800 26.76800
C  25.32500 0.83600 25.33500
C  26.90500 0.65200 25.58300
C  27.01900 0.50200 27.12200
C  24.73800 -0.22000 24.38200
C  27.82400 1.66000 24.86700
C  28.71500 1.11300 23.75000
N  27.32000 0.96600 30.23000
C  28.40800 0.68800 29.28800
C  29.68100 0.67000 30.03500
C  29.25900 0.94200 31.37500
C  27.81300 1.06300 31.50100
C  31.09000 0.45100 29.55500
C  29.76500 1.05800 32.69200
O  30.88600 0.91800 33.08000
C  28.49900 1.37500 33.65600
C  28.40300 0.33600 34.61300
O  27.68800 -0.67600 34.62400
O  29.08300 0.64200 35.76100
C  28.77800 -0.23000 37.01100
H  21.66900 2.05300 32.51800
H  22.92800 1.05900 26.17900
H  28.98800 0.60900 27.12400
H  25.66200 0.99200 35.07200
H  23.29300 2.74000 34.58800
H  22.23700 0.29400 34.00300
H  22.45000 1.12500 35.61000
H  23.57200 -0.14100 34.99400
H  25.03500 3.79000 35.50900
H  26.48400 3.74600 34.47300
H  27.88100 3.21500 36.12400
H  26.84100 2.07700 36.85400
H  19.43000 0.52700 30.46200
H  19.09900 2.31100 30.36200
H  19.90900 1.55800 31.74200
H  18.65200 0.48700 28.27300
H  18.38000 1.45400 26.76600
H  18.64600 2.22100 28.33100
H  25.04100 1.81500 24.94700
H  27.28100 -0.28000 25.16100
H  25.48100 -0.88600 23.94400
H  24.05700 0.02800 23.56800
H  24.02600 -0.70900 25.04700
H  28.42900 2.10900 25.65500
H  27.28800 2.51100 24.44600
H  29.76300 1.16000 24.04600
H  28.62900 1.79300 22.90200
H  28.48000 0.11700 23.37400
H  31.26000 0.90800 28.58000
H  31.36100 -0.60400 29.54100
H  31.65300 1.00500 30.30600
H  28.74100 2.36100 34.05300
H  28.91400 -1.29100 36.80200
H  27.74600 -0.01500 37.28800
H  29.43600 0.06100 37.83000
Mg 47.98900 16.45900 28.69200
C  45.74600 15.90600 31.34400
C  50.26900 17.77000 30.85300
C  49.95000 16.99800 26.06400
C  45.48400 15.16500 26.44100
N  47.92400 16.88500 30.78400
C  47.02000 16.40800 31.74400
C  47.41500 16.86700 33.14900
C  48.74700 17.75200 32.94100
C  49.05600 17.42300 31.46300
C  48.64900 19.30200 33.16200
C  47.61800 15.68600 34.18400
C  47.30500 15.74500 35.61200
H  47.24200 17.08000 36.31300
N  49.83200 17.37300 28.49000
C  50.69500 17.76600 29.53000
C  51.98100 18.08400 28.91000
C  51.88800 17.87600 27.49400
C  50.50900 17.48000 27.27000
C  53.09500 18.54700 29.75600
C  52.94600 18.16700 26.34900
O  52.65900 18.12400 25.17300
C  54.25000 18.50700 26.72400
N  47.75900 16.16300 26.56300
C  48.73900 16.46700 25.65600
C  48.33600 16.27800 24.24900
C  46.97500 15.46300 24.37800
C  46.70400 15.62400 25.87700
C  48.22800 17.55800 23.40000
C  47.13300 13.89100 24.01700
C  45.97800 13.43900 23.07900
N  45.99600 15.81000 28.78800
C  45.11300 15.31900 27.83800
C  43.83900 14.93700 28.44800
C  44.03300 15.11700 29.82700
C  45.36400 15.65300 29.98800
C  42.71800 14.25500 27.78200
C  43.46200 14.95200 31.17300
O  42.33200 14.58300 31.55700
C  44.53400 15.52000 32.16600
C  43.95900 16.73900 32.82100
O  43.63700 17.75800 32.22900
O  43.83900 16.53100 34.18300
C  43.33100 17.69900 34.93900
H  51.00400 17.95100 31.64000
H  50.70900 16.98300 25.27900
H  44.83500 14.59000 25.77800
H  46.67200 17.53000 33.59200
H  49.51900 17.41000 33.63200
H  47.59500 19.51400 33.34200
H  49.01200 19.76800 32.24600
H  49.29800 19.69100 33.94600
H  48.66500 15.49100 33.95200
H  47.19500 14.79100 33.72600
H  48.02400 15.08000 36.09000
H  46.33300 15.28500 35.78500
H  53.65600 19.28100 29.17800
H  53.73100 17.81200 30.25000
H  52.71800 19.20700 30.53700
H  54.61400 17.76800 27.43800
H  54.34600 19.53800 27.06400
H  54.93900 18.33200 25.89700
H  49.17200 15.66300 23.91700
H  46.20500 15.92800 23.76300
H  47.66100 17.34500 22.49300
H  49.23500 17.81000 23.06900
H  47.75400 18.35800 23.96900
H  46.95800 13.31400 24.92500
H  48.13300 13.64500 23.66100
H  46.39800 13.46000 22.07300
H  45.13300 14.12400 23.02100
H  45.70800 12.39400 23.23200
H  43.07800 13.35800 27.27900
H  42.10000 14.87300 27.13000
H  42.04100 13.83500 28.52600
H  44.73400 14.77600 32.93700
H  43.86300 17.67800 35.89000
H  42.25800 17.56200 35.07200
H  43.43900 18.60700 34.34600

