158

Mg 24.22500 -4.53100 45.85400
C  26.37400 -2.08600 44.33000
C  21.72800 -3.30800 43.93600
C  22.53200 -7.40900 46.36100
C  26.88200 -5.70900 47.64500
N  24.10500 -2.98300 44.31000
C  25.03500 -2.08300 43.91100
C  24.46800 -1.20300 42.75200
C  22.92300 -1.24800 43.13100
C  22.85100 -2.54700 43.85700
C  22.45000 0.05300 43.87300
C  24.75100 -1.66400 41.21500
C  25.79300 -0.81200 40.48900
H  25.74500 -0.94600 38.98400
N  22.30700 -5.29700 45.27900
C  21.47700 -4.63700 44.41000
C  20.30200 -5.43400 44.20300
C  20.49200 -6.70200 44.83900
C  21.82200 -6.57100 45.52100
C  19.07000 -5.00200 43.38900
C  19.57700 -7.90700 44.78800
O  18.43200 -7.73200 44.31700
C  19.88900 -9.19300 45.53100
N  24.65700 -6.25400 46.81300
C  23.78000 -7.31100 46.98500
C  24.31100 -8.42400 47.93500
C  25.62500 -7.70400 48.52500
C  25.72400 -6.42700 47.59900
C  23.40700 -8.95500 48.99300
C  26.82800 -8.62600 48.51300
C  27.56800 -8.85100 49.75500
N  26.26600 -3.97600 46.10400
C  27.22100 -4.58100 46.81800
C  28.42000 -3.74700 46.66200
C  28.21100 -2.87900 45.65700
C  26.83100 -2.99000 45.31900
C  29.60700 -3.91200 47.54200
C  28.68700 -1.80100 44.77100
O  29.80900 -1.31300 44.63100
C  27.58600 -1.24900 43.81600
C  27.26300 0.19900 44.15100
O  27.28600 0.74900 45.24900
O  27.06400 0.97900 42.98100
C  26.97300 2.46800 43.18500
H  20.82400 -2.93800 43.44900
H  22.02500 -8.34700 46.59700
H  27.44600 -5.88600 48.56300
H  24.91800 -0.22400 42.91900
H  22.23500 -1.36600 42.29400
H  23.27200 0.59800 44.33800
H  21.67100 -0.20200 44.59100
H  22.04600 0.68000 43.07900
H  23.92600 -1.86700 40.53300
H  25.38200 -2.55300 41.25000
H  26.79400 -1.14200 40.76600
H  25.88800 0.24900 40.72400
H  18.94500 -5.69600 42.55900
H  19.24200 -3.99300 43.01300
H  18.24200 -4.88000 44.08900
H  20.93500 -9.41200 45.31700
H  19.31700 -9.99200 45.05900
H  19.67800 -9.18900 46.60100
H  24.57400 -9.14700 47.16200
H  25.40300 -7.33000 49.52400
H  22.59000 -8.24800 49.13900
H  23.90600 -8.99700 49.96100
H  23.06500 -9.97000 48.78900
H  27.62800 -8.32000 47.83900
H  26.46400 -9.61500 48.23400
H  26.97300 -8.48100 50.59000
H  28.56000 -8.41000 49.85500
H  27.69400 -9.93100 49.83600
H  30.58200 -3.61900 47.15400
H  29.74300 -4.95300 47.83200
H  29.46500 -3.30900 48.44000
H  27.78500 -1.25100 42.74400
H  27.50500 2.89200 44.03600
H  25.91000 2.59600 43.39000
H  27.34100 2.95600 42.28200
Mg 47.95000 16.41100 28.97500
C  45.82900 15.98200 31.68500
C  50.04400 18.17700 30.76800
C  49.71800 16.92400 26.12700
C  45.33100 15.00300 26.90400
N  47.84700 17.18000 30.98100
C  47.00100 16.76500 31.96200
C  47.61000 17.03300 33.41700
C  48.69200 18.05800 33.01600
C  48.85100 17.85300 31.47900
C  48.40300 19.54000 33.26800
C  48.07300 15.69200 34.11900
C  47.58700 15.49700 35.59500
H  47.26700 16.71000 36.44400
N  49.72700 17.28800 28.55100
C  50.49500 17.92700 29.45400
C  51.75200 18.28900 28.83500
C  51.67500 17.91100 27.45900
C  50.37700 17.31500 27.29300
C  52.90700 18.90600 29.69600
C  52.77600 18.16700 26.37700
O  52.69300 17.75400 25.26300
C  53.94700 18.88100 26.78500
N  47.53600 15.98000 26.86400
C  48.45600 16.41400 25.87800
C  47.89100 16.17900 24.44300
C  46.55500 15.45500 24.70300
C  46.44300 15.49100 26.26500
C  47.89900 17.41100 23.59700
C  46.46300 14.04500 24.09600
C  45.59800 13.78000 22.85400
N  46.03500 15.61300 29.18500
C  45.12500 15.08100 28.30900
C  43.99700 14.58800 29.02000
C  44.17800 14.92100 30.40000
C  45.44200 15.57000 30.42700
C  42.80100 13.94500 28.43600
C  43.64100 14.86600 31.72200
O  42.61200 14.31100 32.11900
C  44.71400 15.54000 32.66200
C  44.09300 16.66800 33.49800
O  43.71300 17.75200 33.04600
O  43.91900 16.32800 34.81500
C  43.32500 17.47600 35.58900
H  50.71800 18.74400 31.41400
H  50.32500 17.20700 25.26400
H  44.47300 14.61500 26.35200
H  46.83700 17.51500 34.01600
H  49.61200 17.82300 33.55100
H  49.17600 19.97900 33.89800
H  47.44100 19.72500 33.74600
H  48.47100 20.06100 32.31300
H  49.14900 15.56200 33.99600
H  47.54900 14.88200 33.61200
H  48.34500 15.00100 36.20000
H  46.76200 14.78500 35.63800
H  53.78600 18.26200 29.68000
H  52.52100 18.91500 30.71500
H  53.17500 19.92600 29.41800
H  53.83000 19.80900 27.34600
H  54.60100 19.02000 25.92500
H  54.54300 18.25200 27.44600
H  48.55600 15.53900 23.86200
H  45.69200 16.01600 24.34700
H  48.52100 18.25300 23.90000
H  46.89000 17.61700 23.23900
H  48.43400 17.16500 22.68000
H  46.17600 13.37200 24.90300
H  47.40600 13.58400 23.80200
H  44.91600 14.61100 22.67200
H  45.05100 12.84400 22.96800
H  46.24800 13.67200 21.98600
H  42.61400 14.33700 27.43600
H  41.95400 14.03200 29.11600
H  43.02400 12.88200 28.34400
H  44.92300 14.76200 33.39800
H  43.74400 18.41900 35.23700
H  43.59000 17.35400 36.63900
H  42.24000 17.54700 35.51100

