158

Mg 7.22400 53.59000 41.47500
C  7.00800 50.02100 40.89600
C  10.50500 53.44700 40.33700
C  7.01500 56.86700 40.86100
C  3.71900 53.52500 41.76400
N  8.51500 51.90100 40.54800
C  8.30000 50.57600 40.60300
C  9.56800 49.76000 40.29800
C  10.64500 50.91000 40.55200
C  9.89000 52.19900 40.45400
C  11.41700 50.73300 41.83700
C  9.55700 49.11300 38.89000
C  9.46400 50.00900 37.64500
H  8.05700 50.05400 37.03800
N  8.61200 54.98700 40.84600
C  9.89000 54.72000 40.49400
C  10.56300 56.05200 40.45300
C  9.54600 57.10200 40.54700
C  8.29200 56.35000 40.73400
C  12.04000 56.17100 40.37500
C  9.84100 58.52300 40.60600
O  10.98300 58.94700 40.41200
C  8.82700 59.60200 40.72200
N  5.48700 55.03900 41.19200
C  5.77200 56.32500 41.08100
C  4.62400 57.13300 41.60600
C  3.48700 56.12000 41.50300
C  4.22900 54.78300 41.51000
C  4.84600 57.75800 43.01800
C  2.56300 56.28400 40.17200
C  1.06400 55.87300 40.34300
N  5.72500 52.07200 41.61100
C  4.32800 52.25300 41.66500
C  3.76700 51.05000 41.69200
C  4.80400 50.10900 41.42100
C  5.96400 50.79000 41.39300
C  2.35800 50.67800 41.90000
C  5.06900 48.70500 41.27700
O  4.28500 47.71000 41.37500
C  6.51400 48.59300 40.91000
C  6.41000 48.06100 39.52500
O  6.13900 48.76100 38.59100
O  6.54300 46.74800 39.50500
C  6.46100 46.06100 38.14200
H  11.58200 53.33100 40.20600
H  7.03500 57.95800 40.89500
H  2.64500 53.36300 41.87400
H  9.53000 49.00700 41.08600
H  11.42300 50.80000 39.79600
H  12.41200 51.17900 41.83800
H  11.48900 49.72000 42.23200
H  10.95800 51.34900 42.61000
H  8.79900 48.33400 38.81800
H  10.53100 48.62400 38.86800
H  10.13400 49.56800 36.90700
H  9.89500 50.97000 37.92600
H  12.30700 55.42600 39.62600
H  12.47500 55.87500 41.33000
H  12.36900 57.15000 40.02600
H  8.11100 59.44400 39.91600
H  9.22300 60.60600 40.56600
H  8.34800 59.61100 41.70100
H  4.49000 57.99700 40.95500
H  2.85300 56.22100 42.38400
H  5.45400 57.05000 43.58100
H  3.89100 57.79100 43.54200
H  5.24500 58.77100 43.06100
H  2.94600 55.52100 39.49500
H  2.76800 57.25800 39.72800
H  0.95200 55.72700 41.41800
H  0.74200 55.01700 39.75100
H  0.42700 56.71800 40.08400
H  2.03400 50.95100 42.90500
H  2.07900 49.72400 41.45500
H  1.75000 51.38500 41.33600
H  7.14100 47.97500 41.55100
H  7.04400 45.15500 38.30600
H  7.05800 46.61400 37.41600
H  5.46200 46.00100 37.71100
Mg 17.16000 52.45800 26.21500
C  19.11700 50.78500 28.78200
C  14.84000 53.05000 28.58900
C  15.37900 53.54700 23.83900
C  19.53700 51.07900 23.95200
N  16.98100 51.84600 28.40500
C  17.91900 51.31700 29.25800
C  17.60000 51.61000 30.70400
C  16.04200 51.90000 30.58000
C  15.96800 52.35800 29.13900
C  15.01300 50.81400 30.90800
C  18.60000 52.67500 31.41500
C  19.08900 52.37100 32.80800
H  18.06400 51.67600 33.67000
N  15.39700 53.30100 26.17900
C  14.51800 53.47000 27.28600
C  13.34300 54.11300 26.88200
C  13.54100 54.34400 25.42000
C  14.76000 53.70600 25.07400
C  12.20400 54.53000 27.81100
C  12.66700 55.23800 24.53200
O  12.93700 55.51600 23.35900
C  11.44600 55.74800 25.07400
N  17.21300 52.05300 24.14000
C  16.42800 52.79800 23.35300
C  17.05000 53.02800 21.92600
C  18.38800 52.24700 22.09300
C  18.42200 51.85200 23.53800
C  16.03800 52.51900 20.84500
C  19.65900 52.98400 21.45000
C  20.01900 54.40700 21.93900
N  18.97600 51.28900 26.29900
C  19.72900 50.80600 25.31500
C  20.99900 50.22300 25.83700
C  20.70100 50.14200 27.15000
C  19.52300 50.85500 27.48100
C  22.12600 49.61000 24.95700
C  21.25100 49.70800 28.38800
O  22.30800 48.99900 28.54900
C  20.25500 50.08700 29.48100
C  19.74600 48.93700 30.28100
O  18.64100 48.39500 30.12800
O  20.55400 48.73900 31.35500
C  20.08200 47.76700 32.39300
H  13.97700 53.23900 29.23100
H  14.85000 54.07800 23.04500
H  20.39300 50.73800 23.36500
H  17.69000 50.62600 31.16400
H  15.77500 52.78100 31.16400
H  14.68100 50.89700 31.94300
H  15.41700 49.81800 30.72800
H  14.19800 50.85700 30.18500
H  18.11000 53.64500 31.32400
H  19.42900 52.70700 30.70900
H  19.44100 53.23600 33.37100
H  20.00400 51.78900 32.69700
H  12.18200 55.56100 28.16200
H  12.32800 54.17200 28.83400
H  11.21400 54.34000 27.39700
H  11.78500 56.44000 25.84500
H  10.83500 54.92000 25.43400
H  10.92600 56.28500 24.28000
H  17.19400 54.10400 21.82800
H  18.29800 51.27900 21.60000
H  15.58100 53.39700 20.38800
H  15.35500 51.78900 21.28000
H  16.60600 52.12100 20.00500
H  19.38800 53.04400 20.39600
H  20.57200 52.38900 21.49100
H  20.08200 55.10700 21.10600
H  21.05500 54.44900 22.27600
H  19.42700 54.77400 22.77800
H  22.44500 50.31600 24.19000
H  21.88400 48.63500 24.53400
H  22.94500 49.38000 25.63900
H  20.73100 50.73400 30.21700
H  19.99100 46.74400 32.03000
H  19.13800 48.23200 32.67600
H  20.80500 47.69600 33.20600

