158

Mg 17.26400 52.13900 26.86400
C  19.08600 50.57400 29.42500
C  14.90200 52.97900 29.13000
C  15.58200 53.49900 24.33200
C  19.50800 50.77300 24.55900
N  16.97200 51.79100 29.05900
C  17.99800 51.27700 29.91200
C  17.46900 51.24400 31.38800
C  15.93400 51.66200 31.18300
C  15.92100 52.17100 29.70300
C  14.98200 50.43600 31.40400
C  18.26600 52.24900 32.32300
C  17.63700 52.72300 33.67700
H  16.63400 51.88800 34.44300
N  15.51000 53.21200 26.73100
C  14.64800 53.44100 27.80100
C  13.55800 54.32900 27.34500
C  13.84900 54.60200 25.94600
C  14.97000 53.70400 25.57600
C  12.35000 54.77900 28.22100
C  13.10600 55.57000 24.94800
O  13.58200 55.93200 23.88400
C  11.96300 56.28400 25.41400
N  17.41300 51.93700 24.72100
C  16.59200 52.66700 23.91500
C  17.05400 52.67600 22.48500
C  18.47700 51.94800 22.61900
C  18.49200 51.55100 24.03300
C  16.06400 51.90900 21.52300
C  19.68500 52.90800 22.21200
C  20.92100 52.34000 21.43900
N  18.89300 50.82700 26.94600
C  19.72700 50.44300 25.93500
C  20.83500 49.71500 26.49500
C  20.67300 49.70800 27.91200
C  19.46200 50.41500 28.09700
C  21.84000 49.09600 25.77200
C  21.16400 49.34000 29.11900
O  22.20100 48.77100 29.47400
C  20.18100 49.94600 30.21700
C  19.74400 48.83200 31.06600
O  19.43600 47.71400 30.61800
O  19.84000 49.24900 32.38400
C  19.10800 48.31300 33.24700
H  14.08200 53.12300 29.83500
H  15.02600 54.09500 23.60500
H  20.26800 50.44000 23.84800
H  17.43100 50.22100 31.76200
H  15.57400 52.44500 31.85100
H  14.11900 50.83700 31.93500
H  15.31100 49.72800 32.16500
H  14.72700 49.86900 30.50800
H  18.39200 53.06100 31.60700
H  19.26000 51.83500 32.49300
H  17.29500 53.75100 33.56100
H  18.49200 52.91600 34.32300
H  11.48700 54.12300 28.10800
H  12.20300 55.83600 28.00000
H  12.63700 54.83300 29.27100
H  11.53500 56.58300 24.45700
H  12.26300 57.12800 26.03500
H  11.25700 55.65600 25.95700
H  17.14800 53.75500 22.36200
H  18.56700 50.94400 22.20500
H  16.59900 51.07600 21.06700
H  15.75400 52.58300 20.72500
H  15.17600 51.59900 22.07400
H  19.97700 53.24400 23.20700
H  19.42800 53.81100 21.65900
H  21.82200 52.42900 22.04500
H  21.17600 52.94000 20.56500
H  20.64100 51.31900 21.17900
H  21.45500 48.18900 25.30500
H  22.70100 49.11100 26.43900
H  22.11900 49.75700 24.95200
H  20.62900 50.71600 30.84600
H  18.92800 48.78700 34.21200
H  19.59400 47.35500 33.43500
H  18.10200 48.16400 32.85500
Mg 9.89700 48.28400 26.01200
C  7.92100 48.33600 28.91700
C  12.51700 49.65400 27.94300
C  11.79700 48.25800 23.32600
C  6.94300 47.87200 24.03900
N  10.19200 48.93400 28.15900
C  9.21500 48.83500 29.13300
C  9.75300 49.21500 30.48500
C  11.05800 49.98800 30.01900
C  11.31700 49.48500 28.60100
C  11.21900 51.55800 30.06400
C  10.05300 48.04500 31.45300
C  10.19200 48.65500 32.95100
H  9.58700 47.75700 34.06000
N  11.97100 48.61700 25.67900
C  12.87200 49.14500 26.62300
C  14.21500 49.12200 26.09400
C  14.02400 48.77900 24.73100
C  12.52700 48.57600 24.48500
C  15.47500 49.43200 26.93400
C  15.09000 48.75600 23.57600
O  14.77500 48.57300 22.42100
C  16.59100 48.78500 23.85800
N  9.45100 48.08600 24.05200
C  10.44300 48.08000 23.09700
C  9.78200 47.93600 21.64400
C  8.32200 47.57800 21.92500
C  8.17900 47.84400 23.44300
C  9.82000 49.10200 20.71700
C  8.01500 46.06300 21.73700
C  8.67600 45.00500 22.68800
N  7.82900 48.13000 26.40100
C  6.79100 47.90400 25.51100
C  5.59700 47.74100 26.27000
C  5.97500 47.82400 27.59400
C  7.36900 48.04700 27.62500
C  4.27600 47.42700 25.64100
C  5.47900 47.69500 28.92800
O  4.34900 47.42100 29.31400
C  6.75100 47.90900 29.89500
C  7.02200 46.59400 30.56800
O  7.80300 45.75000 30.11400
O  6.35600 46.44800 31.68900
C  6.64900 45.24800 32.45300
H  13.33100 50.11100 28.50900
H  12.31000 48.39400 22.37200
H  6.02500 47.58800 23.52100
H  9.22800 50.02400 30.99400
H  11.93800 49.67500 30.58100
H  12.28900 51.76600 30.08700
H  10.73800 51.89300 30.98300
H  10.69100 52.04700 29.24500
H  11.05000 47.69500 31.18200
H  9.30700 47.25100 31.43500
H  9.77600 49.65100 33.10600
H  11.27500 48.64600 33.06900
H  15.60200 50.50700 27.06400
H  16.28400 48.82300 26.53100
H  15.39400 49.03200 27.94400
H  17.01300 47.80900 24.09700
H  16.76700 49.55800 24.60600
H  17.02200 49.05700 22.89500
H  10.23800 47.12800 21.07200
H  7.59500 48.22400 21.43300
H  9.47800 48.77800 19.73400
H  10.84400 49.46900 20.65400
H  9.24100 49.94800 21.08900
H  8.46700 45.66900 20.82700
H  6.95500 45.83700 21.62400
H  8.26900 45.20300 23.68000
H  9.75200 45.17900 22.69600
H  8.31000 44.01200 22.42700
H  4.17800 48.00400 24.72100
H  3.56000 47.50400 26.45900
H  4.18000 46.38000 25.35300
H  6.49000 48.63900 30.66100
H  7.72300 45.07700 32.37900
H  6.07800 44.38200 32.11800
H  6.44900 45.37700 33.51700

