158

Mg 0.83900 8.25700 26.86000
C  1.54200 10.44500 29.53400
C  0.81800 5.65400 28.94500
C  0.40900 6.19500 24.28900
C  1.13500 11.08200 24.67400
N  1.36400 8.08500 28.94200
C  1.53900 9.08100 29.84500
C  1.42000 8.49900 31.28400
C  1.45200 6.97900 31.08800
C  1.18500 6.87300 29.56300
C  2.85800 6.24800 31.38100
C  0.16700 9.02000 32.13900
C  0.36700 9.28200 33.69600
H  1.58700 8.56400 34.28200
N  0.44800 6.24900 26.69000
C  0.47000 5.33900 27.61700
C  0.27300 4.00900 27.12300
C  0.05700 4.11200 25.73300
C  0.30300 5.57700 25.51800
C  0.21600 2.75200 27.98600
C  -0.31000 3.04600 24.68200
O  -0.28000 3.20600 23.48200
C  -0.76400 1.64800 25.10800
N  1.05300 8.61900 24.78500
C  0.76600 7.58000 23.92600
C  0.72100 8.04500 22.45800
C  0.51200 9.61400 22.62800
C  0.98900 9.81200 24.11900
C  1.98400 7.55600 21.73600
C  -1.01200 9.99200 22.56500
C  -1.40600 10.68200 21.23000
N  1.32100 10.49600 26.99600
C  1.45500 11.45800 26.03300
C  1.56400 12.73300 26.75700
C  1.73400 12.47000 28.13600
C  1.52100 11.03200 28.24800
C  1.59800 14.00700 26.03400
C  1.88900 12.97500 29.44400
O  2.03500 14.09600 29.89600
C  1.76800 11.72200 30.34500
C  2.84100 11.63100 31.34000
O  3.90300 11.08300 31.11900
O  2.51100 12.24900 32.53700
C  3.48400 12.12400 33.61000
H  0.88400 4.88400 29.71700
H  0.21100 5.59600 23.39800
H  0.91000 11.84300 23.92400
H  2.28600 8.90900 31.80500
H  0.70500 6.42500 31.65700
H  3.36600 6.09800 30.42800
H  2.77700 5.37200 32.02400
H  3.46000 6.97500 31.92700
H  -0.67000 8.33300 32.01600
H  0.03700 9.99700 31.67300
H  -0.53700 9.04300 34.25700
H  0.51100 10.35800 33.78700
H  0.61300 1.97900 27.32900
H  -0.81500 2.52100 28.25200
H  0.83700 2.83700 28.87800
H  0.06800 0.99300 25.36800
H  -1.39300 1.28300 24.29600
H  -1.39500 1.63700 25.99700
H  -0.12300 7.50000 22.03600
H  1.07000 10.23100 21.92400
H  2.62400 7.03500 22.44800
H  2.62200 8.37100 21.39400
H  1.79000 6.84100 20.93700
H  -1.38100 10.59300 23.39600
H  -1.62500 9.10400 22.71700
H  -2.07400 10.03800 20.65900
H  -0.53700 10.93800 20.62500
H  -2.04000 11.55600 21.37600
H  0.56300 14.25900 25.80300
H  2.10600 13.82900 25.08700
H  2.18900 14.84500 26.40600
H  0.81200 11.79900 30.86400
H  4.41000 11.59800 33.38000
H  3.10000 11.62200 34.49800
H  3.63600 13.13100 34.00000
Mg 41.22200 8.82700 29.94200
C  43.35700 10.16600 32.50600
C  39.00700 8.02000 32.47600
C  39.27600 7.47400 27.68200
C  43.95200 8.97500 27.74600
N  41.29100 9.07100 32.24900
C  42.12800 9.81200 33.05100
C  41.51600 10.06600 34.41000
C  40.24600 9.13200 34.39400
C  40.11600 8.76600 32.93700
C  40.41000 7.90900 35.30800
C  41.39800 11.55900 34.86500
C  42.48000 12.08600 35.84700
H  42.00900 12.88700 37.09600
N  39.45100 7.89900 30.07700
C  38.62100 7.71000 31.15000
C  37.33900 7.10300 30.70900
C  37.38500 6.98300 29.32500
C  38.73200 7.48100 28.93500
C  36.31900 6.46700 31.62000
C  36.29500 6.46000 28.36000
O  36.59200 6.25100 27.21700
C  34.90400 6.21100 28.90700
N  41.59400 8.17800 28.08200
C  40.59700 7.71000 27.25400
C  40.96600 7.69600 25.77700
C  42.36200 8.40700 25.86000
C  42.65400 8.60900 27.30900
C  40.96600 6.28100 25.07300
C  42.53700 9.70100 25.03400
C  41.59400 10.81900 25.43400
N  43.18700 9.48600 30.02200
C  44.21600 9.46000 29.09400
C  45.38300 10.14300 29.62300
C  45.07100 10.52000 30.90800
C  43.74100 9.97600 31.13500
C  46.69000 10.25400 29.04900
C  45.58900 11.19800 32.11300
O  46.60800 11.81600 32.34400
C  44.43100 11.06600 33.18400
C  45.01200 10.42200 34.34200
O  45.08300 9.26300 34.57500
O  45.50400 11.41700 35.16900
C  46.75000 10.97800 35.87400
H  38.33100 7.81500 33.30800
H  38.58100 7.23100 26.87600
H  44.79600 9.17700 27.08300
H  42.25400 9.63400 35.08500
H  39.35600 9.68600 34.69400
H  40.49700 7.04100 34.65500
H  39.43800 7.77100 35.78000
H  41.19800 8.18600 36.00800
H  40.38700 11.62200 35.26800
H  41.49700 12.18500 33.97800
H  43.05400 12.71400 35.16500
H  43.14100 11.24300 36.04900
H  36.50100 6.79300 32.64400
H  36.36000 5.37800 31.57700
H  35.34100 6.89000 31.39200
H  34.38700 7.10600 29.25400
H  34.99300 5.41900 29.65000
H  34.30500 5.74600 28.12400
H  40.16800 8.34400 25.41300
H  43.17300 7.73800 25.57100
H  40.36800 6.42300 24.17200
H  40.59200 5.49800 25.73200
H  41.97800 6.01900 24.76500
H  42.34900 9.47000 23.98500
H  43.56000 10.06000 25.14600
H  42.11200 11.73300 25.72500
H  40.87700 10.57800 26.21900
H  41.04700 11.11700 24.54000
H  46.77700 9.68700 28.12300
H  47.43500 9.87500 29.74900
H  46.91200 11.30800 28.88400
H  44.09400 12.07800 33.41100
H  47.36000 10.40900 35.17300
H  46.59200 10.42400 36.79900
H  47.31500 11.86400 36.16500

