158

Mg 24.20700 -4.70600 45.63700
C  26.00800 -2.04500 44.43500
C  21.37000 -3.71400 43.82500
C  22.76600 -7.56300 46.45200
C  27.14100 -5.73400 47.37700
N  23.89900 -3.28200 44.01500
C  24.77500 -2.25200 43.79400
C  24.16500 -1.33600 42.72100
C  22.65200 -1.64700 42.88900
C  22.61500 -2.94000 43.63800
C  21.99200 -0.54300 43.70200
C  24.62400 -1.77100 41.32300
C  25.60100 -0.91500 40.46200
H  26.66300 -1.61900 39.59400
N  22.30800 -5.46900 45.24200
C  21.24000 -4.87200 44.57700
C  20.10300 -5.76700 44.74700
C  20.47400 -6.95100 45.45000
C  21.91200 -6.69000 45.71900
C  18.79000 -5.43100 44.10200
C  19.61700 -8.20900 45.68900
O  18.39100 -8.24000 45.40400
C  20.05800 -9.46800 46.41500
N  24.82600 -6.33400 46.73000
C  24.01800 -7.38200 46.95800
C  24.62600 -8.54200 47.84600
C  25.92600 -7.84000 48.32900
C  26.01200 -6.55100 47.40900
C  23.74900 -9.09800 48.99700
C  27.17900 -8.72900 48.19600
C  27.99300 -8.88800 49.48900
N  26.19800 -4.07400 45.92500
C  27.25600 -4.52600 46.70300
C  28.42600 -3.65700 46.52300
C  27.96700 -2.68400 45.61300
C  26.62300 -2.93800 45.36500
C  29.78500 -3.88100 47.22000
C  28.35800 -1.46300 44.96400
O  29.39800 -0.81400 44.98900
C  27.09900 -1.00200 44.07400
C  26.66900 0.33400 44.55600
O  26.28500 0.59900 45.67400
O  26.93100 1.25800 43.62200
C  26.88100 2.66900 43.97900
H  20.44800 -3.31400 43.39900
H  22.43400 -8.56800 46.71900
H  27.98700 -6.16900 47.91200
H  24.36600 -0.29100 42.95300
H  22.14600 -1.85300 41.94600
H  22.61700 -0.18400 44.52000
H  20.99600 -0.78300 44.07400
H  21.95200 0.43400 43.22100
H  23.72400 -1.95300 40.73600
H  25.14600 -2.70500 41.52900
H  26.04000 -0.13300 41.08200
H  24.89700 -0.39100 39.81600
H  18.36300 -6.24600 43.51800
H  18.80200 -4.60900 43.38600
H  18.16200 -5.05200 44.90900
H  20.32000 -9.11700 47.41300
H  20.93300 -9.77600 45.84300
H  19.20200 -10.13700 46.32600
H  24.94200 -9.30300 47.13200
H  25.83600 -7.49300 49.35900
H  23.58600 -10.14600 48.74300
H  22.80000 -8.56900 49.07900
H  24.24400 -9.00600 49.96400
H  27.91900 -8.33200 47.50200
H  26.89200 -9.76800 48.03500
H  29.06400 -9.01400 49.32900
H  27.64500 -9.73500 50.08000
H  27.91500 -7.95800 50.05400
H  30.01900 -4.91600 46.97200
H  29.72400 -3.78300 48.30400
H  30.46400 -3.15200 46.77800
H  27.28300 -1.05900 43.00100
H  27.77700 3.00400 44.50200
H  25.99700 2.85500 44.59000
H  26.73500 3.21000 43.04400
Mg 9.83300 47.24900 26.27200
C  7.36900 47.25900 28.73100
C  12.04800 48.20900 28.64200
C  12.27000 46.95900 23.89200
C  7.47300 46.31200 23.88400
N  9.68900 47.72600 28.48900
C  8.61600 47.42900 29.32000
C  9.00400 47.66800 30.83900
C  10.56300 47.96300 30.73600
C  10.77500 48.05300 29.21600
C  10.95900 49.15700 31.72100
C  8.53900 46.51400 31.72900
C  9.47100 46.14800 32.91700
H  8.92600 45.62500 34.21000
N  11.84700 47.66700 26.27900
C  12.53600 48.02300 27.31500
C  13.94900 48.20800 26.92200
C  14.00200 47.83400 25.57100
C  12.65000 47.39300 25.17900
C  15.03200 48.68800 27.87000
C  15.23300 47.66300 24.76200
O  15.20000 47.40800 23.56100
C  16.66200 47.81700 25.34900
N  9.89400 46.83500 24.11600
C  11.00500 46.80300 23.34700
C  10.74300 46.48500 21.92900
C  9.19000 46.39000 21.83400
C  8.83900 46.42500 23.35800
C  11.47800 47.40700 20.89600
C  8.62200 45.13800 21.14700
C  8.97600 44.97700 19.70900
N  7.86200 47.05900 26.20300
C  6.99100 46.67700 25.15200
C  5.63900 46.71200 25.60000
C  5.71200 46.88800 26.99500
C  7.10400 47.04800 27.32900
C  4.50700 46.52300 24.71500
C  4.98700 47.02300 28.19800
O  3.78500 47.01800 28.37200
C  5.99800 47.28400 29.35100
C  5.72900 46.20600 30.21900
O  6.18000 45.11100 30.05100
O  4.86900 46.58100 31.09100
C  4.42300 45.60900 32.00700
H  12.84500 48.33700 29.37700
H  13.12100 46.76000 23.23700
H  6.72500 46.02100 23.14400
H  8.37100 48.49900 31.15000
H  11.19000 47.14500 31.09100
H  11.82600 48.81900 32.28800
H  10.20100 49.36900 32.47400
H  11.21800 50.05100 31.15500
H  8.39700 45.58400 31.17800
H  7.60600 46.80200 32.21300
H  9.88300 47.07400 33.31800
H  10.27500 45.51900 32.53500
H  14.67000 48.86000 28.88400
H  15.58200 49.57100 27.54400
H  15.81900 47.93500 27.83500
H  16.88400 48.86700 25.53600
H  17.32100 47.48100 24.54800
H  16.87600 47.21500 26.23200
H  11.06200 45.45600 21.76400
H  8.82800 47.27400 21.31000
H  11.89400 48.28800 21.38500
H  10.77500 47.80400 20.16500
H  12.24400 46.77800 20.44300
H  7.54500 45.27400 21.05500
H  8.88000 44.20600 21.65100
H  8.05100 44.75800 19.17600
H  9.50400 44.03400 19.56900
H  9.55000 45.77900 19.24500
H  4.67600 45.67200 24.05600
H  4.28700 47.34100 24.02900
H  3.63900 46.28900 25.33100
H  5.73200 48.23600 29.81200
H  4.31000 44.60400 31.60100
H  3.43800 45.94500 32.33000
H  5.08300 45.66000 32.87300

