158

Mg -1.88400 17.66600 27.56100
C  -2.70300 15.34100 30.01900
C  -2.54600 20.17700 29.88000
C  -1.78500 19.90400 25.01600
C  -1.61600 15.05000 25.30200
N  -2.38000 17.70500 29.80800
C  -2.78700 16.63700 30.59300
C  -3.04500 17.09900 32.03800
C  -3.13800 18.64300 31.86500
C  -2.55400 18.88600 30.42500
C  -4.54900 19.20200 32.09100
C  -1.86600 16.60300 32.97800
C  -1.50500 17.39100 34.27100
H  -1.15400 16.63600 35.49000
N  -2.13100 19.72500 27.48200
C  -2.47500 20.55800 28.50100
C  -2.51400 21.94400 27.96700
C  -2.21000 21.89000 26.57000
C  -2.02500 20.46800 26.31000
C  -2.81800 23.17500 28.92300
C  -2.01700 22.97900 25.57500
O  -1.82600 22.78300 24.39800
C  -2.17400 24.34800 26.06600
N  -1.69700 17.49100 25.51400
C  -1.73700 18.55600 24.63800
C  -1.60300 18.11700 23.14800
C  -1.30600 16.57400 23.29100
C  -1.60100 16.37500 24.74700
C  -2.87300 18.46100 22.17700
C  0.17100 16.21400 22.91200
C  1.31500 16.94500 23.61400
N  -2.08300 15.58300 27.55200
C  -1.93100 14.61000 26.61000
C  -2.28900 13.26000 27.14800
C  -2.56800 13.59100 28.51100
C  -2.40600 14.97600 28.72200
C  -2.26700 11.97100 26.37200
C  -3.03200 13.04300 29.75300
O  -3.38400 11.91800 30.03500
C  -2.98400 14.07400 30.78800
C  -1.84800 13.56100 31.67500
O  -0.65500 13.85500 31.63200
O  -2.42900 12.68900 32.60300
C  -1.51300 12.35500 33.75400
H  -2.81300 21.02600 30.51200
H  -1.93600 20.52800 24.13300
H  -1.51800 14.31600 24.49900
H  -3.94800 16.66000 32.46100
H  -2.50400 19.15200 32.59000
H  -5.29600 18.43700 32.30500
H  -4.78300 19.69000 31.14500
H  -4.41500 19.92800 32.89300
H  -1.01700 16.44400 32.31400
H  -2.26800 15.69400 33.42600
H  -2.35800 18.05000 34.43500
H  -0.64700 18.01200 34.01500
H  -1.97500 23.86400 28.97600
H  -3.22300 22.96500 29.91300
H  -3.73500 23.53400 28.45600
H  -1.54900 24.60700 26.92000
H  -3.20000 24.65900 26.26200
H  -1.86900 25.00800 25.25300
H  -0.73500 18.64800 22.75900
H  -1.85000 15.92900 22.60200
H  -2.54200 19.06700 21.33200
H  -3.58100 19.07600 22.73200
H  -3.34100 17.52100 21.88600
H  0.31500 16.22900 21.83100
H  0.41100 15.19200 23.20800
H  1.89400 17.51400 22.88700
H  1.97800 16.26000 24.14300
H  1.07700 17.65100 24.41000
H  -1.54600 12.05800 25.55900
H  -3.28300 11.81200 26.01100
H  -1.94300 11.25600 27.12900
H  -3.89300 13.98400 31.38400
H  -1.79500 11.45700 34.30300
H  -1.63000 13.19100 34.44300
H  -0.47800 12.29400 33.42000
Mg 16.96200 51.52200 25.48200
C  18.77800 50.27100 28.33800
C  14.44600 52.44500 27.64600
C  15.67400 52.98000 22.97800
C  19.54700 50.22600 23.56800
N  16.64500 51.26500 27.68800
C  17.46000 50.75500 28.66000
C  16.91500 51.21100 30.02800
C  15.41200 51.41000 29.78000
C  15.51000 51.74300 28.25400
C  14.57300 50.10600 30.04900
C  17.67100 52.47000 30.56400
C  17.98800 52.48700 32.10500
H  17.02100 51.84700 33.17100
N  15.18600 52.65100 25.29500
C  14.29300 52.91500 26.28500
C  13.25000 53.76900 25.67900
C  13.58000 53.93300 24.27300
C  14.86200 53.24700 24.12700
C  12.00000 54.07900 26.36000
C  12.85200 54.73700 23.14800
O  13.23400 54.82300 21.99600
C  11.70300 55.54700 23.51700
N  17.49500 51.45200 23.59300
C  16.82400 52.25000 22.74000
C  17.44700 52.29800 21.31800
C  18.69800 51.37100 21.54900
C  18.58800 50.97500 23.00900
C  16.52400 51.89200 20.16200
C  20.03100 52.03100 21.19800
C  20.48200 51.58300 19.87600
N  18.69900 50.26900 25.80500
C  19.70700 49.90100 24.91800
C  20.80500 49.26600 25.56700
C  20.53800 49.35700 26.90900
C  19.22800 50.01100 27.01500
C  22.06600 48.78000 24.82100
C  21.04600 49.07000 28.28000
O  22.09500 48.57500 28.75500
C  19.82600 49.66900 29.29300
C  19.35800 48.61000 30.06400
O  19.05000 47.44100 29.72100
O  19.42700 48.92800 31.42600
C  18.95800 47.93200 32.39200
H  13.66600 52.88300 28.27200
H  15.28300 53.49500 22.09800
H  20.32700 49.85700 22.89900
H  17.07800 50.32700 30.64500
H  15.00700 52.25500 30.33800
H  13.61900 50.30500 30.53700
H  15.09200 49.43600 30.73500
H  14.28900 49.72000 29.07000
H  17.08200 53.36600 30.36900
H  18.60000 52.52300 29.99500
H  18.01800 53.53900 32.39000
H  18.92700 51.96100 32.27900
H  11.19200 53.73600 25.71300
H  11.94500 55.16800 26.38900
H  11.86000 53.58700 27.32200
H  10.87400 54.90200 23.81000
H  11.40300 56.15600 22.66300
H  11.94300 56.14300 24.39800
H  17.62800 53.35100 21.10200
H  18.55500 50.40800 21.06100
H  15.48900 52.20400 20.30200
H  16.54300 50.81200 20.01900
H  16.79400 52.40900 19.24100
H  20.84500 51.73400 21.86000
H  19.83200 53.10100 21.15300
H  21.17200 50.77800 20.12900
H  21.12400 52.26200 19.31600
H  19.75600 51.13400 19.19700
H  22.27400 49.47600 24.00800
H  21.80400 47.78900 24.45000
H  22.92600 48.52400 25.43900
H  20.29300 50.43500 29.91300
H  18.21100 48.33700 33.07500
H  19.82500 47.63200 32.98100
H  18.63300 46.96500 32.00800

