158

Mg 46.71700 26.43500 28.98100
C  47.48400 28.57700 31.70600
C  45.55700 24.05700 31.27400
C  46.83200 24.06700 26.58600
C  48.33700 28.70700 26.80500
N  46.55900 26.34800 31.29400
C  46.81900 27.39700 32.13700
C  46.45100 27.00700 33.63900
C  46.02300 25.51000 33.48800
C  45.99000 25.30600 31.92000
C  46.83100 24.35800 34.26800
C  45.34300 27.97600 34.33500
C  45.79100 28.42500 35.75600
H  46.16400 27.40600 36.83900
N  46.11300 24.42600 28.91500
C  45.58300 23.63100 29.90800
C  45.15600 22.29400 29.34800
C  45.53300 22.28300 27.99400
C  46.16600 23.60200 27.76900
C  44.44000 21.28200 30.28400
C  45.45000 21.12400 26.96600
O  45.86500 21.21800 25.85200
C  44.81200 19.78800 27.39100
N  47.60000 26.35500 27.03300
C  47.43300 25.25200 26.24900
C  47.87200 25.51100 24.73600
C  48.16800 26.99800 24.88800
C  47.98500 27.39700 26.34300
C  49.10100 24.67600 24.35800
C  47.31500 28.02600 24.02900
C  48.14200 28.99400 23.19900
N  47.70100 28.33300 29.17400
C  48.30600 29.11100 28.18800
C  48.88200 30.29400 28.83200
C  48.53300 30.09400 30.20400
C  47.86200 28.86300 30.34800
C  49.56900 31.39200 28.15100
C  48.51000 30.71400 31.56100
O  48.88700 31.83000 31.94700
C  47.98000 29.64400 32.62000
C  49.07300 29.07900 33.48900
O  50.05300 28.45400 33.01500
O  48.95900 29.40000 34.78600
C  50.07800 29.17600 35.74100
H  45.18900 23.44100 32.09700
H  46.92100 23.28400 25.83000
H  48.75000 29.41300 26.08100
H  47.38200 27.07000 34.20300
H  44.98800 25.36800 33.79900
H  47.13400 23.57700 33.57000
H  46.10100 23.88400 34.92500
H  47.75000 24.63600 34.78300
H  44.37200 27.50000 34.47500
H  45.17200 28.85300 33.71100
H  45.11700 29.18500 36.14900
H  46.71500 29.00200 35.78700
H  43.45300 21.33900 29.82400
H  44.29400 21.63000 31.30700
H  44.91100 20.29900 30.30400
H  45.38100 19.36200 28.21700
H  44.93600 19.09000 26.56300
H  43.78000 19.98700 27.67800
H  46.97000 25.27600 24.17000
H  49.22400 27.20800 24.72200
H  49.72600 25.05100 23.54800
H  48.72200 23.70400 24.04000
H  49.73500 24.58100 25.23900
H  46.59800 28.56700 24.64700
H  46.77300 27.45900 23.27300
H  47.64700 29.12400 22.23700
H  49.20900 28.78200 23.13300
H  48.11600 29.93500 23.74800
H  49.35100 31.52000 27.09100
H  50.60900 31.10200 28.30000
H  49.37500 32.29800 28.72400
H  47.19000 30.09100 33.22400
H  50.27000 30.15000 36.19100
H  50.99300 28.72000 35.36400
H  49.76900 28.51700 36.55200
Mg 30.97500 58.42200 41.33500
C  28.11100 56.74300 39.77400
C  32.96500 56.30900 39.69100
C  33.41300 60.41900 42.22100
C  28.50800 60.96200 42.37800
N  30.53800 56.79600 39.76600
C  29.35100 56.16100 39.39200
C  29.67600 55.03100 38.46200
C  31.23200 54.82400 38.62000
C  31.61300 56.10700 39.42600
C  31.65500 53.57800 39.47800
C  29.24300 55.35100 36.93300
C  28.14600 54.43600 36.19800
H  27.26100 55.11700 35.18100
N  32.92700 58.25800 41.18600
C  33.59100 57.33200 40.42000
C  34.99500 57.51600 40.59100
C  35.18400 58.69400 41.41400
C  33.80700 59.18900 41.67000
C  36.05500 56.55500 40.13200
C  36.41900 59.28600 41.89000
O  37.47900 58.69500 41.72300
C  36.43000 60.60500 42.56100
N  30.88600 60.42500 42.17000
C  32.09900 60.96800 42.47700
C  31.96000 62.35600 42.99800
C  30.41400 62.49700 43.28500
C  29.88600 61.19900 42.55900
C  32.90000 62.75400 44.09400
C  29.75900 63.76800 42.63600
C  28.58200 64.45100 43.37800
N  28.84100 58.72600 41.26500
C  28.05200 59.81800 41.67600
C  26.64900 59.47000 41.45800
C  26.64700 58.33800 40.64300
C  27.95300 57.83300 40.54400
C  25.41200 60.20000 41.86100
C  25.77000 57.38600 39.95300
O  24.56800 57.46800 39.75200
C  26.67000 56.27500 39.33700
C  26.24100 54.98700 39.87100
O  26.65900 54.47900 40.92800
O  25.32500 54.44200 39.01100
C  24.84200 53.05200 39.32700
H  33.61100 55.57600 39.20300
H  34.12500 61.16400 42.58200
H  27.67000 61.61100 42.63600
H  29.15100 54.14700 38.82500
H  31.74900 54.79200 37.66100
H  32.49900 52.98300 39.13000
H  30.85200 52.84800 39.58400
H  31.92100 53.91000 40.48100
H  30.09000 55.49400 36.26200
H  28.78800 56.34100 36.91600
H  27.57700 53.94200 36.98600
H  28.85500 53.79300 35.67800
H  36.71400 57.21500 39.56800
H  35.67300 55.77700 39.47200
H  36.63700 56.09200 40.92900
H  35.79200 60.52600 43.44100
H  35.99600 61.30100 41.84300
H  37.40500 60.90500 42.94400
H  32.20800 62.92900 42.10400
H  30.09300 62.38700 44.32100
H  33.68500 63.43900 43.77200
H  33.43300 61.90500 44.52100
H  32.24000 63.21000 44.83200
H  29.39000 63.47500 41.65300
H  30.48900 64.57000 42.52800
H  27.60800 64.03900 43.11500
H  28.55300 65.51500 43.14000
H  28.70200 64.23700 44.44000
H  24.70600 59.40400 42.09500
H  25.15200 60.74900 40.95600
H  25.39800 60.83700 42.74600
H  26.63000 56.16600 38.25400
H  25.66000 52.33400 39.27300
H  24.13300 52.66800 38.59400
H  24.31100 52.99700 40.27700

