158

Mg 43.77100 2.81700 46.79000
C  42.59400 6.00700 45.75800
C  40.66500 1.59200 45.91000
C  45.05500 -0.30200 46.84000
C  46.92600 4.18000 46.85400
N  41.86600 3.74700 45.90600
C  41.59800 5.01600 45.62900
C  40.19900 5.19300 45.08400
C  39.45300 3.83500 45.56800
C  40.72900 2.99200 45.86100
C  38.71700 3.95400 46.94100
C  40.08900 5.54500 43.59800
C  39.46000 6.89500 43.26300
H  38.47400 6.76100 42.17000
N  42.98500 0.87800 46.38200
C  41.67100 0.58600 46.12000
C  41.54000 -0.87900 46.04900
C  42.80300 -1.50100 46.24900
C  43.67400 -0.30600 46.45900
C  40.25100 -1.52300 45.75700
C  43.09500 -3.02600 46.25000
O  42.13400 -3.83800 46.15800
C  44.48000 -3.57300 46.51200
N  45.73600 2.03500 46.71800
C  45.94600 0.73100 47.02700
C  47.28700 0.50700 47.68100
C  47.86400 1.95500 47.65900
C  46.80200 2.81800 46.99700
C  47.34400 -0.29500 49.01400
C  49.33000 2.06500 47.02600
C  50.43500 2.40600 47.91000
N  44.60200 4.71500 46.59000
C  45.91700 5.10800 46.54500
C  45.99200 6.55400 46.50600
C  44.67200 6.95100 46.24900
C  43.86000 5.73100 46.16300
C  47.18200 7.41900 46.62800
C  43.86700 8.11500 45.98800
O  44.16400 9.31000 45.88900
C  42.49900 7.46700 45.62000
C  41.47400 8.05100 46.47800
O  41.21800 7.62900 47.58000
O  40.79800 9.09300 45.87600
C  39.83800 9.79400 46.68600
H  39.63600 1.22500 45.89600
H  45.33300 -1.22200 47.35900
H  47.87100 4.60600 47.19700
H  39.70300 5.99200 45.63500
H  38.71900 3.34700 44.92700
H  38.29400 4.95900 46.95100
H  39.47600 3.84800 47.71600
H  38.01100 3.12400 46.96900
H  39.47000 4.87400 43.00300
H  41.08100 5.46500 43.15600
H  40.20300 7.64800 43.00000
H  39.00200 7.34700 44.14300
H  39.77700 -1.01900 44.91400
H  39.53400 -1.49500 46.57800
H  40.38700 -2.54700 45.40900
H  44.64100 -3.39500 47.57600
H  44.99900 -2.85700 45.87400
H  44.51400 -4.61700 46.20200
H  47.91900 -0.11500 47.04700
H  47.86700 2.35100 48.67400
H  46.36600 -0.19500 49.48500
H  48.06800 0.16800 49.68400
H  47.55900 -1.35700 48.89700
H  49.28100 2.89000 46.31600
H  49.56800 1.12100 46.53700
H  51.29700 1.77700 47.69000
H  50.24200 2.56900 48.97000
H  50.80600 3.38800 47.61800
H  47.42700 7.54900 47.68200
H  46.96400 8.43300 46.29100
H  47.98500 6.89900 46.10400
H  42.35600 7.61500 44.54900
H  38.93700 10.07300 46.14000
H  40.32000 10.71900 47.00100
H  39.43500 9.21100 47.51400
Mg 52.75100 24.28000 44.27300
C  49.86500 26.14000 44.01200
C  50.92000 21.38500 43.70700
C  55.63100 22.73000 43.44500
C  54.54800 27.34700 44.62100
N  50.62300 23.83100 43.70500
C  49.66200 24.68300 43.78800
C  48.28300 23.96800 43.74100
C  48.64100 22.48800 44.06900
C  50.11300 22.53200 43.83200
C  48.35200 22.03700 45.53900
C  47.44700 24.09100 42.42400
C  48.05700 23.45600 41.15600
H  47.92200 24.23200 39.78600
N  53.17600 22.32900 43.70800
C  52.28300 21.28600 43.66100
C  53.03000 20.09200 43.37700
C  54.37500 20.40100 43.24100
C  54.44600 21.87600 43.46500
C  52.31500 18.73300 43.41400
C  55.51700 19.42400 43.05000
O  55.28400 18.19200 43.10200
C  56.90100 19.81400 42.76500
N  54.77000 24.93900 43.77000
C  55.79700 24.06900 43.64800
C  57.21200 24.79100 43.66600
C  56.82800 26.30800 43.92100
C  55.28800 26.22600 44.09800
C  58.25300 24.09300 44.61700
C  57.25900 27.25300 42.84200
C  58.17000 28.31700 43.27700
N  52.32900 26.32300 44.46900
C  53.11800 27.41700 44.72300
C  52.18300 28.63400 44.93200
C  50.95400 28.17200 44.56000
C  51.08400 26.81000 44.28000
C  52.64900 30.01300 45.25100
C  49.55100 28.52300 44.49000
O  48.81400 29.45600 44.81100
C  48.83600 27.22800 44.03100
C  48.31900 27.58900 42.70100
O  48.82800 27.24600 41.62100
O  47.02700 28.08500 42.77900
C  46.28300 28.41300 41.56900
H  50.45000 20.40800 43.57500
H  56.56700 22.20700 43.23600
H  55.12100 28.27500 44.67000
H  47.69700 24.35100 44.57700
H  48.21100 21.84100 43.30500
H  48.94600 22.55700 46.29000
H  48.60800 20.97900 45.60700
H  47.30700 22.32300 45.65700
H  47.21200 25.15400 42.36600
H  46.49600 23.56400 42.49100
H  47.76200 22.41700 41.00700
H  49.13900 23.48700 41.28100
H  52.91600 17.87600 43.10900
H  51.45600 18.74900 42.74300
H  51.82200 18.51700 44.36100
H  57.52200 18.97100 42.46100
H  57.43300 20.32000 43.57000
H  56.83400 20.49900 41.92000
H  57.65000 24.71000 42.67000
H  57.25200 26.52100 44.90200
H  59.05500 23.61800 44.05200
H  57.82300 23.33300 45.27000
H  58.79400 24.85500 45.17700
H  56.35300 27.68400 42.41500
H  57.64600 26.67800 42.00100
H  57.70900 29.26000 42.98600
H  59.21600 28.33800 42.96900
H  58.13200 28.35400 44.36600
H  53.00300 30.55100 44.37200
H  53.38600 29.90300 46.04700
H  51.79600 30.59900 45.59400
H  48.08300 27.04100 44.79700
H  45.21700 28.26400 41.74000
H  46.53600 27.94200 40.61900
H  46.34800 29.47900 41.35000

