158

Mg 30.73800 58.62800 40.42800
C  27.89500 56.75400 39.21200
C  32.80700 56.09300 39.19400
C  33.24200 60.65800 40.75800
C  28.31900 61.28700 40.92800
N  30.31200 56.66900 39.18500
C  29.10900 56.13700 38.92900
C  29.34000 54.75700 38.28900
C  30.86400 54.38800 38.58200
C  31.42600 55.77400 38.99500
C  31.03700 53.25700 39.63600
C  28.91200 54.87300 36.72300
C  28.04900 53.73900 36.19800
H  27.11400 54.07600 35.04900
N  32.74700 58.36600 40.09300
C  33.46200 57.32200 39.57100
C  34.83100 57.59500 39.55400
C  35.06600 58.96700 39.80500
C  33.66800 59.45100 40.24500
C  35.85000 56.55600 39.26300
C  36.36600 59.82900 39.66800
O  37.40600 59.33800 39.25400
C  36.37800 61.18900 40.29800
N  30.77400 60.72200 40.83500
C  32.01500 61.31000 40.91300
C  31.88000 62.83300 41.16200
C  30.32400 62.94200 41.42500
C  29.71700 61.59100 41.02900
C  32.77500 63.42700 42.30500
C  29.67100 64.12800 40.65100
C  28.51200 64.82700 41.30900
N  28.55500 59.00900 40.25000
C  27.75600 60.07500 40.50600
C  26.35800 59.76700 40.19700
C  26.37400 58.46600 39.77200
C  27.73100 58.06200 39.72800
C  25.28100 60.81300 40.24100
C  25.52400 57.38700 39.27100
O  24.29700 57.23900 39.12200
C  26.51200 56.18300 38.90800
C  26.22600 55.03900 39.76100
O  26.60300 55.06000 40.98500
O  25.54500 54.06100 39.09800
C  24.97000 52.93800 39.86400
H  33.53000 55.34400 38.86400
H  33.93200 61.48200 40.95000
H  27.55700 62.00400 41.24000
H  28.61500 54.08800 38.75200
H  31.35700 54.10500 37.65200
H  30.41600 52.39000 39.41300
H  30.93000 53.70000 40.62700
H  32.03100 52.81700 39.55200
H  29.84000 54.90300 36.15100
H  28.41700 55.81500 36.48600
H  27.34300 53.32500 36.91800
H  28.63600 52.88900 35.84900
H  35.52700 56.13700 38.30900
H  35.77500 55.80200 40.04600
H  36.79800 57.07200 39.11000
H  35.97100 61.12600 41.30700
H  35.87300 61.94800 39.70000
H  37.43900 61.43900 40.31200
H  32.23300 63.23500 40.21300
H  30.10600 63.16000 42.47000
H  33.42800 62.59800 42.58000
H  32.16800 63.71200 43.16400
H  33.35500 64.25200 41.89300
H  29.37000 63.77000 39.66600
H  30.42200 64.87200 40.38400
H  27.63300 64.61200 40.70100
H  28.63600 65.90900 41.32600
H  28.41400 64.47100 42.33400
H  24.36200 60.27100 40.01700
H  25.48600 61.61500 39.53200
H  25.33300 61.26900 41.22900
H  26.38600 56.04400 37.83400
H  24.71300 53.28200 40.86600
H  25.71100 52.13900 39.82000
H  23.98700 52.62900 39.50700
Mg -6.46000 25.06500 25.93300
C  -4.66400 26.37300 28.62800
C  -8.09400 22.85300 28.09000
C  -7.60000 23.33800 23.28800
C  -4.12600 26.73100 23.77900
N  -6.43800 24.75600 28.03700
C  -5.61600 25.40200 28.96100
C  -6.06500 25.00400 30.37900
C  -7.05100 23.81600 30.22300
C  -7.29200 23.87800 28.67200
C  -6.52400 22.40300 30.81000
C  -6.78600 26.21300 31.09000
C  -6.51900 26.44400 32.56800
H  -6.11500 25.17800 33.50200
N  -7.82700 23.50900 25.72800
C  -8.41000 22.76900 26.73000
C  -9.37500 21.83400 26.16800
C  -9.23000 22.02900 24.74800
C  -8.16100 22.99300 24.54200
C  -10.36100 20.95200 26.96300
C  -9.98500 21.32700 23.68500
O  -9.87800 21.64600 22.49200
C  -11.03500 20.25700 23.97500
N  -6.00200 25.11500 23.84400
C  -6.63200 24.30500 22.92900
C  -6.03300 24.52000 21.44200
C  -5.16200 25.77200 21.67700
C  -5.07700 25.90400 23.18400
C  -5.25700 23.31300 20.92900
C  -5.53200 27.10400 20.93000
C  -4.51600 27.57100 19.92900
N  -4.87200 26.46300 26.11900
C  -4.00500 27.01200 25.17300
C  -2.95600 27.71900 25.83400
C  -3.25200 27.63400 27.22600
C  -4.43700 26.80900 27.32600
C  -1.79400 28.50300 25.33100
C  -2.82500 27.91600 28.61200
O  -1.78800 28.38500 29.02600
C  -3.82700 27.25800 29.55000
C  -3.11100 26.53200 30.51100
O  -2.70500 25.42600 30.33600
O  -2.80200 27.30200 31.60300
C  -2.08100 26.58100 32.66600
H  -8.52500 22.23200 28.87800
H  -7.94500 22.79300 22.40700
H  -3.26900 27.05500 23.18600
H  -5.23700 24.67600 31.00800
H  -7.98900 24.05400 30.72400
H  -5.52800 22.60600 31.20400
H  -6.40100 21.63500 30.04700
H  -7.26700 21.92900 31.45200
H  -7.86900 26.12500 31.00200
H  -6.46100 27.08700 30.52500
H  -7.42000 26.80900 33.06000
H  -5.67200 27.12700 32.64800
H  -10.27800 19.88900 26.73700
H  -11.27300 21.43700 26.61400
H  -10.13000 21.13200 28.01300
H  -10.46600 19.50900 24.52600
H  -11.37700 19.76200 23.06600
H  -11.77000 20.78100 24.58600
H  -6.82200 24.76000 20.73000
H  -4.12200 25.52000 21.46800
H  -4.54200 23.27600 21.75100
H  -4.74200 23.45600 19.97900
H  -5.81300 22.37600 20.91700
H  -5.76400 27.91100 21.62600
H  -6.50100 26.87600 20.48500
H  -4.91500 27.52800 18.91500
H  -3.49400 27.19500 19.89100
H  -4.37700 28.62500 20.17300
H  -1.10400 27.90600 24.73500
H  -1.22400 28.86200 26.18900
H  -2.23700 29.27200 24.69800
H  -4.27000 28.06600 30.13300
H  -1.95900 27.30600 33.47000
H  -1.10400 26.27200 32.29600
H  -2.61400 25.73700 33.10300

