158

Mg -11.65100 38.36400 42.46800
C  -9.03500 35.91300 41.90100
C  -9.32600 40.63800 41.56800
C  -14.14500 40.53900 42.32200
C  -13.89000 35.71600 43.02300
N  -9.46600 38.18100 41.73000
C  -8.56600 37.21800 41.56300
C  -7.22300 37.65500 41.06500
C  -7.33400 39.20700 41.44600
C  -8.83800 39.36100 41.56400
C  -6.52300 39.66300 42.71800
C  -6.97400 37.30600 39.52000
C  -5.87500 36.29800 39.28300
H  -5.92400 35.30900 38.06900
N  -11.76200 40.34800 41.97400
C  -10.61100 41.13600 41.74400
C  -11.12400 42.51300 41.70000
C  -12.53800 42.52500 42.05500
C  -12.87100 41.12100 42.08800
C  -10.14800 43.65400 41.67400
C  -13.39200 43.82700 42.20900
O  -12.81500 44.95000 42.09200
C  -14.93400 43.87000 42.47300
N  -13.77300 38.10000 42.40900
C  -14.58500 39.22300 42.45400
C  -16.01100 38.76900 42.72000
C  -15.93800 37.24500 43.02600
C  -14.45700 36.96000 42.73200
C  -16.69300 39.57500 43.91300
C  -16.94100 36.40500 42.30700
C  -16.67300 35.98800 40.82900
N  -11.50000 36.30100 42.51000
C  -12.54800 35.38900 42.85700
C  -12.06600 34.04300 42.80700
C  -10.63300 34.23700 42.52600
C  -10.39200 35.60300 42.25600
C  -12.89000 32.76200 43.05900
C  -9.36100 33.56400 42.35200
O  -9.14000 32.33700 42.39500
C  -8.25600 34.64100 41.95700
C  -7.21700 34.71100 43.05200
O  -7.30500 35.26000 44.12700
O  -6.09800 34.07600 42.60600
C  -5.10700 33.93300 43.67900
H  -8.46300 41.30400 41.50300
H  -14.95700 41.26900 42.33300
H  -14.59100 34.89100 43.16500
H  -6.39400 37.25500 41.64800
H  -7.05000 39.87000 40.62900
H  -5.77000 38.92300 42.98800
H  -7.21400 39.86100 43.53800
H  -5.96500 40.59000 42.58700
H  -6.64900 38.25600 39.09700
H  -7.90400 37.00700 39.03500
H  -5.80600 35.58900 40.10900
H  -4.91000 36.78800 39.15300
H  -10.12800 43.94100 40.62300
H  -9.14800 43.41800 42.03900
H  -10.50000 44.49200 42.27500
H  -15.46400 43.45900 41.61400
H  -15.23900 44.90600 42.62300
H  -15.23100 43.34900 43.38400
H  -16.61300 38.84300 41.81500
H  -16.17000 37.10200 44.08100
H  -16.16000 40.45500 44.27100
H  -16.92500 38.92200 44.75400
H  -17.59200 39.85400 43.36200
H  -17.93000 36.83000 42.47500
H  -16.99500 35.44700 42.82500
H  -17.56000 36.11300 40.20800
H  -16.40400 34.93300 40.87800
H  -15.97000 36.59800 40.26200
H  -12.19700 31.95800 43.30700
H  -13.44800 32.47800 42.16700
H  -13.59600 32.90900 43.87700
H  -7.72100 34.42400 41.03300
H  -5.53900 33.54900 44.60300
H  -4.76200 34.95300 43.84300
H  -4.39800 33.15700 43.38800
Mg -12.03300 16.94900 41.60000
C  -9.15200 14.96300 41.11900
C  -10.45300 19.48200 40.12000
C  -15.00300 18.50700 41.23800
C  -13.70700 13.96000 42.64900
N  -10.04100 17.13400 40.55300
C  -9.01600 16.23300 40.54100
C  -7.71500 16.81500 40.04100
C  -8.12000 18.34700 40.02900
C  -9.66600 18.30300 40.29500
C  -7.47400 19.30400 41.03800
C  -7.24000 16.15600 38.74400
C  -5.76900 15.84700 38.57400
H  -5.09100 16.39400 37.28600
N  -12.61700 18.78500 40.66800
C  -11.81600 19.74500 40.25200
C  -12.56400 20.94400 39.97100
C  -13.92100 20.69100 40.24400
C  -13.94500 19.28700 40.78100
C  -11.99100 22.23300 39.44900
C  -15.11000 21.64800 40.18100
O  -14.98900 22.87000 40.03600
C  -16.53500 21.16800 40.38900
N  -14.05700 16.31300 41.92500
C  -15.14100 17.21200 41.66100
C  -16.44700 16.37600 41.67800
C  -16.05000 14.98200 42.29500
C  -14.52200 15.05500 42.22900
C  -17.64900 17.15300 42.35800
C  -16.73400 13.81500 41.43000
C  -17.10300 12.47800 42.07500
N  -11.57900 14.92500 41.99800
C  -12.30700 13.88900 42.45800
C  -11.47700 12.73000 42.66200
C  -10.24600 13.12700 42.15600
C  -10.36000 14.48500 41.69000
C  -11.87600 11.37800 43.17700
C  -8.87800 12.69600 41.84900
O  -8.36400 11.59900 42.03400
C  -8.12300 13.84500 41.05600
C  -6.88900 14.15900 41.83300
O  -6.83500 14.83900 42.84100
O  -5.69700 13.66900 41.26500
C  -4.48700 14.34400 41.81100
H  -9.88900 20.38700 39.88600
H  -16.00800 18.93500 41.24400
H  -14.30300 13.05600 42.79100
H  -6.87400 16.64100 40.71300
H  -8.01900 18.76500 39.02700
H  -6.75000 18.68900 41.57100
H  -8.27700 19.69400 41.66300
H  -6.94300 20.24400 40.88400
H  -7.54100 16.84500 37.95500
H  -7.74300 15.21300 38.52700
H  -5.69400 14.76100 38.63300
H  -5.28500 16.26200 39.45800
H  -11.47400 21.94800 38.53200
H  -11.22000 22.50800 40.16800
H  -12.64300 23.03600 39.10600
H  -17.24200 21.96600 40.16200
H  -16.62000 20.90700 41.44400
H  -16.76300 20.28100 39.79800
H  -16.64000 16.33400 40.60600
H  -16.32200 14.98600 43.35000
H  -18.43800 17.31200 41.62300
H  -17.42000 18.06700 42.90600
H  -17.91300 16.56300 43.23500
H  -15.96200 13.50800 40.72500
H  -17.55300 14.22800 40.84200
H  -16.53100 11.68900 41.58800
H  -18.15000 12.22100 41.91600
H  -16.86000 12.42400 43.13700
H  -12.09900 11.62100 44.21600
H  -11.19600 10.54400 43.00300
H  -12.78700 11.21800 42.60100
H  -7.89100 13.57300 40.02600
H  -4.55900 15.42300 41.94300
H  -3.69600 13.99800 41.14400
H  -4.27400 13.98600 42.81800

