158

Mg 53.61200 23.70000 44.74200
C  51.10500 25.81700 43.75700
C  52.01700 21.10800 43.05800
C  56.48600 21.69000 45.14300
C  55.45700 26.38500 45.79100
N  51.98000 23.56200 43.34600
C  51.02600 24.56200 43.13800
C  50.14100 24.17000 41.98900
C  50.07600 22.61900 42.08500
C  51.39700 22.35900 42.91800
C  48.85500 21.98900 42.81500
C  50.71500 24.60800 40.57400
C  49.71100 24.51500 39.43800
H  50.15600 25.02900 38.04600
N  54.15000 21.65300 44.39400
C  53.31600 20.77100 43.60600
C  54.00800 19.52500 43.52900
C  55.26900 19.63300 44.26400
C  55.32900 21.03100 44.65600
C  53.36700 18.21100 42.84400
C  56.30000 18.46400 44.36000
O  56.07600 17.41300 43.88100
C  57.49400 18.54600 45.25600
N  55.71200 23.98600 45.47100
C  56.69000 23.05700 45.48000
C  58.04700 23.68800 45.88800
C  57.67400 25.23300 46.06400
C  56.19100 25.21500 45.71200
C  58.63800 22.98100 47.09200
C  58.47200 26.14600 45.02700
C  60.02800 25.97700 44.71100
N  53.29200 25.59000 45.02300
C  54.11100 26.57800 45.48600
C  53.30500 27.84400 45.60100
C  52.12500 27.57600 45.03300
C  52.20000 26.21400 44.59600
C  53.78300 29.02800 46.35200
C  50.88800 28.10700 44.58900
O  50.42300 29.21400 44.76300
C  50.15400 26.94500 43.75800
C  49.69300 27.38100 42.39500
O  50.38200 27.89100 41.53900
O  48.34500 27.19600 42.40000
C  47.73800 27.73700 41.18400
H  51.47800 20.28300 42.59000
H  57.40300 21.09800 45.17300
H  56.05500 27.25400 46.07400
H  49.12000 24.53600 42.09200
H  50.15900 22.19200 41.08500
H  48.04400 22.69000 43.01000
H  49.32500 21.61100 43.72300
H  48.42400 21.15900 42.25700
H  51.55800 23.95400 40.35000
H  51.06600 25.64000 40.57600
H  49.02100 25.32700 39.66400
H  49.07000 23.63700 39.51800
H  52.75200 17.65800 43.55400
H  54.07700 17.63800 42.24800
H  52.62900 18.52700 42.10600
H  57.55600 19.20000 46.12600
H  58.28200 18.60300 44.50600
H  57.73900 17.56300 45.65900
H  58.65500 23.66000 44.98400
H  57.85200 25.66200 47.05100
H  58.43100 21.91200 47.13700
H  58.33600 23.41800 48.04400
H  59.71600 23.14200 47.11100
H  58.31500 27.16400 45.38300
H  57.92900 26.11200 44.08300
H  60.72400 26.80800 44.83000
H  60.13300 25.71200 43.65900
H  60.41700 25.08500 45.20200
H  54.83900 29.25400 46.20700
H  53.60100 28.85100 47.41200
H  53.23000 29.90200 46.00700
H  49.32700 26.62600 44.39100
H  47.84800 28.82100 41.17300
H  46.76300 27.30800 41.41500
H  48.13400 27.27800 40.27700
Mg 8.87900 48.60200 26.32100
C  6.50600 48.47700 28.90800
C  11.28200 49.55500 28.53700
C  11.07100 49.01600 23.72800
C  6.20800 48.50400 23.98200
N  8.78400 49.08600 28.51600
C  7.75000 48.89300 29.40600
C  8.23200 49.21800 30.82300
C  9.68200 49.73500 30.60100
C  9.97700 49.48200 29.10700
C  10.08800 51.04700 31.20500
C  8.09900 48.03300 31.83000
C  8.99500 48.00800 33.14000
H  8.68600 47.05900 34.34800
N  10.92500 49.04000 26.19800
C  11.75300 49.23800 27.24900
C  13.11100 49.14200 26.76900
C  13.01600 49.04800 25.41400
C  11.58500 49.07300 25.07000
C  14.35900 49.31700 27.74900
C  14.08400 48.87900 24.37000
O  13.98300 49.05300 23.17000
C  15.47700 48.41400 24.89600
N  8.62900 48.75500 24.24900
C  9.69100 49.06700 23.39600
C  9.20300 49.40400 21.97700
C  7.67500 48.95200 22.05200
C  7.47200 48.62100 23.52900
C  9.47100 50.95500 21.66900
C  7.14800 47.89600 21.08500
C  7.15100 48.31000 19.60400
N  6.83000 48.38600 26.37500
C  5.84600 48.31500 25.37500
C  4.66000 47.94700 25.97200
C  4.85800 48.02300 27.32700
C  6.21000 48.28400 27.57900
C  3.41500 47.77100 25.18900
C  4.12000 47.93200 28.53400
O  2.94700 47.64900 28.77300
C  5.15300 48.37300 29.58300
C  5.03200 47.29600 30.62300
O  5.49500 46.19200 30.50400
O  4.42100 47.81600 31.72100
C  4.20700 46.90200 32.81800
H  12.08600 49.92600 29.17600
H  11.78900 49.14500 22.91500
H  5.35700 48.46000 23.29900
H  7.54100 49.97600 31.19100
H  10.36500 48.99800 31.02400
H  10.99100 50.96800 31.81100
H  9.35300 51.43400 31.91100
H  10.32900 51.72600 30.38700
H  8.34000 47.23700 31.12500
H  7.06600 48.00700 32.17400
H  8.93000 48.97700 33.63600
H  10.04500 47.85600 32.89200
H  15.02400 50.12100 27.43500
H  14.99000 48.43400 27.65100
H  13.96900 49.38200 28.76500
H  15.35500 47.44600 25.38300
H  15.94200 49.16400 25.53700
H  16.22100 48.30800 24.10700
H  9.77400 48.77400 21.29400
H  7.01300 49.79000 21.83400
H  10.27600 51.02500 20.93800
H  9.76800 51.51300 22.55700
H  8.53300 51.36700 21.29700
H  6.15400 47.49200 21.27500
H  7.75700 46.99200 21.10000
H  6.19300 48.03900 19.15900
H  7.81900 47.62900 19.07900
H  7.39600 49.35500 19.41100
H  3.74900 47.18000 24.33700
H  3.08700 48.70600 24.73500
H  2.60000 47.32200 25.75600
H  4.81700 49.32500 29.99400
H  3.53300 47.34100 33.55300
H  5.18200 46.85100 33.30400
H  3.84300 45.89300 32.62200

