158

Mg -1.40400 17.27800 26.53600
C  -1.84900 15.33000 29.29600
C  -2.08200 20.07900 28.61800
C  -1.30600 19.37800 23.78200
C  -1.09700 14.59100 24.52000
N  -1.99900 17.71300 28.71900
C  -1.93200 16.70200 29.66000
C  -1.90800 17.24600 31.06700
C  -2.18800 18.72500 30.80500
C  -2.14300 18.84700 29.31800
C  -3.49200 19.32800 31.43500
C  -0.66100 16.82500 32.02100
C  -0.41200 17.65000 33.24000
H  -0.42300 16.93100 34.55800
N  -1.65900 19.42400 26.25200
C  -1.83600 20.35500 27.26800
C  -1.77200 21.68000 26.70600
C  -1.60400 21.53900 25.32100
C  -1.45500 20.08700 25.05700
C  -2.03500 23.01300 27.45100
C  -1.70100 22.58700 24.13000
O  -1.88500 22.28700 22.95600
C  -1.64300 24.02100 24.47700
N  -1.47000 17.01900 24.43400
C  -1.30100 18.00700 23.50900
C  -1.28900 17.37600 22.07200
C  -0.89500 15.89100 22.36400
C  -1.08000 15.80400 23.88400
C  -2.51300 17.61800 21.23600
C  0.60000 15.54300 22.05200
C  1.85100 16.26200 22.79500
N  -1.45000 15.38300 26.79900
C  -1.33900 14.34900 25.90000
C  -1.37800 13.08500 26.50100
C  -1.54800 13.43900 27.78100
C  -1.63200 14.82700 27.97700
C  -1.47000 11.82400 25.80500
C  -1.65200 12.83400 29.03100
O  -1.59800 11.62000 29.27500
C  -1.72500 14.02500 30.11900
C  -0.50200 13.83800 31.00000
O  0.66500 14.20300 30.82800
O  -0.91700 13.18400 32.13700
C  0.20100 12.96000 33.07100
H  -2.20600 20.91800 29.30400
H  -1.12300 20.02600 22.92200
H  -1.01900 13.65000 23.97200
H  -2.74000 16.78400 31.59700
H  -1.30700 19.22700 31.20400
H  -4.13600 19.70100 30.63800
H  -3.21800 20.04800 32.20600
H  -4.01800 18.56800 32.01300
H  0.24400 16.74700 31.41900
H  -0.93200 15.83200 32.38000
H  -1.15900 18.44300 33.25800
H  0.59500 18.05000 33.12200
H  -1.12100 23.60600 27.41300
H  -2.47200 22.91100 28.44400
H  -2.67700 23.69100 26.88800
H  -1.17800 24.49200 23.61100
H  -0.88700 24.21200 25.24000
H  -2.57200 24.48100 24.81300
H  -0.53000 17.90700 21.49700
H  -1.55100 15.09500 22.01200
H  -2.26500 17.93800 20.22400
H  -3.07600 18.44800 21.66300
H  -3.19200 16.76700 21.17900
H  0.74200 15.95300 21.05200
H  0.59600 14.45900 21.93400
H  2.53900 15.68200 23.41000
H  1.51900 17.02500 23.49900
H  2.41400 16.67600 21.95700
H  -0.99500 11.84100 24.82400
H  -2.48500 11.45200 25.65900
H  -0.98500 11.05600 26.40800
H  -2.68000 13.97000 30.64100
H  0.30400 13.72200 33.84400
H  1.17200 12.80500 32.60000
H  0.02200 12.04600 33.63700
Mg 47.27300 15.60500 28.00800
C  45.07000 15.32000 30.79700
C  49.42400 17.36100 30.08600
C  49.02200 16.48300 25.25800
C  44.65200 14.57300 25.96100
N  47.32200 16.10600 30.22800
C  46.30100 15.87700 31.13000
C  46.77700 16.29500 32.49900
C  48.06600 17.15100 32.30500
C  48.29500 16.93300 30.77200
C  47.93200 18.68000 32.68600
C  47.02700 15.06800 33.41500
C  47.18200 15.29300 34.92700
H  46.78300 16.65900 35.47000
N  49.05500 16.45300 27.76800
C  49.77900 17.14400 28.71800
C  51.09700 17.61000 28.13600
C  50.97800 17.29300 26.76500
C  49.67400 16.67200 26.51100
C  52.16300 18.29100 28.98300
C  52.05100 17.63800 25.75200
O  51.95200 17.19300 24.57800
C  53.32800 18.42300 26.09500
N  46.83500 15.53300 25.87800
C  47.75400 15.92000 25.03700
C  47.16700 15.72600 23.59000
C  45.86200 14.88500 23.80300
C  45.81400 14.96400 25.27000
C  46.80900 17.10800 22.90400
C  45.85600 13.41000 23.42400
C  46.33000 13.04400 22.01800
N  45.29900 15.02400 28.27800
C  44.36300 14.61500 27.34300
C  43.16800 14.26800 28.00200
C  43.35400 14.46100 29.38300
C  44.72300 14.93700 29.50200
C  41.82300 13.77700 27.30900
C  42.65400 14.43900 30.74600
O  41.56700 13.95000 31.16100
C  43.85000 15.05400 31.70700
C  43.31300 16.25700 32.41900
O  43.65400 17.38700 32.18400
O  42.57400 15.83700 33.52100
C  41.94800 16.89000 34.33300
H  50.12900 17.78300 30.80500
H  49.64500 16.64300 24.37500
H  43.83300 14.27300 25.30400
H  46.03800 16.99600 32.88800
H  48.90600 16.63400 32.76800
H  48.69900 18.89800 33.42800
H  47.02000 18.93000 33.22800
H  47.99300 19.37100 31.84500
H  47.89300 14.56900 32.97800
H  46.20200 14.39800 33.17500
H  48.17500 14.92800 35.18800
H  46.46300 14.58800 35.34500
H  53.09900 17.75500 29.14200
H  51.72400 18.56700 29.94200
H  52.36300 19.26400 28.53400
H  53.82100 17.82700 26.86200
H  53.03600 19.45300 26.30300
H  53.99100 18.42200 25.23000
H  47.88700 15.27600 22.90600
H  44.99300 15.37000 23.36000
H  45.83400 17.05000 22.41900
H  47.56400 17.52100 22.23600
H  46.79900 17.84800 23.70500
H  44.81200 13.10100 23.37600
H  46.42100 12.89500 24.20100
H  47.34500 12.65000 21.95100
H  46.37700 13.94000 21.39900
H  45.64900 12.32700 21.56000
H  41.47500 12.86500 27.79500
H  42.00600 13.59800 26.24900
H  41.10600 14.59500 27.37600
H  44.10700 14.30000 32.45100
H  41.12900 17.30400 33.74600
H  42.59700 17.64300 34.78000
H  41.49200 16.43900 35.21400

