158

Mg 9.78600 47.95700 24.49300
C  7.43200 48.23900 27.20800
C  12.22700 49.15600 26.54200
C  11.88400 47.50500 22.05000
C  7.01200 47.56500 22.29600
N  9.72800 48.65500 26.61900
C  8.78200 48.48900 27.60700
C  9.32600 48.98500 29.01000
C  10.77600 49.43800 28.63000
C  10.94700 49.02600 27.14800
C  11.07600 50.95700 28.82000
C  9.24500 48.01100 30.19500
C  8.51700 48.36000 31.49400
H  8.51200 47.28400 32.56300
N  11.84400 48.22200 24.38400
C  12.68700 48.72800 25.30600
C  14.03800 48.64800 24.74400
C  14.00300 48.03800 23.44200
C  12.54100 47.84500 23.22700
C  15.19500 49.03700 25.51400
C  15.01800 47.55800 22.51300
O  14.71100 46.86600 21.54400
C  16.47200 47.94400 22.73400
N  9.43100 47.67400 22.43900
C  10.53100 47.51700 21.64600
C  10.08600 47.08800 20.26400
C  8.46300 47.13300 20.28100
C  8.30000 47.54100 21.74700
C  10.70700 47.94800 19.05500
C  7.84400 45.83700 19.80900
C  8.18100 44.51400 20.61400
N  7.69400 47.84200 24.65500
C  6.71400 47.68800 23.69300
C  5.45800 47.68200 24.32400
C  5.64000 47.95700 25.67400
C  7.05200 48.05900 25.82800
C  4.13600 47.43300 23.64300
C  5.04700 48.08500 27.00500
O  3.86000 47.92000 27.27100
C  6.11700 48.32800 28.02600
C  5.97200 47.27500 29.12300
O  6.38000 46.12900 28.99500
O  5.07600 47.77700 30.02200
C  5.00800 46.84000 31.20900
H  12.93900 49.61600 27.23100
H  12.52300 47.19500 21.22100
H  6.24800 47.39800 21.53400
H  8.74400 49.85500 29.31400
H  11.49400 48.82500 29.17500
H  11.12200 51.48600 27.86800
H  12.06300 51.19500 29.21500
H  10.39600 51.45000 29.51500
H  10.26700 47.65600 30.32700
H  8.65500 47.14700 29.88700
H  7.48300 48.56100 31.21500
H  8.99700 49.20900 31.98000
H  15.09200 49.59700 26.44300
H  15.76000 49.78300 24.95500
H  15.87000 48.20900 25.73300
H  16.49400 49.03100 22.65200
H  17.07300 47.43500 21.98100
H  16.93100 47.58300 23.65500
H  10.52600 46.10600 20.09000
H  8.05000 47.93000 19.66200
H  11.26400 48.79800 19.44800
H  9.84900 48.20700 18.43500
H  11.50300 47.36600 18.59100
H  8.16800 45.89500 18.76900
H  6.77300 46.03400 19.84800
H  7.26100 44.09400 21.02200
H  8.75700 44.81900 21.48800
H  8.81600 43.78200 20.11600
H  3.76500 48.39200 23.28100
H  3.52000 47.08600 24.47300
H  4.14200 46.70200 22.83400
H  6.10300 49.33100 28.45400
H  5.64500 45.96300 31.09600
H  3.96600 46.56600 31.37400
H  5.41600 47.35100 32.08100
Mg -11.88800 38.57800 42.26000
C  -9.92000 35.84100 41.33000
C  -9.71900 40.57700 40.15900
C  -13.89000 41.16000 42.62600
C  -14.33900 36.43300 43.31500
N  -10.14500 38.23800 40.91100
C  -9.39900 36.98400 40.81900
C  -8.20800 37.15200 39.82700
C  -8.15800 38.71500 39.53900
C  -9.40300 39.22600 40.25500
C  -6.91000 39.57900 39.92300
C  -8.20000 36.17100 38.52200
C  -6.94600 35.27500 38.32200
H  -6.16000 35.22200 37.08100
N  -11.72400 40.68000 41.63200
C  -10.70300 41.28000 40.82800
C  -11.03000 42.70200 40.80100
C  -12.27800 42.93700 41.46200
C  -12.70700 41.57700 42.00200
C  -10.22900 43.67800 40.09600
C  -12.89700 44.36400 41.65000
O  -12.47900 45.39800 41.01600
C  -14.08600 44.57000 42.53200
N  -13.85100 38.79600 42.79500
C  -14.48300 39.94000 42.90900
C  -15.94300 39.80100 43.39900
C  -16.14000 38.30000 43.40200
C  -14.67600 37.79500 43.20300
C  -16.28300 40.59300 44.61200
C  -17.03000 37.85800 42.09500
C  -17.89000 36.69700 42.19200
N  -12.07800 36.52800 42.48900
C  -13.02800 35.76200 43.08700
C  -12.62200 34.43300 43.24500
C  -11.36500 34.35300 42.55700
C  -11.07100 35.68500 42.12400
C  -13.47500 33.34800 43.87000
C  -10.26100 33.49800 42.09500
O  -10.07500 32.28600 42.29600
C  -9.25300 34.40800 41.37300
C  -7.89000 34.27300 42.05200
O  -7.30700 33.21400 42.19500
O  -7.36200 35.45400 42.44200
C  -6.06000 35.55500 43.14600
H  -9.08400 41.24400 39.57200
H  -14.65300 41.93100 42.75500
H  -15.14200 35.82000 43.73000
H  -7.26600 36.92500 40.32600
H  -8.35200 38.91800 38.48600
H  -6.15100 38.89700 40.30600
H  -7.06000 40.36000 40.66900
H  -6.50900 40.03900 39.01900
H  -8.47200 36.79700 37.67200
H  -8.99600 35.44300 38.67800
H  -7.12200 34.28400 38.74000
H  -6.13600 35.67200 38.93500
H  -9.21400 43.31800 39.92600
H  -10.12600 44.49700 40.80700
H  -10.71000 44.02600 39.18200
H  -13.89900 44.20800 43.54300
H  -14.97200 44.06500 42.14900
H  -14.25500 45.63800 42.66900
H  -16.50600 40.28900 42.60300
H  -16.63200 37.97000 44.31700
H  -17.20000 41.17900 44.55000
H  -15.48000 41.32100 44.73400
H  -16.39600 40.06000 45.55600
H  -16.32100 37.63100 41.29900
H  -17.66000 38.68100 41.75800
H  -17.77200 36.04600 41.32600
H  -18.92800 37.01200 42.29800
H  -17.70600 36.16600 43.12700
H  -13.26600 33.50000 44.92900
H  -13.16900 32.31000 43.74000
H  -14.52600 33.56900 43.68200
H  -9.13500 33.93700 40.39800
H  -5.41600 36.28500 42.65600
H  -5.50900 34.63200 43.32900
H  -6.14700 36.10600 44.08200

