158

Mg 5.05800 54.17700 41.50400
C  3.26000 51.01400 40.97500
C  7.67900 52.59900 39.96000
C  6.45400 57.10000 41.31900
C  2.12700 55.51100 42.59400
N  5.33300 52.09900 40.28500
C  4.52800 50.99500 40.35700
C  5.20600 49.87000 39.58200
C  6.67100 50.28000 39.59600
C  6.56900 51.75800 39.89400
C  7.47600 49.51700 40.63300
C  4.62800 49.83000 38.18400
C  4.39400 48.47800 37.68600
H  5.09700 48.15600 36.32500
N  6.86300 54.80400 40.69600
C  7.81300 53.99700 40.19100
C  8.97200 54.79800 39.95900
C  8.68400 56.17600 40.22500
C  7.31000 56.11600 40.79700
C  10.23900 54.15400 39.36600
C  9.60100 57.42000 39.95600
O  10.61400 57.24800 39.23600
C  9.26200 58.73100 40.39600
N  4.45700 55.97800 42.06400
C  5.18300 57.09400 41.83400
C  4.47900 58.39500 42.26500
C  3.25000 57.83200 42.97500
C  3.27400 56.36300 42.49100
C  5.27000 59.42900 43.04700
C  1.88500 58.63700 42.66300
C  1.71600 59.95100 43.45000
N  3.13400 53.40100 41.90900
C  2.02400 54.13800 42.29900
C  0.90100 53.19600 42.48000
C  1.37100 51.93600 42.06800
C  2.72100 52.13200 41.63600
C  -0.40400 53.65200 43.07100
C  1.05100 50.60700 41.84000
O  -0.00800 50.05400 42.10500
C  2.35900 49.85800 41.29900
C  1.96700 48.84600 40.33900
O  1.27100 49.00100 39.38400
O  2.63700 47.68500 40.70200
C  2.18700 46.43500 40.00600
H  8.60100 52.09900 39.65500
H  6.96600 58.06200 41.23500
H  1.18200 55.99700 42.84600
H  4.93700 48.95000 40.10200
H  7.20100 50.25100 38.64300
H  8.28700 49.07300 40.05600
H  7.04100 48.62900 41.09300
H  7.71300 50.19900 41.44900
H  5.26400 50.31500 37.44300
H  3.79500 50.51800 38.32600
H  3.32600 48.42700 37.47500
H  4.67700 47.71300 38.40900
H  11.13200 54.77900 39.39000
H  10.08300 53.72600 38.37500
H  10.48600 53.31900 40.02100
H  8.32100 59.09300 39.98100
H  10.10400 59.30600 40.01200
H  9.37100 58.74700 41.48100
H  4.09500 58.83900 41.34600
H  3.42100 57.72300 44.04600
H  5.20300 60.41200 42.58100
H  6.32800 59.24300 43.22700
H  4.76600 59.51600 44.01000
H  1.02400 58.01200 42.89800
H  1.87600 58.83600 41.59100
H  1.67700 59.87600 44.53700
H  0.70000 60.14600 43.10700
H  2.23900 60.77200 42.95800
H  -0.93300 54.13500 42.24900
H  -0.32500 54.39100 43.86800
H  -0.99300 52.79700 43.40100
H  2.69300 49.44100 42.24900
H  1.16700 46.40400 39.62400
H  2.25000 45.65500 40.76500
H  2.95700 46.21900 39.26500
Mg 17.31000 52.82600 26.52100
C  19.27200 51.27800 29.01100
C  14.97900 53.51600 29.02300
C  15.28900 53.86500 24.14000
C  19.50100 51.49000 24.05500
N  17.24600 52.41300 28.69400
C  18.19800 51.95300 29.57400
C  17.83500 52.18900 30.98000
C  16.28800 52.46600 30.88300
C  16.14100 52.83200 29.41100
C  15.59600 51.14600 31.24300
C  18.53000 53.30500 31.75500
C  18.55600 53.21300 33.29700
H  17.47100 52.34200 34.00900
N  15.38900 53.63500 26.59300
C  14.66400 53.92300 27.71700
C  13.44600 54.47800 27.32600
C  13.40300 54.54300 25.86500
C  14.72100 53.99300 25.43400
C  12.37400 54.82900 28.42500
C  12.26000 54.97900 24.96800
O  12.29000 54.73600 23.76900
C  11.13700 55.68000 25.49700
N  17.51900 52.87000 24.43500
C  16.50400 53.39400 23.68400
C  16.78500 53.22100 22.10800
C  18.31100 52.60100 22.15600
C  18.41700 52.28300 23.62600
C  15.71000 52.28800 21.45400
C  19.52500 53.48900 21.72400
C  19.35300 54.88600 21.12700
N  19.05400 51.74500 26.45100
C  19.82500 51.27100 25.40700
C  20.89800 50.48600 25.98200
C  20.68900 50.47500 27.38100
C  19.59600 51.27500 27.65400
C  21.93300 49.87400 25.13800
C  21.34200 49.95400 28.58800
O  22.33000 49.25800 28.83900
C  20.39400 50.53000 29.74600
C  19.79100 49.45000 30.54000
O  19.10600 48.55800 30.08800
O  20.32200 49.36200 31.79200
C  19.80000 48.19300 32.58800
H  14.28900 53.85700 29.79700
H  14.61900 54.06600 23.30200
H  20.01500 50.97500 23.24100
H  18.09500 51.29700 31.55100
H  15.97300 53.34100 31.45200
H  15.77200 50.34900 30.52000
H  14.54300 51.36600 31.42200
H  16.04500 50.84500 32.18900
H  18.04700 54.25700 31.53300
H  19.54300 53.23100 31.35900
H  18.55900 54.22400 33.70300
H  19.52900 52.80300 33.56700
H  11.35800 54.84600 28.03200
H  12.73500 55.72500 28.93000
H  12.45900 53.96300 29.08200
H  11.62000 56.50300 26.02600
H  10.61200 54.93200 26.09100
H  10.52800 56.15100 24.72600
H  16.65000 54.17000 21.58800
H  18.12700 51.64800 21.66000
H  14.92000 52.95900 21.11800
H  15.38400 51.65500 22.27900
H  16.13600 51.70000 20.64000
H  20.04500 52.99700 20.90100
H  20.17900 53.50400 22.59600
H  18.86800 54.77300 20.15700
H  20.27300 55.46900 21.08200
H  18.70000 55.45400 21.78900
H  22.62300 50.59200 24.69300
H  21.44400 49.30800 24.34500
H  22.43600 49.19300 25.82400
H  20.99000 51.16000 30.40500
H  20.07800 47.22100 32.18200
H  18.71400 48.11800 32.63600
H  20.25000 48.25700 33.57800

