158

Mg 1.98800 -0.90600 44.69500
C  5.22800 0.13100 43.79700
C  0.75700 1.83900 43.11800
C  -1.01600 -2.04700 45.40000
C  3.48400 -4.07600 45.66600
N  2.90600 0.67400 43.36500
C  4.25400 0.95700 43.27900
C  4.44700 2.19900 42.34800
C  3.00300 2.86700 42.36300
C  2.15100 1.70200 42.95700
C  2.92000 4.10300 43.25700
C  4.84200 1.71300 40.94100
C  6.12500 2.32800 40.32300
H  6.10400 2.84100 38.83500
N  0.07400 -0.16800 44.34600
C  -0.20300 0.96000 43.68600
C  -1.60800 1.12200 43.64800
C  -2.19800 0.00200 44.29700
C  -1.07200 -0.77000 44.74000
C  -2.33200 2.19900 42.78400
C  -3.67200 -0.32900 44.24800
O  -4.51000 0.36300 43.66600
C  -4.14400 -1.63200 44.94100
N  1.33500 -2.75500 45.38300
C  -0.00800 -2.92300 45.69500
C  -0.29100 -4.31800 46.23100
C  1.10200 -5.02100 46.25300
C  2.09500 -3.92000 45.76400
C  -1.23700 -4.37900 47.45000
C  1.19800 -6.38300 45.37300
C  1.75300 -6.29800 43.93000
N  3.97100 -1.84500 44.74600
C  4.39800 -3.10500 45.18800
C  5.82600 -3.15200 45.04900
C  6.21300 -1.85300 44.55800
C  5.02900 -1.15600 44.32300
C  6.70900 -4.26500 45.37600
C  7.37300 -1.05700 44.23100
O  8.52700 -1.33400 44.17700
C  6.75200 0.26600 43.71400
C  7.16300 1.38100 44.56000
O  6.62900 1.75600 45.60800
O  8.38400 1.94300 43.98200
C  8.89500 3.16900 44.66000
H  0.41500 2.78400 42.69200
H  -1.92200 -2.51900 45.78700
H  3.78000 -5.05000 46.06300
H  5.24700 2.81200 42.76200
H  2.65700 3.20300 41.38500
H  2.93100 4.92000 42.53600
H  3.88000 4.13700 43.77100
H  2.02900 3.96800 43.86900
H  4.04800 1.77700 40.19800
H  5.12200 0.67100 41.10200
H  6.95100 1.62700 40.44000
H  6.17900 3.20200 40.97100
H  -2.93100 1.70100 42.02200
H  -1.59200 2.89100 42.38100
H  -3.13100 2.76000 43.26800
H  -5.18600 -1.76600 44.65200
H  -4.00600 -1.50400 46.01400
H  -3.66100 -2.52300 44.53900
H  -0.81900 -4.74400 45.37800
H  1.34300 -5.30900 47.27600
H  -2.28600 -4.37000 47.15500
H  -0.91000 -3.59100 48.12800
H  -1.05600 -5.37000 47.86600
H  0.20400 -6.82900 45.37600
H  1.81600 -7.09200 45.92300
H  1.14000 -6.91100 43.26900
H  2.82000 -6.50300 43.84200
H  1.61600 -5.30100 43.51100
H  7.71900 -3.93200 45.13900
H  6.54900 -5.18000 44.80600
H  6.60900 -4.56800 46.41800
H  7.20000 0.36300 42.72500
H  8.20500 3.99700 44.49600
H  9.73000 3.51600 44.05200
H  9.26200 3.02500 45.67600
Mg 53.88800 24.07100 46.21200
C  51.19300 26.08000 45.01100
C  52.01700 21.28000 45.03500
C  56.50600 22.22600 46.68700
C  55.64300 26.97400 46.91800
N  51.81500 23.79700 45.14400
C  50.93800 24.76400 44.76700
C  49.71500 24.14600 44.08000
C  49.79300 22.71600 44.69500
C  51.31200 22.57300 44.94000
C  49.08900 22.51900 46.04800
C  49.73700 24.13600 42.47900
C  48.40800 24.70800 41.96500
H  47.96900 24.43700 40.47500
N  54.26800 22.03900 45.93800
C  53.34900 21.12500 45.31500
C  54.08900 19.86300 45.25000
C  55.35300 20.07300 45.81900
C  55.44800 21.45600 46.21400
C  53.47200 18.61300 44.58900
C  56.37100 18.95700 46.01500
O  56.24600 17.80800 45.53100
C  57.55100 19.13500 46.90000
N  55.75700 24.53300 46.70400
C  56.70700 23.55600 46.95300
C  58.01700 24.05100 47.52300
C  57.73000 25.63100 47.55000
C  56.27900 25.74100 47.08500
C  58.52800 23.41600 48.80300
C  58.66700 26.51900 46.68900
C  59.15400 27.87300 47.24800
N  53.48200 26.09800 46.13100
C  54.30000 27.12700 46.49700
C  53.52600 28.35300 46.48800
C  52.37000 28.05800 45.80600
C  52.31400 26.67500 45.64900
C  53.80600 29.64000 47.24600
C  51.05600 28.56500 45.36200
O  50.56100 29.68000 45.43900
C  50.36300 27.35100 44.67200
C  50.35400 27.65400 43.21700
O  51.22500 27.44600 42.39400
O  49.09500 27.97000 42.84900
C  48.87000 28.28100 41.46900
H  51.31100 20.45600 44.91300
H  57.44400 21.69300 46.85700
H  56.13700 27.91700 47.16300
H  48.78100 24.58400 44.43100
H  49.49700 21.89100 44.04600
H  48.41900 21.65900 46.05200
H  48.45600 23.36500 46.31400
H  49.82100 22.33300 46.83400
H  49.80300 23.07800 42.22500
H  50.53800 24.75300 42.07100
H  48.40100 25.76900 42.21300
H  47.54600 24.26800 42.46700
H  54.07700 18.31100 43.73500
H  52.50000 18.86700 44.16600
H  53.29100 17.86900 45.36500
H  57.43000 19.88600 47.68100
H  58.37400 19.40300 46.23600
H  57.66200 18.16300 47.37900
H  58.80500 23.88400 46.78800
H  57.85600 25.92200 48.59300
H  57.95100 22.51000 48.98700
H  58.40300 24.00300 49.71300
H  59.58900 23.21200 48.65300
H  58.04100 26.92100 45.89200
H  59.52800 25.94200 46.35200
H  60.24100 27.87100 47.16000
H  58.98800 27.95000 48.32300
H  58.60000 28.70800 46.82100
H  52.84000 30.14300 47.28200
H  54.47300 30.21100 46.60000
H  54.27900 29.51200 48.21900
H  49.34100 27.31100 45.05100
H  49.61800 28.12900 40.69100
H  48.61500 29.34100 41.44000
H  47.98200 27.67000 41.30900

