158

Mg 8.61300 3.17300 27.39600
C  9.65600 1.78000 30.44500
C  6.24300 5.02900 29.12400
C  7.59300 4.46700 24.55000
C  10.32700 0.71700 25.81200
N  8.03500 3.29200 29.48400
C  8.64400 2.74100 30.55700
C  8.06400 3.16000 31.91800
C  6.90800 4.06200 31.42000
C  7.05200 4.16400 29.86000
C  5.44000 3.84200 31.91000
C  8.99600 3.91800 32.81600
C  8.51900 4.73000 34.02100
H  9.11800 4.55700 35.35700
N  7.06600 4.56200 26.85200
C  6.31600 5.32500 27.76000
C  5.52500 6.23700 26.98600
C  5.93900 6.19900 25.65000
C  6.91800 5.03000 25.56500
C  4.48700 7.16900 27.66900
C  5.61400 7.05700 24.43200
O  6.07900 6.86300 23.28500
C  4.59900 8.15900 24.64900
N  8.86100 2.65500 25.43400
C  8.58900 3.49600 24.44800
C  9.17400 2.97600 23.15000
C  9.87300 1.72200 23.49300
C  9.67200 1.71300 25.01400
C  8.13000 2.74400 22.03400
C  11.34700 1.54300 23.01400
C  11.48500 0.77200 21.66200
N  9.79100 1.58200 27.97100
C  10.43600 0.66800 27.21500
C  11.26200 -0.19900 28.02400
C  10.97700 0.19900 29.31500
C  10.02500 1.26200 29.22000
C  12.18200 -1.26600 27.45700
C  11.21100 0.00600 30.73800
O  11.85200 -0.89100 31.23400
C  10.34300 0.96400 31.53800
C  9.55100 0.05200 32.53800
O  8.73700 -0.80700 32.32300
O  10.10600 0.29900 33.75800
C  9.64800 -0.33400 34.97700
H  5.57300 5.62000 29.75300
H  7.35200 4.90300 23.57800
H  10.91800 -0.04600 25.30200
H  7.66700 2.28300 32.42800
H  7.13400 5.09300 31.69500
H  4.91400 3.33000 31.10500
H  5.02500 4.78000 32.28100
H  5.52900 3.30200 32.85300
H  9.57300 4.62000 32.21300
H  9.76400 3.20100 33.10700
H  7.46400 4.46800 34.09600
H  8.65700 5.76500 33.70800
H  3.55500 7.19200 27.10300
H  4.72500 8.23300 27.66600
H  4.22100 6.89100 28.68900
H  4.35700 8.71200 23.74200
H  5.03300 8.91900 25.29900
H  3.68600 7.68600 25.01100
H  9.85900 3.73100 22.76500
H  9.17600 0.92500 23.23200
H  7.85500 1.71300 21.81000
H  8.63600 3.01300 21.10600
H  7.34500 3.49000 22.15100
H  11.94300 1.20500 23.86100
H  11.66100 2.52800 22.66800
H  10.52200 0.50100 21.22900
H  12.09800 -0.11300 21.83400
H  11.84200 1.48700 20.92100
H  12.29900 -1.14300 26.38000
H  11.94700 -2.30400 27.69400
H  13.14200 -1.07700 27.93700
H  11.13600 1.52800 32.02900
H  9.42700 0.55000 35.57600
H  10.50900 -0.89700 35.33500
H  8.75500 -0.93900 34.82100
Mg -11.79000 37.28400 41.79200
C  -9.72100 34.70600 40.76900
C  -9.54400 39.55100 40.60800
C  -14.25200 39.56800 42.03200
C  -14.14200 34.84600 42.95600
N  -9.98200 37.10500 40.58900
C  -9.24100 35.96600 40.38100
C  -7.91800 36.19900 39.57100
C  -7.82400 37.76200 39.84800
C  -9.18200 38.23500 40.38600
C  -6.62000 38.40600 40.68500
C  -7.99700 35.75100 38.04400
C  -6.82500 34.92300 37.41300
H  -6.24600 35.53600 36.17800
N  -11.83400 39.34100 41.34500
C  -10.73900 40.06900 40.95700
C  -11.21800 41.51100 40.93300
C  -12.66100 41.49600 41.25700
C  -12.97000 40.09400 41.60200
C  -10.33400 42.66800 40.60500
C  -13.56300 42.72300 41.35400
O  -13.11800 43.82100 41.06800
C  -15.01900 42.75400 41.85000
N  -13.93800 37.14100 42.29600
C  -14.70200 38.33800 42.31800
C  -16.23300 37.98800 42.65800
C  -16.12800 36.52400 43.13000
C  -14.64700 36.11600 42.80400
C  -16.94400 38.84200 43.69200
C  -17.23800 35.56200 42.43600
C  -18.22400 34.96400 43.48400
N  -11.95800 35.20100 41.84200
C  -12.88500 34.33400 42.48600
C  -12.30900 33.03000 42.52800
C  -11.00100 33.10600 41.94500
C  -10.90400 34.39800 41.42100
C  -12.97700 31.74100 43.07600
C  -9.75000 32.38000 41.70100
O  -9.38800 31.28700 42.06300
C  -8.90400 33.38000 40.74400
C  -7.59900 33.60500 41.25300
O  -7.29300 34.00300 42.32900
O  -6.70900 33.29200 40.29000
C  -5.33100 33.39700 40.80100
H  -8.74700 40.21800 40.27300
H  -15.03800 40.32600 42.04300
H  -14.89800 34.22500 43.44100
H  -7.08800 35.74500 40.11100
H  -7.65300 38.24300 38.88500
H  -6.08100 39.08600 40.02600
H  -5.86100 37.64000 40.84400
H  -6.99100 38.97600 41.53700
H  -8.16900 36.62300 37.41300
H  -8.90000 35.16300 37.87800
H  -7.26800 33.93900 37.26100
H  -6.04700 34.77700 38.16200
H  -10.67300 43.34400 39.82000
H  -9.35800 42.21600 40.42900
H  -10.13900 43.22200 41.52300
H  -15.70700 42.43000 41.06900
H  -15.18200 43.79900 42.11200
H  -15.17500 42.17900 42.76200
H  -16.82900 38.14600 41.75900
H  -16.24700 36.49800 44.21300
H  -17.65200 39.49300 43.17800
H  -16.29200 39.53200 44.22700
H  -17.57500 38.24900 44.35400
H  -16.72700 34.82900 41.81200
H  -17.77000 36.11400 41.66200
H  -17.86500 33.96400 43.72600
H  -19.24200 34.96800 43.09400
H  -18.29000 35.66300 44.31800
H  -12.29200 31.23300 43.75500
H  -13.04900 31.07500 42.21700
H  -13.89700 31.95900 43.61900
H  -8.85400 33.13400 39.68300
H  -4.99800 34.43400 40.78200
H  -4.66900 32.84800 40.13100
H  -5.05300 33.09200 41.81000

