158

Mg 8.60400 3.56100 27.71600
C  10.15400 2.12600 30.57500
C  7.12000 5.78300 29.71200
C  7.05000 4.70900 24.99700
C  9.88200 0.89300 25.87700
N  8.62300 3.83700 29.89800
C  9.29400 3.12700 30.83600
C  9.04600 3.72100 32.29100
C  8.08600 4.91800 31.91700
C  7.91600 4.87500 30.43800
C  6.69900 4.83000 32.65100
C  10.30300 4.23700 32.97900
C  10.08400 4.99100 34.33800
H  10.76200 4.38600 35.61800
N  7.38600 5.00600 27.36900
C  6.91300 5.87200 28.34000
C  6.22000 6.94300 27.65300
C  6.11900 6.54600 26.31600
C  6.89900 5.35700 26.22400
C  5.60300 8.16800 28.34000
C  5.36300 7.25800 25.12300
O  5.54700 7.08300 23.91300
C  4.44900 8.45000 25.52300
N  8.37100 2.82300 25.68200
C  7.78000 3.54000 24.72300
C  7.87800 2.89200 23.36500
C  8.76600 1.68400 23.62300
C  9.07000 1.78700 25.14800
C  6.51200 2.58100 22.60900
C  10.00100 1.74700 22.67100
C  10.00000 0.57400 21.62900
N  9.85300 1.85700 28.05100
C  10.34400 0.91500 27.19000
C  11.15300 -0.01300 27.90600
C  11.14400 0.49600 29.19900
C  10.34600 1.61500 29.26400
C  11.91900 -1.10100 27.37700
C  11.62400 0.20100 30.58400
O  12.36300 -0.64900 30.95200
C  10.92400 1.24200 31.51200
C  10.09500 0.69500 32.54700
O  9.17300 -0.13000 32.42300
O  10.51900 1.22800 33.76600
C  10.11100 0.37700 34.95600
H  6.68800 6.49300 30.42000
H  6.58600 5.05600 24.07100
H  10.22500 0.08800 25.22500
H  8.48100 3.07100 32.95900
H  8.46200 5.88900 32.23900
H  6.52800 5.78600 33.14600
H  6.80100 4.14000 33.48900
H  5.92600 4.64600 31.90500
H  10.86000 4.85100 32.27100
H  10.89800 3.35300 33.20700
H  9.00600 5.02900 34.49800
H  10.32000 6.05000 34.23700
H  4.53600 8.28900 28.15000
H  6.15800 8.95100 27.82300
H  5.77700 8.18900 29.41500
H  3.78400 8.74000 24.70900
H  5.15200 9.17500 25.93300
H  3.78400 7.99800 26.25900
H  8.29100 3.65500 22.70500
H  8.30700 0.71700 23.41600
H  5.65400 2.84600 23.22800
H  6.34200 1.50500 22.57700
H  6.39900 3.05000 21.63200
H  10.90900 1.68600 23.27000
H  10.01800 2.69300 22.13000
H  9.31200 -0.23800 21.86400
H  11.02900 0.21600 21.58800
H  9.62000 0.85000 20.64600
H  12.69100 -1.43500 28.07000
H  12.23300 -0.96600 26.34200
H  11.18200 -1.89800 27.47300
H  11.75800 1.71200 32.03300
H  10.68300 -0.55100 34.95300
H  9.06000 0.09300 34.91500
H  10.19400 0.80100 35.95700
Mg 25.70500 51.11000 26.27700
C  23.57500 52.00000 28.97300
C  27.82600 49.84700 28.54800
C  27.71800 50.31500 23.70000
C  23.41400 52.38000 24.07500
N  25.56100 50.74200 28.53800
C  24.69200 51.30100 29.43600
C  25.14700 51.02600 30.88200
C  26.56100 50.37700 30.70900
C  26.64800 50.29100 29.13800
C  27.81200 51.07400 31.51600
C  24.06500 50.17200 31.70200
C  23.36600 50.81300 32.92800
H  24.16800 51.59100 33.98400
N  27.48600 50.29500 26.15000
C  28.23800 49.86600 27.17200
C  29.50600 49.38000 26.62500
C  29.49000 49.66000 25.28200
C  28.18600 50.12900 24.97500
C  30.64800 48.84500 27.51900
C  30.65100 49.48700 24.35000
O  30.58100 49.89100 23.18900
C  31.94600 48.83700 24.77100
N  25.61300 51.36500 24.20100
C  26.53500 50.91000 23.30800
C  26.04200 51.09900 21.87200
C  24.54500 51.34800 22.10200
C  24.53300 51.73500 23.58500
C  26.79400 52.33100 21.06400
C  23.63300 50.10600 21.80500
C  22.42100 50.34600 20.92900
N  23.91600 52.10800 26.46200
C  23.07700 52.51900 25.42200
C  21.88200 53.12800 26.11400
C  22.06300 52.89900 27.48000
C  23.27300 52.25700 27.62100
C  20.71200 53.77200 25.41100
C  21.50600 53.18000 28.72500
O  20.53100 53.83400 28.99900
C  22.45300 52.54900 29.82800
C  22.86400 53.66500 30.63900
O  23.64900 54.52500 30.31600
O  22.06100 53.60100 31.71900
C  21.91500 54.76500 32.65700
H  28.54300 49.42700 29.25600
H  28.34300 49.95300 22.88000
H  22.79200 52.67000 23.22600
H  25.20200 52.02700 31.31100
H  26.54400 49.33300 31.02300
H  28.38300 51.75000 30.87900
H  28.47500 50.27200 31.84100
H  27.50600 51.56400 32.44000
H  24.49400 49.20100 31.95000
H  23.32300 50.00600 30.92100
H  22.77000 50.02600 33.39100
H  22.59500 51.52000 32.62300
H  31.54800 49.45000 27.40000
H  30.79300 47.78500 27.30900
H  30.38800 49.00600 28.56500
H  32.57300 49.46600 25.40300
H  32.44200 48.65100 23.81900
H  31.60900 47.96600 25.33300
H  26.21800 50.16900 21.33100
H  24.31300 52.23200 21.50800
H  27.77600 52.67700 21.38700
H  26.23700 53.26500 20.99200
H  26.97600 51.92800 20.06800
H  23.22700 49.68400 22.72400
H  24.13700 49.27500 21.31200
H  22.53100 49.77800 20.00500
H  22.28300 51.42500 20.85500
H  21.61700 49.74800 21.35800
H  21.01300 54.34200 24.53200
H  20.11100 54.38000 26.08700
H  20.00900 53.02800 25.03900
H  21.95400 51.75600 30.38500
H  22.63800 54.69700 33.47000
H  20.88900 54.83000 33.01600
H  22.17000 55.71900 32.19500

