158

Mg 24.13000 -5.88600 45.68100
C  26.40300 -3.58900 44.27500
C  21.70600 -4.57100 43.70300
C  22.37200 -8.82500 45.95700
C  26.95300 -7.57300 47.02800
N  24.07200 -4.32500 44.26200
C  25.08500 -3.55000 43.81500
C  24.65800 -2.59400 42.66800
C  23.08200 -2.63400 42.82200
C  22.85800 -3.89200 43.70500
C  22.31800 -1.35600 43.25300
C  25.22100 -3.11400 41.34100
C  26.10300 -2.14000 40.42900
H  25.85800 -1.99100 38.93700
N  22.22300 -6.56600 45.07800
C  21.39400 -5.85400 44.22900
C  20.17900 -6.61600 43.98000
C  20.27600 -7.79800 44.81200
C  21.67400 -7.77600 45.34100
C  19.15800 -6.11100 42.98800
C  19.19600 -8.83100 45.01200
O  18.12900 -8.73300 44.48900
C  19.31400 -9.81200 46.03400
N  24.65200 -7.93000 46.37000
C  23.72200 -8.91400 46.41200
C  24.34500 -10.24200 47.00000
C  25.82400 -9.88000 47.12500
C  25.82200 -8.34200 46.93800
C  23.69100 -10.83900 48.31300
C  26.69400 -10.57700 45.98400
C  26.83500 -12.14700 46.06400
N  26.26700 -5.47700 45.94300
C  27.19900 -6.29900 46.50900
C  28.48100 -5.54900 46.41000
C  28.25300 -4.58500 45.47800
C  26.88500 -4.55400 45.20100
C  29.76200 -5.85700 47.03800
C  28.81900 -3.52200 44.66900
O  29.99800 -3.13300 44.64400
C  27.64700 -2.77700 43.91100
C  27.54300 -1.29600 44.44300
O  26.56100 -0.74600 44.87100
O  28.79600 -0.63500 44.41300
C  29.02300 0.61000 45.24100
H  20.89100 -4.03500 43.21200
H  21.80600 -9.74600 46.11500
H  27.76100 -8.17200 47.45300
H  25.04400 -1.59800 42.88600
H  22.75700 -2.76700 41.78900
H  22.98400 -0.56200 43.59000
H  21.49600 -1.58800 43.93000
H  21.90900 -0.87200 42.36600
H  24.42400 -3.59600 40.77600
H  25.84700 -3.96300 41.61800
H  27.12900 -2.49700 40.34100
H  26.14400 -1.14500 40.87200
H  18.59600 -6.97700 42.63800
H  19.62400 -5.47600 42.23400
H  18.38400 -5.46500 43.40200
H  18.37200 -10.33700 46.18600
H  19.65200 -9.41600 46.99100
H  19.98200 -10.51600 45.53800
H  24.40500 -10.96100 46.18300
H  26.27600 -10.10500 48.09100
H  23.16700 -11.78300 48.16000
H  22.93900 -10.22000 48.80200
H  24.44500 -11.02900 49.07800
H  27.67800 -10.10900 45.98300
H  26.09600 -10.23600 45.13900
H  26.57500 -12.42100 47.08700
H  27.85200 -12.40800 45.77200
H  26.24200 -12.80000 45.42200
H  30.14400 -6.85300 46.81600
H  29.68800 -5.71400 48.11600
H  30.48200 -5.09200 46.74500
H  27.92600 -2.68400 42.86100
H  29.87500 0.44300 45.90000
H  28.19100 0.88400 45.89000
H  29.37600 1.49500 44.71100
Mg 5.89700 54.34600 39.90700
C  4.99400 50.91300 39.80400
C  8.86200 53.72700 39.07900
C  6.07700 57.66700 39.24300
C  2.25400 54.89200 40.21400
N  6.79600 52.51500 39.25000
C  6.35300 51.22100 39.36700
C  7.50700 50.25100 39.31100
C  8.75200 51.15400 39.42800
C  8.16000 52.57900 39.26800
C  9.54900 51.05700 40.71700
C  7.52200 49.44200 37.94600
C  7.41200 50.13900 36.51300
H  6.19000 49.98100 35.64200
N  7.37900 55.55200 39.45100
C  8.63100 55.08800 39.12500
C  9.50600 56.23900 39.03700
C  8.66900 57.46600 39.20600
C  7.28300 56.90200 39.29200
C  10.95300 56.03700 38.70400
C  9.08200 58.89100 39.34800
O  10.27400 59.09500 39.06200
C  8.23400 60.05300 39.77500
N  4.35700 56.05200 39.53400
C  4.73400 57.33500 39.35200
C  3.54000 58.37800 39.42100
C  2.31900 57.43200 39.60400
C  2.99300 56.05900 39.82100
C  3.67400 59.35800 40.55400
C  1.44700 57.47500 38.39800
C  0.21900 58.41400 38.43100
N  3.98300 53.21200 39.98900
C  2.63500 53.54200 40.28000
C  1.86800 52.38400 40.61400
C  2.77700 51.33100 40.36500
C  4.05000 51.87900 40.02000
C  0.46300 52.33400 41.17500
C  2.84800 49.92200 40.30600
O  2.01500 49.04700 40.42400
C  4.33700 49.57500 40.00000
C  4.26500 48.62200 38.87200
O  4.15700 48.90700 37.71000
O  4.61100 47.36900 39.34400
C  4.77800 46.31400 38.30500
H  9.92200 53.48000 38.99000
H  6.20100 58.71500 38.96400
H  1.17100 55.03700 40.22900
H  7.24000 49.61800 40.15800
H  9.46200 51.03300 38.61100
H  9.46300 50.06900 41.17000
H  9.13600 51.72300 41.47500
H  10.62700 51.11100 40.56100
H  6.69900 48.72800 37.92500
H  8.46600 48.90500 38.03800
H  8.26500 49.80200 35.92600
H  7.50400 51.22300 36.59000
H  11.37100 56.89700 38.17900
H  11.21100 55.17600 38.08800
H  11.51600 55.94000 39.63200
H  8.93800 60.75800 40.21600
H  7.54700 59.67200 40.53000
H  7.83900 60.46200 38.84400
H  3.41900 58.94900 38.50000
H  1.64600 57.67500 40.42500
H  3.38800 58.92400 41.51200
H  3.14100 60.26300 40.26100
H  4.66300 59.79100 40.70400
H  1.05900 56.46200 38.28900
H  2.02900 57.70500 37.50600
H  -0.25700 58.51500 39.40700
H  -0.47100 57.95700 37.72200
H  0.46000 59.43800 38.14600
H  0.34300 51.58000 41.95300
H  -0.11800 52.00400 40.31400
H  0.06000 53.33000 41.35900
H  4.61600 49.09900 40.94100
H  4.75600 45.29200 38.68400
H  5.69000 46.53500 37.75100
H  3.89100 46.44100 37.68400

