158

Mg 16.95700 -2.13800 28.27400
C  15.83900 -0.06200 31.00000
C  18.74300 -3.79800 30.76600
C  18.27500 -3.84500 25.85500
C  15.32400 0.11100 26.13200
N  17.23200 -1.89200 30.64500
C  16.67900 -1.05100 31.49600
C  17.25400 -1.22700 32.88600
C  18.41900 -2.23600 32.66000
C  18.09500 -2.67700 31.27400
C  19.91500 -1.78900 32.85800
C  16.19500 -1.71800 33.95600
C  15.77200 -0.79200 35.04800
H  16.86700 -0.36200 36.02200
N  18.28800 -3.72100 28.33500
C  18.87500 -4.30600 29.42100
C  19.67500 -5.40400 28.94100
C  19.38800 -5.56400 27.50300
C  18.58600 -4.40700 27.14700
C  20.38200 -6.31800 29.86400
C  19.94500 -6.62600 26.52500
O  19.61700 -6.64700 25.36000
C  20.90200 -7.64800 27.01300
N  16.98100 -1.77500 26.28600
C  17.58900 -2.63400 25.44200
C  17.41200 -2.22600 23.92100
C  16.34600 -1.09600 24.03100
C  16.16100 -0.92100 25.57300
C  18.73300 -1.67000 23.32100
C  15.03500 -1.37600 23.30500
C  13.97300 -2.05200 24.22900
N  15.75300 -0.37900 28.47700
C  15.15600 0.35700 27.51000
C  14.29300 1.31600 28.09900
C  14.58600 1.21600 29.47800
C  15.43500 0.16200 29.63700
C  13.47300 2.32000 27.42900
C  14.25100 1.74200 30.77800
O  13.48200 2.68100 31.09600
C  15.10800 1.00400 31.81000
C  16.03100 2.14900 32.27600
O  17.04700 2.55300 31.70600
O  15.43300 2.71200 33.33100
C  16.01500 4.02100 33.84600
H  19.36400 -4.31100 31.50400
H  18.64600 -4.46600 25.03700
H  14.78600 0.76800 25.44500
H  17.58300 -0.25700 33.25900
H  18.22600 -3.05200 33.35700
H  20.52800 -2.50400 32.30900
H  20.17800 -1.96800 33.90100
H  20.13400 -0.76200 32.56800
H  16.54600 -2.58500 34.51500
H  15.31100 -2.08000 33.43100
H  15.02600 -1.42100 35.53300
H  15.27700 0.03300 34.53700
H  20.59600 -5.82000 30.81000
H  21.35300 -6.62200 29.47300
H  19.85300 -7.21200 30.19500
H  21.29800 -8.14400 26.12700
H  20.38500 -8.35000 27.66800
H  21.76400 -7.23400 27.53600
H  16.99800 -3.04300 23.33000
H  16.72500 -0.09000 23.84900
H  19.32100 -1.18000 24.09700
H  18.57600 -1.03300 22.45000
H  19.35200 -2.51600 23.02400
H  15.29800 -1.93400 22.40700
H  14.60800 -0.47300 22.86900
H  14.37300 -2.68300 25.02200
H  13.33400 -2.70900 23.63800
H  13.31200 -1.33600 24.71700
H  12.86500 2.87200 28.14600
H  12.82100 1.94700 26.63900
H  14.04500 3.09400 26.91700
H  14.51800 0.61300 32.63900
H  15.98700 4.82400 33.10900
H  16.88900 3.87400 34.48000
H  15.28900 4.38200 34.57400
Mg 35.27900 3.71800 29.57200
C  32.85700 4.39800 31.96000
C  37.75100 3.68900 31.95400
C  37.49800 2.96900 27.13000
C  32.66100 3.85000 27.20900
N  35.31800 3.98500 31.76000
C  34.18600 4.25300 32.52200
C  34.66900 4.32800 33.93800
C  36.22200 4.46900 33.88700
C  36.51400 3.99800 32.46300
C  36.67200 5.94100 34.02200
C  34.09700 3.13500 34.75600
C  34.07100 3.15700 36.29100
H  34.69000 4.32700 36.97600
N  37.31000 3.39500 29.57000
C  38.11700 3.34000 30.59300
C  39.42500 2.84600 30.27300
C  39.46400 2.65000 28.89300
C  38.07200 3.01600 28.44000
C  40.48800 2.55600 31.33700
C  40.61900 2.12200 27.96300
O  40.48000 2.13600 26.76900
C  41.83500 1.53100 28.57600
N  35.08800 3.69500 27.51600
C  36.15100 3.28100 26.68400
C  35.62500 2.99400 25.23300
C  34.06800 3.25400 25.31600
C  33.90400 3.59000 26.81400
C  36.39600 3.75700 24.14600
C  33.14200 2.14500 24.65000
C  32.81200 1.01000 25.55100
N  33.21700 4.10700 29.52300
C  32.30000 4.21600 28.46600
C  30.98200 4.47400 28.93400
C  31.21200 4.63800 30.34700
C  32.56900 4.40300 30.63800
C  29.71900 4.57200 28.11800
C  30.51700 4.88200 31.61800
O  29.28600 4.89500 31.78300
C  31.59700 4.83000 32.67000
C  31.71100 6.18000 33.22900
O  32.51200 6.99600 32.91600
O  30.76200 6.30900 34.22700
C  30.82300 7.52500 35.04100
H  38.52600 3.66600 32.72400
H  38.26900 2.70200 26.40400
H  31.85900 3.86700 26.46800
H  34.18900 5.23600 34.30300
H  36.71400 3.82100 34.61200
H  35.79100 6.57900 33.94100
H  37.42900 6.13600 33.26300
H  37.18100 6.08400 34.97500
H  34.74000 2.30100 34.47400
H  33.09200 2.91000 34.39700
H  34.47300 2.20500 36.63500
H  33.00200 3.16300 36.50700
H  40.86500 1.54700 31.16700
H  40.01400 2.52900 32.31800
H  41.26300 3.32200 31.35100
H  42.20200 2.30300 29.25200
H  42.52700 1.32500 27.75900
H  41.63300 0.66700 29.20900
H  35.64700 1.92100 25.03900
H  33.76100 4.15100 24.77800
H  36.55200 3.14700 23.25600
H  37.33500 4.05400 24.61400
H  35.86100 4.65800 23.84800
H  33.76000 1.64700 23.90300
H  32.36100 2.56900 24.01900
H  32.51500 1.27300 26.56600
H  33.73500 0.45500 25.71900
H  32.07700 0.33600 25.11200
H  28.89300 4.26100 28.75800
H  29.76100 3.86700 27.28800
H  29.66600 5.58400 27.71900
H  31.34200 4.13000 33.46500
H  31.78600 7.97800 35.28000
H  30.51800 7.15900 36.02100
H  30.22000 8.36900 34.70700

