158

Mg -3.04000 16.97500 26.73900
C  -3.66700 14.84800 29.44900
C  -3.57900 19.57000 29.02700
C  -3.42700 19.08300 24.22000
C  -3.41800 14.23200 24.61100
N  -3.68200 17.17300 29.05300
C  -3.64000 16.16800 29.97900
C  -3.68900 16.70400 31.41800
C  -3.88100 18.22700 31.18300
C  -3.69400 18.34400 29.68600
C  -5.18000 18.94300 31.76100
C  -2.65200 16.15700 32.44500
C  -2.24800 17.05700 33.53800
H  -1.83600 16.34300 34.87000
N  -3.08100 19.02000 26.68900
C  -3.32000 19.94000 27.71500
C  -3.23400 21.26500 27.09000
C  -3.19000 21.14200 25.72400
C  -3.22500 19.68300 25.46100
C  -3.27200 22.56300 27.98600
C  -3.21800 22.21700 24.70500
O  -3.19900 22.00300 23.54700
C  -3.15700 23.63600 25.04000
N  -3.53400 16.69500 24.77600
C  -3.55100 17.72400 23.90500
C  -3.60400 17.20600 22.42600
C  -3.34000 15.71100 22.59100
C  -3.47600 15.51100 24.12100
C  -4.93600 17.63600 21.65200
C  -1.95800 15.33600 21.87500
C  -0.69100 15.32700 22.72000
N  -3.29200 14.93800 26.94400
C  -3.44600 13.94200 25.99400
C  -3.67700 12.69500 26.67200
C  -3.78800 12.98800 28.06500
C  -3.58700 14.31500 28.11700
C  -3.96400 11.35000 26.09200
C  -4.08500 12.47000 29.37000
O  -4.38000 11.39500 29.89200
C  -4.00500 13.67500 30.34200
C  -2.92100 13.27900 31.27600
O  -1.76400 13.41700 30.98900
O  -3.45300 12.78500 32.39500
C  -2.47200 12.44400 33.47500
H  -3.62600 20.38300 29.75400
H  -3.53900 19.75200 23.36400
H  -3.29000 13.35300 23.97600
H  -4.63900 16.39500 31.85400
H  -3.05100 18.72200 31.68800
H  -4.81300 19.69000 32.46500
H  -5.81300 18.24900 32.31500
H  -5.77900 19.41200 30.98000
H  -1.72000 16.06100 31.88600
H  -3.11200 15.24300 32.82100
H  -3.13400 17.64400 33.77600
H  -1.37600 17.68900 33.37000
H  -3.50800 22.42500 29.04100
H  -4.11900 23.14800 27.62800
H  -2.33800 23.12600 27.99400
H  -3.96700 23.87000 25.73100
H  -3.21000 24.30200 24.17800
H  -2.20600 23.76200 25.55600
H  -2.80500 17.67300 21.85000
H  -4.06200 15.15900 21.99100
H  -5.55400 16.75200 21.80900
H  -4.84800 17.79000 20.57700
H  -5.51700 18.44900 22.08800
H  -1.66300 15.93800 21.01600
H  -2.05200 14.30000 21.54900
H  -0.65100 16.05600 23.52900
H  0.22500 15.53700 22.16800
H  -0.59700 14.28200 23.01500
H  -4.24100 10.71300 26.93200
H  -3.20300 10.87500 25.47200
H  -4.89500 11.55000 25.56100
H  -4.94000 13.90000 30.85300
H  -2.90700 11.75500 34.19900
H  -2.30400 13.33500 34.08000
H  -1.49100 12.03000 33.24200
Mg 16.40400 -1.16900 26.92100
C  15.26600 0.89900 29.56400
C  18.48300 -2.74400 29.18300
C  17.79600 -2.60900 24.27300
C  14.72300 1.09000 24.68100
N  16.96100 -0.85400 29.10800
C  16.31200 0.03100 29.96900
C  16.83600 -0.24900 31.43900
C  18.09900 -1.16400 31.18900
C  17.85000 -1.64100 29.72500
C  19.47000 -0.54400 31.43700
C  15.73300 -0.92100 32.35900
C  15.88100 -0.86300 33.92700
H  17.01000 -0.03700 34.55800
N  17.67400 -2.65500 26.77800
C  18.46200 -3.15400 27.77700
C  19.33000 -4.26200 27.28300
C  19.16200 -4.26100 25.87900
C  18.17600 -3.12800 25.57300
C  20.07000 -5.26000 28.06300
C  19.86200 -5.15600 24.91500
O  19.64400 -4.96100 23.75200
C  20.79300 -6.34200 25.25400
N  16.39200 -0.69600 24.74800
C  16.89500 -1.61500 23.93100
C  16.58100 -1.26400 22.41400
C  15.33200 -0.30800 22.60800
C  15.55100 0.14900 24.07700
C  17.90300 -0.60200 21.75000
C  13.97400 -0.99300 22.28700
C  12.89500 -0.03100 21.82700
N  15.19800 0.51600 27.03700
C  14.48100 1.26100 26.07600
C  13.49600 2.07600 26.70200
C  13.85200 2.07700 28.06100
C  14.88800 1.13900 28.22900
C  12.41500 2.77800 25.92900
C  13.43300 2.48200 29.43600
O  12.47300 3.14400 29.65500
C  14.32100 1.78900 30.46200
C  14.99300 2.90800 31.22500
O  15.50200 3.89600 30.73600
O  14.95900 2.64400 32.55700
C  15.69800 3.68000 33.30200
H  19.18200 -3.27000 29.83600
H  18.10400 -3.20300 23.41000
H  14.08000 1.61900 23.97500
H  17.17400 0.69300 31.87200
H  17.88400 -2.05700 31.77600
H  20.23500 -1.23700 31.78700
H  19.39300 0.15500 32.26900
H  19.80300 -0.03000 30.53500
H  15.69600 -1.98900 32.14100
H  14.76900 -0.52800 32.03800
H  15.98300 -1.87100 34.32700
H  14.87100 -0.57700 34.22100
H  19.86900 -5.01100 29.10500
H  21.13700 -5.20800 27.84900
H  19.58400 -6.22600 27.92200
H  21.74100 -5.94400 25.61500
H  20.97600 -7.03300 24.43100
H  20.24300 -6.84800 26.04800
H  16.25000 -2.22900 22.02900
H  15.45700 0.59800 22.01500
H  18.18900 0.25800 22.35500
H  17.45400 -0.15700 20.86200
H  18.73600 -1.28100 21.57000
H  13.58500 -1.41100 23.21600
H  14.09500 -1.80700 21.57200
H  12.42200 -0.35000 20.89900
H  13.27600 0.96000 21.58000
H  12.16300 0.04400 22.63200
H  11.79200 3.23300 26.69900
H  11.92300 1.98200 25.37100
H  12.77300 3.46800 25.16600
H  13.64400 1.26100 31.13300
H  14.94600 4.34500 33.72700
H  16.58700 4.08400 32.81800
H  16.06200 3.15200 34.18300

