158

Mg 48.33700 35.36700 28.27900
C  46.79200 33.51600 30.79700
C  48.58300 38.00900 30.50200
C  49.95400 37.18200 25.79500
C  47.73300 32.80400 26.12900
N  47.93000 35.63700 30.50000
C  47.33300 34.73000 31.29100
C  47.52100 35.15400 32.70600
C  47.51800 36.70900 32.50000
C  47.99000 36.82200 31.04700
C  46.13000 37.33900 32.65200
C  48.80400 34.67900 33.34700
C  48.76000 34.59800 34.81100
H  47.70300 35.47100 35.57500
N  49.07700 37.32600 28.14200
C  49.09900 38.22400 29.18800
C  49.72900 39.46700 28.73600
C  50.18300 39.28700 27.35300
C  49.79800 37.82700 27.04400
C  49.65100 40.64500 29.68000
C  50.91400 40.25900 26.40100
O  51.30800 39.93100 25.26500
C  51.38200 41.60000 26.90700
N  48.71500 35.05200 26.28000
C  49.37600 35.90700 25.47100
C  49.49200 35.39500 24.02200
C  48.98300 33.91700 24.26100
C  48.52100 33.85200 25.68400
C  48.64000 36.15200 22.94800
C  50.00400 32.85500 23.99200
C  49.87500 32.19100 22.55800
N  47.36300 33.52600 28.37900
C  47.14500 32.63100 27.39000
C  46.41700 31.46600 27.86100
C  46.25400 31.79500 29.25100
C  46.78000 33.02100 29.47900
C  46.02000 30.29500 27.09800
C  45.68800 31.33700 30.56800
O  45.15000 30.23800 30.89500
C  45.87800 32.51700 31.57700
C  46.43700 31.94000 32.77200
O  47.54500 31.45600 32.85900
O  45.51900 32.11900 33.76500
C  45.95800 31.83700 35.17800
H  48.60500 38.80300 31.25100
H  50.41700 37.63800 24.91700
H  47.57400 31.97700 25.43300
H  46.60400 34.79000 33.16800
H  48.21000 37.15400 33.21600
H  45.47000 36.82600 33.35100
H  45.71400 37.47800 31.65400
H  46.24200 38.35100 33.04100
H  49.58200 35.39300 33.07600
H  49.16200 33.79900 32.81100
H  49.80500 34.72200 35.09600
H  48.57500 33.53500 34.96600
H  50.59400 40.68500 30.22500
H  48.75200 40.75700 30.28700
H  49.67700 41.52700 29.04000
H  52.27300 41.89000 26.35100
H  51.64200 41.65000 27.96400
H  50.56800 42.30500 26.74000
H  50.54700 35.40700 23.74800
H  48.09200 33.85600 23.63500
H  48.72000 37.23300 23.05400
H  47.60200 35.83200 23.04200
H  49.04600 35.83000 21.98900
H  50.03000 32.09800 24.77700
H  50.96900 33.35500 23.91400
H  49.36400 32.92200 21.93200
H  49.24700 31.30400 22.64000
H  50.85100 31.96000 22.13100
H  45.44700 29.61500 27.72700
H  46.93700 29.83800 26.72600
H  45.42000 30.70400 26.28500
H  44.87300 32.92300 31.69500
H  46.43800 32.75800 35.51000
H  46.60500 30.96800 35.29900
H  45.08700 31.68800 35.81500
Mg 36.12700 48.77500 24.06100
C  36.57400 47.04700 27.24200
C  34.86800 51.36800 25.97900
C  35.83700 50.35800 21.28700
C  37.43900 46.03800 22.49000
N  35.63600 49.04800 26.33800
C  36.03500 48.34600 27.45300
C  35.62000 49.01000 28.79900
C  34.99000 50.34500 28.27100
C  35.11100 50.25500 26.75900
C  33.54500 50.70600 28.75700
C  36.85900 49.11900 29.71800
C  36.86700 48.42000 31.13200
H  35.52000 48.43400 31.99000
N  35.53200 50.61200 23.68200
C  34.98600 51.54100 24.64800
C  34.55800 52.72200 23.89800
C  34.77600 52.45700 22.49900
C  35.36100 51.09300 22.43700
C  33.94900 53.89000 24.54000
C  34.38600 53.19500 21.23000
O  34.49000 52.73100 20.08600
C  33.67400 54.48900 21.34000
N  36.41100 48.17600 22.12100
C  36.34800 49.06600 21.13700
C  36.63700 48.44200 19.73100
C  37.36400 47.20700 20.18800
C  37.06300 47.11900 21.66800
C  35.39500 48.10200 18.90500
C  38.89300 47.15600 19.81400
C  39.79300 47.96300 20.76200
N  36.82000 46.85600 24.67000
C  37.29300 45.87000 23.88800
C  37.64000 44.73800 24.70200
C  37.36400 45.10900 26.01400
C  36.79500 46.41300 25.96700
C  38.30000 43.42600 24.29500
C  37.55400 44.71800 27.40100
O  38.07300 43.75300 27.98000
C  36.91800 45.94400 28.18000
C  35.73400 45.46800 29.03000
O  34.56100 45.62300 28.72900
O  36.17800 44.95200 30.20300
C  35.11600 44.47200 31.16400
H  34.43800 52.21800 26.51300
H  35.92500 50.87900 20.33200
H  37.77900 45.13000 21.98900
H  34.82500 48.43000 29.26800
H  35.64200 51.14200 28.62900
H  33.06800 49.78200 29.08500
H  32.88500 50.99800 27.94000
H  33.43900 51.44200 29.55300
H  37.08500 50.17000 29.90100
H  37.74300 48.66700 29.26900
H  37.62500 48.96500 31.69300
H  37.26100 47.40500 31.07000
H  32.87400 53.87800 24.71500
H  34.14400 54.84200 24.04800
H  34.30800 53.94800 25.56800
H  33.19600 54.78300 20.40600
H  34.34600 55.20400 21.81600
H  32.89600 54.23300 22.05900
H  37.26900 49.04700 19.08000
H  36.84300 46.32800 19.80700
H  35.26800 48.82500 18.09900
H  34.55200 47.97300 19.58300
H  35.48600 47.16800 18.35100
H  39.09500 47.58100 18.83100
H  39.21800 46.12300 19.94200
H  40.58100 48.47200 20.20700
H  40.18000 47.47600 21.65600
H  39.22900 48.76400 21.23900
H  38.48700 43.32300 23.22600
H  37.70700 42.65500 24.78800
H  39.27100 43.34200 24.78200
H  37.63500 46.24200 28.94500
H  34.98000 43.39200 31.21300
H  34.10500 44.87300 31.08400
H  35.47400 44.79100 32.14300

