158

Mg 49.83200 44.66200 40.37900
C  46.47400 44.91100 39.22700
C  49.86400 41.44600 39.26200
C  53.15500 44.71900 40.58700
C  49.72800 48.24400 40.69100
N  48.31500 43.39000 39.33000
C  47.05000 43.69000 38.92900
C  46.45900 42.67000 38.06800
C  47.35600 41.37400 38.42700
C  48.60100 42.07400 39.11200
C  46.73100 40.23500 39.37200
C  46.32500 43.02300 36.63800
C  44.99600 42.84400 35.99500
H  44.72400 43.52000 34.57900
N  51.29000 43.22100 40.13200
C  51.09100 41.89100 39.72300
C  52.37300 41.17300 39.75100
C  53.35600 42.10500 40.27300
C  52.64700 43.45400 40.35200
C  52.53300 39.75800 39.39400
C  54.78900 41.84200 40.65900
O  55.20900 40.74300 40.50700
C  55.67700 42.93000 41.24700
N  51.28100 46.26200 40.48800
C  52.57300 45.98800 40.72900
C  53.41500 47.24500 41.03000
C  52.28100 48.35500 41.07800
C  50.99900 47.57800 40.73000
C  54.52700 47.26300 42.13600
C  52.49300 49.68100 40.17800
C  52.09200 51.06100 40.86500
N  48.37800 46.28300 40.23800
C  48.50400 47.65500 40.38700
C  47.20500 48.29300 40.20100
C  46.36800 47.24900 39.82100
C  47.09000 46.05400 39.83100
C  46.75700 49.76300 40.27900
C  45.01400 46.96900 39.32900
O  44.05800 47.64500 39.12700
C  45.10200 45.45200 38.85100
C  43.95900 44.71600 39.48100
O  43.10600 44.16500 38.82000
O  43.85000 45.08300 40.86500
C  42.48000 44.88400 41.51400
H  50.03300 40.38100 39.09000
H  54.24600 44.75000 40.55200
H  49.84100 49.32700 40.76900
H  45.47800 42.40700 38.46300
H  47.70900 40.81800 37.55800
H  46.53800 39.31000 38.83000
H  45.72100 40.51500 39.67400
H  47.29100 40.01600 40.28100
H  47.01800 42.37300 36.10400
H  46.68000 44.01000 36.34300
H  44.18800 43.19100 36.63800
H  45.05300 41.75900 35.90600
H  53.24100 39.52400 38.59800
H  51.62800 39.20600 39.14100
H  52.98600 39.35800 40.30100
H  55.23400 43.35100 42.15000
H  55.96500 43.65000 40.48200
H  56.65900 42.59800 41.58400
H  53.98400 47.37300 40.10900
H  52.07600 48.57700 42.12500
H  54.29400 47.99600 42.90800
H  55.56500 47.36500 41.82100
H  54.46200 46.26600 42.57200
H  51.85900 49.50500 39.30900
H  53.51400 49.89900 39.86400
H  51.49700 50.96400 41.77400
H  51.41200 51.56900 40.18100
H  52.96200 51.68700 41.06500
H  45.93600 49.77100 40.99600
H  46.51800 50.12700 39.28000
H  47.55400 50.40500 40.65400
H  44.91300 45.39500 37.78000
H  42.60600 43.90600 41.97800
H  41.65000 45.05200 40.82800
H  42.48200 45.62100 42.31600
Mg 5.48900 54.48100 41.19400
C  5.33200 51.00600 40.97600
C  8.63900 54.33000 39.87900
C  5.52300 57.84100 41.11600
C  2.13500 54.52900 42.21700
N  6.74100 52.77200 40.19700
C  6.46700 51.46500 40.38700
C  7.77800 50.68500 40.03100
C  8.90800 51.79800 39.99700
C  8.06600 53.06400 40.03500
C  9.92000 51.73700 41.17300
C  7.77600 49.82500 38.68700
C  6.94500 50.51100 37.53200
H  7.71900 50.99200 36.28000
N  6.78900 55.81800 40.42100
C  8.06900 55.60200 39.97400
C  8.85300 56.82900 39.76200
C  7.92100 57.90400 40.06600
C  6.70500 57.20800 40.60600
C  10.30800 56.94300 39.41100
C  8.26600 59.37700 39.95200
O  9.41200 59.73800 39.55300
C  7.30300 60.46300 40.38400
N  3.98200 55.89300 41.57800
C  4.35300 57.25900 41.59300
C  3.11900 58.13400 42.04300
C  1.90600 57.11900 42.05400
C  2.69200 55.77500 41.95100
C  3.30600 58.72000 43.39300
C  0.83400 57.35700 40.85100
C  -0.43900 58.20100 41.21000
N  4.05300 53.12400 41.60900
C  2.75100 53.28200 42.10900
C  2.19200 51.95700 42.37700
C  3.18100 51.07200 41.97900
C  4.26300 51.78600 41.49400
C  0.79700 51.61600 42.90100
C  3.47000 49.57000 41.95500
O  2.91300 48.50800 42.25900
C  4.79800 49.55200 41.13700
C  4.62300 48.78500 39.86000
O  3.85300 49.16600 38.93800
O  5.40600 47.64900 39.88500
C  5.29900 46.84100 38.63800
H  9.72200 54.29500 39.74200
H  5.48300 58.92400 41.24600
H  1.06700 54.52600 42.44700
H  7.82200 50.00800 40.88400
H  9.49300 51.98500 39.09600
H  9.92700 50.67500 41.42000
H  9.55700 52.39400 41.96400
H  10.81400 52.26200 40.83700
H  7.28500 48.91700 39.03700
H  8.81900 49.76700 38.37700
H  6.31900 51.35000 37.83400
H  6.30400 49.73300 37.11900
H  10.42200 56.99200 38.32800
H  10.92000 56.19000 39.90800
H  10.86600 57.80400 39.78000
H  6.44500 60.41900 39.71400
H  7.80600 61.38700 40.09700
H  7.20100 60.47200 41.46900
H  3.09100 58.89500 41.26300
H  1.38400 57.12300 43.01100
H  2.36400 58.80700 43.93400
H  3.74800 59.71200 43.30200
H  3.93700 58.08400 44.01300
H  0.48600 56.37800 40.52100
H  1.28900 57.81600 39.97200
H  -1.28400 57.72800 40.70900
H  -0.28500 59.25300 40.96900
H  -0.74300 58.12100 42.25300
H  0.06900 51.56900 42.09100
H  0.51500 52.39000 43.61400
H  0.71700 50.64400 43.38700
H  5.38100 48.91100 41.79800
H  5.64600 45.81600 38.76100
H  5.83100 47.30600 37.80800
H  4.27200 46.74000 38.28600

