158

Mg 41.09900 8.60100 29.25900
C  42.90600 9.83600 31.98400
C  38.98900 7.02100 31.62700
C  39.25900 7.40700 26.73900
C  43.63000 9.59500 27.19100
N  40.97000 8.52800 31.57000
C  41.78500 9.11300 32.46800
C  41.23800 9.09000 33.89400
C  39.93300 8.20400 33.80200
C  39.99100 7.88600 32.22200
C  39.77900 7.09900 34.84400
C  41.09300 10.51800 34.51300
C  40.23700 10.68800 35.78800
H  40.87300 11.62900 36.81800
N  39.33500 7.40300 29.23700
C  38.64600 6.91200 30.29800
C  37.31500 6.37900 29.85300
C  37.40100 6.41600 28.46200
C  38.73400 7.01800 28.05300
C  36.13700 6.07900 30.76400
C  36.32400 6.02900 27.45500
O  36.56300 6.11700 26.25400
C  35.07000 5.46300 27.87300
N  41.35500 8.55900 27.25300
C  40.41300 8.00700 26.37400
C  40.82500 8.26100 24.94000
C  42.29800 8.74700 25.14400
C  42.50000 9.04500 26.59300
C  40.61400 6.97300 24.03000
C  42.64300 10.00700 24.22500
C  43.72100 9.76600 23.12300
N  42.89900 9.44000 29.47900
C  43.86700 9.80700 28.55900
C  45.03300 10.34900 29.21700
C  44.61500 10.38100 30.56800
C  43.34100 9.94300 30.67700
C  46.28700 10.77400 28.62500
C  45.12700 10.78100 31.89600
O  46.23300 11.27500 32.26400
C  43.98100 10.42900 32.86300
C  44.41700 9.36300 33.77500
O  44.60100 8.17700 33.51500
O  44.71000 9.97300 34.98700
C  45.47900 9.22600 35.92600
H  38.37600 6.54100 32.39200
H  38.53200 7.13200 25.97200
H  44.54800 9.61600 26.59900
H  41.99800 8.62900 34.52500
H  39.10500 8.91300 33.77600
H  38.94700 7.03400 35.54500
H  40.62300 7.35300 35.48600
H  39.98500 6.12400 34.40300
H  40.81500 11.16100 33.67800
H  42.06500 10.89500 34.83000
H  40.10500 9.67500 36.16900
H  39.26300 11.13100 35.58300
H  36.06500 4.99300 30.81700
H  35.24400 6.63100 30.47300
H  36.43000 6.40000 31.76300
H  34.66800 5.02900 26.95800
H  34.45000 6.31800 28.14100
H  35.09500 4.72200 28.67300
H  40.14600 8.99900 24.51500
H  42.95400 7.92900 24.84700
H  41.50800 6.95100 23.40700
H  39.75300 7.15100 23.38500
H  40.51900 6.01300 24.53600
H  42.97500 10.77100 24.92700
H  41.77700 10.40600 23.69600
H  44.66500 10.13100 23.52800
H  43.49600 10.43900 22.29600
H  43.86500 8.76200 22.72300
H  46.90200 11.16300 29.43700
H  46.15100 11.59300 27.91800
H  46.87200 10.01600 28.10300
H  43.64900 11.36200 33.31800
H  46.47300 8.94200 35.58000
H  44.88600 8.38600 36.28900
H  45.68200 9.78300 36.84100
Mg 50.70200 44.54400 41.88800
C  47.79900 46.15200 40.86500
C  49.51800 41.57500 40.86800
C  53.88100 43.33700 41.91600
C  51.88500 47.66200 42.79400
N  48.87700 44.01400 40.83200
C  47.76200 44.74200 40.74800
C  46.54500 43.87800 40.18000
C  47.09900 42.48800 40.59000
C  48.60500 42.68400 40.76700
C  46.31000 41.67100 41.68900
C  46.30700 44.13000 38.63300
C  44.98600 43.91500 37.99700
H  44.85400 43.07100 36.74600
N  51.53500 42.68900 41.52800
C  50.86300 41.60400 41.15000
C  51.74300 40.42400 41.23200
C  53.02600 40.93900 41.43300
C  52.85100 42.39200 41.59000
C  51.37300 39.03200 40.96600
C  54.25300 40.09300 41.40600
O  54.19800 38.87100 41.28300
C  55.63500 40.65700 41.58200
N  52.57400 45.42100 42.35000
C  53.69700 44.69800 42.32300
C  54.86100 45.45500 42.87800
C  54.29500 46.93600 43.07600
C  52.83900 46.68800 42.70100
C  55.51900 44.81400 44.23000
C  54.81400 48.00200 41.98700
C  55.49500 49.29900 42.58700
N  49.98900 46.54300 41.87800
C  50.57400 47.68800 42.25000
C  49.64100 48.79000 42.12500
C  48.51200 48.23200 41.57000
C  48.77100 46.86100 41.41100
C  49.90600 50.16900 42.60100
C  47.24200 48.54600 41.01300
O  46.68800 49.63200 40.95600
C  46.66100 47.13500 40.63600
C  45.35800 46.93300 41.27900
O  45.19400 46.15000 42.22700
O  44.30700 47.65300 40.70400
C  43.10400 47.61400 41.55200
H  49.02700 40.60300 40.78000
H  54.92200 43.00800 41.89700
H  52.31400 48.60500 43.14000
H  45.54100 43.89800 40.60400
H  47.10800 41.82700 39.72300
H  45.66900 42.27600 42.33100
H  47.00800 41.20500 42.38400
H  45.68000 40.84800 41.35100
H  46.94800 43.45100 38.07100
H  46.61600 45.16200 38.46700
H  44.64000 44.90900 37.71300
H  44.40900 43.41100 38.77200
H  51.87800 38.72600 40.05000
H  50.30800 38.87200 40.80100
H  51.72200 38.32300 41.71700
H  55.80800 40.84100 42.64300
H  55.80000 41.55100 40.98200
H  56.38600 39.90300 41.34400
H  55.56500 45.42800 42.04600
H  54.33100 47.27100 44.11200
H  56.59800 44.77200 44.08300
H  55.34800 43.73800 44.24200
H  55.13900 45.33500 45.11000
H  53.92900 48.21600 41.38700
H  55.53400 47.51600 41.32900
H  54.84300 50.10500 42.25100
H  56.45600 49.33100 42.07300
H  55.54200 49.27600 43.67500
H  50.74900 50.68400 42.13900
H  50.04700 50.15600 43.68200
H  49.02000 50.78400 42.44300
H  46.34700 47.14800 39.59200
H  42.74600 46.58500 41.54800
H  42.34800 48.25500 41.09800
H  43.41300 47.98500 42.52900

