158

Mg -0.48900 7.68200 26.21600
C  0.78500 9.61600 28.97900
C  -0.53300 4.96400 28.35300
C  -1.06600 5.78700 23.60600
C  0.19400 10.39300 24.15600
N  0.08000 7.36400 28.48100
C  0.46700 8.28800 29.41600
C  0.64700 7.64900 30.77000
C  0.35800 6.05500 30.55400
C  -0.00100 6.10300 29.01000
C  1.52900 5.10400 30.87000
C  -0.06300 8.25700 31.94600
C  0.64800 8.13400 33.33400
H  1.88600 7.22100 33.57500
N  -0.88700 5.64700 25.96400
C  -0.94500 4.72100 26.96000
C  -1.41900 3.43300 26.34900
C  -1.38100 3.56000 24.93400
C  -1.13100 5.00600 24.72800
C  -1.64200 2.20700 27.25100
C  -1.64100 2.65800 23.72600
O  -1.68500 3.10900 22.57200
C  -1.79100 1.16200 23.87700
N  -0.25900 7.98800 24.12200
C  -0.67400 7.09000 23.27200
C  -0.82800 7.61100 21.85300
C  -0.62600 9.16800 22.08200
C  -0.23500 9.17100 23.55800
C  0.16500 6.98700 20.84900
C  -1.82300 10.07400 21.77100
C  -2.86800 10.34900 23.00200
N  0.28900 9.61800 26.49400
C  0.53100 10.56900 25.52600
C  1.05100 11.77700 26.11100
C  1.11400 11.44500 27.48000
C  0.69900 10.10300 27.65100
C  1.36800 13.11500 25.38400
C  1.57100 11.96500 28.74900
O  2.03500 12.98800 29.01900
C  1.33300 10.77800 29.76900
C  2.54900 10.49700 30.70500
O  3.43100 9.68000 30.56700
O  2.43700 11.35700 31.82300
C  3.28500 11.07300 32.96600
H  -0.62400 4.15200 29.07700
H  -1.41000 5.22400 22.73700
H  0.36500 11.30100 23.57400
H  1.70500 7.60400 31.02700
H  -0.49100 5.73400 31.15700
H  1.19700 4.59700 31.77600
H  2.50600 5.57100 30.99400
H  1.52100 4.20300 30.25800
H  -1.04000 7.85500 32.21600
H  -0.10500 9.30700 31.65700
H  -0.15000 7.81700 34.00400
H  0.80300 9.15400 33.68400
H  -0.72900 1.63500 27.41600
H  -2.50700 1.57900 27.04200
H  -1.87900 2.54300 28.26100
H  -2.52600 0.91100 24.64100
H  -0.81400 0.79100 24.18700
H  -2.21200 0.87500 22.91300
H  -1.86900 7.44500 21.57500
H  0.30600 9.38600 21.56100
H  1.15000 7.12800 21.29400
H  0.11400 7.65600 19.99000
H  -0.13600 6.03000 20.42300
H  -2.41600 9.56400 21.01200
H  -1.54700 11.06200 21.40300
H  -2.86900 11.39300 23.31600
H  -2.48200 9.80100 23.86200
H  -3.85700 9.93400 22.81300
H  0.61800 13.27900 24.61000
H  2.29100 12.86400 24.86100
H  1.61200 13.95500 26.03400
H  0.59200 11.15500 30.47500
H  2.91000 10.09100 33.25400
H  3.08500 11.83900 33.71600
H  4.30200 10.99700 32.58200
Mg 24.57100 1.01000 29.01600
C  26.51700 0.83000 31.92900
C  21.77700 1.57600 31.11600
C  22.70900 1.05800 26.26100
C  27.42200 0.27200 27.08200
N  24.23700 0.99100 31.27000
C  25.19600 1.07500 32.20400
C  24.60900 1.43800 33.60700
C  23.08100 1.30700 33.33400
C  22.99700 1.28900 31.78000
C  22.34600 0.03900 33.99500
C  25.08400 2.85000 34.10400
C  24.68300 3.26400 35.48600
H  25.74500 3.61800 36.57700
N  22.52600 1.29400 28.76900
C  21.53300 1.47100 29.70200
C  20.26000 1.46500 29.00300
C  20.51400 1.16600 27.64400
C  21.95900 1.18300 27.54000
C  19.01100 1.73300 29.66300
C  19.47800 1.05400 26.50600
O  19.82400 0.96300 25.29600
C  17.98500 0.92700 26.73900
N  25.02700 0.72500 26.99400
C  24.10300 0.81100 26.02400
C  24.62200 0.76300 24.57600
C  26.18100 0.86100 24.86600
C  26.22100 0.53000 26.38600
C  24.12700 -0.55200 23.79600
C  26.83300 2.14700 24.45300
C  26.20000 3.42000 24.90100
N  26.54300 0.58000 29.31700
C  27.55500 0.28100 28.48500
C  28.78500 0.15900 29.25300
C  28.37700 0.36100 30.58400
C  27.01600 0.57700 30.60600
C  30.12900 -0.22900 28.64000
C  28.92500 0.46100 31.95800
O  30.07400 0.44600 32.38000
C  27.70300 0.82500 32.88800
C  27.58800 -0.21000 33.93200
O  27.55500 -1.45400 33.83600
O  27.67400 0.46300 35.12200
C  27.39400 -0.35900 36.34100
H  20.84800 1.79500 31.64700
H  22.21300 1.24900 25.30700
H  28.31200 0.15000 26.46200
H  24.74300 0.72400 34.41900
H  22.48700 2.18000 33.60600
H  23.01200 -0.62200 34.55000
H  21.92100 -0.60300 33.22300
H  21.50500 0.26900 34.64900
H  24.64000 3.63300 33.48900
H  26.14000 3.03800 33.91300
H  24.05600 2.49200 35.93200
H  24.17400 4.22700 35.44200
H  18.37200 0.85400 29.75100
H  18.53700 2.54300 29.10900
H  19.06300 2.24000 30.62700
H  17.51700 0.99800 25.75700
H  17.57900 1.67800 27.41700
H  17.77000 -0.10500 27.01700
H  24.18700 1.64700 24.11000
H  26.79700 0.03600 24.50700
H  23.78300 -0.28800 22.79600
H  23.27600 -1.01900 24.29200
H  24.87600 -1.33700 23.68600
H  26.68000 2.21400 23.37600
H  27.90700 2.15800 24.63600
H  25.62400 3.87100 24.09300
H  27.04500 3.96900 25.31700
H  25.56900 3.24700 25.77200
H  30.09700 -0.46300 27.57600
H  30.62500 -0.98100 29.25500
H  30.69900 0.69300 28.75400
H  27.77900 1.83400 33.29500
H  26.43100 -0.85900 36.23500
H  27.46100 0.19600 37.27700
H  28.18500 -1.10200 36.23300

