158

Mg 8.32100 3.27700 28.50500
C  9.62700 1.75800 31.18400
C  6.24700 5.01800 30.65100
C  6.77400 4.50900 25.71400
C  10.18500 1.01800 26.42900
N  7.98000 3.36500 30.63800
C  8.78400 2.79300 31.56100
C  8.56200 3.28800 33.02900
C  7.25500 4.08200 32.81300
C  7.09700 4.12300 31.26700
C  5.94800 3.40300 33.35700
C  9.74200 4.15300 33.47200
C  10.43400 3.80400 34.83900
H  9.54900 3.12200 35.88400
N  6.80300 4.65000 28.18200
C  6.05300 5.21200 29.29300
C  5.07800 6.09300 28.71700
C  5.18300 6.00100 27.30200
C  6.24700 4.96100 26.96700
C  4.26500 7.11300 29.49000
C  4.29700 6.69900 26.22700
O  4.45700 6.51600 25.04500
C  3.25200 7.58200 26.72100
N  8.24300 2.55200 26.32900
C  7.67100 3.40900 25.41100
C  8.28300 3.19600 23.97500
C  9.37800 2.12000 24.20500
C  9.31500 1.92100 25.76300
C  7.19400 2.60200 23.01800
C  10.78200 2.60600 23.63800
C  11.51900 3.72100 24.44400
N  9.51600 1.65500 28.69500
C  10.24500 0.81300 27.80500
C  11.18600 -0.02000 28.53700
C  10.95400 0.36700 29.82900
C  9.95200 1.31800 29.88100
C  12.04800 -1.08500 28.04400
C  11.39900 0.10900 31.11600
O  12.36200 -0.62100 31.51200
C  10.55200 1.02600 32.07200
C  9.80700 0.17400 32.94700
O  8.80500 -0.42200 32.62300
O  10.35100 -0.07900 34.14700
C  9.63900 -0.80700 35.11800
H  5.65900 5.64400 31.32500
H  6.34400 4.97200 24.82300
H  11.06800 0.48700 26.06800
H  8.34400 2.46700 33.71100
H  7.33000 5.05500 33.29900
H  5.71800 2.69300 32.56300
H  5.12500 4.11600 33.30700
H  6.02100 2.96500 34.35300
H  9.54800 5.22300 33.40400
H  10.56200 3.98000 32.77500
H  10.76300 4.74600 35.27700
H  11.29200 3.18300 34.58100
H  4.53300 8.16600 29.39800
H  4.29200 6.95400 30.56800
H  3.23800 6.88700 29.20300
H  2.71000 7.96800 25.85700
H  3.75200 8.36200 27.29500
H  2.52500 7.06600 27.34900
H  8.59500 4.21000 23.72800
H  9.16300 1.10800 23.86200
H  6.29100 2.97800 23.49900
H  7.29500 1.52600 22.87400
H  7.29700 3.15400 22.08400
H  10.69500 2.96100 22.61200
H  11.39200 1.70800 23.53300
H  11.13400 3.92100 25.44400
H  11.32600 4.66900 23.94200
H  12.60800 3.67600 24.43100
H  13.03600 -0.79000 28.39700
H  12.09300 -1.13100 26.95600
H  11.73400 -1.99800 28.55100
H  11.16400 1.65200 32.72200
H  9.54500 -1.81900 34.72200
H  8.67200 -0.34400 35.31400
H  10.29200 -0.68300 35.98100
Mg 16.98500 53.08600 26.08900
C  19.11900 51.50900 28.46500
C  14.86200 53.87300 28.70800
C  15.03000 54.51900 23.91400
C  19.21300 52.13500 23.58300
N  16.94400 52.60500 28.28800
C  17.99100 52.11900 29.04600
C  17.76700 52.31400 30.55500
C  16.31400 52.88500 30.57900
C  16.00400 53.18500 29.09600
C  15.16800 51.99500 31.24400
C  18.75900 53.25900 31.25500
C  19.12900 53.07400 32.74700
H  18.13600 52.43800 33.71200
N  15.15900 54.01500 26.24000
C  14.52900 54.35900 27.37700
C  13.44000 55.27400 27.07400
C  13.40200 55.42100 25.69100
C  14.57300 54.58500 25.19900
C  12.43700 55.77100 28.13100
C  12.37500 56.19500 24.84100
O  12.44500 56.25800 23.63500
C  11.32800 56.85700 25.52700
N  17.01400 53.15200 23.95700
C  16.11700 53.92800 23.32000
C  16.50600 54.14900 21.84900
C  17.93600 53.42800 21.75400
C  18.05500 52.82100 23.14000
C  15.53500 53.52800 20.84000
C  19.17100 54.34700 21.43200
C  20.31300 53.82600 20.57800
N  18.70900 51.81600 25.96400
C  19.45900 51.54100 24.86000
C  20.56900 50.76100 25.32700
C  20.54300 50.71400 26.75100
C  19.35900 51.40200 27.04400
C  21.77600 50.24500 24.47400
C  21.22400 50.28900 27.92500
O  22.19800 49.61900 28.13100
C  20.22700 50.81000 29.10600
C  19.78200 49.68500 29.94200
O  19.42200 48.60200 29.50500
O  20.10700 49.86200 31.28700
C  19.65500 48.71000 32.11800
H  14.37100 54.38200 29.54000
H  14.39000 55.09500 23.24200
H  19.98100 51.99300 22.82000
H  17.70000 51.32800 31.01500
H  16.31100 53.91400 30.93700
H  14.40300 52.74800 31.43300
H  15.55500 51.52100 32.14700
H  14.86400 51.14100 30.63900
H  18.61100 54.30700 30.99200
H  19.71200 53.04100 30.77300
H  19.36800 54.08100 33.08700
H  20.04400 52.48200 32.72400
H  12.46500 56.86100 28.13400
H  12.77600 55.53800 29.14000
H  11.45800 55.30500 28.23900
H  10.72000 56.14500 26.08600
H  10.66200 57.47300 24.92300
H  11.80300 57.63900 26.11900
H  16.44400 55.20400 21.58000
H  17.85800 52.61600 21.03100
H  14.76100 54.24800 20.57700
H  15.17100 52.58400 21.24600
H  16.08500 53.26800 19.93500
H  19.54400 54.48200 22.44800
H  18.89200 55.31600 21.01900
H  20.33700 54.41100 19.65900
H  20.30100 52.81700 20.16600
H  21.27800 54.03300 21.04200
H  22.70200 50.34500 25.04000
H  21.91200 50.82400 23.56000
H  21.64500 49.19700 24.20400
H  20.89700 51.40200 29.72900
H  20.08600 47.75100 31.83000
H  18.57300 48.74700 31.98800
H  19.77000 48.85600 33.19200

