158

Mg 16.53300 -1.45000 27.99200
C  15.73400 0.39800 30.82500
C  18.71600 -3.37900 30.01500
C  17.96700 -2.99700 25.29600
C  14.80600 0.74900 25.98200
N  17.22200 -1.40500 30.13900
C  16.65000 -0.68200 31.16100
C  17.37800 -0.79400 32.50800
C  18.37300 -1.96700 32.17500
C  18.06200 -2.27200 30.69400
C  19.89600 -1.77400 32.42900
C  16.35200 -1.08800 33.66900
C  16.82900 -1.75500 34.95600
H  17.23900 -0.89000 36.12500
N  18.00700 -3.19900 27.65900
C  18.70400 -3.84100 28.63100
C  19.39600 -4.95300 28.06800
C  19.12100 -4.90300 26.69600
C  18.35600 -3.69800 26.45800
C  20.28100 -5.92300 28.81400
C  19.64400 -5.75900 25.52300
O  19.42700 -5.37400 24.35600
C  20.45900 -7.07500 25.71700
N  16.43800 -1.14700 25.94500
C  17.12300 -1.89500 25.02900
C  16.75700 -1.42300 23.65800
C  15.56800 -0.40300 23.84100
C  15.61300 -0.24400 25.30800
C  18.02000 -0.86800 22.88200
C  14.10200 -0.68800 23.42800
C  13.86500 -0.17300 21.97500
N  15.38000 0.12600 28.27500
C  14.72800 0.92500 27.36100
C  13.91100 1.87800 28.05900
C  14.30900 1.73400 29.41600
C  15.20600 0.63300 29.51900
C  13.11900 2.88300 27.46600
C  14.08400 2.29600 30.70800
O  13.32700 3.23000 31.03300
C  14.99900 1.41300 31.78300
C  15.88600 2.35100 32.50300
O  16.83000 3.03000 32.10400
O  15.46000 2.49100 33.76600
C  15.94700 3.61900 34.53500
H  19.47500 -3.78500 30.68800
H  18.39700 -3.33900 24.35300
H  14.19100 1.38500 25.34100
H  17.88300 0.13700 32.76200
H  18.09200 -2.85300 32.74500
H  20.13900 -1.15000 33.28900
H  20.33300 -1.29800 31.55200
H  20.33700 -2.74500 32.65500
H  15.58200 -1.76400 33.29900
H  15.89000 -0.13800 33.93800
H  17.76800 -2.28800 34.80300
H  16.06300 -2.34800 35.45400
H  20.16400 -5.80500 29.89100
H  21.35000 -5.86300 28.60800
H  20.08400 -6.96300 28.55400
H  19.73700 -7.70900 26.23300
H  21.31400 -7.00500 26.39000
H  20.86100 -7.52600 24.81000
H  16.40900 -2.23100 23.01500
H  15.81500 0.57600 23.43100
H  18.87700 -0.75800 23.54700
H  17.73500 0.09900 22.46900
H  18.30800 -1.48900 22.03300
H  13.40700 -0.21500 24.12200
H  13.93900 -1.76500 23.40800
H  14.84700 0.06100 21.56400
H  13.33700 0.76400 22.15300
H  13.32900 -0.93700 21.41100
H  13.41400 3.21900 26.47200
H  13.17600 3.81700 28.02400
H  12.11900 2.45000 27.43500
H  14.25800 1.02500 32.48200
H  15.04100 3.96700 35.03100
H  16.28300 4.50400 33.99400
H  16.75000 3.19600 35.13900
Mg 34.89700 2.96300 29.80000
C  32.69600 4.12400 32.31400
C  37.27500 2.59800 32.18700
C  37.13300 2.17400 27.39100
C  32.42800 3.60000 27.52600
N  34.94000 3.29200 32.07600
C  33.92900 3.73900 32.89200
C  34.39500 3.75300 34.36600
C  35.92900 3.55200 34.22500
C  36.13200 3.17800 32.71400
C  36.85400 4.76800 34.62900
C  33.60300 2.58400 35.15400
C  33.36900 2.70200 36.72300
H  33.89400 4.06100 37.38800
N  36.97400 2.37000 29.77500
C  37.71600 2.25300 30.86600
C  39.05000 1.69500 30.50300
C  39.04800 1.49300 29.05300
C  37.70300 2.06500 28.67200
C  40.09900 1.32700 31.44400
C  40.05800 0.91300 28.05500
O  39.79200 0.81900 26.86200
C  41.27100 0.24200 28.53500
N  34.82400 3.07400 27.72400
C  35.85700 2.60200 26.95100
C  35.45500 2.74000 25.45200
C  33.90200 2.96300 25.55400
C  33.70200 3.22400 27.05000
C  36.18500 3.88600 24.69200
C  32.96500 1.79400 25.00500
C  31.53900 2.22700 24.51700
N  32.93400 3.66900 29.89700
C  32.05700 3.81900 28.86600
C  30.78200 4.31100 29.28000
C  30.99800 4.46300 30.67500
C  32.33700 4.06500 31.02300
C  29.47900 4.33300 28.49400
C  30.38000 4.79700 31.94000
O  29.28900 5.22000 32.20200
C  31.38900 4.51900 33.10400
C  31.67100 5.82600 33.79600
O  32.29500 6.78400 33.37000
O  31.07600 5.83000 35.06100
C  31.30400 7.05200 35.82800
H  38.10700 2.46500 32.88100
H  37.95400 2.08500 26.67700
H  31.61600 3.78500 26.82000
H  34.17600 4.75200 34.74400
H  36.20500 2.72000 34.87300
H  37.36100 4.57400 35.57400
H  36.35700 5.72500 34.78800
H  37.68600 4.91100 33.93900
H  34.19900 1.69100 34.96400
H  32.59900 2.42800 34.75900
H  33.89300 1.90300 37.24800
H  32.32100 2.56200 36.98900
H  41.02700 1.86400 31.24400
H  40.22800 0.24500 31.41700
H  39.72400 1.50600 32.45100
H  40.97200 -0.37100 29.38600
H  41.92200 1.00000 28.97200
H  41.79800 -0.33600 27.77500
H  35.54700 1.77400 24.95600
H  33.62500 3.86200 25.00400
H  37.11400 4.21400 25.15800
H  35.56900 4.78400 24.65100
H  36.56800 3.62100 23.70600
H  33.02200 1.04600 25.79600
H  33.53100 1.46400 24.13400
H  31.30400 2.13700 23.45600
H  31.48300 3.31600 24.52200
H  30.81700 1.89700 25.26300
H  28.66300 4.52700 29.18900
H  29.20100 3.41200 27.98100
H  29.53100 5.04100 27.66600
H  31.11000 3.71800 33.78800
H  30.55700 7.83100 35.67400
H  32.27400 7.53400 35.71100
H  31.24400 6.60800 36.82200

