158

Mg 17.44600 -0.81700 28.09100
C  16.44600 1.29000 30.83900
C  19.09800 -2.76600 30.10700
C  18.91100 -2.15400 25.24500
C  15.64700 1.48300 25.96700
N  17.85000 -0.63500 30.20600
C  17.29700 0.24300 31.19200
C  17.79600 -0.13900 32.55700
C  18.79400 -1.38600 32.26600
C  18.53800 -1.63700 30.77300
C  20.32000 -1.10200 32.49000
C  16.56700 -0.62700 33.51900
C  16.65700 -0.15800 35.01100
H  17.92600 0.52300 35.58700
N  18.70500 -2.34000 27.75000
C  19.20800 -3.08900 28.71300
C  19.96100 -4.20600 28.19400
C  19.87500 -4.03700 26.76400
C  19.12900 -2.80500 26.50300
C  20.60800 -5.29200 29.00000
C  20.38200 -4.92900 25.63700
O  20.13700 -4.72300 24.48400
C  21.08700 -6.22600 25.82300
N  17.21300 -0.52800 25.93500
C  18.05800 -1.05300 25.02600
C  17.81400 -0.42800 23.60000
C  16.75200 0.59100 23.88300
C  16.45200 0.47600 25.40100
C  19.19300 0.10600 22.90500
C  15.45100 0.47500 23.03900
C  15.18100 1.47200 21.89100
N  16.21600 1.00700 28.27400
C  15.53000 1.78500 27.33700
C  14.86600 2.89400 27.97600
C  15.14800 2.68500 29.42100
C  16.01900 1.58100 29.50900
C  14.16900 4.03300 27.45700
C  14.94400 3.21800 30.74000
O  14.32600 4.19400 31.22800
C  15.75100 2.32000 31.71600
C  16.72800 3.14000 32.48800
O  17.72100 3.61500 32.03700
O  16.17000 3.41600 33.75100
C  16.73900 4.44900 34.61100
H  19.60500 -3.40500 30.83200
H  19.49000 -2.48900 24.38200
H  15.13200 2.09700 25.22600
H  18.36300 0.66300 33.02900
H  18.57900 -2.25400 32.89000
H  20.92900 -1.13000 31.58700
H  20.72500 -1.69700 33.31000
H  20.47800 -0.08900 32.85900
H  16.66000 -1.71100 33.57000
H  15.62100 -0.30800 33.08100
H  16.41000 -1.00500 35.65100
H  15.84700 0.56000 35.14600
H  20.20500 -6.22400 28.60300
H  20.33300 -5.31400 30.05500
H  21.66600 -5.30600 28.74000
H  21.47800 -6.61600 24.88300
H  20.41300 -6.95700 26.27000
H  21.90700 -6.13800 26.53600
H  17.48300 -1.26100 22.97900
H  17.22800 1.55500 23.70300
H  20.08400 -0.03800 23.51700
H  19.04900 1.17900 22.77800
H  19.30600 -0.37600 21.93400
H  14.61100 0.62500 23.71800
H  15.35400 -0.55500 22.69600
H  16.11400 2.03000 21.81900
H  14.36700 2.18200 22.04200
H  15.17200 0.99700 20.91000
H  14.74500 4.48900 26.65200
H  14.08800 4.90500 28.10600
H  13.18300 3.71900 27.11600
H  15.17900 1.75800 32.45500
H  16.12900 4.45400 35.51500
H  16.85900 5.39100 34.07600
H  17.74900 4.14000 34.87700
Mg 25.98600 0.50400 29.12000
C  28.01700 0.27000 32.03400
C  23.34700 1.17200 31.19400
C  24.09900 0.28200 26.43000
C  28.78200 -0.55800 27.19400
N  25.71500 0.54800 31.41700
C  26.71100 0.55700 32.35700
C  26.15000 0.91400 33.70800
C  24.63100 1.16300 33.41900
C  24.52300 0.90400 31.92000
C  23.52200 0.28500 34.18000
C  26.84900 2.18800 34.33300
C  26.10600 2.80700 35.51500
H  26.95900 3.16100 36.81100
N  23.97800 0.67300 28.87100
C  23.05300 1.09600 29.83700
C  21.77600 1.30500 29.17700
C  22.00800 1.14100 27.80600
C  23.41700 0.60400 27.60600
C  20.56000 1.62300 29.90700
C  21.02200 1.44600 26.64900
O  21.26200 1.10000 25.50100
C  19.76500 2.03500 26.84700
N  26.40200 -0.08800 27.16800
C  25.38900 -0.06300 26.20200
C  26.03800 -0.30600 24.75900
C  27.51100 -0.53400 25.05100
C  27.56100 -0.47200 26.55400
C  25.26900 -1.44800 24.00900
C  28.38100 0.38000 24.24400
C  28.30600 1.84500 24.39700
N  28.04600 0.12000 29.46500
C  29.00800 -0.44300 28.61100
C  30.23300 -0.59800 29.32600
C  29.83800 -0.33500 30.65400
C  28.50400 0.07600 30.69100
C  31.49200 -1.01600 28.82100
C  30.40600 -0.32000 31.95000
O  31.55300 -0.59000 32.26900
C  29.26200 0.14200 32.87000
C  29.09500 -0.83800 33.96400
O  28.71600 -1.98600 33.86300
O  29.45100 -0.28300 35.22800
C  29.25600 -1.14400 36.38300
H  22.51700 1.41000 31.86200
H  23.42300 0.16100 25.58100
H  29.60600 -0.71700 26.49600
H  26.39800 0.05700 34.33400
H  24.52100 2.23600 33.57300
H  23.83300 0.05800 35.20000
H  23.53700 -0.69800 33.71000
H  22.48900 0.62700 34.11400
H  26.98500 2.93300 33.54900
H  27.85900 1.91700 34.64000
H  25.37300 2.09000 35.88500
H  25.48500 3.64200 35.19300
H  19.73600 1.12400 29.39600
H  20.33300 2.68900 29.89400
H  20.61000 1.44700 30.98100
H  18.96800 1.31700 27.04000
H  19.62200 2.69800 25.99400
H  19.76800 2.75000 27.67100
H  25.92800 0.61400 24.18500
H  27.80500 -1.56700 24.86500
H  24.50800 -1.89500 24.64800
H  25.98500 -2.21700 23.71700
H  24.72600 -1.03500 23.15900
H  28.08300 0.20500 23.21000
H  29.39800 -0.01300 24.22500
H  27.64300 2.31300 23.66800
H  29.29100 2.22400 24.12500
H  28.01100 2.18100 25.39100
H  31.49500 -1.60900 27.90600
H  32.08700 -1.53000 29.57600
H  32.00400 -0.07600 28.61700
H  29.53000 1.03000 33.44300
H  29.58300 -2.12800 36.04900
H  28.21200 -1.19200 36.69300
H  29.88400 -0.74200 37.17800

