158

Mg 27.26100 51.16800 26.46000
C  24.95800 52.17700 28.91300
C  29.36100 50.27500 29.08500
C  29.30000 50.20000 24.17600
C  25.19200 52.76500 24.13100
N  27.07800 51.04000 28.74000
C  26.07700 51.56500 29.50800
C  26.35300 51.43600 31.01100
C  27.90500 51.03300 31.02800
C  28.17600 50.79300 29.49900
C  28.85600 52.13500 31.71400
C  25.44700 50.31800 31.62000
C  25.20700 50.28900 33.12500
H  26.14300 51.08200 34.05800
N  29.13200 50.41100 26.60900
C  29.78800 50.09200 27.77000
C  31.14400 49.57600 27.35100
C  31.10100 49.39000 25.90600
C  29.84500 50.08200 25.49200
C  32.25700 49.21700 28.32400
C  32.09700 48.75800 25.11100
O  32.06900 48.79800 23.86000
C  33.29100 48.15900 25.70900
N  27.17300 51.44500 24.43400
C  28.11900 50.81500 23.68200
C  27.75300 50.92900 22.18000
C  26.52500 51.90800 22.09400
C  26.27000 52.04100 23.61400
C  28.96600 51.13700 21.23000
C  25.26500 51.37100 21.28800
C  24.49100 50.09800 21.81700
N  25.45800 52.28400 26.44400
C  24.70100 52.74600 25.44500
C  23.44500 53.24500 25.95100
C  23.52200 53.06400 27.31200
C  24.75400 52.47400 27.57900
C  22.27500 53.57100 25.12700
C  22.73300 53.31000 28.45700
O  21.70700 53.91200 28.63300
C  23.66800 52.78500 29.59400
C  24.07600 53.87900 30.37500
O  24.92000 54.72900 30.08000
O  23.45300 53.86300 31.60300
C  23.89100 54.74500 32.67400
H  30.02400 49.98500 29.90300
H  29.94500 49.77800 23.40200
H  24.54500 53.19100 23.36200
H  26.20700 52.41400 31.46700
H  28.18500 50.10100 31.51800
H  29.14000 51.71600 32.68000
H  28.34700 53.05700 31.99700
H  29.68500 52.45100 31.08000
H  25.81900 49.35400 31.27200
H  24.49500 50.46800 31.11200
H  25.34600 49.25200 33.43200
H  24.16000 50.48900 33.35500
H  33.23700 49.67200 28.18000
H  32.50400 48.15800 28.39800
H  31.96100 49.52800 29.32600
H  33.94300 48.91800 26.14000
H  33.80500 47.71300 24.85800
H  32.93200 47.45700 26.46200
H  27.41800 49.94600 21.84700
H  26.83100 52.88700 21.72600
H  28.67700 51.82000 20.43200
H  29.26900 50.24500 20.68300
H  29.87600 51.50900 21.70200
H  25.62000 51.16600 20.27800
H  24.51600 52.13900 21.09300
H  24.47000 49.30100 21.07400
H  23.47600 50.34700 22.12600
H  24.90400 49.68100 22.73600
H  21.32800 53.49300 25.66100
H  22.24200 52.98800 24.20600
H  22.43800 54.57900 24.74600
H  23.21800 52.07000 30.28300
H  24.75900 55.34800 32.41100
H  24.20900 54.01600 33.42000
H  23.20500 55.35200 33.26500
Mg -1.20700 34.87000 27.47300
C  -2.89400 33.09800 29.95900
C  -0.05400 37.07500 29.81300
C  -0.12200 36.88100 24.97300
C  -2.52200 32.67300 25.06300
N  -1.57500 35.08900 29.71200
C  -2.17800 34.19500 30.52200
C  -2.06600 34.67000 32.00500
C  -1.30800 36.01300 31.82600
C  -0.87900 36.06000 30.38700
C  -2.12800 37.29400 32.31300
C  -1.32200 33.61900 32.91600
C  -1.92700 33.44700 34.31600
H  -0.97600 33.43300 35.46100
N  -0.07500 36.57800 27.43100
C  0.29500 37.32900 28.50200
C  1.10800 38.43300 28.04300
C  1.01400 38.51500 26.65100
C  0.30600 37.27100 26.28200
C  1.85300 39.36500 29.02400
C  1.70200 39.44300 25.62900
O  1.40300 39.44300 24.44400
C  2.96800 40.23700 25.98100
N  -1.27300 34.76400 25.35900
C  -0.82900 35.78000 24.49500
C  -1.34300 35.62600 23.10900
C  -1.77700 34.13900 23.16000
C  -1.89200 33.85000 24.60100
C  -2.56300 36.57400 22.87400
C  -0.98000 33.12900 22.31800
C  0.31700 32.55800 22.82800
N  -2.45900 33.27100 27.42600
C  -2.82400 32.40100 26.40700
C  -3.71900 31.41000 26.92200
C  -3.70400 31.51300 28.31900
C  -3.02000 32.74700 28.60100
C  -4.38500 30.35700 25.98800
C  -4.09300 30.94400 29.62200
O  -4.73100 29.89300 29.85100
C  -3.66800 31.95700 30.76900
C  -4.82400 32.41300 31.51000
O  -5.76600 33.09200 31.08500
O  -4.67800 31.99700 32.81100
C  -5.81500 32.42300 33.66200
H  0.30100 37.73100 30.61100
H  0.14700 37.59200 24.19000
H  -2.77900 31.98100 24.25900
H  -3.09800 34.77600 32.34000
H  -0.33600 36.04800 32.31800
H  -1.40900 37.99800 32.73200
H  -2.83400 37.05900 33.10900
H  -2.72400 37.72200 31.50700
H  -0.40300 34.14500 33.17400
H  -1.26900 32.68300 32.36000
H  -2.39200 32.46100 34.30400
H  -2.81500 34.07600 34.37500
H  2.93200 39.21700 29.07900
H  1.54400 39.08500 30.03100
H  1.58500 40.37100 28.70100
H  2.71500 40.90300 26.80500
H  3.32000 40.92300 25.21100
H  3.86500 39.71300 26.31300
H  -0.59800 35.85300 22.34700
H  -2.80800 34.01600 22.82600
H  -2.50000 37.42000 23.55900
H  -3.55300 36.11900 22.87900
H  -2.59600 37.03700 21.88800
H  -0.77300 33.55100 21.33400
H  -1.66300 32.29800 22.14300
H  0.76700 33.18700 23.59600
H  0.94000 32.47100 21.93800
H  0.06700 31.56300 23.19600
H  -4.50400 29.43600 26.55900
H  -3.76900 30.04300 25.14500
H  -5.32500 30.65800 25.52500
H  -2.93400 31.41500 31.36500
H  -6.58400 33.08200 33.26000
H  -5.37800 32.73200 34.61200
H  -6.33900 31.54300 34.03600

