158

Mg 25.80400 51.76600 26.16400
C  23.67200 52.75900 28.66100
C  28.21000 50.96900 28.70000
C  28.15200 51.28200 23.82100
C  23.61000 52.88500 23.82300
N  25.95900 51.90700 28.37600
C  24.87300 52.27100 29.16500
C  25.22000 52.03300 30.61300
C  26.64200 51.51500 30.67100
C  26.96800 51.46000 29.17000
C  27.69800 52.35600 31.50200
C  24.12400 51.12200 31.35800
C  23.39300 51.69800 32.65000
H  23.17900 50.80100 33.85900
N  27.87100 51.14800 26.21700
C  28.71000 50.91600 27.38100
C  29.98600 50.44700 26.87700
C  29.97600 50.43100 25.46200
C  28.66900 51.01600 25.10600
C  31.16300 49.98800 27.78400
C  31.10700 50.05400 24.47400
O  30.94100 50.24500 23.29300
C  32.40000 49.57000 24.87200
N  25.83700 52.01000 24.08800
C  26.88000 51.72300 23.31100
C  26.59800 51.86600 21.82200
C  25.05500 52.23700 21.90300
C  24.80100 52.36900 23.36300
C  27.58200 52.84800 21.16900
C  24.16800 51.39400 21.04100
C  23.28600 52.11400 19.95800
N  24.01400 52.64500 26.16700
C  23.23000 53.09200 25.15100
C  22.08000 53.80500 25.60300
C  22.13100 53.63300 27.03900
C  23.37800 52.96700 27.30800
C  21.03400 54.31100 24.76100
C  21.41800 53.83700 28.30700
O  20.31800 54.33100 28.56600
C  22.36700 53.13000 29.39200
C  22.64900 54.16600 30.38100
O  23.62100 54.94400 30.33300
O  21.80500 54.01900 31.47100
C  22.20900 54.98600 32.53500
H  28.97200 50.68600 29.42900
H  28.86600 51.13900 23.00700
H  22.80200 53.09900 23.12000
H  25.27000 53.02500 31.06100
H  26.55300 50.49400 31.04100
H  27.07400 53.12700 31.95400
H  28.38400 52.78400 30.77200
H  28.16300 51.72500 32.26000
H  24.60100 50.17100 31.59500
H  23.38400 50.94200 30.57800
H  22.38200 51.94600 32.32500
H  23.76700 52.68400 32.92700
H  31.51300 48.96300 27.66500
H  30.91100 50.15600 28.83100
H  31.99000 50.62400 27.46800
H  32.12500 48.84300 25.63600
H  32.88300 50.41200 25.36800
H  32.83600 49.12800 23.97600
H  26.76900 50.92500 21.29900
H  24.98100 53.24800 21.50200
H  28.37000 53.20300 21.83400
H  27.07600 53.74200 20.80500
H  27.90600 52.40000 20.22900
H  23.50700 50.86200 21.72500
H  24.82100 50.68800 20.52700
H  22.45700 52.71100 20.33800
H  22.87800 51.37400 19.26900
H  23.84900 52.88900 19.43800
H  20.60900 55.23500 25.15100
H  20.32300 53.48800 24.68600
H  21.42300 54.48100 23.75700
H  21.86900 52.30400 29.90000
H  22.96300 54.51300 33.16300
H  21.35400 55.16000 33.18800
H  22.47400 55.96700 32.14000
Mg -1.78300 34.51900 26.27500
C  -3.14600 32.56100 28.92700
C  -0.65700 36.73400 28.45100
C  -0.88600 36.19100 23.56100
C  -3.41800 32.07700 24.07700
N  -2.00500 34.59300 28.43500
C  -2.43800 33.71300 29.27900
C  -2.10500 34.24900 30.73100
C  -1.45500 35.60100 30.59000
C  -1.39500 35.70200 29.08400
C  -2.03800 36.80100 31.35900
C  -1.30300 33.10400 31.46800
C  -1.90400 32.50500 32.74500
H  -1.03500 32.43700 34.05200
N  -0.84100 36.20000 26.02800
C  -0.35300 36.95700 27.06000
C  0.49000 37.99200 26.54800
C  0.37900 37.89700 25.12900
C  -0.44300 36.67200 24.80400
C  1.25800 38.96500 27.52700
C  0.98400 38.75200 24.06000
O  0.70800 38.56700 22.86500
C  1.93600 39.83000 24.42900
N  -2.36000 34.23000 24.08300
C  -1.67600 35.05000 23.21600
C  -1.78400 34.60300 21.78600
C  -2.32300 33.08400 22.06700
C  -2.64000 33.09900 23.51600
C  -2.83600 35.35000 20.94200
C  -1.41100 31.86400 21.63100
C  -0.04900 31.87300 22.36200
N  -3.17000 32.75600 26.42500
C  -3.67300 31.84900 25.46100
C  -4.38800 30.77000 26.10400
C  -4.27200 31.04700 27.49100
C  -3.51600 32.23500 27.61700
C  -4.80900 29.53700 25.42600
C  -4.59200 30.49300 28.82100
O  -5.14200 29.46100 29.18300
C  -3.86600 31.52100 29.79400
C  -4.85700 32.13900 30.78300
O  -5.54800 33.07800 30.48100
O  -4.88300 31.50800 31.99800
C  -5.90200 31.98400 32.85500
H  -0.40700 37.52900 29.15600
H  -0.51600 36.69000 22.66300
H  -3.74300 31.38900 23.29400
H  -3.09800 34.36600 31.16500
H  -0.40500 35.60300 30.88200
H  -2.56300 37.45000 30.65700
H  -1.32300 37.39600 31.92800
H  -2.79300 36.54100 32.10100
H  -0.40200 33.51100 31.92800
H  -1.03600 32.33600 30.74100
H  -1.92400 31.43500 32.53400
H  -2.87900 32.96200 32.90900
H  0.92000 39.99600 27.42400
H  2.29700 38.80000 27.24200
H  1.30100 38.70100 28.58400
H  2.33400 40.40200 23.59000
H  2.72800 39.36300 25.01500
H  1.41700 40.50700 25.10700
H  -0.81800 34.62600 21.28000
H  -3.29300 32.88300 21.61200
H  -3.25900 36.16800 21.52500
H  -3.59500 34.68800 20.52400
H  -2.30100 35.70400 20.06100
H  -1.29600 31.94400 20.55000
H  -1.97400 30.95800 21.86000
H  -0.00100 32.66200 23.11300
H  0.78800 32.02100 21.68000
H  0.23000 30.94800 22.86700
H  -4.17400 29.37400 24.55600
H  -5.86400 29.60700 25.16300
H  -4.67600 28.66300 26.06500
H  -3.19300 31.01900 30.48800
H  -5.46400 32.61200 33.63100
H  -6.33900 31.06900 33.25600
H  -6.75600 32.48300 32.39700

