158

Mg 48.39600 25.58200 29.49700
C  49.89100 27.27600 32.20500
C  47.39600 23.14900 31.76200
C  47.52500 23.60800 26.94500
C  49.73500 27.81500 27.29800
N  48.63800 25.27300 31.68300
C  49.15800 26.17000 32.59700
C  48.85000 25.80800 33.99000
C  48.32600 24.30900 33.87100
C  48.04000 24.31100 32.35400
C  49.29300 23.12900 34.30500
C  47.86700 26.82000 34.68700
C  48.47300 27.60100 35.89600
H  47.46100 28.07400 36.98600
N  47.49900 23.74300 29.40200
C  47.05800 22.90800 30.39900
C  46.41400 21.81200 29.87400
C  46.35900 21.98500 28.46000
C  47.14400 23.21000 28.22300
C  45.90000 20.70300 30.72800
C  45.68900 21.10000 27.39500
O  45.73300 21.45600 26.24000
C  44.99700 19.76300 27.73500
N  48.41100 25.79700 27.39500
C  48.17700 24.78100 26.59800
C  48.54600 25.05400 25.08800
C  49.01700 26.51000 25.18600
C  48.99900 26.79600 26.70000
C  49.60200 24.09100 24.44600
C  48.22500 27.54600 24.30100
C  46.74300 27.56500 24.67000
N  49.51000 27.34400 29.65400
C  49.94400 28.11000 28.68300
C  50.70800 29.25000 29.26600
C  50.71500 28.95600 30.66100
C  49.97600 27.79000 30.82800
C  51.38000 30.36600 28.47900
C  51.19100 29.37900 31.97800
O  51.79300 30.38100 32.24300
C  50.60200 28.33100 33.02600
C  51.72900 27.85000 33.97200
O  52.73200 27.24200 33.55300
O  51.55300 28.40100 35.21200
C  52.62900 28.03200 36.19700
H  46.97900 22.37200 32.40600
H  47.51800 22.85400 26.15500
H  50.15100 28.55400 26.61000
H  49.73400 25.75400 34.62600
H  47.43700 24.07100 34.45500
H  49.81900 22.54600 33.54900
H  48.64600 22.36200 34.73000
H  50.02200 23.46400 35.04300
H  47.07400 26.16500 35.04800
H  47.35800 27.50300 34.00600
H  48.80700 28.55300 35.48100
H  49.31700 27.09800 36.36800
H  45.48900 21.01900 31.68700
H  46.61800 19.90300 30.90900
H  45.04600 20.27400 30.20200
H  45.70700 19.04800 28.15100
H  44.67100 19.36500 26.77400
H  44.13300 19.92300 28.37900
H  47.63700 25.02200 24.48800
H  50.03500 26.60100 24.80700
H  50.12200 24.65800 23.67400
H  49.07800 23.27000 23.95600
H  50.29100 23.65600 25.17000
H  48.32700 27.28700 23.24700
H  48.57100 28.56100 24.49400
H  46.52000 28.61000 24.45600
H  46.61800 27.48600 25.75000
H  46.10000 26.98600 24.00700
H  50.69900 31.11600 28.07700
H  52.11200 30.05600 27.73300
H  51.94000 30.76800 29.32300
H  49.90400 28.96700 33.57100
H  53.17900 28.95700 36.37100
H  53.38900 27.29300 35.94200
H  52.25500 27.89500 37.21200
Mg -2.36000 33.41000 25.81600
C  -4.04500 31.99800 28.60900
C  -0.59700 35.35700 28.03400
C  -0.74700 34.59700 23.19700
C  -4.35500 31.40300 23.71800
N  -2.51000 33.86700 28.07300
C  -3.11400 32.96800 29.00100
C  -2.71100 33.22800 30.40400
C  -1.73000 34.47600 30.27000
C  -1.64600 34.61400 28.69200
C  -2.07200 35.89400 30.96300
C  -1.99000 31.99100 31.09100
C  -1.79100 32.08400 32.59000
H  -2.93900 31.54400 33.50100
N  -0.95500 34.87900 25.63600
C  -0.33100 35.53500 26.65300
C  0.69300 36.38800 25.99400
C  0.60100 36.31000 24.62000
C  -0.43500 35.24900 24.41100
C  1.53000 37.35600 26.82200
C  1.28600 37.08700 23.52600
O  1.15200 36.78900 22.33400
C  2.26300 38.19800 23.87800
N  -2.69700 33.21200 23.75200
C  -1.74900 33.72600 22.85400
C  -1.96100 33.22100 21.44200
C  -2.92000 31.98000 21.68400
C  -3.38300 32.25500 23.10900
C  -2.60200 34.25000 20.51500
C  -2.37900 30.61600 21.61900
C  -3.22200 29.65300 20.82200
N  -3.81600 31.97200 26.04300
C  -4.55400 31.23500 25.08900
C  -5.32300 30.23300 25.76400
C  -5.18800 30.56000 27.07400
C  -4.24300 31.62300 27.24600
C  -6.31900 29.28600 25.14100
C  -5.68000 30.18000 28.43600
O  -6.52000 29.35400 28.82500
C  -5.06900 31.17100 29.39700
C  -6.13000 31.98700 30.06500
O  -6.97600 32.58900 29.48100
O  -6.10300 31.74900 31.45100
C  -7.14700 32.40300 32.24600
H  0.03800 35.94300 28.70100
H  -0.17600 34.94700 22.33500
H  -4.96700 30.71900 23.12700
H  -3.53100 33.65100 30.98400
H  -0.70200 34.28700 30.57900
H  -2.41900 36.52500 30.14400
H  -1.16700 36.37400 31.33500
H  -2.85600 36.02300 31.70900
H  -1.05400 31.80500 30.56500
H  -2.64400 31.13600 30.91900
H  -1.83500 33.16500 32.72400
H  -0.83900 31.70200 32.95700
H  2.57800 37.20200 26.56300
H  1.44700 37.21000 27.89900
H  1.39000 38.41600 26.61200
H  1.79900 39.03500 24.40100
H  2.71300 38.59100 22.96600
H  3.03900 37.79800 24.53000
H  -0.99300 32.89700 21.06000
H  -3.71300 32.04600 20.94000
H  -2.83700 35.10000 21.15600
H  -3.40000 33.86500 19.88000
H  -1.78300 34.54100 19.85800
H  -2.18000 30.17100 22.59400
H  -1.39000 30.59000 21.16000
H  -4.16600 30.09100 20.49900
H  -3.53100 28.80600 21.43400
H  -2.71400 29.23600 19.95200
H  -7.15300 29.86300 24.74200
H  -6.52800 28.61900 25.97700
H  -5.85100 28.85600 24.25500
H  -4.53200 30.54800 30.11100
H  -6.83900 32.60600 33.27200
H  -8.04000 31.77900 32.27200
H  -7.40300 33.37600 31.82700

