158

Mg 53.67100 23.99100 44.90800
C  51.07500 26.06800 43.75700
C  52.02100 21.18800 43.63400
C  56.58900 22.35300 45.00100
C  55.23600 26.90700 45.99000
N  51.71600 23.69600 43.91500
C  50.80500 24.67700 43.56300
C  49.50700 23.99700 43.11500
C  49.72100 22.44300 43.60400
C  51.25800 22.44700 43.62800
C  49.06000 22.08700 44.93700
C  49.43900 24.02300 41.56600
C  47.96500 24.10600 41.10600
H  47.67300 23.83100 39.66800
N  54.22500 22.00200 44.39100
C  53.36500 20.98700 43.97600
C  54.09600 19.73600 43.94900
C  55.47100 20.05000 44.17200
C  55.50200 21.56700 44.51100
C  53.43100 18.39100 43.65100
C  56.62500 19.05800 44.19400
O  56.46000 17.86200 43.99700
C  58.05100 19.39900 44.51000
N  55.56400 24.53900 45.36100
C  56.65300 23.68200 45.30200
C  57.96800 24.34000 45.75700
C  57.39300 25.78600 46.18100
C  55.92700 25.76800 45.79900
C  58.65900 23.57300 46.96300
C  58.10800 27.02400 45.52600
C  58.54000 28.18800 46.38400
N  53.31900 26.05900 44.92600
C  53.93900 27.13800 45.47400
C  53.22300 28.37300 45.36100
C  52.08900 27.98700 44.63400
C  52.15200 26.56900 44.41900
C  53.64500 29.74800 45.85600
C  50.80200 28.38200 44.13700
O  50.28400 29.46100 44.10000
C  50.05200 27.17400 43.56900
C  49.70900 27.49000 42.16300
O  50.53100 27.50900 41.23700
O  48.37700 27.83100 41.91000
C  47.92000 27.79400 40.50900
H  51.36100 20.38400 43.30300
H  57.51700 21.81400 45.20100
H  55.82700 27.77400 46.29400
H  48.57300 24.31800 43.57700
H  49.30700 21.77000 42.85300
H  48.71300 22.99100 45.43600
H  49.70500 21.64000 45.69400
H  48.22900 21.43800 44.66100
H  50.02900 23.23800 41.09200
H  49.91400 24.96400 41.29000
H  47.57800 25.08000 41.40500
H  47.38900 23.37600 41.67400
H  53.81100 17.95600 42.72600
H  52.35000 18.51700 43.70400
H  53.70300 17.75600 44.49300
H  58.26900 20.32000 43.97000
H  58.70900 18.58900 44.19700
H  58.02800 19.37000 45.60000
H  58.66200 24.43500 44.92200
H  57.45400 25.89700 47.26400
H  58.53100 24.03300 47.94300
H  59.70800 23.52500 46.67200
H  58.29200 22.56300 47.14500
H  57.52900 27.41800 44.69100
H  59.05700 26.65700 45.13500
H  57.95300 29.08400 46.18200
H  59.62000 28.31800 46.30800
H  58.36800 27.94600 47.43200
H  53.99400 30.35100 45.01800
H  54.42500 29.80700 46.61400
H  52.75900 30.26100 46.23000
H  49.17800 27.04900 44.20900
H  48.54200 27.12000 39.91900
H  47.74400 28.79900 40.12400
H  46.91600 27.39000 40.63200
Mg 47.34600 34.47400 26.89000
C  45.32400 33.06800 29.42300
C  47.58000 37.22700 28.66800
C  48.97700 35.80100 24.25500
C  46.72900 31.58400 24.92300
N  46.59300 34.99300 28.82000
C  45.85200 34.27300 29.74100
C  46.12700 34.88000 31.16700
C  46.44500 36.43100 30.84400
C  46.86600 36.24700 29.34000
C  45.38000 37.39900 31.19900
C  47.31200 34.20200 31.80500
C  47.67200 34.48100 33.25800
H  46.70100 35.21700 34.21400
N  48.15800 36.23500 26.46900
C  48.16900 37.27900 27.37600
C  48.91000 38.37200 26.83600
C  49.18200 38.00200 25.50800
C  48.75000 36.65500 25.37600
C  49.26500 39.63300 27.57900
C  49.72100 38.83400 24.29600
O  49.73800 38.34000 23.15600
C  50.07100 40.30100 24.39000
N  47.67200 33.83200 24.79000
C  48.37700 34.63700 23.93200
C  48.59900 34.02500 22.58200
C  48.10800 32.52900 22.88500
C  47.47400 32.60700 24.26600
C  47.95300 34.79000 21.41700
C  49.20000 31.44300 22.79800
C  48.82100 30.35200 21.75300
N  46.21800 32.71000 27.05200
C  46.14400 31.56500 26.19700
C  45.42300 30.48800 26.90400
C  44.99800 31.05400 28.09400
C  45.52400 32.42500 28.14500
C  45.15900 29.05000 26.42000
C  44.29700 30.83500 29.32800
O  43.72700 29.80200 29.70000
C  44.30000 32.16800 30.08800
C  44.53900 31.80200 31.53800
O  45.45800 31.12100 31.99500
O  43.59000 32.40600 32.29200
C  43.61800 32.13600 33.68200
H  47.62700 38.16300 29.22800
H  49.67600 36.10000 23.47100
H  46.60700 30.66100 24.35300
H  45.24300 34.75500 31.79200
H  47.28800 36.73700 31.46400
H  45.30500 38.12600 30.39000
H  45.61400 37.79200 32.18800
H  44.41900 36.88600 31.24400
H  48.17000 34.32100 31.14400
H  47.07900 33.13900 31.87300
H  48.46700 35.18600 33.01600
H  48.08600 33.57100 33.69300
H  50.32700 39.87800 27.57900
H  49.03000 39.59700 28.64200
H  48.72000 40.53600 27.30300
H  49.62500 40.75700 25.27400
H  49.43900 40.61600 23.55900
H  51.11800 40.50000 24.16100
H  49.66700 34.02400 22.36100
H  47.33100 32.27800 22.16200
H  48.67200 35.43200 20.90900
H  47.00500 35.31000 21.55700
H  47.82600 34.04100 20.63500
H  49.28200 30.91100 23.74600
H  50.12500 31.89700 22.44200
H  47.86100 30.47900 21.25400
H  48.72100 29.50300 22.42900
H  49.63000 30.12100 21.06000
H  45.82100 28.87100 25.57300
H  44.09400 28.94700 26.20900
H  45.30900 28.47500 27.33300
H  43.27900 32.54700 30.13300
H  42.68900 32.53800 34.08600
H  44.43500 32.70600 34.12500
H  43.81400 31.10100 33.96400

