158

Mg 5.78500 53.54800 42.00400
C  5.11100 50.04000 41.52800
C  8.69300 53.06500 40.57700
C  6.05900 56.70900 42.29900
C  2.32400 53.60800 43.29000
N  6.69200 51.70800 40.95100
C  6.31400 50.36800 40.96600
C  7.38900 49.41800 40.45200
C  8.58000 50.45900 40.39700
C  7.97800 51.83400 40.62500
C  9.71300 50.13800 41.33200
C  6.98700 48.80100 39.06500
C  6.08500 49.54200 38.05300
H  6.46500 49.52800 36.56000
N  7.18600 54.73600 41.41800
C  8.37800 54.39600 40.87300
C  9.08300 55.60700 40.51300
C  8.33200 56.70200 41.06700
C  7.12900 56.08200 41.58400
C  10.40100 55.67600 39.78900
C  8.75600 58.15100 40.89800
O  9.80900 58.48000 40.38700
C  7.86500 59.22100 41.33100
N  4.36200 54.92700 42.73200
C  4.82000 56.22700 42.87000
C  3.69900 57.16300 43.30900
C  2.44700 56.11900 43.50400
C  3.05200 54.79400 43.08700
C  4.09700 58.02200 44.59600
C  1.17200 56.56400 42.65700
C  0.10000 57.41400 43.30800
N  4.07700 52.14900 42.41200
C  2.86400 52.32300 42.98100
C  2.28000 51.04300 43.40000
C  3.12500 50.09900 42.83100
C  4.16300 50.83300 42.19400
C  0.93200 50.82000 44.08400
C  3.33700 48.70000 42.59400
O  2.64800 47.70200 42.96500
C  4.64200 48.54700 41.77300
C  4.20400 47.80600 40.58100
O  3.41100 48.15700 39.71500
O  4.82000 46.56600 40.61400
C  4.50800 45.58400 39.53600
H  9.72900 52.87600 40.28800
H  6.02500 57.79100 42.44100
H  1.30700 53.70600 43.67600
H  7.51000 48.74400 41.30000
H  8.93500 50.49700 39.36700
H  9.70000 49.05200 41.42800
H  9.65000 50.70000 42.26300
H  10.58400 50.24900 40.68600
H  6.53000 47.81400 39.14700
H  7.94800 48.64500 38.57500
H  6.00100 50.61400 38.23300
H  5.08900 49.10600 38.11700
H  10.52900 54.70600 39.31000
H  11.14200 55.96300 40.53500
H  10.56300 56.44100 39.02900
H  8.25500 60.22600 41.16800
H  7.72100 59.18900 42.41100
H  6.92100 59.14500 40.79200
H  3.46200 57.75800 42.42600
H  2.22500 56.08900 44.57100
H  5.18000 58.00700 44.71800
H  3.66900 57.56600 45.48900
H  3.77500 59.05900 44.50400
H  0.73400 55.61700 42.34100
H  1.44800 56.95700 41.67900
H  -0.27300 58.16000 42.60700
H  0.42800 57.97700 44.18200
H  -0.71400 56.75200 43.60500
H  0.54200 49.85400 43.76200
H  0.30500 51.61500 43.68100
H  0.90700 51.00400 45.15800
H  5.35300 47.92500 42.31700
H  5.49400 45.35700 39.13000
H  4.00300 45.95700 38.64500
H  4.11800 44.63300 39.90100
Mg -10.18200 39.05600 41.23400
C  -9.00000 35.81300 40.70500
C  -7.13300 40.13700 39.96900
C  -11.32700 42.20100 41.01600
C  -13.39300 37.81600 41.96400
N  -8.35500 38.02500 40.27000
C  -8.08900 36.71100 40.22600
C  -6.75700 36.55100 39.43000
C  -6.03500 37.89700 39.62000
C  -7.26500 38.74400 39.98000
C  -4.95300 37.92000 40.69100
C  -7.08300 36.12300 37.96200
C  -6.11700 35.12600 37.31300
H  -5.70400 35.71300 35.94500
N  -9.37300 40.94800 40.62300
C  -8.09100 41.18800 40.17600
C  -7.85800 42.55700 39.99200
C  -9.06700 43.14400 40.33000
C  -9.98900 42.10600 40.62800
C  -6.64200 43.17800 39.43200
C  -9.35300 44.68500 40.31800
O  -8.44600 45.50700 39.98600
C  -10.74100 45.29300 40.55400
N  -12.18100 39.93900 41.24400
C  -12.34500 41.28600 41.30800
C  -13.78200 41.63300 41.86500
C  -14.42400 40.16400 42.03200
C  -13.26500 39.19400 41.70700
C  -13.92200 42.52200 43.01100
C  -15.73500 39.84300 41.13400
C  -16.87900 39.24300 41.87200
N  -11.02000 37.24800 41.34300
C  -12.32700 36.88500 41.81800
C  -12.42300 35.44800 41.89200
C  -11.14100 34.96400 41.46400
C  -10.31700 36.12300 41.13300
C  -13.54800 34.55800 42.35300
C  -10.30500 33.82000 41.27900
O  -10.52000 32.64300 41.46400
C  -8.91900 34.30400 40.76300
C  -7.75100 33.80200 41.54600
O  -6.94600 32.98100 41.14500
O  -7.84500 34.16400 42.86900
C  -6.93400 33.64600 43.85500
H  -6.15700 40.43700 39.58200
H  -11.73300 43.19100 41.23300
H  -14.40800 37.52200 42.23500
H  -6.25200 35.71400 39.91300
H  -5.65700 38.17300 38.63600
H  -4.63500 36.92600 41.00700
H  -5.31200 38.45900 41.56800
H  -4.17600 38.47100 40.16100
H  -7.24000 37.02600 37.37200
H  -8.04400 35.61400 38.03100
H  -6.70600 34.22100 37.17000
H  -5.24100 34.87200 37.91000
H  -6.74800 43.26900 38.35100
H  -5.75700 42.54200 39.46700
H  -6.40800 44.14300 39.88100
H  -11.38500 44.98600 39.73000
H  -10.61100 46.37500 40.53500
H  -11.16700 44.95500 41.49900
H  -14.37400 42.16600 41.12200
H  -14.68900 40.09500 43.08700
H  -14.91000 42.51000 43.47200
H  -13.83800 43.58400 42.77700
H  -13.07600 42.26400 43.64800
H  -15.56800 39.17000 40.29300
H  -16.18000 40.74800 40.72000
H  -17.70800 39.93400 42.02900
H  -16.52800 38.97400 42.86800
H  -17.34400 38.39300 41.37300
H  -13.26000 33.62900 42.84400
H  -13.93600 34.13100 41.42800
H  -14.21500 35.11200 43.01300
H  -8.78300 33.90100 39.76000
H  -6.23400 32.87600 43.53200
H  -7.45800 33.25200 44.72600
H  -6.40000 34.51800 44.23300

