158

Mg 47.37800 44.41600 44.03100
C  43.96600 43.90500 43.65600
C  47.73600 41.09200 42.86500
C  50.72000 44.86400 43.71000
C  46.85700 47.82000 44.27000
N  46.02000 42.63400 43.65300
C  44.70500 42.74600 43.37600
C  44.08800 41.53900 42.65000
C  45.27700 40.56700 42.77900
C  46.45400 41.46500 43.14900
C  45.17700 39.39300 43.78100
C  43.51600 41.88700 41.18700
C  42.09100 41.36800 40.89700
H  41.84100 40.95300 39.49500
N  49.01700 43.09100 43.56900
C  48.94900 41.80600 43.15200
C  50.28100 41.36200 42.80700
C  51.16800 42.37800 43.21900
C  50.31600 43.54800 43.53800
C  50.59200 39.94000 42.31600
C  52.64600 42.18700 43.28100
O  53.20800 41.14000 42.93900
C  53.63500 43.26500 43.67600
N  48.61000 46.13900 43.84500
C  49.99500 46.02300 43.87900
C  50.65500 47.40200 43.98400
C  49.39200 48.40900 44.07700
C  48.21700 47.44400 44.05700
C  51.66100 47.54200 45.21100
C  49.40800 49.51500 42.96200
C  49.17100 50.96200 43.42100
N  45.76700 45.61400 43.99100
C  45.71100 47.02400 44.23900
C  44.29300 47.37800 44.27400
C  43.57900 46.14000 44.06800
C  44.54400 45.15100 43.92300
C  43.67600 48.78000 44.42800
C  42.29000 45.59600 43.90100
O  41.18300 46.13500 43.84700
C  42.49400 44.07400 43.56300
C  41.74900 43.21000 44.50800
O  40.83200 42.47000 44.17900
O  42.33400 43.30700 45.74200
C  41.53800 42.60900 46.75000
H  47.96800 40.07600 42.53800
H  51.78000 45.04600 43.52200
H  46.67700 48.89700 44.31000
H  43.25100 41.14200 43.22400
H  45.50600 40.26700 41.75600
H  44.14400 39.30500 44.11900
H  45.71500 39.68500 44.68300
H  45.66300 38.50000 43.38800
H  44.23500 41.59200 40.42300
H  43.46900 42.96800 41.05500
H  41.32900 42.13200 41.05000
H  41.88000 40.51900 41.54800
H  49.78600 39.39000 41.82900
H  50.83200 39.40300 43.23300
H  51.55600 39.82900 41.81900
H  53.53000 44.00500 42.88200
H  54.61600 42.80100 43.57100
H  53.45100 43.57600 44.70500
H  51.27400 47.57000 43.10300
H  49.22000 48.84300 45.06200
H  51.48500 46.78300 45.97300
H  51.65000 48.54500 45.63700
H  52.66300 47.40200 44.80600
H  48.73800 49.21000 42.15700
H  50.36600 49.47700 42.44500
H  48.13900 51.26800 43.25000
H  49.80000 51.55900 42.76100
H  49.52700 51.27500 44.40200
H  44.23500 49.58500 44.90500
H  42.74400 48.73900 44.99300
H  43.40100 49.01200 43.40000
H  42.14300 43.96000 42.53700
H  41.54800 41.53100 46.58600
H  40.52300 43.00400 46.78700
H  41.98000 42.84700 47.71800
Mg -9.03500 41.15900 42.46100
C  -8.39400 37.84600 41.59800
C  -6.34400 42.22800 40.83900
C  -10.47800 44.26900 42.47600
C  -12.19400 39.91900 43.84800
N  -7.63300 40.18300 41.20200
C  -7.49100 38.76100 41.09600
C  -6.21600 38.53800 40.29100
C  -5.41600 39.85600 40.56100
C  -6.53700 40.82100 40.85800
C  -4.34500 39.88900 41.69200
C  -6.60900 38.23700 38.76400
C  -6.04400 36.89800 38.20400
H  -5.07300 37.08700 37.05900
N  -8.39600 42.97800 41.86500
C  -7.24100 43.22900 41.14100
C  -7.20700 44.64200 40.75800
C  -8.31200 45.27700 41.38700
C  -9.15400 44.19000 41.91200
C  -6.13300 45.34500 39.85000
C  -8.61100 46.79500 41.31200
O  -7.90900 47.55600 40.57800
C  -9.69700 47.38300 42.00700
N  -11.10500 41.94100 42.95100
C  -11.28300 43.29600 42.96000
C  -12.59100 43.65000 43.69000
C  -13.17800 42.29400 44.17900
C  -12.09200 41.28100 43.62000
C  -12.35500 44.78600 44.72600
C  -14.63100 42.11200 43.53300
C  -15.60700 42.76100 44.44100
N  -10.01400 39.35000 42.87700
C  -11.25600 38.99700 43.45100
C  -11.30400 37.52400 43.62800
C  -10.25200 37.11900 42.87500
C  -9.56300 38.20300 42.34900
C  -12.46400 36.68500 44.24900
C  -9.69700 35.87700 42.28700
O  -9.98200 34.71000 42.35200
C  -8.49200 36.36500 41.39900
C  -7.26300 35.66500 41.88300
O  -6.66500 35.91700 42.86800
O  -6.99400 34.62200 41.07200
C  -6.05900 33.52100 41.52100
H  -5.31500 42.53400 40.63900
H  -11.04300 45.19400 42.34200
H  -13.05900 39.48700 44.35500
H  -5.63800 37.75800 40.78700
H  -4.90000 40.08200 39.62800
H  -4.56700 40.79300 42.26000
H  -3.33300 39.94600 41.29000
H  -4.56100 38.98300 42.25700
H  -6.27500 39.11100 38.20400
H  -7.68000 38.34700 38.59600
H  -6.97800 36.42800 37.89500
H  -5.60400 36.31400 39.01200
H  -6.52900 45.84700 38.96700
H  -5.38600 44.58800 39.61500
H  -5.59400 46.02000 40.51600
H  -9.61000 48.46400 42.11700
H  -9.60800 46.99200 43.02100
H  -10.63300 47.07400 41.54200
H  -13.24800 44.14700 42.97600
H  -13.30300 42.19100 45.25700
H  -11.38300 45.27300 44.65200
H  -12.38900 44.27900 45.69000
H  -13.19100 45.48400 44.67000
H  -14.63100 41.02200 43.54300
H  -14.69000 42.49000 42.51300
H  -16.46800 43.07400 43.85000
H  -15.15700 43.53300 45.06500
H  -15.88300 41.96900 45.13600
H  -12.06400 35.73500 44.60200
H  -13.18100 36.29000 43.52900
H  -12.98600 37.30000 44.98200
H  -8.72000 36.00200 40.39600
H  -6.70700 32.80300 42.02300
H  -5.33700 33.90800 42.24000
H  -5.43300 33.04700 40.76500

