158

Mg 35.98000 2.51100 29.39800
C  33.59500 3.04200 31.82800
C  38.35800 2.67300 31.69700
C  38.19000 1.81200 26.92200
C  33.38800 2.63900 27.00600
N  35.86900 2.91100 31.57400
C  34.84400 3.02100 32.36800
C  35.18000 3.10200 33.87200
C  36.75800 3.31400 33.72200
C  37.07000 2.88500 32.23800
C  37.16200 4.77000 34.07000
C  34.73600 1.75200 34.51100
C  34.52600 1.76600 36.05100
H  35.06000 3.00600 36.77400
N  37.96700 2.22700 29.34800
C  38.80200 2.32500 30.41400
C  40.17200 2.06900 30.00500
C  40.12700 1.82600 28.53800
C  38.68900 1.98400 28.22100
C  41.30600 2.01300 30.96000
C  41.34300 1.45000 27.60700
O  41.19000 1.01700 26.45400
C  42.72500 1.51600 28.11800
N  35.83500 2.24200 27.28700
C  36.83700 1.85700 26.51000
C  36.37000 1.69000 25.04900
C  34.84500 1.56800 25.19300
C  34.61800 2.25300 26.53300
C  36.82800 2.82100 24.11400
C  34.13800 0.15200 25.04300
C  32.91000 -0.02700 24.10700
N  33.95700 2.95000 29.32500
C  33.03100 2.98700 28.27900
C  31.71400 3.26900 28.80000
C  31.85600 3.23200 30.19900
C  33.27200 3.05000 30.44500
C  30.54600 3.34800 28.00400
C  31.19800 3.46500 31.45600
O  30.02700 3.72400 31.79700
C  32.26200 3.16700 32.50700
C  32.16000 4.40900 33.39900
O  32.70100 5.44100 33.20300
O  31.48000 4.09900 34.58000
C  31.32900 5.13200 35.61200
H  39.12400 2.73900 32.47200
H  38.99300 1.45000 26.27600
H  32.51500 2.58400 26.35200
H  34.78100 3.99400 34.35500
H  37.17500 2.56300 34.39300
H  36.42500 5.11100 34.79700
H  37.09700 5.41100 33.19000
H  38.09100 4.77100 34.64100
H  35.37600 0.91600 34.23000
H  33.69900 1.55400 34.24000
H  34.97600 0.88700 36.51400
H  33.43700 1.76100 36.07900
H  40.85000 1.72900 31.90900
H  41.61200 3.05500 31.04500
H  42.08300 1.27100 30.77400
H  42.64100 2.43100 28.70500
H  43.32600 1.85800 27.27600
H  43.03300 0.54700 28.51100
H  36.69900 0.67900 24.81200
H  34.28900 2.17000 24.47400
H  36.28300 3.75000 24.28100
H  36.73000 2.57500 23.05700
H  37.89400 2.98600 24.27000
H  33.75400 -0.14100 26.02000
H  34.91200 -0.57900 24.80600
H  32.89900 0.88700 23.51400
H  32.03700 -0.21300 24.73200
H  33.14500 -0.81400 23.39100
H  30.66000 2.94600 26.99700
H  30.25100 4.38500 27.83900
H  29.70700 2.90800 28.54200
H  31.97600 2.27700 33.06700
H  31.32900 4.58600 36.55500
H  30.37100 5.63600 35.48200
H  32.17700 5.81100 35.69900
Mg -5.23700 24.99100 25.79600
C  -3.53600 26.41800 28.49100
C  -6.49700 22.61900 27.93900
C  -6.28900 23.19200 23.10300
C  -3.12300 26.89000 23.57400
N  -4.83500 24.41000 28.02400
C  -4.25600 25.21700 28.89900
C  -4.61700 24.87500 30.34500
C  -5.39400 23.50900 30.12100
C  -5.62900 23.49600 28.59200
C  -4.54900 22.31000 30.53500
C  -5.54800 25.97200 31.02500
C  -5.47100 26.08300 32.55700
H  -4.88800 24.91700 33.41200
N  -6.35300 23.29500 25.53300
C  -6.80100 22.46900 26.57100
C  -7.71500 21.55600 26.01100
C  -7.66900 21.65900 24.59900
C  -6.72400 22.78000 24.37900
C  -8.57500 20.59700 26.84400
C  -8.33500 20.80300 23.44000
O  -8.27700 21.24300 22.33500
C  -9.27700 19.52600 23.69700
N  -4.70900 25.00200 23.61500
C  -5.38600 24.18700 22.70900
C  -4.93400 24.47400 21.25300
C  -3.98200 25.71900 21.42400
C  -3.92000 25.91500 22.94600
C  -4.29500 23.15800 20.70600
C  -4.57900 27.04800 20.78200
C  -3.60700 28.20500 20.37700
N  -3.81400 26.49600 25.93400
C  -3.02400 27.14400 25.00300
C  -2.22800 28.17100 25.69800
C  -2.44800 27.95400 27.07700
C  -3.30900 26.89100 27.16600
C  -1.41400 29.28100 25.09700
C  -1.97200 28.34800 28.41500
O  -1.15300 29.15500 28.86600
C  -2.78700 27.41300 29.45300
C  -1.76500 26.69500 30.29900
O  -0.89300 25.90400 29.95100
O  -2.04600 27.09600 31.55900
C  -0.98600 26.64000 32.51200
H  -7.08300 22.09800 28.69900
H  -6.65800 22.76900 22.16600
H  -2.59700 27.66100 23.00600
H  -3.66600 24.82600 30.87400
H  -6.37500 23.48400 30.59400
H  -5.11300 21.66400 31.20700
H  -3.60900 22.61300 30.99700
H  -4.26100 21.64200 29.72300
H  -6.58600 25.76700 30.76600
H  -5.32300 26.95600 30.61400
H  -6.39700 26.43800 33.00900
H  -4.83300 26.94800 32.73600
H  -9.58300 21.00000 26.74500
H  -8.41000 20.52000 27.91900
H  -8.61000 19.59500 26.41700
H  -9.46600 19.17500 22.68300
H  -10.25500 19.86400 24.03900
H  -8.73800 18.84400 24.35600
H  -5.83700 24.71900 20.69200
H  -3.01800 25.48600 20.97000
H  -4.26300 22.41900 21.50600
H  -3.29400 23.38800 20.34200
H  -4.89100 22.68200 19.92700
H  -5.27200 27.58000 21.43400
H  -5.18300 26.68700 19.95000
H  -4.03200 28.49100 19.41500
H  -2.59400 27.80600 20.31900
H  -3.70300 29.02500 21.08900
H  -1.57800 30.20200 25.65700
H  -1.67200 29.53300 24.06900
H  -0.34000 29.09400 25.08300
H  -3.40600 28.15500 29.95600
H  -0.36300 27.46700 32.85200
H  -0.33800 25.80800 32.23500
H  -1.51500 26.21900 33.36700

