158

Mg 35.23500 1.44300 28.80500
C  33.09900 2.34800 31.44200
C  37.73000 1.02200 31.09500
C  37.12600 0.58900 26.26500
C  32.44200 1.63600 26.66900
N  35.29000 1.57400 31.09100
C  34.36300 2.07500 31.91000
C  34.86700 2.01200 33.38400
C  36.46700 1.79200 33.10400
C  36.49200 1.38700 31.69200
C  37.35100 3.13000 33.26300
C  34.11100 0.98900 34.31900
C  33.66200 1.63000 35.62900
H  34.65500 2.48600 36.51700
N  37.14300 0.86300 28.67700
C  38.07400 0.73200 29.69100
C  39.35400 0.43000 29.15400
C  39.17600 0.26400 27.72000
C  37.77500 0.57900 27.49900
C  40.64300 0.29100 29.99100
C  40.18100 -0.20100 26.68500
O  39.87200 -0.41900 25.48000
C  41.59100 -0.35500 27.04100
N  34.73900 0.94800 26.74800
C  35.77400 0.83000 25.91100
C  35.27300 0.81900 24.41300
C  33.74900 1.12900 24.57400
C  33.63500 1.19100 26.10200
C  36.02300 1.84300 23.44100
C  32.79600 0.05900 23.94100
C  31.94600 0.49600 22.74500
N  33.26200 2.01700 28.92900
C  32.27300 1.98400 28.02400
C  30.91700 2.28200 28.61300
C  31.25600 2.36600 29.96500
C  32.63200 2.24500 30.12600
C  29.70600 2.35200 27.84400
C  30.72800 2.64900 31.23200
O  29.61500 2.86900 31.52700
C  31.88400 2.72500 32.22400
C  31.92000 4.02400 32.97100
O  32.58500 4.96600 32.67000
O  31.04800 3.98900 34.09900
C  31.15200 5.12300 35.03100
H  38.52800 0.75000 31.78900
H  37.76700 0.41600 25.39700
H  31.51900 1.73500 26.09400
H  34.76500 3.02400 33.77600
H  36.76500 0.94000 33.71600
H  37.82800 3.44700 32.33600
H  38.16100 2.96400 33.97400
H  36.64500 3.89700 33.58300
H  34.77500 0.16300 34.57100
H  33.31000 0.64900 33.66200
H  33.30400 0.78400 36.21600
H  32.82700 2.28700 35.38800
H  41.45800 0.89500 29.59400
H  40.99600 -0.73400 30.10400
H  40.42500 0.56600 31.02300
H  41.52400 -0.99100 27.92300
H  42.00900 0.60400 27.34700
H  42.23200 -0.79200 26.27600
H  35.44100 -0.22700 24.15800
H  33.64700 2.12700 24.14800
H  35.40900 2.14400 22.59200
H  36.99500 1.52500 23.06400
H  36.24800 2.76900 23.97000
H  32.11100 -0.25500 24.72900
H  33.32400 -0.82800 23.59000
H  30.87100 0.58300 22.90500
H  32.07500 -0.14500 21.87200
H  32.35000 1.43500 22.36700
H  28.77600 2.13800 28.37100
H  29.66400 1.76000 26.93000
H  29.61200 3.32900 27.36900
H  31.59500 1.97300 32.95800
H  32.00200 4.96300 35.69400
H  30.24800 5.25300 35.62700
H  31.39700 5.97300 34.39400
Mg -10.19800 40.17500 42.80300
C  -9.39200 36.70200 42.19700
C  -7.14700 40.99200 41.09800
C  -11.16400 43.26800 42.49900
C  -13.47000 39.10500 43.66600
N  -8.56300 38.93900 41.70100
C  -8.47400 37.55400 41.71600
C  -7.15500 37.14100 41.15800
C  -6.33000 38.51000 41.09200
C  -7.43000 39.56400 41.27700
C  -5.34800 38.58600 42.28600
C  -7.30000 36.29700 39.87400
C  -6.15400 35.32800 39.55000
H  -5.04700 35.89700 38.52600
N  -9.25300 41.94500 42.01900
C  -8.07300 42.04900 41.42100
C  -7.77800 43.47500 41.18700
C  -8.95700 44.19300 41.39000
C  -9.86500 43.12000 41.95500
C  -6.49600 43.96700 40.50000
C  -9.14000 45.73000 41.22700
O  -8.24400 46.41800 40.75200
C  -10.39000 46.52500 41.57300
N  -12.08500 41.04200 42.97100
C  -12.15700 42.43000 43.01100
C  -13.58800 42.83200 43.49100
C  -14.30200 41.53500 43.91100
C  -13.26900 40.46300 43.42900
C  -13.65500 43.99000 44.56300
C  -15.72900 41.38200 43.15400
C  -16.73400 42.48600 43.38500
N  -11.28400 38.33000 43.01900
C  -12.53300 38.06600 43.36700
C  -12.82300 36.62800 43.39200
C  -11.60300 36.06800 42.94600
C  -10.73600 37.13700 42.69900
C  -14.16800 35.91400 43.55000
C  -10.92400 34.84000 42.58800
O  -11.30900 33.71700 42.67300
C  -9.39700 35.20200 42.27700
C  -8.51900 34.58200 43.38200
O  -9.03700 34.33900 44.45000
O  -7.23400 34.42100 43.05000
C  -6.35300 33.73100 44.00900
H  -6.21400 41.21300 40.57600
H  -11.54400 44.28300 42.36100
H  -14.38900 38.75400 44.13800
H  -6.88400 36.43500 41.94200
H  -5.78900 38.59100 40.15000
H  -5.55300 37.81300 43.02700
H  -5.48800 39.53700 42.79900
H  -4.31100 38.58700 41.95200
H  -7.28700 37.06900 39.10500
H  -8.23800 35.74500 39.82000
H  -6.60900 34.43700 39.11700
H  -5.64100 35.15200 40.49500
H  -6.79600 44.36200 39.52900
H  -5.75600 43.18300 40.33700
H  -5.90300 44.70700 41.03800
H  -10.31500 47.53300 41.16400
H  -10.57400 46.51700 42.64700
H  -11.28700 46.02500 41.20800
H  -14.00800 43.09500 42.52000
H  -14.38500 41.47600 44.99600
H  -12.73800 44.57500 44.48600
H  -13.76600 43.64700 45.59100
H  -14.48000 44.64600 44.28200
H  -16.16600 40.51900 43.65400
H  -15.72600 41.15900 42.08700
H  -17.78600 42.20300 43.41000
H  -16.55000 43.34300 42.73700
H  -16.57300 42.82500 44.40800
H  -14.18200 34.93300 43.07600
H  -14.82500 36.60800 43.02600
H  -14.49100 35.97800 44.58900
H  -9.15800 34.69700 41.34100
H  -6.62300 32.67600 44.06000
H  -6.49500 34.14500 45.00700
H  -5.34800 33.79400 43.59200

