158

Mg 47.46500 24.85300 27.74900
C  48.09300 27.26400 30.16300
C  46.65400 22.76900 30.36400
C  46.47400 22.59100 25.55600
C  48.67900 26.98100 25.24700
N  47.22300 25.07600 29.99800
C  47.51500 26.17500 30.74600
C  47.26500 25.96500 32.26700
C  47.05100 24.41500 32.32900
C  47.07900 24.04800 30.81700
C  48.07200 23.56400 33.19100
C  46.18100 26.91000 33.02300
C  45.48200 26.40000 34.31000
H  45.55400 27.37900 35.45300
N  46.81300 22.91600 27.95700
C  46.54100 22.14000 29.09400
C  46.10100 20.76800 28.80400
C  45.89900 20.84000 27.38000
C  46.44300 22.11400 26.90000
C  45.79000 19.67900 29.82600
C  45.24800 19.70100 26.49800
O  45.15700 19.82000 25.26200
C  44.60600 18.54000 27.16800
N  47.67900 24.73800 25.67900
C  47.02000 23.79500 24.99600
C  47.33700 24.02600 23.51800
C  47.83400 25.46800 23.46600
C  48.07700 25.76400 24.86400
C  48.19400 22.96900 22.74500
C  46.91900 26.50900 22.63500
C  47.64900 27.30500 21.58100
N  48.38000 26.64300 27.71300
C  48.81600 27.42500 26.59600
C  49.35900 28.70800 27.05900
C  49.04900 28.68600 28.48400
C  48.45800 27.44800 28.77400
C  50.23400 29.77400 26.24400
C  49.26200 29.43900 29.73000
O  49.90900 30.40200 29.98500
C  48.52900 28.53300 30.91300
C  49.51600 28.22500 32.01900
O  50.56100 27.67400 31.93000
O  49.07800 28.89600 33.08700
C  49.72600 28.60200 34.37000
H  46.49300 22.15500 31.25300
H  46.15800 21.99700 24.69600
H  48.99500 27.74200 24.53100
H  48.18200 26.16200 32.82300
H  46.05000 24.29900 32.74600
H  47.56700 22.96400 33.94900
H  48.82100 24.23400 33.61200
H  48.56200 22.88500 32.49300
H  45.39600 27.15000 32.30600
H  46.64600 27.85200 33.31300
H  46.00200 25.49300 34.61700
H  44.46500 26.13400 34.02000
H  46.35600 18.75300 29.72100
H  44.71100 19.52100 29.83800
H  45.86500 20.12500 30.81700
H  43.80400 18.84700 27.83900
H  45.40700 18.09400 27.75700
H  44.27500 17.83300 26.40700
H  46.29500 24.02000 23.19700
H  48.85000 25.48000 23.07000
H  48.70600 22.26500 23.40000
H  48.89500 23.43300 22.05100
H  47.63200 22.38200 22.01900
H  46.45500 27.28100 23.24900
H  46.12900 25.88100 22.22300
H  47.72900 26.80600 20.61500
H  48.66200 27.40400 21.96900
H  47.09800 28.24500 21.56100
H  49.83300 29.97200 25.25000
H  51.23100 29.35500 26.10500
H  50.24500 30.62600 26.92400
H  47.75100 29.21100 31.26400
H  49.37500 27.64100 34.74500
H  49.56200 29.42400 35.06700
H  50.79900 28.45100 34.25500
Mg -2.25000 34.99900 27.14400
C  -3.76900 33.41500 29.87100
C  -1.05100 37.34300 29.43500
C  -0.98200 36.71900 24.56700
C  -3.78000 32.81500 25.01400
N  -2.53200 35.46600 29.39000
C  -3.14100 34.57300 30.25700
C  -2.85300 34.96800 31.76800
C  -2.22700 36.38900 31.60500
C  -1.85800 36.41300 30.09100
C  -3.06600 37.59500 31.99200
C  -1.93300 33.86800 32.52800
C  -2.45400 33.18900 33.74800
H  -1.65100 33.17700 35.05600
N  -1.09900 36.72000 26.96000
C  -0.71600 37.52900 28.01900
C  0.11000 38.60500 27.53000
C  0.10600 38.49600 26.13500
C  -0.69200 37.25300 25.81000
C  0.94100 39.45800 28.43600
C  0.84700 39.32900 25.00600
O  0.69500 39.15200 23.79900
C  1.74600 40.44200 25.47800
N  -2.19300 34.70100 25.13400
C  -1.72200 35.58500 24.20100
C  -1.93800 35.20100 22.69600
C  -2.74700 33.88600 22.98200
C  -2.96300 33.76300 24.48900
C  -2.80000 36.23700 21.79400
C  -2.20300 32.56600 22.32400
C  -0.98700 31.91100 23.03600
N  -3.43300 33.37800 27.31600
C  -3.98100 32.57200 26.39200
C  -4.83900 31.61000 27.03700
C  -4.65000 31.77300 28.37400
C  -3.86700 32.93300 28.52000
C  -5.55200 30.57000 26.33900
C  -4.87400 31.23000 29.68800
O  -5.45100 30.16800 29.95800
C  -4.38800 32.27500 30.78200
C  -5.57000 32.74500 31.50300
O  -6.21700 33.72100 31.22200
O  -5.94300 31.87200 32.42000
C  -6.88900 32.47700 33.33400
H  -0.65900 38.04700 30.17200
H  -0.51300 37.12300 23.66700
H  -4.21700 32.14600 24.27000
H  -3.80400 35.07000 32.29200
H  -1.32600 36.31300 32.21400
H  -2.72200 37.81000 33.00400
H  -4.12900 37.35700 31.94400
H  -2.88800 38.44700 31.33500
H  -0.96100 34.26300 32.82300
H  -1.64300 33.06900 31.84600
H  -2.60800 32.16300 33.41200
H  -3.45000 33.60100 33.90800
H  0.90600 40.49800 28.11200
H  1.98100 39.18100 28.26600
H  0.64900 39.30000 29.47500
H  2.37400 40.04200 26.27300
H  1.07200 41.21900 25.83900
H  2.28200 40.77400 24.58900
H  -1.08400 34.80500 22.14700
H  -3.69200 34.07300 22.47200
H  -2.31900 37.21000 21.89600
H  -3.86500 36.30100 22.01700
H  -2.61200 35.95200 20.75900
H  -2.00300 32.74800 21.26800
H  -2.99800 31.82000 22.36000
H  -1.41900 30.92200 23.19300
H  -0.70900 32.56200 23.86500
H  -0.14100 31.88900 22.34900
H  -5.62800 29.74700 27.04900
H  -4.98600 30.38200 25.42600
H  -6.50700 31.04300 26.10800
H  -3.64200 31.91500 31.49100
H  -6.39300 33.19700 33.98500
H  -7.02100 31.69200 34.07800
H  -7.84900 32.77000 32.90800

