158

Mg 35.59200 1.53000 30.06500
C  33.54100 2.93000 32.64600
C  38.25800 2.03200 32.35300
C  37.73900 0.92300 27.56100
C  32.94900 1.93500 27.89500
N  35.80400 2.12400 32.33700
C  34.80300 2.57600 33.14500
C  35.29300 2.64700 34.60500
C  36.85400 2.74600 34.39200
C  37.02000 2.28000 32.89600
C  37.47400 4.11700 34.70400
C  34.71700 1.53600 35.53500
C  34.75900 1.79200 37.07300
H  35.47700 3.04300 37.47900
N  37.67400 1.28300 30.01400
C  38.56300 1.61400 30.95900
C  39.88000 1.42200 30.37500
C  39.79500 1.07500 28.99900
C  38.33900 1.10100 28.78100
C  41.15600 1.50800 31.11100
C  40.86700 0.94600 27.91100
O  40.52600 0.46800 26.80700
C  42.39000 1.19100 28.04300
N  35.35500 1.35200 28.07500
C  36.38700 0.97600 27.18700
C  35.87700 0.81900 25.71700
C  34.30300 0.95300 25.92200
C  34.14800 1.44900 27.41300
C  36.54700 1.92800 24.89700
C  33.46800 -0.37200 25.71200
C  32.35800 -0.29500 24.71500
N  33.65700 2.22500 30.20300
C  32.64900 2.32400 29.21700
C  31.42400 2.84200 29.72800
C  31.72100 3.17400 31.09800
C  33.06300 2.80900 31.28700
C  30.20700 3.24900 28.97000
C  31.18200 3.64900 32.35600
O  30.13700 4.19900 32.56200
C  32.34100 3.46700 33.41300
C  32.64500 4.75100 34.09600
O  33.13800 5.66000 33.46600
O  32.36600 4.84700 35.41700
C  32.69200 6.14700 36.06300
H  39.12800 2.33700 32.94000
H  38.29300 0.83800 26.62400
H  32.08000 1.96100 27.23400
H  34.86500 3.60000 34.91800
H  37.36500 2.06900 35.07700
H  37.49900 4.61900 33.73700
H  38.52800 3.93200 34.91000
H  36.86000 4.65500 35.42700
H  35.34900 0.66700 35.35000
H  33.72000 1.36900 35.12700
H  35.18100 0.90200 37.53900
H  33.73600 1.83700 37.44900
H  41.61200 0.52600 30.98700
H  41.02500 1.78700 32.15700
H  41.80000 2.20400 30.57200
H  42.86600 0.90100 27.10700
H  42.79700 0.72100 28.93800
H  42.51800 2.26700 27.92400
H  36.13500 -0.16200 25.32000
H  33.89200 1.69900 25.24200
H  36.75000 2.81900 25.49200
H  35.86700 2.28300 24.12300
H  37.47300 1.65000 24.39500
H  33.01100 -0.72500 26.63700
H  34.23200 -1.11000 25.46800
H  32.08400 0.73500 24.48700
H  31.41300 -0.67400 25.10500
H  32.51400 -0.78100 23.75200
H  29.53300 2.40500 28.82600
H  30.48600 3.72400 28.03000
H  29.70800 4.05100 29.51500
H  31.86800 2.82800 34.15800
H  31.78200 6.71100 36.27100
H  33.48200 6.58500 35.45500
H  33.15600 5.80500 36.98800
Mg 49.50100 44.16900 42.94200
C  46.06300 44.52200 41.80300
C  49.32400 40.85200 42.10000
C  52.88700 43.99400 42.82400
C  49.60300 47.63000 43.16100
N  47.88100 42.90900 42.00200
C  46.58700 43.24900 41.70500
C  45.89000 42.10800 41.00600
C  46.78000 40.89100 41.38500
C  48.09600 41.55600 41.87900
C  46.14000 39.95700 42.51700
C  45.76900 42.47900 39.50300
C  44.57400 41.94900 38.80000
H  44.78800 41.32000 37.37800
N  50.88300 42.57400 42.68900
C  50.67300 41.29700 42.34400
C  51.84400 40.50600 42.41900
C  52.90500 41.47900 42.69000
C  52.25000 42.78600 42.69000
C  51.99000 38.97600 42.19500
C  54.38600 41.11400 42.82200
O  54.76300 39.95800 42.69300
C  55.49000 42.02800 43.20400
N  51.00600 45.54000 42.99700
C  52.38000 45.27500 43.05300
C  53.27000 46.54500 43.17800
C  52.20200 47.62700 43.35100
C  50.85200 46.91900 43.21900
C  54.36800 46.52000 44.34500
C  52.28500 48.79400 42.26400
C  51.88300 50.19400 42.71600
N  48.13400 45.78100 42.69300
C  48.32600 47.13700 42.87500
C  47.07200 47.83800 42.67000
C  46.18300 46.85400 42.30100
C  46.89400 45.59600 42.29100
C  46.73800 49.29200 42.69600
C  44.83100 46.69700 41.74700
O  43.97800 47.52600 41.45200
C  44.69600 45.17800 41.43500
C  43.50200 44.54100 42.16000
O  42.57400 43.97100 41.52900
O  43.52700 44.83300 43.47100
C  42.24800 44.58000 44.15400
H  49.20500 39.77600 41.95700
H  53.96800 43.99000 42.98000
H  49.65500 48.71700 43.24400
H  44.88800 42.07700 41.43200
H  46.77000 40.23700 40.51300
H  45.69400 39.09900 42.01500
H  45.34000 40.48200 43.03800
H  46.79900 39.49900 43.25500
H  46.55800 42.04700 38.88700
H  45.82200 43.53300 39.23000
H  43.81600 42.72100 38.66700
H  44.19400 41.15100 39.43800
H  52.44500 38.73900 41.23400
H  51.01800 38.48500 42.24000
H  52.60700 38.42400 42.90500
H  56.39600 41.53000 43.55100
H  55.27800 42.51300 44.15700
H  55.71900 42.73900 42.41000
H  53.90300 46.76300 42.31700
H  52.16700 48.18500 44.28600
H  55.34600 46.88000 44.02400
H  54.62900 45.55800 44.78500
H  54.03700 47.23800 45.09500
H  51.54300 48.64900 41.47800
H  53.21500 48.81100 41.69500
H  52.54400 51.02700 42.47600
H  51.54800 50.25800 43.75100
H  51.01900 50.43600 42.09700
H  47.48200 49.95300 42.25200
H  46.61000 49.60100 43.73300
H  45.90800 49.31300 41.98900
H  44.45900 45.03000 40.38100
H  42.05100 43.53000 44.37000
H  41.37100 45.06900 43.72900
H  42.28200 44.96000 45.17600

