158

Mg -0.40800 7.56900 26.58700
C  0.39700 9.52500 29.36100
C  -0.48900 4.70600 28.56600
C  -0.80400 5.80300 23.75100
C  0.26000 10.45500 24.54900
N  0.02000 7.21300 28.78300
C  0.13800 8.18500 29.75200
C  0.20600 7.49800 31.17100
C  0.04100 5.93600 30.84200
C  -0.30200 5.93500 29.31600
C  1.23100 5.00400 31.33200
C  -0.75500 8.13400 32.17700
C  -0.15300 8.59100 33.59400
H  -0.98000 8.11800 34.81800
N  -0.73900 5.60000 26.27700
C  -0.73400 4.54900 27.21300
C  -0.95200 3.32200 26.53300
C  -1.25200 3.59000 25.15500
C  -0.97800 5.06700 24.98700
C  -1.03100 1.95900 27.26800
C  -1.56800 2.67600 23.94800
O  -1.72200 3.04800 22.76800
C  -1.72800 1.23800 24.27700
N  -0.09800 7.98000 24.46600
C  -0.55000 7.10300 23.52500
C  -0.47900 7.72100 22.11100
C  -0.33300 9.22500 22.40500
C  0.02300 9.22500 23.90900
C  0.59700 7.06300 21.15800
C  -1.53800 10.02900 22.04200
C  -1.41000 11.47300 21.51700
N  0.33900 9.67500 26.81400
C  0.53100 10.62700 25.89100
C  0.81800 11.84600 26.62900
C  0.95100 11.39700 27.99400
C  0.51800 10.09500 28.03800
C  0.99300 13.21000 26.16300
C  1.23600 11.86600 29.33400
O  1.67600 12.91000 29.84600
C  0.78900 10.67400 30.25100
C  1.98500 10.36200 31.10300
O  3.00400 9.81500 30.71200
O  1.80400 10.83000 32.36500
C  2.96000 10.56800 33.26500
H  -0.68300 3.78600 29.12100
H  -1.04300 5.11900 22.93500
H  0.17700 11.34800 23.92600
H  1.21600 7.58600 31.57400
H  -0.86100 5.57400 31.33500
H  0.93300 4.31200 32.12000
H  2.04900 5.60000 31.73700
H  1.79700 4.43800 30.59300
H  -1.52200 7.39700 32.41600
H  -1.41200 8.92500 31.81400
H  -0.17800 9.68000 33.61900
H  0.86500 8.22200 33.71600
H  -0.72300 1.08800 26.69000
H  -1.86500 1.72000 27.92800
H  -0.19600 1.93000 27.96800
H  -2.51800 1.15800 25.02300
H  -0.79500 0.79800 24.62900
H  -2.01100 0.68900 23.37900
H  -1.43700 7.64200 21.59700
H  0.50500 9.64900 21.85200
H  0.88300 6.05700 21.46400
H  1.50100 7.67400 21.14600
H  0.23400 7.01600 20.13100
H  -2.15500 10.04100 22.94100
H  -2.06700 9.49900 21.25000
H  -1.93700 11.66700 20.58300
H  -0.34200 11.68500 21.48300
H  -1.84200 12.08300 22.31100
H  1.23600 13.94500 26.93000
H  0.12200 13.64000 25.66800
H  1.76300 13.23700 25.39300
H  -0.02600 11.00100 30.89700
H  3.94000 10.73200 32.81600
H  2.78100 9.55500 33.62700
H  2.98900 11.14300 34.19100
Mg 1.94700 41.69100 25.03100
C  2.93000 42.09700 28.39500
C  -1.08400 40.43200 26.18900
C  1.20800 40.97100 21.79300
C  5.18000 42.62100 24.08500
N  0.99300 41.55900 27.07000
C  1.58800 41.78500 28.29600
C  0.55100 41.48300 29.40600
C  -0.49600 40.52900 28.72600
C  -0.19400 40.84400 27.23100
C  -0.41100 39.04900 28.98100
C  0.02900 42.80600 29.98300
C  0.01600 42.89100 31.53200
H  -0.81800 41.75800 32.20300
N  0.25000 40.89700 24.13100
C  -0.88000 40.42000 24.75300
C  -1.81800 39.88600 23.77700
C  -1.17200 40.01400 22.52000
C  0.16000 40.62900 22.77100
C  -3.14000 39.30700 24.18900
C  -1.68500 39.67500 21.14200
O  -1.10900 39.94800 20.13000
C  -3.06300 39.09800 20.86200
N  2.98800 41.72800 23.18200
C  2.44500 41.54400 21.95800
C  3.48300 41.82500 20.83800
C  4.57500 42.68000 21.59000
C  4.25500 42.35100 23.06900
C  4.22800 40.50400 20.35100
C  4.40800 44.21300 21.31400
C  3.03700 44.89200 21.70900
N  3.71800 42.21600 25.95900
C  4.93600 42.56900 25.47900
C  5.90000 42.76000 26.53500
C  5.11500 42.58200 27.68900
C  3.83800 42.27500 27.28500
C  7.34300 43.22400 26.29700
C  5.17300 42.64000 29.16400
O  6.14700 42.97900 29.85800
C  3.74700 42.37000 29.64400
C  3.80900 41.17000 30.57200
O  4.17900 40.05100 30.22000
O  3.25800 41.49700 31.81400
C  2.80200 40.32200 32.61300
H  -1.98300 39.96000 26.59000
H  0.99500 40.58600 20.79400
H  6.13800 42.99500 23.72100
H  1.16800 40.93900 30.12200
H  -1.54400 40.74500 28.93600
H  0.44600 39.03200 29.65400
H  -0.39800 38.28400 28.20400
H  -1.29000 38.86500 29.59900
H  -1.02100 42.99100 29.75900
H  0.55800 43.66700 29.57400
H  -0.38400 43.85800 31.83800
H  1.06100 42.86300 31.84000
H  -3.31700 38.29400 23.82700
H  -3.85800 39.89300 23.61500
H  -3.46300 39.38200 25.22800
H  -3.08100 38.80200 19.81300
H  -3.86300 39.82500 21.00800
H  -3.19400 38.22300 21.49900
H  3.01400 42.38900 20.03100
H  5.62400 42.42100 21.44700
H  4.47500 39.90800 21.22900
H  5.19000 40.72700 19.88800
H  3.62200 39.90500 19.67200
H  4.44900 44.45700 20.25200
H  5.24500 44.74700 21.76400
H  2.27800 44.16400 21.99300
H  2.77700 45.61000 20.93200
H  3.20200 45.47500 22.61500
H  8.06900 42.92700 27.05400
H  7.31300 44.30100 26.13100
H  7.66800 42.83000 25.33400
H  3.52500 43.27500 30.21000
H  2.17800 40.65000 33.44400
H  3.67500 39.77500 32.96900
H  2.15800 39.73600 31.95700

