158

Mg 10.70900 47.95800 25.64800
C  7.97100 48.10900 27.89400
C  12.72500 49.23700 28.04400
C  13.02800 47.92200 23.30400
C  8.19200 47.44100 22.97500
N  10.37000 48.62300 27.70000
C  9.28700 48.36900 28.47800
C  9.53800 48.46400 30.04700
C  10.99300 49.22700 29.97600
C  11.38500 49.08100 28.44200
C  11.00100 50.72800 30.29500
C  9.45300 47.15800 30.90600
C  10.10400 47.07100 32.33400
H  9.39200 46.53800 33.51900
N  12.59000 48.44700 25.67100
C  13.26900 48.93400 26.79500
C  14.67000 49.10900 26.38100
C  14.84500 48.65900 25.04900
C  13.45900 48.25200 24.64300
C  15.67100 49.71000 27.30800
C  16.10600 48.58900 24.22500
O  16.15900 48.12200 23.11200
C  17.38500 48.98100 24.84100
N  10.54800 47.67400 23.40800
C  11.72500 47.78600 22.77600
C  11.51700 47.29200 21.32600
C  9.97900 47.28700 21.15500
C  9.51500 47.39700 22.58700
C  12.17800 48.15100 20.21900
C  9.45500 45.98500 20.48800
C  8.49400 46.12100 19.27000
N  8.56200 47.78800 25.41500
C  7.75100 47.61600 24.29100
C  6.37800 47.54200 24.73000
C  6.40600 47.64000 26.14600
C  7.79200 47.73300 26.50000
C  5.14700 47.33900 23.78500
C  5.59300 47.61900 27.38700
O  4.34100 47.56100 27.41000
C  6.58100 47.92800 28.56800
C  6.48000 46.69200 29.28800
O  7.14900 45.68300 29.06100
O  5.63400 46.87100 30.28300
C  5.54500 45.78600 31.22700
H  13.42300 49.50000 28.84100
H  13.77000 47.95100 22.50300
H  7.46100 47.27200 22.18100
H  8.61800 48.95900 30.35800
H  11.67600 48.73300 30.66600
H  10.79800 50.91500 31.35000
H  10.24500 51.16000 29.63900
H  11.87800 51.34600 30.10500
H  9.66600 46.31500 30.24800
H  8.37800 47.05900 31.05900
H  10.32700 48.11400 32.55700
H  11.06500 46.56200 32.26600
H  15.25800 49.93800 28.29000
H  16.07900 50.61600 26.85900
H  16.46900 48.99400 27.50600
H  17.56400 48.31000 25.68100
H  17.15000 49.91200 25.35600
H  18.20500 49.03600 24.12500
H  11.87700 46.26300 21.31100
H  9.65100 48.18600 20.63200
H  11.46700 48.73900 19.63900
H  12.48900 47.34000 19.56100
H  13.05100 48.74700 20.48600
H  8.79700 45.43900 21.16300
H  10.34200 45.46600 20.12400
H  7.59900 45.51600 19.41400
H  9.04500 45.68800 18.43500
H  8.20100 47.12500 18.96600
H  4.65900 48.30500 23.91900
H  4.49700 46.53200 24.12400
H  5.41600 47.25600 22.73200
H  6.28800 48.77700 29.18600
H  5.22700 44.89200 30.69100
H  4.83100 46.10600 31.98700
H  6.50500 45.56300 31.69200
Mg -4.89500 25.65200 25.92500
C  -3.27600 27.01500 28.77200
C  -6.92300 23.82300 27.99100
C  -5.93700 24.00800 23.15800
C  -2.54700 27.39600 23.96600
N  -4.96400 25.34400 27.99500
C  -4.29600 26.06300 29.00800
C  -4.84800 25.69800 30.40500
C  -5.84000 24.49800 30.13100
C  -5.97000 24.58200 28.60900
C  -5.35000 23.09600 30.65800
C  -5.43900 26.95900 31.15400
C  -4.95300 27.25100 32.58400
H  -4.67300 26.02100 33.55800
N  -6.29600 24.20100 25.60400
C  -7.06700 23.61000 26.58100
C  -7.98000 22.66800 25.94600
C  -7.68500 22.67800 24.52000
C  -6.60100 23.63400 24.36900
C  -8.98300 21.82200 26.72000
C  -8.24500 21.75700 23.44300
O  -7.96300 21.79700 22.23100
C  -9.26900 20.73700 23.83400
N  -4.17200 25.51100 23.91600
C  -4.84800 24.81200 22.95300
C  -4.44500 25.23400 21.53700
C  -3.29900 26.32500 21.78600
C  -3.41100 26.49200 23.34300
C  -4.13000 24.02200 20.57100
C  -3.43500 27.54600 20.82300
C  -2.50100 27.59600 19.60300
N  -3.20400 26.94800 26.27200
C  -2.32900 27.55800 25.39400
C  -1.46300 28.54600 26.02000
C  -1.67800 28.26100 27.42400
C  -2.75000 27.24900 27.48200
C  -0.42600 29.47100 25.41200
C  -1.29200 28.53700 28.84500
O  -0.46700 29.33800 29.29900
C  -2.35600 27.79300 29.73300
C  -1.68300 26.94600 30.81900
O  -1.63700 25.77200 30.85200
O  -1.11700 27.82400 31.75300
C  -0.75400 27.34200 33.03700
H  -7.62700 23.39900 28.71000
H  -6.35200 23.65400 22.21200
H  -1.89600 28.07500 23.41300
H  -4.11000 25.28400 31.09200
H  -6.84600 24.71300 30.49100
H  -6.13700 22.81600 31.35800
H  -4.39500 23.16400 31.17900
H  -5.33300 22.28700 29.92700
H  -6.52500 26.85900 31.15900
H  -5.36500 27.79300 30.45500
H  -5.71700 27.73100 33.19600
H  -3.99200 27.75700 32.48600
H  -8.72700 20.76700 26.61900
H  -10.00600 21.98000 26.38000
H  -8.86800 22.14200 27.75600
H  -9.74000 20.34500 22.93300
H  -10.10000 21.24000 24.32900
H  -8.79700 19.92400 24.38600
H  -5.28700 25.78700 21.12200
H  -2.29400 25.93600 21.61900
H  -4.13100 23.11800 21.18000
H  -3.15000 24.03100 20.09400
H  -4.98400 23.81100 19.92700
H  -3.43800 28.39800 21.50200
H  -4.42200 27.43400 20.37500
H  -3.22900 27.72800 18.80300
H  -2.03300 26.61600 19.51100
H  -1.87300 28.48700 19.58900
H  -0.87600 30.35300 24.95600
H  0.13700 29.08200 24.56400
H  0.32800 29.70800 26.16300
H  -2.96900 28.54800 30.22500
H  -1.38100 27.68600 33.86000
H  0.17400 27.83500 33.32500
H  -0.65800 26.25700 33.08000

