158

Mg 29.77700 59.50100 39.64100
C  26.78200 57.88100 38.79100
C  31.36900 56.70300 38.47500
C  32.47400 61.23000 39.41400
C  27.88000 62.51100 40.12700
N  29.12200 57.47100 38.85100
C  27.90800 57.05300 38.53400
C  27.86000 55.74200 37.80800
C  29.29900 55.23900 38.17200
C  29.99500 56.55000 38.47600
C  29.25300 54.24600 39.36300
C  27.73600 55.85700 36.22200
C  26.43700 55.26300 35.68700
H  25.65600 56.09500 34.64400
N  31.65800 58.98500 39.31400
C  32.15300 57.83500 38.82300
C  33.56800 57.93000 38.69500
C  33.99200 59.21300 39.08400
C  32.71900 59.88300 39.29600
C  34.52300 56.73300 38.21100
C  35.43200 59.87100 39.12600
O  36.36200 59.24800 38.65700
C  35.67200 61.21100 39.79100
N  30.08500 61.54000 39.75800
C  31.34500 62.00100 39.69200
C  31.36100 63.50600 39.88200
C  29.92900 63.87000 40.25600
C  29.21200 62.57300 40.02900
C  32.47500 64.10000 40.80200
C  29.29300 65.04000 39.39200
C  28.62700 66.26400 40.20700
N  27.67100 60.11900 39.67100
C  27.07000 61.32900 39.91900
C  25.61700 61.09500 39.72900
C  25.48200 59.72700 39.33700
C  26.74100 59.22200 39.30000
C  24.48600 62.12600 39.90400
C  24.51300 58.75100 38.84600
O  23.30500 58.74600 38.75400
C  25.31400 57.47000 38.41400
C  24.89500 56.30000 39.15000
O  25.21500 55.92500 40.28600
O  24.12800 55.52000 38.36700
C  23.33500 54.55600 39.15600
H  31.72900 55.76800 38.04100
H  33.31500 61.89700 39.21500
H  27.21200 63.37000 40.21200
H  26.99800 55.19500 38.19100
H  29.81400 54.68600 37.38700
H  29.85800 54.70600 40.14400
H  29.73600 53.27500 39.25300
H  28.23900 53.96600 39.64700
H  28.61100 55.48100 35.69300
H  27.74600 56.88700 35.86400
H  25.82800 54.87800 36.50600
H  26.65100 54.40900 35.04400
H  34.07000 55.81000 38.57000
H  35.50200 56.85200 38.67700
H  34.64200 56.59600 37.13600
H  36.63300 61.22000 40.30700
H  34.92400 61.48000 40.53700
H  35.80400 61.84400 38.91400
H  31.55200 63.82500 38.85700
H  29.92500 64.10300 41.32100
H  33.02600 64.82500 40.20200
H  33.08600 63.29400 41.20900
H  32.02200 64.53000 41.69500
H  28.52000 64.58700 38.77200
H  30.03600 65.42900 38.69600
H  27.65900 66.56200 39.80400
H  29.34600 67.08300 40.23600
H  28.55400 65.76000 41.17000
H  24.91400 63.08800 40.18400
H  23.96100 61.98300 40.84900
H  23.81900 62.04600 39.04600
H  25.24900 57.25300 37.34800
H  22.94500 54.85200 40.13000
H  23.91500 53.65700 39.36500
H  22.46800 54.27000 38.56100
Mg -1.79600 34.34700 26.83200
C  -3.22500 32.51300 29.57300
C  -0.31400 36.34600 29.04400
C  -0.84400 36.13600 24.13400
C  -3.54500 32.14300 24.72900
N  -1.80300 34.29700 29.06700
C  -2.38700 33.55000 29.98700
C  -2.06100 33.96300 31.46600
C  -1.10700 35.22400 31.19700
C  -1.06100 35.29700 29.63600
C  -1.47000 36.59700 31.91500
C  -1.43000 32.89400 32.29300
C  -2.23000 32.51400 33.62300
H  -1.45600 32.22600 34.88700
N  -0.66900 35.98400 26.70800
C  -0.06500 36.69300 27.70000
C  0.71500 37.68300 27.14600
C  0.53800 37.69900 25.73800
C  -0.45700 36.63100 25.45300
C  1.48300 38.69000 28.05300
C  1.13100 38.63600 24.67000
O  0.74700 38.70700 23.47200
C  2.24000 39.54200 25.00800
N  -2.19200 34.20300 24.73300
C  -1.62400 35.03700 23.78700
C  -1.94800 34.59800 22.34300
C  -2.52100 33.17900 22.63300
C  -2.73200 33.10300 24.14900
C  -3.03700 35.53300 21.71900
C  -1.59200 32.06200 22.02900
C  -0.12300 32.02100 22.59600
N  -3.06900 32.71100 27.02500
C  -3.75200 31.99400 26.05300
C  -4.63300 31.03300 26.66700
C  -4.39400 31.18900 28.02000
C  -3.45000 32.20500 28.23900
C  -5.55700 30.00500 26.13900
C  -4.78000 30.68200 29.38800
O  -5.59000 29.82500 29.70900
C  -4.04600 31.51700 30.46000
C  -5.09800 32.08500 31.33000
O  -5.68000 33.12000 31.10700
O  -5.36100 31.25800 32.43800
C  -6.48600 31.72700 33.28200
H  0.24800 36.89900 29.80000
H  -0.46600 36.66700 23.25800
H  -4.02700 31.38800 24.10400
H  -3.02700 34.27300 31.86500
H  -0.08200 35.12100 31.55200
H  -2.04300 37.18200 31.19600
H  -0.64100 37.17600 32.32200
H  -2.19500 36.45600 32.71600
H  -0.51100 33.21300 32.78500
H  -1.31300 32.02400 31.64700
H  -2.58700 31.50100 33.44100
H  -3.11600 33.11800 33.81700
H  0.79100 38.72500 28.89500
H  1.74800 39.66800 27.65100
H  2.39100 38.13800 28.29800
H  1.89200 40.21800 25.78800
H  2.48200 40.19500 24.17000
H  3.06000 39.01800 25.50000
H  -0.99400 34.62200 21.81600
H  -3.48400 32.98700 22.16100
H  -3.28400 36.26100 22.49200
H  -3.90500 34.98200 21.35500
H  -2.74800 36.04400 20.80100
H  -1.49500 32.25700 20.96100
H  -2.00900 31.07200 22.21000
H  0.03200 32.70800 23.42900
H  0.66500 32.09200 21.84700
H  0.07400 31.04000 23.02800
H  -5.36400 29.00100 26.51700
H  -5.46700 30.00600 25.05200
H  -6.54500 30.34900 26.44700
H  -3.36800 30.88200 31.03100
H  -7.21800 32.23000 32.65000
H  -6.00400 32.44300 33.94800
H  -6.88000 30.98500 33.97600

