158

Mg 24.82500 -7.86800 47.50500
C  26.95700 -5.23400 46.25900
C  22.46600 -6.94300 45.28000
C  23.24400 -10.70000 48.24400
C  27.75400 -9.06900 49.17900
N  24.84500 -6.36700 45.78000
C  25.71800 -5.31800 45.58800
C  25.16900 -4.25100 44.62200
C  23.66500 -4.75700 44.52200
C  23.64500 -6.09100 45.21500
C  22.74300 -3.68100 45.03500
C  26.02100 -4.17600 43.29600
C  26.58200 -2.76000 42.99000
H  26.28200 -2.26700 41.58700
N  23.05300 -8.67500 46.89900
C  22.17800 -8.09200 46.00200
C  20.98300 -8.83800 45.79000
C  21.15200 -9.93300 46.72600
C  22.48000 -9.81700 47.38200
C  19.86900 -8.47100 44.75700
C  20.05600 -11.04100 47.00900
O  19.03400 -11.02300 46.39600
C  20.42500 -12.04600 48.08400
N  25.46400 -9.66000 48.44100
C  24.53700 -10.61700 48.71300
C  25.15700 -11.67900 49.60400
C  26.52400 -11.09600 50.10300
C  26.61300 -9.87900 49.16400
C  24.27600 -12.28600 50.71000
C  27.79900 -12.04300 50.05100
C  28.76200 -12.16700 51.21000
N  26.88000 -7.25800 47.84000
C  27.93000 -7.82200 48.55000
C  29.05100 -6.96600 48.58800
C  28.72800 -5.90700 47.76100
C  27.41100 -6.20100 47.24500
C  30.29100 -7.28500 49.42700
C  29.12800 -4.62500 47.30100
O  30.16300 -3.95900 47.43800
C  28.03200 -4.21000 46.21300
C  27.56600 -2.81700 46.51600
O  26.58200 -2.45100 47.14500
O  28.37000 -1.89500 45.89400
C  27.90600 -0.53000 45.80700
H  21.74200 -6.54300 44.56700
H  22.78900 -11.64700 48.54100
H  28.41300 -9.46400 49.95400
H  25.15900 -3.27700 45.11100
H  23.31400 -4.90800 43.50100
H  23.28000 -2.79200 45.36600
H  22.12000 -4.04700 45.85100
H  22.07000 -3.45700 44.20700
H  25.47000 -4.49800 42.41300
H  26.90400 -4.81200 43.35700
H  27.65600 -2.93800 43.04100
H  26.34000 -1.91800 43.63800
H  20.15900 -8.66000 43.72400
H  19.51300 -7.44200 44.70900
H  18.93100 -9.00800 44.89600
H  21.19500 -12.69400 47.66700
H  19.57700 -12.70300 48.27900
H  20.71900 -11.47500 48.96500
H  25.43300 -12.53000 48.98100
H  26.52700 -10.74000 51.13300
H  23.31600 -11.80200 50.89100
H  24.85300 -12.18300 51.62900
H  24.10600 -13.34700 50.52600
H  28.44000 -11.74900 49.22000
H  27.31600 -12.99400 49.82600
H  29.75100 -12.20100 50.75400
H  28.53800 -13.05400 51.80300
H  28.73700 -11.21700 51.74400
H  29.98100 -7.52700 50.44400
H  30.89700 -6.37900 49.42200
H  30.75900 -8.20600 49.07700
H  28.46900 -4.14600 45.21700
H  26.83600 -0.59300 45.60700
H  28.45700 -0.07700 44.98300
H  28.03800 0.01000 46.74400
Mg 8.61700 48.08500 25.31000
C  6.54200 47.97600 28.06700
C  11.10700 49.37800 27.24700
C  10.68200 48.20500 22.49700
C  5.94000 47.41400 23.25100
N  8.72400 48.64100 27.40100
C  7.81500 48.40600 28.36100
C  8.38700 48.90300 29.73000
C  9.66700 49.74600 29.35100
C  9.88700 49.29100 27.90500
C  9.38100 51.31800 29.49500
C  8.69400 47.72600 30.80200
C  8.05300 47.92600 32.18400
H  8.38300 46.76200 33.21800
N  10.69100 48.64500 24.97000
C  11.53000 49.05700 25.90300
C  12.79000 49.17900 25.30900
C  12.75500 48.67200 23.96200
C  11.34500 48.50500 23.72800
C  14.04200 49.50400 26.09600
C  13.89600 48.39000 22.92400
O  13.70000 47.96900 21.79700
C  15.36300 48.64300 23.24900
N  8.33900 47.99100 23.17500
C  9.28700 48.04300 22.22200
C  8.70000 47.83700 20.81600
C  7.26200 47.29400 21.22400
C  7.11300 47.66800 22.63000
C  8.67000 49.03200 19.86300
C  7.07800 45.75100 20.86800
C  5.78900 45.39500 20.14700
N  6.66100 47.74500 25.54400
C  5.73100 47.40400 24.61800
C  4.45300 47.13900 25.34000
C  4.69800 47.37300 26.69200
C  6.09400 47.69900 26.80500
C  3.18700 46.70000 24.67700
C  4.09100 47.31500 28.03300
O  3.01400 47.00300 28.46000
C  5.30200 47.69400 29.02100
C  5.54100 46.55100 30.01400
O  6.17800 45.55800 29.83400
O  4.71100 46.77300 31.14600
C  4.92200 45.78400 32.24000
H  11.93400 49.75100 27.85500
H  11.31600 47.96900 21.63900
H  5.20300 46.88200 22.64600
H  7.53600 49.48200 30.09000
H  10.54300 49.46500 29.93500
H  9.31400 51.67900 28.46900
H  10.27500 51.69500 29.99100
H  8.55200 51.59400 30.14700
H  9.77900 47.62700 30.84300
H  8.32800 46.85200 30.26400
H  6.97300 47.94400 32.04200
H  8.35600 48.87300 32.63100
H  13.83600 49.62400 27.15900
H  14.64300 50.34800 25.75700
H  14.61000 48.57800 26.00500
H  15.39000 49.62600 23.72000
H  15.90200 48.60800 22.30200
H  15.65700 47.84400 23.93000
H  9.19100 47.02500 20.28100
H  6.48500 47.78700 20.63900
H  7.66200 49.44300 19.79500
H  9.08000 48.66900 18.92100
H  9.37400 49.78500 20.21700
H  7.05600 45.23400 21.82700
H  7.94500 45.29500 20.39000
H  5.98900 45.24900 19.08500
H  5.03800 46.16900 20.30300
H  5.21800 44.54900 20.53000
H  3.42200 46.08400 23.80900
H  2.48200 47.51300 24.50200
H  2.69800 46.13700 25.47300
H  5.07800 48.60900 29.57100
H  3.92100 45.42600 32.48000
H  5.33300 46.22400 33.14900
H  5.54700 44.91600 32.03200

