158

Mg -1.96900 18.12500 26.94100
C  -2.56700 16.11900 29.57900
C  -2.56600 20.86800 28.95200
C  -2.08000 20.02600 24.17200
C  -2.00900 15.24600 24.74000
N  -2.49700 18.39800 28.99800
C  -2.59000 17.44100 29.94700
C  -2.73100 18.02600 31.41000
C  -3.18600 19.50800 30.99300
C  -2.67600 19.59300 29.55700
C  -4.65400 19.82400 31.29000
C  -1.42500 17.94500 32.24200
C  -1.70900 17.25300 33.58200
H  -0.52900 17.05700 34.53800
N  -2.14000 20.17500 26.63500
C  -2.28400 21.17600 27.58500
C  -2.35600 22.45600 26.94800
C  -2.12900 22.19700 25.49200
C  -2.07300 20.76000 25.37100
C  -2.80700 23.67200 27.69900
C  -2.01200 23.30700 24.35500
O  -1.88200 22.98800 23.20900
C  -1.71100 24.67600 24.70700
N  -2.08700 17.66000 24.81700
C  -2.04600 18.65600 23.90000
C  -1.88800 18.18200 22.42400
C  -1.76300 16.62900 22.65600
C  -1.94400 16.50900 24.14000
C  -2.95100 18.70300 21.47100
C  -0.46300 16.10700 21.90700
C  0.88500 16.56000 22.44500
N  -2.16800 16.04300 27.10400
C  -2.10900 15.01400 26.15700
C  -2.19600 13.72600 26.88100
C  -2.40000 14.19900 28.24900
C  -2.41500 15.56400 28.31900
C  -2.31500 12.31700 26.28700
C  -2.65600 13.77000 29.55500
O  -2.74700 12.62100 29.95400
C  -2.57900 14.95100 30.51400
C  -1.26900 14.76900 31.30900
O  -0.18300 14.96900 30.85300
O  -1.54100 14.06000 32.46300
C  -0.38500 13.56800 33.26000
H  -2.78400 21.70100 29.62300
H  -1.87100 20.70900 23.34600
H  -1.89600 14.45100 24.00000
H  -3.57500 17.51100 31.86800
H  -2.63100 20.25200 31.56400
H  -5.03400 19.79900 30.26800
H  -4.83300 20.82500 31.68300
H  -5.17400 19.07300 31.88500
H  -1.20100 18.95600 32.58200
H  -0.62100 17.51700 31.64400
H  -2.20400 16.31600 33.32900
H  -2.42800 17.83400 34.16000
H  -3.62600 23.30300 28.31700
H  -3.21800 24.49800 27.11900
H  -2.09000 23.97200 28.46300
H  -1.47800 25.24600 23.80800
H  -0.93400 24.63900 25.47100
H  -2.54500 25.14800 25.22800
H  -0.94500 18.58500 22.05500
H  -2.58500 16.04200 22.24500
H  -2.47400 19.29100 20.68600
H  -3.71800 19.23800 22.03100
H  -3.32300 17.84800 20.90700
H  -0.58800 16.42500 20.87200
H  -0.56100 15.02300 21.95700
H  0.79100 17.32700 23.21300
H  1.43900 17.03700 21.63700
H  1.44800 15.71700 22.84600
H  -1.81900 11.65300 26.99500
H  -1.77900 12.14400 25.35400
H  -3.38900 12.21500 26.13200
H  -3.45200 15.05000 31.16100
H  -0.25100 14.02200 34.24200
H  0.51500 13.79400 32.68800
H  -0.62000 12.51200 33.38700
Mg 41.47800 41.04000 27.51500
C  41.18400 43.44700 30.14500
C  42.50400 38.79700 29.84900
C  41.93900 38.88700 25.03400
C  40.95800 43.49800 25.32700
N  41.79200 41.12600 29.80900
C  41.53700 42.19100 30.64300
C  41.59900 41.74000 32.05000
C  42.25000 40.31800 31.95000
C  42.23500 40.07000 30.43900
C  43.69700 40.10100 32.48400
C  40.14200 41.68100 32.70400
C  40.13000 42.37400 34.08700
H  39.44700 41.72200 35.39500
N  42.18100 39.12600 27.43700
C  42.50900 38.32000 28.54300
C  42.70400 36.99900 28.15200
C  42.51900 36.95000 26.70300
C  42.17500 38.34300 26.32300
C  43.14800 35.87000 29.07300
C  42.56300 35.83000 25.75300
O  42.04300 35.89500 24.60400
C  43.27100 34.62900 26.15000
N  41.64100 41.28100 25.51700
C  41.71800 40.17400 24.62700
C  41.54400 40.55400 23.15200
C  41.23800 42.03000 23.31300
C  41.20400 42.29300 24.78800
C  42.81800 40.12600 22.34600
C  40.00400 42.54900 22.52300
C  38.64900 41.94100 22.80900
N  41.11900 43.05800 27.66500
C  40.96200 43.97700 26.64800
C  40.75800 45.29800 27.11800
C  40.74000 45.08300 28.49400
C  41.05400 43.76900 28.78400
C  40.33500 46.51700 26.39400
C  40.41400 45.73100 29.77400
O  40.11200 46.88800 30.01500
C  40.78600 44.62700 30.94800
C  41.93800 45.14300 31.74900
O  43.09300 44.95200 31.44200
O  41.54600 45.80100 32.84000
C  42.48000 46.41200 33.68700
H  42.73700 38.00000 30.55900
H  41.76400 38.13200 24.26400
H  40.77300 44.25800 24.56500
H  42.31200 42.41800 32.52000
H  41.62600 39.52400 32.36100
H  43.96500 40.97100 33.08400
H  44.40900 39.94500 31.67300
H  43.71300 39.18100 33.06700
H  39.73200 40.68600 32.87500
H  39.34800 42.14100 32.11500
H  39.61400 43.31700 33.90700
H  41.09500 42.81900 34.33200
H  42.66300 34.94300 28.76500
H  42.95400 35.96000 30.14200
H  44.22700 35.76300 28.96400
H  43.31300 33.95700 25.29300
H  42.69000 34.08400 26.89400
H  44.25400 34.95200 26.49200
H  40.61100 40.07300 22.85700
H  42.07000 42.65600 22.99100
H  43.71300 39.93500 22.93800
H  43.00900 40.93200 21.63800
H  42.59400 39.24200 21.74900
H  40.24300 42.38200 21.47300
H  40.02300 43.63500 22.61300
H  38.57600 41.32800 23.70800
H  38.41700 41.30100 21.95800
H  37.88200 42.70800 22.91300
H  41.19600 47.15100 26.18100
H  39.57500 47.01300 26.99700
H  39.85300 46.33700 25.43300
H  39.97000 44.49400 31.65700
H  43.34000 46.83000 33.16300
H  42.88300 45.84300 34.52500
H  41.88800 47.18000 34.18600

