158

Mg 16.67500 -2.48900 28.22400
C  16.08400 -0.32700 31.05900
C  18.22900 -4.56200 30.25300
C  17.59500 -4.02200 25.52800
C  14.98800 -0.00600 26.24600
N  17.19700 -2.34300 30.36100
C  16.81800 -1.50800 31.37000
C  17.10400 -2.02900 32.69300
C  18.16600 -3.17300 32.44600
C  17.90000 -3.40400 30.94500
C  19.70100 -2.75800 32.82000
C  15.91300 -2.47400 33.45700
C  15.78300 -1.96300 34.87000
H  16.99700 -1.50900 35.69600
N  17.62100 -4.12700 27.97600
C  18.19200 -4.93900 28.95300
C  18.78600 -6.11300 28.30100
C  18.54400 -5.97000 26.87700
C  17.91300 -4.69000 26.73000
C  19.60500 -7.14000 29.04100
C  18.87000 -6.90900 25.74800
O  18.63900 -6.62200 24.56600
C  19.63300 -8.18000 26.06900
N  16.36900 -1.99900 26.13700
C  16.92600 -2.85800 25.22300
C  16.84700 -2.28200 23.80700
C  15.74400 -1.15100 23.98100
C  15.58600 -1.06100 25.53600
C  18.21900 -1.86600 23.16800
C  14.42800 -1.34500 23.18600
C  13.91400 -0.16900 22.31500
N  15.75300 -0.55600 28.54900
C  15.10900 0.26400 27.59700
C  14.67700 1.43900 28.32400
C  14.96400 1.27200 29.64600
C  15.68100 0.07300 29.71900
C  13.90200 2.61800 27.90300
C  14.83900 1.73800 31.02200
O  14.24500 2.68000 31.53200
C  15.58500 0.73700 31.96700
C  16.62000 1.55400 32.67800
O  17.71300 1.80800 32.28800
O  16.07100 1.87900 33.89300
C  16.93800 2.66600 34.81300
H  18.57700 -5.32800 30.95000
H  17.98900 -4.52900 24.64500
H  14.60300 0.82800 25.65500
H  17.41900 -1.13800 33.23700
H  18.03900 -4.09900 33.00700
H  19.78300 -1.74500 33.21500
H  20.33300 -3.10300 32.00200
H  20.05200 -3.44300 33.59000
H  15.92100 -3.54800 33.63800
H  15.02400 -2.18900 32.89300
H  15.14200 -2.59800 35.48100
H  15.10600 -1.11500 34.76900
H  19.46700 -6.95100 30.10500
H  20.66200 -7.03700 28.79300
H  19.34400 -8.16600 28.78300
H  20.50100 -8.04800 26.71500
H  19.97300 -8.55600 25.10400
H  18.93800 -8.82300 26.61000
H  16.34000 -3.04700 23.21900
H  16.16300 -0.20000 23.65000
H  18.13700 -0.86600 22.74100
H  18.50900 -2.58100 22.39800
H  19.01600 -1.93800 23.90800
H  13.69200 -1.58500 23.95300
H  14.43700 -2.28100 22.62600
H  13.43200 -0.55200 21.41600
H  14.75000 0.48800 22.07700
H  13.11400 0.36600 22.82700
H  14.21200 2.64400 26.85800
H  14.21300 3.54400 28.38700
H  12.83300 2.52200 28.09300
H  14.80500 0.31700 32.60100
H  16.55900 2.60700 35.83300
H  16.98500 3.73700 34.61500
H  17.97100 2.32000 34.77100
Mg 46.22600 44.23300 43.51400
C  42.97200 43.42600 43.54000
C  47.13200 40.99700 42.64100
C  49.35300 45.38000 42.50500
C  45.43500 47.62800 44.16200
N  45.13300 42.48000 43.02200
C  43.82600 42.30600 43.17100
C  43.39500 40.91900 42.80200
C  44.71600 40.11800 42.86400
C  45.78800 41.27200 42.85800
C  44.91000 39.07300 44.07600
C  42.39000 40.82400 41.54800
C  42.76100 41.83700 40.39700
H  42.30800 41.61900 38.95200
N  47.97500 43.31200 42.78800
C  48.13700 42.02100 42.55400
C  49.48900 41.75300 42.03200
C  50.19300 42.96900 42.12800
C  49.17200 44.01100 42.44500
C  49.96900 40.35200 41.56400
C  51.69100 43.20200 41.96900
O  52.49800 42.31600 41.77600
C  52.38300 44.54500 41.97400
N  47.19500 46.30200 43.15600
C  48.49200 46.45200 42.79200
C  48.93600 47.97400 42.77900
C  47.74800 48.70700 43.50100
C  46.76200 47.48100 43.70500
C  50.29100 48.20900 43.47100
C  47.16800 50.02700 42.77500
C  47.13200 51.35600 43.54500
N  44.54900 45.34600 43.94700
C  44.34000 46.66200 44.17500
C  42.89200 46.89600 44.43300
C  42.34500 45.61600 44.19300
C  43.37600 44.72100 43.88000
C  42.29000 48.27000 44.67600
C  41.16000 44.88300 44.14800
O  40.01300 45.28500 44.32400
C  41.44500 43.35900 43.74400
C  41.02800 42.57700 44.93000
O  40.23600 41.59600 44.87400
O  41.74500 42.95000 46.07800
C  41.20300 42.46700 47.34300
H  47.36400 39.93900 42.50200
H  50.27700 45.54800 41.94600
H  45.18700 48.67400 44.35300
H  42.76300 40.61000 43.63600
H  44.86300 39.52200 41.96400
H  45.73500 39.29500 44.75200
H  45.04500 38.07400 43.66300
H  43.93000 38.98700 44.54500
H  41.32600 40.73000 41.76500
H  42.45900 39.86100 41.04200
H  43.83800 41.98100 40.48500
H  42.18600 42.74100 40.59600
H  49.95800 39.67900 42.42100
H  50.98300 40.51600 41.19700
H  49.35500 40.04300 40.71900
H  52.01700 45.14500 42.80700
H  52.08200 45.11400 41.09500
H  53.47200 44.49800 42.01000
H  48.82300 48.18400 41.71600
H  48.16200 48.97100 44.47500
H  50.57800 47.34100 44.06300
H  50.37700 49.18200 43.95500
H  51.14300 48.20900 42.79100
H  46.14200 49.85500 42.44900
H  47.80600 50.24200 41.91800
H  47.50900 52.16100 42.91400
H  47.75400 51.26300 44.43600
H  46.11200 51.66800 43.77000
H  42.16300 48.74300 43.70200
H  42.84800 49.00600 45.25500
H  41.30700 48.10900 45.11800
H  40.93700 43.02000 42.84100
H  41.85900 42.83300 48.13300
H  41.09300 41.38200 47.33600
H  40.20900 42.85800 47.56100

