158

Mg 27.26600 50.52500 26.25000
C  25.15400 51.64600 28.96000
C  29.48700 49.46300 28.46700
C  29.36400 50.03700 23.63600
C  25.02200 52.18200 24.04000
N  27.22600 50.53600 28.43800
C  26.31500 50.99400 29.37300
C  26.75100 50.56000 30.78600
C  28.22100 50.08100 30.56600
C  28.31700 50.04500 29.06100
C  29.33100 51.04800 31.10600
C  25.76100 49.57800 31.46200
C  24.99900 49.89400 32.75200
H  25.73500 50.44700 33.98000
N  29.10800 49.81400 26.05800
C  29.81400 49.31000 27.13300
C  31.07600 48.80200 26.59900
C  31.14800 49.08900 25.26200
C  29.92000 49.71900 24.90800
C  32.07500 48.03000 27.43400
C  32.24400 48.79200 24.20700
O  32.16800 49.14000 23.02600
C  33.49400 48.14000 24.63800
N  27.23600 51.17000 24.16600
C  28.20600 50.71300 23.30700
C  27.74200 50.90500 21.84300
C  26.37400 51.63000 21.94100
C  26.15200 51.60400 23.48300
C  28.76700 51.69700 20.93000
C  25.20900 50.88500 21.17800
C  24.70200 51.55800 19.87900
N  25.46700 51.67400 26.42100
C  24.67900 52.22100 25.39100
C  23.53200 52.96200 26.02200
C  23.72300 52.67900 27.38200
C  24.79500 51.98200 27.55200
C  22.47600 53.72600 25.26300
C  23.09000 52.90900 28.68000
O  22.05800 53.51400 29.00000
C  24.01700 52.29200 29.72700
C  24.49200 53.42400 30.58300
O  25.57000 54.02500 30.43000
O  23.75100 53.39200 31.75200
C  24.42700 53.94200 32.91800
H  30.15500 49.07200 29.23800
H  29.95900 49.94900 22.72400
H  24.34200 52.73500 23.38800
H  26.75300 51.42000 31.45600
H  28.32800 49.05800 30.92700
H  29.65400 50.55200 32.02200
H  28.99400 52.03200 31.43300
H  30.21000 51.20000 30.48000
H  26.47100 48.85900 31.87200
H  25.11500 49.16700 30.68500
H  24.59800 48.97000 33.16700
H  24.11100 50.49600 32.55600
H  31.84500 48.35200 28.44900
H  33.11500 48.33200 27.30400
H  31.96300 46.96200 27.24900
H  33.90800 48.90700 25.29300
H  34.05200 47.95300 23.72100
H  33.19900 47.20400 25.11300
H  27.64200 49.96000 21.31100
H  26.47500 52.66300 21.60700
H  29.66100 52.11200 21.39600
H  28.24000 52.53500 20.47500
H  29.09100 50.95100 20.20500
H  24.33000 50.54600 21.72700
H  25.55600 49.92800 20.78700
H  24.92200 50.99900 18.97000
H  25.22600 52.51200 19.83700
H  23.62600 51.69200 19.99900
H  22.91600 54.47400 24.60200
H  21.85800 54.25500 25.98700
H  21.86800 52.99500 24.73000
H  23.41700 51.55900 30.26700
H  24.40200 55.00700 32.69100
H  25.44700 53.57100 33.01700
H  23.84200 53.85800 33.83400
Mg 17.39600 52.67100 26.33100
C  19.40400 50.98000 28.59200
C  15.10300 53.19900 29.05300
C  15.03000 54.10300 24.26600
C  19.25900 51.43100 23.66500
N  17.36100 52.18000 28.55000
C  18.42400 51.63100 29.23700
C  18.14400 51.58600 30.76600
C  16.54800 51.86900 30.79600
C  16.31400 52.56800 29.40400
C  15.62000 50.69200 31.03500
C  18.96400 52.66700 31.54000
C  19.13600 52.41500 33.02100
H  17.99500 51.69400 33.66500
N  15.32200 53.58300 26.55800
C  14.67500 53.75800 27.73800
C  13.33100 54.24500 27.39500
C  13.32400 54.66300 26.07800
C  14.57500 54.08800 25.56300
C  12.26400 54.24500 28.41000
C  12.23400 55.36900 25.23400
O  12.30100 55.63200 24.06400
C  10.97100 55.73300 25.99400
N  17.16100 52.81600 24.29400
C  16.21800 53.55300 23.65800
C  16.37500 53.40300 22.10000
C  17.73700 52.72300 21.98100
C  18.04200 52.19100 23.41500
C  15.21800 52.66800 21.34100
C  18.85400 53.67600 21.24600
C  19.27900 54.85100 22.09200
N  19.09400 51.58400 26.11000
C  19.76900 51.13000 24.95200
C  20.96000 50.38600 25.38400
C  20.86700 50.34900 26.80600
C  19.67800 50.97700 27.20000
C  22.04400 49.85800 24.47300
C  21.53900 49.93500 28.03200
O  22.57100 49.29000 28.04400
C  20.69300 50.35700 29.22100
C  20.35400 49.29600 30.15500
O  19.72300 48.27100 29.91200
O  20.94000 49.56900 31.37200
C  20.66100 48.54000 32.41500
H  14.47400 53.46000 29.90700
H  14.35200 54.63200 23.59400
H  19.74600 50.94800 22.81500
H  18.21700 50.55900 31.12500
H  16.30500 52.62800 31.53900
H  14.88500 50.61300 30.23400
H  15.02700 50.76000 31.94800
H  16.12700 49.74100 30.87700
H  18.56700 53.67400 31.41100
H  19.95100 52.64600 31.07900
H  19.25800 53.35800 33.55400
H  20.01400 51.77400 33.10100
H  11.96100 55.21100 28.81200
H  12.47200 53.64500 29.29600
H  11.42300 53.71200 27.96500
H  11.19900 56.37600 26.84400
H  10.43400 54.81800 26.24600
H  10.40300 56.26800 25.23400
H  16.41900 54.43000 21.73600
H  17.73100 51.83000 21.35500
H  15.52000 51.88100 20.65000
H  14.47200 53.27500 20.82900
H  14.64400 52.22500 22.15500
H  18.50700 53.91600 20.24100
H  19.65900 52.95500 21.09900
H  18.93400 55.71500 21.52300
H  20.35500 54.77400 22.24700
H  18.72300 54.80600 23.02800
H  22.03900 48.79800 24.72500
H  22.98300 50.38300 24.64700
H  21.67700 49.88200 23.44700
H  21.22700 51.11600 29.79300
H  20.85000 47.51500 32.09900
H  19.57800 48.62900 32.50400
H  21.09800 48.65700 33.40700

