158

Mg 24.87200 1.19700 30.05100
C  26.97500 1.45400 32.78300
C  22.28500 1.97600 31.94400
C  23.12500 1.36700 27.18600
C  27.73400 0.28800 28.10100
N  24.72100 1.89300 32.12000
C  25.63400 1.71800 33.09000
C  25.07000 2.09100 34.49000
C  23.49900 1.98600 34.24200
C  23.49300 2.03800 32.64900
C  22.94200 0.65700 34.84000
C  25.67100 3.39900 35.03400
C  26.61700 3.31700 36.21700
H  26.27600 4.23400 37.40100
N  22.94800 1.65700 29.60300
C  21.96900 1.90300 30.54700
C  20.70400 1.88000 29.90700
C  20.97600 1.81900 28.54900
C  22.41500 1.63200 28.34400
C  19.38900 2.04400 30.69600
C  19.94500 1.83500 27.38600
O  20.29500 1.79200 26.22200
C  18.51500 1.86500 27.68900
N  25.32400 0.74500 27.89600
C  24.44000 0.93700 26.90300
C  25.08700 0.77000 25.49800
C  26.59500 0.41500 25.86100
C  26.55500 0.39200 27.36400
C  24.38100 -0.24900 24.55400
C  27.61200 1.45500 25.32300
C  27.61600 2.90800 25.77800
N  26.92600 0.84700 30.32900
C  27.99100 0.51400 29.44500
C  29.25300 0.42400 30.14000
C  28.79600 0.77700 31.48700
C  27.46000 1.05600 31.52400
C  30.67000 0.14600 29.74300
C  29.37300 1.02200 32.88800
O  30.50300 0.98200 33.29600
C  28.19100 1.42000 33.75000
C  28.11400 0.30300 34.66400
O  27.54900 -0.78600 34.44300
O  28.78700 0.56900 35.83000
C  28.72300 -0.42800 36.93200
H  21.45500 1.95300 32.65300
H  22.57400 1.48200 26.25000
H  28.65000 0.15900 27.52000
H  25.35900 1.26800 35.14300
H  22.99700 2.86500 34.64700
H  22.47700 0.98000 35.77200
H  23.67800 -0.14600 34.87200
H  22.10800 0.24300 34.27400
H  24.94000 4.04700 35.51800
H  26.22400 3.88800 34.23200
H  27.64800 3.59300 35.99700
H  26.68400 2.32800 36.67300
H  18.79900 1.14800 30.50800
H  18.78900 2.91600 30.43600
H  19.57900 2.09500 31.76800
H  18.40300 1.10600 28.46300
H  17.95000 1.77900 26.76100
H  18.23500 2.83200 28.10800
H  24.88900 1.75100 25.06600
H  26.83800 -0.61600 25.60200
H  23.33300 -0.46700 24.75800
H  25.01000 -1.14000 24.53700
H  24.51100 0.13400 23.54200
H  27.21500 1.46100 24.30800
H  28.61400 1.02700 25.28400
H  27.01300 3.04800 26.67500
H  27.19500 3.49900 24.96500
H  28.58000 3.33200 26.05900
H  30.78600 0.26000 28.66500
H  30.86600 -0.90500 29.95500
H  31.43700 0.73100 30.25000
H  28.36300 2.37400 34.24900
H  28.04200 -1.23800 36.67100
H  28.47500 0.15900 37.81600
H  29.73100 -0.79900 37.11500
Mg 26.91200 50.66900 26.21300
C  24.86300 51.96400 28.76700
C  29.14800 49.69400 28.57900
C  29.00700 49.89000 23.84200
C  24.68800 52.11800 23.91800
N  26.89600 50.73700 28.44200
C  25.96900 51.29200 29.29900
C  26.34700 51.01800 30.75700
C  27.72700 50.18900 30.66700
C  27.89400 50.14400 29.09200
C  28.88000 50.87700 31.39100
C  25.16800 50.50000 31.68600
C  25.61900 49.90200 33.03100
H  25.64900 50.73800 34.41700
N  28.89900 49.98900 26.24200
C  29.59800 49.61300 27.27300
C  30.87500 49.15600 26.87500
C  30.90100 49.17900 25.47500
C  29.60800 49.71800 25.09400
C  31.82300 48.64500 27.89300
C  31.91600 48.64200 24.42000
O  31.65500 48.73500 23.25500
C  33.29500 48.25400 24.81600
N  26.97700 51.18200 24.18200
C  27.80800 50.45400 23.38700
C  27.43400 50.41300 21.89600
C  26.00800 51.05300 21.96000
C  25.85200 51.49000 23.44600
C  28.45400 51.21300 21.09700
C  24.93800 50.06100 21.50200
C  23.81500 50.60300 20.58900
N  25.12500 51.82500 26.25500
C  24.36200 52.39500 25.23300
C  23.25700 53.13500 25.78500
C  23.43800 53.01400 27.21100
C  24.56200 52.15700 27.42300
C  22.16200 53.79300 24.99800
C  22.93400 53.40800 28.51900
O  22.03000 54.15800 28.83900
C  23.84200 52.75900 29.55900
C  24.25700 53.91700 30.42400
O  25.23900 54.61600 30.14600
O  23.50900 54.01800 31.55000
C  23.88600 54.90600 32.64000
H  29.62300 49.12300 29.37900
H  29.52300 49.41300 23.00700
H  23.87100 52.43300 23.26500
H  26.60100 52.00700 31.13900
H  27.60200 49.20800 31.12600
H  29.50000 51.49000 30.73600
H  29.50400 50.19300 31.96600
H  28.41100 51.51700 32.13800
H  24.52600 49.80400 31.14600
H  24.70600 51.45500 31.93500
H  26.62200 49.49100 32.92300
H  25.04600 48.99400 33.22300
H  31.48000 49.09900 28.82200
H  32.84100 48.93700 27.63300
H  31.85900 47.56400 28.02700
H  33.79000 48.97500 25.46600
H  33.84800 48.26000 23.87700
H  33.13600 47.24500 25.19800
H  27.40500 49.38700 21.52800
H  26.04700 51.95600 21.35200
H  28.94300 52.05000 21.59400
H  27.95200 51.61600 20.21700
H  29.27300 50.51500 20.92200
H  24.55500 49.53100 22.37400
H  25.40800 49.18500 21.05600
H  23.47600 49.79300 19.94200
H  24.18600 51.42500 19.97800
H  22.88200 50.83900 21.10000
H  21.28000 53.61300 25.61200
H  21.98700 53.26000 24.06300
H  22.46400 54.83300 24.87900
H  23.17800 52.03600 30.03400
H  24.56900 55.71300 32.37800
H  24.48400 54.29300 33.31500
H  23.10400 55.34300 33.26200

