158

Mg 1.45500 8.38700 27.49200
C  1.59300 10.21900 30.54800
C  1.17900 5.64700 29.15600
C  1.52100 6.79900 24.47200
C  1.77300 11.44600 25.81400
N  1.50200 7.93600 29.60200
C  1.33800 8.79800 30.71400
C  1.07500 8.09500 31.98800
C  1.29400 6.60700 31.57700
C  1.43400 6.67300 30.01100
C  2.49900 5.89300 32.32800
C  -0.21600 8.60700 32.64900
C  -0.06000 9.24200 34.03700
H  1.00700 8.78600 34.98800
N  1.56600 6.41100 26.87900
C  1.31800 5.42300 27.72300
C  1.14500 4.20500 27.02400
C  1.33100 4.45900 25.64500
C  1.55700 5.93700 25.58200
C  0.92200 2.83300 27.74000
C  1.49700 3.52200 24.32900
O  1.75300 4.00500 23.26000
C  1.18700 2.06400 24.42600
N  1.91600 9.00100 25.44700
C  1.88500 8.09700 24.38400
C  1.94600 8.94900 23.10800
C  1.90900 10.36500 23.48300
C  1.82000 10.25200 25.01200
C  3.00400 8.61100 22.00600
C  0.72100 11.10200 22.89900
C  -0.62800 10.92200 23.54200
N  1.67600 10.38600 28.00500
C  1.78200 11.58900 27.20200
C  1.92600 12.79600 28.02100
C  1.80900 12.25400 29.34800
C  1.75800 10.81500 29.27800
C  2.06000 14.22900 27.53200
C  1.67600 12.69100 30.71800
O  1.67600 13.79000 31.22200
C  1.63500 11.39400 31.51300
C  2.80500 11.46900 32.42800
O  3.94600 11.22000 32.05800
O  2.41200 11.79800 33.69800
C  3.38800 12.18900 34.67500
H  0.84200 4.73700 29.65600
H  1.17000 6.37700 23.52800
H  1.75100 12.39900 25.28100
H  1.90100 8.45200 32.60200
H  0.44700 5.96400 31.81400
H  2.79200 6.57800 33.12400
H  3.41400 5.62600 31.80000
H  2.18300 4.95700 32.78700
H  -0.90300 7.77200 32.77900
H  -0.71500 9.39800 32.08900
H  -0.96000 9.20400 34.65100
H  0.11600 10.30700 33.88700
H  -0.15000 2.78600 27.93000
H  1.48100 2.71900 28.66900
H  1.11900 1.96500 27.11100
H  1.38800 1.53900 23.49200
H  0.20500 2.04000 24.89800
H  1.89500 1.66900 25.15400
H  0.96500 8.64900 22.74100
H  2.81400 10.91400 23.22000
H  3.84000 7.98400 22.31900
H  3.38600 9.53900 21.58000
H  2.53900 8.02900 21.21000
H  0.57500 11.04500 21.82000
H  0.92200 12.15800 23.07800
H  -0.98100 11.86400 23.96100
H  -0.55100 10.08400 24.23600
H  -1.37400 10.66000 22.79200
H  1.31600 14.74800 26.92800
H  3.03700 14.51400 27.14200
H  1.92400 14.79800 28.45200
H  0.76100 11.37700 32.16500
H  2.85700 12.74000 35.45100
H  4.03700 12.94700 34.23500
H  3.85900 11.27300 35.03100
Mg 8.78800 48.23400 25.94700
C  6.81900 48.21000 28.73200
C  11.48400 48.75200 27.90000
C  10.53500 47.57800 23.18700
C  5.84600 48.24200 23.91200
N  9.03500 48.59600 28.12100
C  8.11000 48.48700 29.05500
C  8.75200 48.77200 30.46400
C  10.14400 49.44000 30.11600
C  10.26900 48.91200 28.65200
C  10.23600 50.97200 30.07800
C  8.91000 47.44300 31.31800
C  8.50200 47.60800 32.85400
H  8.73700 46.33500 33.72900
N  10.77300 48.29800 25.59800
C  11.74600 48.42800 26.55900
C  13.07400 48.21200 25.83800
C  12.80700 47.80800 24.51100
C  11.30800 47.87700 24.37700
C  14.47700 48.22500 26.56900
C  13.76000 47.46800 23.35800
O  13.39000 47.29600 22.20000
C  15.24200 47.53200 23.56200
N  8.19800 48.21600 23.72900
C  9.13900 47.73400 22.86700
C  8.52200 47.49200 21.45300
C  7.06100 47.81800 21.66200
C  7.00500 48.21400 23.12400
C  9.24900 48.05900 20.26400
C  6.01600 46.82600 21.17100
C  5.25800 47.13800 19.82500
N  6.79500 48.18000 26.20600
C  5.68300 48.22600 25.32100
C  4.46900 48.11600 26.09300
C  4.89500 48.00400 27.47000
C  6.27800 48.03200 27.43200
C  3.10700 48.16700 25.53300
C  4.36500 47.95800 28.85400
O  3.18800 47.81600 29.28000
C  5.66300 48.09800 29.75300
C  5.66000 46.84600 30.47000
O  6.06200 45.80500 30.01500
O  5.06800 46.89700 31.69700
C  5.08600 45.68000 32.54800
H  12.35200 48.99600 28.51600
H  11.16100 47.20900 22.37200
H  4.92200 48.35600 23.34100
H  8.12900 49.48000 31.00900
H  10.93300 49.15400 30.81200
H  10.76500 51.40700 30.92600
H  9.22800 51.38000 30.00700
H  10.57200 51.32900 29.10500
H  9.92200 47.05100 31.21400
H  8.27900 46.62200 30.97900
H  7.48100 47.97300 32.96900
H  9.18000 48.38700 33.20100
H  14.35800 48.18100 27.65200
H  15.03000 49.10400 26.23900
H  14.98600 47.29500 26.31600
H  15.97000 47.47400 22.75300
H  15.53000 46.74200 24.25600
H  15.34900 48.47700 24.09500
H  8.68300 46.46000 21.14200
H  6.93000 48.68100 21.00800
H  9.49000 47.32500 19.49500
H  10.16700 48.46500 20.69000
H  8.67300 48.83900 19.76700
H  5.19000 46.61700 21.85000
H  6.62900 46.00500 20.79800
H  4.18500 47.04000 19.99200
H  5.66600 46.50000 19.04100
H  5.48600 48.16200 19.52900
H  2.86200 49.05500 24.95200
H  2.37100 48.19300 26.33700
H  2.95900 47.31100 24.87500
H  5.64400 48.93100 30.45600
H  5.77600 44.92200 32.17800
H  4.08500 45.27100 32.68500
H  5.53100 45.99300 33.49200

