158

Mg 25.41100 1.40700 30.20700
C  27.71800 0.94300 32.92200
C  22.87600 1.72300 32.51300
C  23.27600 1.53700 27.65700
C  28.02600 0.55400 28.07100
N  25.33500 1.28700 32.51100
C  26.40400 1.26300 33.37500
C  25.92900 1.57300 34.84900
C  24.39700 1.70500 34.68100
C  24.14500 1.59000 33.14300
C  23.79600 0.48500 35.41100
C  26.68300 2.87100 35.49000
C  27.10300 2.85700 36.98700
H  26.39500 3.93300 37.88300
N  23.37200 1.59900 30.11500
C  22.52400 1.76600 31.18700
C  21.15200 1.93900 30.65000
C  21.23400 1.69000 29.27900
C  22.65900 1.54700 28.95500
C  19.86700 2.27600 31.37800
C  20.20000 1.66000 28.23900
O  20.45700 1.28900 27.13800
C  18.77100 1.91900 28.62600
N  25.49000 0.85800 28.12200
C  24.55600 1.30700 27.24400
C  25.11200 1.20600 25.77200
C  26.67000 1.06100 25.93900
C  26.78300 0.86400 27.47700
C  24.50200 0.22600 24.72900
C  27.52400 2.14600 25.31300
C  27.59400 3.59100 26.02700
N  27.43100 0.88300 30.38200
C  28.41700 0.56000 29.40900
C  29.72600 0.35100 29.99200
C  29.44500 0.51100 31.37400
C  28.11600 0.80800 31.52700
C  31.07400 -0.00200 29.31200
C  30.12600 0.46500 32.63600
O  31.29700 0.34800 32.92800
C  29.03800 0.91400 33.68200
C  28.89100 -0.14600 34.88100
O  28.10300 -1.06300 34.90500
O  29.64000 0.22800 35.96300
C  29.22300 -0.49900 37.18300
H  21.97900 1.88400 33.11400
H  22.61500 1.83000 26.83800
H  28.90100 0.49600 27.42000
H  26.14700 0.69000 35.45000
H  23.84300 2.51200 35.16200
H  24.36400 0.36900 36.33400
H  23.80900 -0.30700 34.66200
H  22.77100 0.67100 35.73400
H  25.98800 3.71000 35.51100
H  27.60300 3.21900 35.02000
H  28.14200 3.17800 37.05000
H  26.95600 1.89800 37.48500
H  19.29600 1.35100 31.29200
H  19.40000 3.17100 30.96800
H  19.93000 2.38200 32.46100
H  18.22300 1.85800 27.68500
H  18.74300 2.90400 29.09100
H  18.35600 1.14900 29.27600
H  24.94600 2.20800 25.37600
H  27.21700 0.21400 25.52300
H  24.00800 0.67800 23.86900
H  23.73700 -0.44800 25.11400
H  25.22000 -0.51200 24.37100
H  27.26800 2.32000 24.26700
H  28.57500 1.85600 25.32300
H  26.94800 3.55400 26.90400
H  27.19100 4.25400 25.26100
H  28.61900 3.86100 26.27900
H  31.00400 -0.46700 28.32800
H  31.50700 -0.71200 30.01700
H  31.74600 0.84300 29.16300
H  29.32400 1.90100 34.04300
H  29.68300 -1.47900 37.31400
H  28.14900 -0.63700 37.30400
H  29.56200 0.09400 38.03200
Mg 26.75500 50.61700 26.21700
C  24.44200 51.53100 28.83500
C  29.07600 49.79600 28.51300
C  28.75500 49.87200 23.70400
C  24.38500 51.77200 23.97700
N  26.76900 50.83500 28.45300
C  25.70400 51.08600 29.28800
C  25.99700 50.72800 30.72000
C  27.50000 50.25700 30.62200
C  27.85400 50.31200 29.07200
C  28.65700 50.96200 31.44900
C  25.01000 49.71000 31.33900
C  24.24800 50.33700 32.57500
H  24.11500 49.49700 33.87100
N  28.68300 50.04100 26.16800
C  29.52100 49.76900 27.21500
C  30.79600 49.31400 26.76600
C  30.82300 49.43900 25.39500
C  29.35700 49.84500 24.98400
C  31.77800 48.76400 27.66000
C  31.98700 49.34300 24.47100
O  31.85300 49.47700 23.29500
C  33.34900 49.14000 25.01000
N  26.53900 50.84200 24.13900
C  27.47700 50.21900 23.29700
C  27.04800 50.27600 21.84800
C  25.63900 50.92500 21.91300
C  25.47300 51.16500 23.43300
C  28.08700 51.12100 21.04200
C  24.61400 50.00200 21.27700
C  24.22600 50.22400 19.81900
N  24.84100 51.56800 26.33600
C  24.07400 51.96500 25.30300
C  22.82700 52.46900 25.82900
C  22.86300 52.33800 27.18200
C  24.11400 51.71800 27.50300
C  21.72500 53.04800 25.08000
C  22.25600 52.55700 28.49900
O  21.11900 53.03400 28.74600
C  23.25000 52.04700 29.61400
C  23.52400 53.10100 30.55900
O  24.35600 53.90800 30.30400
O  22.77500 52.91100 31.71700
C  23.07100 53.78600 32.85300
H  29.59500 49.36900 29.37300
H  29.35500 49.54400 22.85300
H  23.62500 51.91300 23.20500
H  26.12400 51.65700 31.27600
H  27.59100 49.25100 31.03000
H  29.61500 50.98100 30.93000
H  28.79000 50.52600 32.43900
H  28.44900 52.02600 31.56600
H  25.42900 48.88500 31.91500
H  24.31400 49.32400 30.59400
H  23.20600 50.49600 32.29600
H  24.61100 51.31600 32.88900
H  32.31000 47.88800 27.29000
H  31.37500 48.32500 28.57300
H  32.45300 49.56900 27.95400
H  33.93700 49.09400 24.09300
H  33.44900 48.17700 25.51200
H  33.61000 49.94400 25.69800
H  27.06600 49.27100 21.42600
H  25.46200 51.80700 21.29700
H  27.57600 51.91000 20.49000
H  28.64400 50.41100 20.43200
H  28.79600 51.57100 21.73600
H  23.70600 50.10500 21.87100
H  24.96400 48.96900 21.29200
H  24.74900 51.06500 19.36200
H  23.16000 50.44300 19.74600
H  24.61700 49.39300 19.23200
H  20.77600 52.97300 25.61000
H  21.63100 52.69600 24.05200
H  21.91500 54.11900 25.13700
H  22.91500 51.23800 30.26400
H  23.38000 54.78400 32.54400
H  23.82200 53.29300 33.47100
H  22.17400 53.89000 33.46400

