158

Mg -1.68100 17.43500 27.02700
C  -2.17900 15.23900 29.72700
C  -2.30300 19.98300 29.23100
C  -2.05100 19.47600 24.28900
C  -1.94100 14.69700 24.92700
N  -2.37900 17.57100 29.23300
C  -2.27800 16.58900 30.15600
C  -2.38200 17.05900 31.59500
C  -2.42600 18.61100 31.39100
C  -2.51900 18.74900 29.87300
C  -3.59400 19.40500 32.04200
C  -1.25400 16.52000 32.55400
C  -1.14700 17.35100 33.82400
H  -0.94900 16.62700 35.25200
N  -1.90300 19.41700 26.83100
C  -2.17400 20.26000 27.86200
C  -2.04900 21.66500 27.34600
C  -1.77300 21.54300 25.92900
C  -1.97800 20.12100 25.62200
C  -2.02200 22.90600 28.21600
C  -1.48800 22.58100 24.86100
O  -1.42900 22.32400 23.67300
C  -1.17700 23.90300 25.37100
N  -2.03900 17.18200 24.90100
C  -2.10700 18.13400 23.94700
C  -2.27900 17.58900 22.56400
C  -1.97200 16.08000 22.75600
C  -1.96800 15.91900 24.30700
C  -3.54600 17.82600 21.76800
C  -0.60100 15.63800 22.14200
C  0.66400 16.07300 22.96600
N  -1.80800 15.33900 27.19600
C  -1.93500 14.39600 26.25500
C  -2.14000 13.07700 26.92500
C  -2.22000 13.32600 28.25800
C  -2.09600 14.77300 28.38600
C  -2.43600 11.87400 26.23900
C  -2.34000 12.71100 29.54900
O  -2.35600 11.54100 29.93600
C  -2.22000 13.90300 30.58600
C  -0.93900 13.63500 31.31800
O  0.20200 13.94800 30.92000
O  -1.14900 12.92600 32.51900
C  0.05500 12.60200 33.33500
H  -2.32100 20.79800 29.95800
H  -1.93400 20.15700 23.44300
H  -2.01800 13.83400 24.26200
H  -3.31600 16.80500 32.09700
H  -1.54500 19.09700 31.81100
H  -4.09000 18.84400 32.83400
H  -4.29300 19.78500 31.29800
H  -3.23100 20.27600 32.58700
H  -0.30400 16.27900 32.07700
H  -1.57100 15.54800 32.93300
H  -1.96100 18.05300 34.00400
H  -0.17900 17.84300 33.73300
H  -2.68300 23.63100 27.74300
H  -1.00700 23.27600 28.36200
H  -2.52600 22.71700 29.16400
H  -0.47800 23.84400 26.20600
H  -2.16500 24.30600 25.59100
H  -0.75200 24.43700 24.52100
H  -1.44900 17.95100 21.95800
H  -2.68500 15.32300 22.42900
H  -4.10000 16.89600 21.89400
H  -3.29700 18.04200 20.72900
H  -4.15300 18.65000 22.14200
H  -0.58800 16.07300 21.14300
H  -0.59400 14.54800 22.12200
H  0.45400 16.55000 23.92300
H  1.09200 16.79900 22.27400
H  1.31100 15.20600 23.09500
H  -1.63000 11.47500 25.62300
H  -3.25500 11.95300 25.52400
H  -2.64800 11.18600 27.05700
H  -3.07500 13.78100 31.25100
H  -0.36900 11.94000 34.09000
H  0.47200 13.43700 33.89900
H  0.79200 12.19700 32.64200
Mg 47.24000 25.24100 28.18500
C  48.11900 27.53800 30.64800
C  46.19300 23.05200 30.55900
C  46.41700 23.08200 25.74200
C  48.50000 27.39700 25.73300
N  47.24200 25.27400 30.37000
C  47.53300 26.34700 31.17400
C  47.39400 26.03400 32.69800
C  46.84600 24.55600 32.57600
C  46.81900 24.26100 31.06300
C  47.65000 23.58400 33.40300
C  46.54500 27.16700 33.41600
C  45.83700 26.62600 34.69500
H  45.42300 27.63300 35.84000
N  46.43800 23.34900 28.13000
C  46.08100 22.57900 29.21400
C  45.63700 21.26100 28.82300
C  45.55600 21.27900 27.42300
C  46.16000 22.57200 27.00900
C  45.34000 20.09300 29.74700
C  45.04400 20.19400 26.50000
O  45.05100 20.36700 25.28600
C  44.54400 18.90100 27.03000
N  47.36900 25.21600 25.97900
C  47.02700 24.27600 25.27000
C  47.22400 24.43700 23.75500
C  47.69700 25.94300 23.67100
C  47.89900 26.24300 25.22600
C  48.15600 23.39800 23.06100
C  46.80100 26.94400 22.95000
C  47.32100 27.37800 21.51800
N  48.17000 27.04700 28.16600
C  48.56400 27.85300 27.13200
C  49.08900 29.09900 27.62200
C  48.97300 29.07400 28.97900
C  48.36900 27.76600 29.28200
C  49.73100 30.20300 26.91300
C  49.19300 29.74000 30.23900
O  49.65300 30.85000 30.49200
C  48.53100 28.88200 31.30000
C  49.49600 28.71800 32.37400
O  50.31700 27.83300 32.62900
O  49.11800 29.60200 33.37900
C  49.74700 29.48500 34.66700
H  45.69400 22.50600 31.36200
H  46.20100 22.36400 24.94800
H  48.84000 28.09900 24.96900
H  48.44500 26.14100 32.96400
H  45.82500 24.47600 32.95000
H  47.84400 22.71300 32.77700
H  47.08500 23.20500 34.25500
H  48.63700 23.97900 33.64600
H  45.91700 27.73300 32.72800
H  47.21900 27.91200 33.83700
H  46.49800 25.85900 35.09800
H  44.90900 26.15300 34.37300
H  46.04900 19.31800 29.45300
H  44.30400 19.76200 29.81700
H  45.63900 20.37300 30.75700
H  45.44700 18.61600 27.57000
H  44.29600 18.27600 26.17300
H  43.74200 19.05200 27.75300
H  46.27500 24.47200 23.22000
H  48.72400 25.90100 23.30600
H  49.03400 23.89700 22.65100
H  47.63300 23.06100 22.16500
H  48.45500 22.54700 23.67300
H  46.79200 27.77800 23.65100
H  45.77700 26.56900 22.92900
H  46.36900 27.37300 20.98800
H  48.01100 26.61300 21.16100
H  47.75000 28.37800 21.57800
H  49.36300 31.09200 27.42500
H  49.54600 30.29600 25.84300
H  50.80700 30.06800 27.02200
H  47.60300 29.36400 31.60700
H  49.25800 28.78500 35.34400
H  49.90500 30.43600 35.17600
H  50.81100 29.28700 34.53600

