158

Mg -11.49400 38.64100 40.56800
C  -10.02300 35.46500 40.08100
C  -8.86700 39.96200 38.83300
C  -13.38000 41.30400 40.23800
C  -14.49800 36.82100 41.57000
N  -9.58800 37.67700 39.60500
C  -9.25300 36.43000 39.46300
C  -7.95500 36.29200 38.63900
C  -7.48400 37.77500 38.58400
C  -8.71500 38.53000 39.04300
C  -6.25300 38.09700 39.44100
C  -8.29700 35.79800 37.22400
C  -7.11000 34.99100 36.46300
H  -6.46700 35.70900 35.33300
N  -11.10800 40.42000 39.84900
C  -9.90600 40.81400 39.27100
C  -9.95200 42.21700 39.09300
C  -11.28900 42.63500 39.31500
C  -12.00400 41.46900 39.85800
C  -8.85800 43.02200 38.50300
C  -11.86200 44.05900 38.99500
O  -11.16100 44.86700 38.43500
C  -13.30700 44.51500 39.39900
N  -13.68100 38.98600 40.65100
C  -14.14700 40.21800 40.65400
C  -15.64000 40.35400 40.97800
C  -15.95500 38.82000 41.25900
C  -14.58300 38.18100 41.26800
C  -16.03300 41.28200 42.15300
C  -17.00000 38.17000 40.16900
C  -18.07200 37.25900 40.80700
N  -12.10900 36.56700 40.97000
C  -13.34900 36.00300 41.36800
C  -13.18100 34.57300 41.43700
C  -11.85300 34.28700 40.99400
C  -11.28500 35.51200 40.70000
C  -14.36900 33.60600 41.72400
C  -10.86300 33.23600 40.75400
O  -10.93500 32.00800 40.84800
C  -9.58700 34.04900 40.24600
C  -8.55300 33.80500 41.29400
O  -8.28600 32.71700 41.80800
O  -7.77600 34.93000 41.53800
C  -6.58300 34.72300 42.30600
H  -8.01700 40.42800 38.33000
H  -13.93700 42.24300 40.25200
H  -15.42700 36.37500 41.93200
H  -7.15000 35.71400 39.09300
H  -7.26800 37.97700 37.53500
H  -6.40800 39.05900 39.92900
H  -5.40100 38.23800 38.77500
H  -5.94600 37.42600 40.24400
H  -8.46900 36.58900 36.49400
H  -9.26100 35.29500 37.29800
H  -7.59800 34.13300 36.00100
H  -6.35600 34.61300 37.15300
H  -8.92000 42.98900 37.41500
H  -7.91800 42.56600 38.81300
H  -8.79400 44.04700 38.86900
H  -13.48200 45.56800 39.17800
H  -13.21800 44.35500 40.47400
H  -14.07600 43.85200 39.00300
H  -16.21000 40.61800 40.08700
H  -16.41500 38.69600 42.24000
H  -16.68900 40.75400 42.84500
H  -16.60500 42.13500 41.78800
H  -15.20400 41.67500 42.74200
H  -16.39500 37.67700 39.40800
H  -17.44400 38.94100 39.53900
H  -17.82900 36.26500 40.43000
H  -19.11100 37.40300 40.51100
H  -18.02300 37.37300 41.89000
H  -15.06300 33.42400 40.90300
H  -14.89000 33.98700 42.60200
H  -13.94000 32.68700 42.12400
H  -9.37000 33.63400 39.26200
H  -6.01400 33.91400 41.84700
H  -6.85700 34.50900 43.33900
H  -5.86600 35.54300 42.32900
Mg -6.52900 24.48200 25.88700
C  -4.91800 26.02300 28.53700
C  -8.59900 22.77400 28.16500
C  -7.82800 22.52100 23.45400
C  -4.40000 26.00500 23.72900
N  -6.71300 24.33300 28.02300
C  -5.97100 25.13000 28.91000
C  -6.38400 24.85800 30.38400
C  -7.24300 23.57800 30.22200
C  -7.59500 23.57100 28.72900
C  -6.52200 22.28000 30.70600
C  -7.21500 26.12900 30.80900
C  -7.03600 26.47400 32.33100
H  -6.39600 25.41200 33.21000
N  -8.13900 23.03900 25.84400
C  -8.89100 22.54400 26.86300
C  -9.84500 21.60400 26.32100
C  -9.58300 21.45900 24.93300
C  -8.49200 22.39600 24.66100
C  -10.87900 20.97100 27.20800
C  -10.31000 20.63700 23.94100
O  -10.02600 20.57100 22.79600
C  -11.53400 19.81700 24.39800
N  -5.94300 24.07900 23.99200
C  -6.72800 23.29700 23.11200
C  -6.43800 23.55200 21.64500
C  -5.36500 24.70400 21.68500
C  -5.21100 24.95400 23.23900
C  -5.88900 22.20400 21.05700
C  -5.79300 25.95100 20.89800
C  -4.91400 26.64800 19.94200
N  -4.96800 25.73800 26.02300
C  -4.20400 26.34500 25.04600
C  -3.24700 27.21300 25.68300
C  -3.38100 26.99000 27.05900
C  -4.52200 26.18300 27.20200
C  -2.29400 28.19400 25.02300
C  -2.89700 27.33900 28.41200
O  -1.97800 28.04200 28.75400
C  -3.89700 26.70800 29.43600
C  -3.02400 25.70400 30.08100
O  -2.81100 24.56500 29.67600
O  -2.42000 26.31700 31.13300
C  -1.41500 25.48100 31.78700
H  -9.22000 22.40100 28.98200
H  -8.31900 22.10000 22.57500
H  -3.71500 26.50800 23.04300
H  -5.48000 24.74800 30.98200
H  -8.17400 23.66900 30.78200
H  -6.86100 22.01800 31.70900
H  -5.44500 22.41900 30.61100
H  -6.81700 21.49900 30.00500
H  -8.25600 25.92300 30.55900
H  -6.95200 27.00800 30.22000
H  -8.02000 26.65100 32.76600
H  -6.31700 27.28900 32.41800
H  -11.80500 21.54700 27.21400
H  -10.53500 20.93500 28.24200
H  -10.99900 19.91900 26.94700
H  -11.22400 18.92500 24.94200
H  -12.14800 19.37700 23.61200
H  -12.22100 20.40300 25.00800
H  -7.35300 23.86800 21.14400
H  -4.32800 24.43300 21.49100
H  -5.02000 22.53300 20.48700
H  -6.59100 21.96100 20.26000
H  -5.65300 21.38300 21.73400
H  -6.09500 26.73400 21.59400
H  -6.70800 25.67500 20.37300
H  -3.92800 26.19300 20.03600
H  -4.95900 27.73200 20.04800
H  -5.42700 26.48700 18.99400
H  -2.11100 27.97000 23.97200
H  -1.28100 28.08000 25.41000
H  -2.64100 29.22700 24.99900
H  -4.33900 27.46500 30.08400
H  -1.63400 25.25000 32.83000
H  -0.62100 26.22300 31.86500
H  -1.18900 24.48700 31.40200

