158

Mg 46.87600 25.79200 28.55300
C  47.80500 27.82200 31.27000
C  45.62200 23.52300 30.83800
C  46.24500 23.76800 25.95700
C  48.52900 28.00500 26.35700
N  46.75300 25.70600 30.79200
C  47.13300 26.69300 31.71800
C  46.80900 26.18500 33.17300
C  46.13400 24.84100 32.95000
C  46.16800 24.66900 31.41900
C  46.80800 23.65600 33.74500
C  45.97900 27.32100 33.98500
C  46.59200 27.98900 35.13500
H  45.69400 28.52900 36.26100
N  46.08600 23.87200 28.45500
C  45.54600 23.15700 29.45500
C  44.93500 21.92100 28.93500
C  45.11300 21.94600 27.55700
C  45.85700 23.23900 27.21000
C  44.08200 20.93300 29.67900
C  44.52000 21.05900 26.50400
O  44.73400 21.18300 25.33800
C  43.75600 19.86000 26.86400
N  47.39200 25.84800 26.47600
C  46.94700 24.86900 25.64200
C  47.24300 25.20300 24.12900
C  47.74300 26.71800 24.24900
C  48.00000 26.83700 25.76100
C  48.25100 24.24100 23.43500
C  46.62800 27.75000 23.79000
C  47.04600 28.66500 22.60800
N  47.88100 27.56900 28.70800
C  48.53900 28.30500 27.74700
C  49.15600 29.38600 28.35600
C  48.85800 29.29000 29.70300
C  48.14300 28.09200 29.87900
C  50.10200 30.34400 27.69000
C  49.04400 29.91500 30.94800
O  49.51000 31.03400 31.22100
C  48.47900 28.92500 32.12000
C  49.59800 28.44300 32.98900
O  50.52500 27.74500 32.61500
O  49.59400 29.02000 34.23100
C  50.55200 28.54600 35.23700
H  45.20800 22.83900 31.58200
H  46.03500 23.18500 25.05800
H  48.95300 28.75300 25.68400
H  47.78500 25.98900 33.61600
H  45.08800 24.83800 33.25700
H  47.45400 23.94600 34.57300
H  47.29700 22.91200 33.11600
H  46.02000 23.02200 34.15200
H  45.07800 26.83400 34.36000
H  45.73900 28.19200 33.37500
H  47.05100 28.91400 34.78500
H  47.47600 27.49500 35.53800
H  43.07700 21.09600 29.29000
H  44.06200 21.32900 30.69500
H  44.45300 19.91100 29.60400
H  44.39100 19.37800 27.60700
H  43.51500 19.22000 26.01500
H  42.84000 20.22100 27.33300
H  46.25400 25.09900 23.68300
H  48.65600 26.99600 23.72300
H  48.24600 23.31200 24.00500
H  49.22400 24.65600 23.17300
H  47.85900 23.91000 22.47400
H  46.39400 28.44900 24.59300
H  45.66400 27.24900 23.70100
H  46.46800 28.57200 21.68800
H  48.08400 28.52200 22.30800
H  46.92200 29.71400 22.87900
H  50.79800 29.89800 26.98000
H  50.63100 30.83300 28.50800
H  49.51400 31.13500 27.22500
H  47.87000 29.57300 32.75000
H  51.18600 27.71300 34.93300
H  49.97800 28.24700 36.11500
H  51.26000 29.31900 35.53600
Mg 4.03900 53.96300 41.45200
C  4.37600 50.66800 40.57500
C  7.18900 54.63600 40.11100
C  3.47800 57.27700 42.02700
C  0.70200 53.23400 42.65800
N  5.50500 52.78100 40.40900
C  5.51900 51.41600 40.23600
C  6.88900 50.88500 39.75100
C  7.70900 52.18400 39.75800
C  6.74200 53.27700 40.16300
C  9.12000 52.13500 40.38400
C  6.87300 50.21900 38.45900
C  5.89200 50.62000 37.31400
H  6.44500 51.32000 36.05000
N  5.13300 55.75500 40.94900
C  6.44300 55.79900 40.51900
C  6.84700 57.16800 40.43200
C  5.79000 57.97600 40.95200
C  4.75500 57.01700 41.35500
C  8.11400 57.63800 39.81800
C  5.81800 59.46800 41.05800
O  6.82900 60.13100 40.71800
C  4.56800 60.18600 41.34300
N  2.33900 55.07800 42.17600
C  2.42000 56.40400 42.41600
C  1.04800 56.91700 42.98800
C  0.10500 55.67500 42.94200
C  1.09100 54.59000 42.59000
C  1.25800 57.45300 44.49900
C  -1.10700 55.71700 41.99800
C  -2.33500 54.98400 42.61800
N  2.83200 52.30100 41.77700
C  1.51000 52.11400 42.27800
C  1.27600 50.68900 42.40800
C  2.39500 50.05500 41.72500
C  3.24500 51.10400 41.29900
C  -0.02000 50.06100 42.97100
C  2.95800 48.81400 41.46100
O  2.47100 47.74600 41.64100
C  4.24100 49.12600 40.62400
C  3.97800 48.50700 39.30200
O  3.06900 48.84100 38.50100
O  4.90300 47.53400 39.11400
C  4.75700 46.52800 38.05600
H  8.27800 54.71500 40.08500
H  3.25100 58.30900 42.30300
H  -0.29600 53.02400 43.05000
H  7.30900 50.14300 40.43000
H  7.85400 52.41600 38.70300
H  9.76700 51.43900 39.85100
H  9.01700 51.86600 41.43500
H  9.64300 53.08200 40.24800
H  6.78200 49.14300 38.60900
H  7.92700 50.29000 38.19000
H  5.05100 51.17900 37.72500
H  5.44600 49.66800 37.02500
H  8.48900 56.78300 39.25400
H  8.81800 57.83600 40.62500
H  8.00200 58.59700 39.31300
H  4.27700 60.12100 42.39200
H  3.78900 59.72100 40.73900
H  4.61700 61.26300 41.18800
H  0.57400 57.64300 42.32700
H  -0.18800 55.41500 43.95900
H  2.24700 57.89200 44.63000
H  1.03100 56.66800 45.22100
H  0.46000 58.16200 44.71500
H  -0.85500 55.45800 40.97000
H  -1.43400 56.75500 41.93600
H  -3.18900 55.65800 42.68300
H  -2.18300 54.60400 43.62800
H  -2.55500 54.12200 41.98700
H  0.11500 48.98100 43.04400
H  -0.85700 50.16600 42.28000
H  -0.14700 50.57200 43.92500
H  5.19000 48.72800 40.98300
H  5.03800 46.85800 37.05600
H  3.79200 46.03700 38.18200
H  5.46200 45.73700 38.31400

