158

Mg 43.75900 4.37500 47.36500
C  41.66600 7.21400 47.17400
C  40.92200 2.54800 46.66600
C  45.73400 1.76800 46.87600
C  46.56000 6.54700 46.98400
N  41.46100 4.95000 46.83900
C  40.88500 6.10900 46.97000
C  39.38300 5.95700 46.85300
C  39.10400 4.42900 46.68700
C  40.57200 3.92000 46.73000
C  38.33000 3.70000 47.84400
C  38.79300 6.82000 45.67400
C  39.41700 6.72600 44.28700
H  38.52900 6.24700 43.09200
N  43.38800 2.39500 46.86400
C  42.17800 1.83800 46.67500
C  42.33100 0.37400 46.58100
C  43.69000 0.10200 46.54900
C  44.37000 1.43700 46.64300
C  41.16800 -0.60500 46.47300
C  44.24700 -1.31700 46.53900
O  43.53200 -2.32400 46.35800
C  45.74600 -1.51300 46.79400
N  45.88800 4.21400 47.09000
C  46.45400 2.93200 47.14100
C  47.99400 2.97500 47.20000
C  48.25600 4.46500 46.81700
C  46.86300 5.18700 46.99500
C  48.73100 2.67200 48.52800
C  48.89800 4.77200 45.41500
C  50.41300 4.58600 45.19300
N  44.10200 6.41600 47.20200
C  45.28300 7.16300 47.14200
C  45.03300 8.55800 47.31900
C  43.64300 8.58800 47.39800
C  43.09800 7.30400 47.32100
C  45.97000 9.69300 47.38000
C  42.53600 9.47700 47.49200
O  42.44500 10.71000 47.40400
C  41.17500 8.62600 47.32400
C  40.29800 8.92100 48.49800
O  40.53600 8.44600 49.57900
O  39.28200 9.69100 48.15600
C  38.13600 9.76300 49.02400
H  40.11200 1.85400 46.43000
H  46.27500 0.82500 46.77200
H  47.40000 7.24400 46.95100
H  38.91800 6.26400 47.79000
H  38.43000 4.27100 45.84600
H  37.56600 4.34500 48.27600
H  39.00100 3.44600 48.66400
H  37.68200 2.89800 47.48900
H  38.75300 7.86100 45.99400
H  37.76300 6.47100 45.59800
H  40.35000 6.16100 44.30300
H  39.81300 7.72500 44.10800
H  40.19000 -0.12600 46.48800
H  41.35500 -1.33600 47.25900
H  41.25300 -1.14600 45.53000
H  46.34400 -1.19800 45.93900
H  46.04300 -2.55800 46.88800
H  45.98700 -1.04400 47.74800
H  48.23600 2.16500 46.51300
H  48.81900 4.95800 47.61000
H  49.11300 1.65300 48.59500
H  48.14500 2.97100 49.39600
H  49.64600 3.26100 48.60800
H  48.78400 5.82500 45.15900
H  48.32700 4.17000 44.70800
H  50.68300 5.46000 44.60000
H  50.65300 3.65400 44.68200
H  50.94900 4.67500 46.13800
H  45.55300 10.53900 46.83400
H  46.85300 9.48300 46.77700
H  46.18500 10.13000 48.35500
H  40.68100 8.94000 46.40400
H  38.30100 10.38500 49.90400
H  37.84600 8.73900 49.26400
H  37.32700 10.21600 48.45100
Mg 25.60200 51.70900 26.55300
C  23.17100 52.53900 29.03500
C  27.72600 50.69500 29.14100
C  28.08400 51.24600 24.41100
C  23.53700 52.94400 24.03800
N  25.49100 51.77400 28.85900
C  24.35600 52.00500 29.56900
C  24.66200 51.60300 30.98500
C  26.13100 51.06500 31.02100
C  26.51800 51.18100 29.57400
C  27.10800 51.72200 32.10800
C  23.67000 50.60100 31.58000
C  22.98700 51.06500 32.83400
H  23.14200 50.25600 34.11600
N  27.63900 51.08300 26.74100
C  28.28300 50.68200 27.89400
C  29.66700 50.35900 27.55100
C  29.80400 50.38200 26.12600
C  28.47000 50.92800 25.72100
C  30.55000 49.66900 28.58700
C  31.01000 49.97900 25.26200
O  31.12100 50.06000 24.00800
C  32.32200 49.40200 25.93600
N  25.75300 52.00800 24.52000
C  26.87600 51.76500 23.94500
C  26.66000 51.89400 22.43500
C  25.23600 52.42600 22.29400
C  24.76100 52.41700 23.67700
C  27.70300 52.82100 21.66000
C  24.36500 51.55000 21.35800
C  23.36100 52.30100 20.48200
N  23.76000 52.53600 26.48800
C  23.06200 53.06700 25.37000
C  21.74300 53.51200 25.88800
C  21.79400 53.33500 27.29100
C  22.97100 52.71600 27.60600
C  20.63800 53.98400 25.06800
C  20.97200 53.42100 28.45000
O  19.80600 53.75200 28.51000
C  21.82400 52.90400 29.62100
C  22.10000 54.01700 30.53300
O  22.56200 55.10300 30.22200
O  21.51300 53.64900 31.71800
C  21.26500 54.87200 32.54900
H  28.40700 50.32700 29.91100
H  28.80400 51.18300 23.59200
H  22.91400 53.41000 23.27200
H  24.63700 52.53200 31.55500
H  26.24100 49.98500 30.92400
H  27.55500 50.93300 32.71300
H  26.51800 52.44100 32.67800
H  27.85500 52.27000 31.53400
H  24.18000 49.66500 31.81000
H  22.94500 50.47400 30.77600
H  21.91700 51.05900 32.62700
H  23.21500 52.11200 33.03100
H  30.59100 48.58600 28.47000
H  30.39500 49.91500 29.63700
H  31.54700 50.02500 28.33000
H  32.05300 48.55500 26.56600
H  32.81000 50.20500 26.48800
H  33.06700 49.05600 25.21800
H  26.73100 50.87600 22.05100
H  25.25500 53.45700 21.94100
H  27.13000 53.55100 21.08800
H  28.41300 52.28300 21.03300
H  28.31500 53.38200 22.36600
H  23.94200 50.77700 22.00000
H  25.01000 51.04300 20.64100
H  23.48400 52.07800 19.42200
H  23.37700 53.37200 20.68600
H  22.36900 51.95100 20.76700
H  19.78800 53.63100 25.65100
H  20.68000 53.55300 24.06800
H  20.44600 55.05300 24.97500
H  21.36100 52.03400 30.08600
H  21.45100 55.84900 32.10300
H  21.70300 54.84700 33.54600
H  20.21800 54.88600 32.84900

