158

Mg 44.33700 4.74100 46.40500
C  42.31300 7.73300 46.02300
C  41.38700 3.00000 45.73200
C  46.27000 2.22100 45.99400
C  47.15200 6.90200 46.59500
N  42.07500 5.36400 45.95800
C  41.53200 6.57400 45.89600
C  40.01200 6.45700 45.69900
C  39.70700 4.90400 45.78500
C  41.13000 4.39100 45.81400
C  38.86600 4.39400 47.04200
C  39.54500 7.25300 44.48400
C  40.48400 7.07900 43.23800
H  39.79700 7.14400 41.78600
N  43.87300 2.87100 45.97000
C  42.62000 2.36800 45.72400
C  42.82700 0.94700 45.38400
C  44.18900 0.58700 45.47000
C  44.88600 1.87600 45.87600
C  41.75000 -0.00500 44.91400
C  44.83600 -0.79000 45.07400
O  44.15800 -1.73200 44.78600
C  46.24500 -1.01600 44.85600
N  46.41300 4.56500 46.40800
C  47.01300 3.38000 46.09200
C  48.56000 3.44400 46.19100
C  48.79400 4.98300 46.38400
C  47.37900 5.56000 46.45500
C  49.19700 2.60000 47.33100
C  49.73400 5.59800 45.32400
C  51.21500 5.46200 45.72400
N  44.72200 6.83400 46.36100
C  45.90000 7.54900 46.53900
C  45.66100 8.96600 46.59400
C  44.23800 9.05600 46.52600
C  43.71000 7.70300 46.30700
C  46.70200 10.16700 46.60000
C  43.17900 9.97700 46.49300
O  43.15900 11.19800 46.54100
C  41.90400 9.20700 46.08300
C  40.83000 9.49000 47.03900
O  40.65700 8.85800 48.09200
O  39.88700 10.32200 46.54000
C  38.58200 10.49200 47.18300
H  40.50600 2.38500 45.53700
H  46.98000 1.39300 45.92900
H  47.94400 7.63500 46.76200
H  39.55800 6.91500 46.57700
H  39.43900 4.52000 44.80100
H  39.58200 3.84700 47.65400
H  38.06800 3.76500 46.64700
H  38.39800 5.21100 47.59100
H  39.34300 8.25800 44.85500
H  38.55700 6.83700 44.28800
H  40.91700 6.08200 43.31700
H  41.21900 7.88400 43.25100
H  40.76400 0.38000 45.17500
H  41.88000 -0.87000 45.56400
H  41.84500 -0.24200 43.85400
H  46.68000 -0.99800 45.85500
H  46.66200 -0.19800 44.26900
H  46.43300 -1.94100 44.31100
H  48.88100 3.23400 45.17100
H  49.26300 5.04500 47.36600
H  48.51100 1.98100 47.90800
H  49.68800 3.12400 48.15100
H  49.88900 1.89200 46.87500
H  49.47100 6.65500 45.31100
H  49.57000 5.25800 44.30100
H  51.37800 4.96000 46.67800
H  51.57400 6.49100 45.71200
H  51.74000 4.83800 45.00100
H  46.41800 10.87900 47.37500
H  46.62100 10.50000 45.56500
H  47.68800 9.83300 46.92100
H  41.60300 9.57500 45.10200
H  37.96000 9.61300 47.35500
H  38.01100 11.15300 46.53100
H  38.69900 10.99300 48.14300
Mg 42.30500 41.74000 26.55000
C  41.31600 44.26000 28.78900
C  43.41600 39.93200 29.06000
C  43.51400 39.59500 24.31600
C  41.48200 44.08200 23.92800
N  42.28600 42.12100 28.62600
C  41.81100 43.14800 29.38200
C  41.89500 42.86900 30.87700
C  42.39600 41.38400 30.93600
C  42.70800 41.06900 29.44700
C  43.54400 41.08200 31.93600
C  40.56500 43.17400 31.69400
C  40.06800 42.31800 32.84900
H  39.41500 43.15800 33.98500
N  43.35200 39.98800 26.64100
C  43.60600 39.31700 27.78300
C  44.16500 37.98800 27.54200
C  44.17800 37.86700 26.07300
C  43.69200 39.16300 25.61600
C  44.52600 36.95700 28.66300
C  44.60900 36.74300 25.18600
O  44.50000 36.70900 23.93600
C  45.14500 35.57200 25.84100
N  42.69500 41.96700 24.44900
C  43.07200 40.78900 23.75100
C  42.75800 41.03200 22.24600
C  41.98300 42.35600 22.19600
C  42.09400 42.86600 23.63700
C  44.05200 40.98900 21.41400
C  40.53500 42.23700 21.78000
C  39.58900 41.45200 22.67700
N  41.56200 43.78400 26.35700
C  41.31500 44.57300 25.25600
C  40.77600 45.81100 25.70500
C  40.76300 45.77200 27.09000
C  41.22600 44.50400 27.44600
C  40.47900 46.95300 24.83500
C  40.53400 46.56100 28.23900
O  40.19100 47.73800 28.36300
C  40.87700 45.55700 29.47900
C  41.98200 46.13300 30.24100
O  43.15400 46.18000 29.91500
O  41.46000 46.76200 31.39400
C  42.45500 47.23700 32.35800
H  43.66700 39.31000 29.92100
H  43.81100 38.81700 23.60900
H  40.90300 44.71100 23.24900
H  42.69600 43.53600 31.19400
H  41.63600 40.66100 31.23300
H  43.49000 41.66100 32.85800
H  44.44900 41.24900 31.35200
H  43.40300 40.01900 32.13300
H  39.74100 43.20300 30.98100
H  40.66600 44.20200 32.04200
H  40.87300 41.74500 33.31000
H  39.29100 41.66000 32.46100
H  45.54500 36.61400 28.48500
H  43.84200 36.10900 28.61800
H  44.73700 37.39600 29.63900
H  44.36700 35.19200 26.50300
H  46.05300 35.83600 26.38300
H  45.36600 34.71900 25.19900
H  42.09700 40.21000 21.97000
H  42.37400 43.12600 21.53100
H  44.88200 41.22700 22.07900
H  44.05600 41.76000 20.64300
H  44.33900 40.07600 20.89100
H  40.67800 41.80400 20.79000
H  40.22000 43.27500 21.66500
H  39.03700 42.11500 23.34400
H  40.03500 40.68000 23.30400
H  38.86900 41.06100 21.95900
H  39.65800 46.62100 24.19900
H  41.43700 47.27900 24.43200
H  40.04500 47.81400 25.34400
H  40.05500 45.42500 30.18200
H  42.00500 48.04200 32.93800
H  43.40400 47.69900 32.08500
H  42.50300 46.36400 33.00900

