158

Mg 54.21000 23.46200 44.82000
C  51.71900 25.66600 43.80600
C  52.48600 20.94200 43.40500
C  56.81200 21.39600 45.61200
C  56.12800 26.23800 45.82000
N  52.41300 23.42000 43.58600
C  51.44200 24.32800 43.39200
C  50.35200 23.79500 42.43500
C  50.36200 22.32200 42.90200
C  51.86000 22.16500 43.23400
C  49.28100 21.96700 43.99700
C  50.67700 23.90600 40.89000
C  49.72400 24.60400 39.88200
H  50.42600 25.28600 38.68000
N  54.59300 21.43900 44.46200
C  53.70400 20.59900 43.92200
C  54.23800 19.22000 43.95700
C  55.40200 19.24900 44.77500
C  55.70600 20.74000 44.96800
C  53.52500 17.98800 43.25100
C  56.23000 17.98700 45.20900
O  55.91400 16.91300 44.77900
C  57.55800 18.10200 45.89600
N  56.18300 23.79300 45.49500
C  56.96800 22.74600 45.86400
C  58.22600 23.23000 46.58800
C  58.25700 24.79000 46.34100
C  56.74100 24.98900 45.85300
C  58.25600 22.65800 48.06400
C  59.20600 25.23900 45.17400
C  59.73200 26.65100 45.38700
N  53.98500 25.50500 44.93600
C  54.80900 26.48000 45.44200
C  54.08200 27.71200 45.47100
C  52.92800 27.49800 44.75500
C  52.86000 26.09800 44.50300
C  54.59100 28.90600 46.23300
C  51.62700 27.99800 44.26400
O  51.24300 29.13600 44.27200
C  50.86300 26.88400 43.67200
C  50.40400 27.18200 42.30000
O  51.02700 27.55900 41.37800
O  49.07000 27.02300 42.22600
C  48.45600 28.02700 41.32900
H  52.00100 20.07700 42.94800
H  57.59500 20.72300 45.97100
H  56.65500 27.05500 46.31700
H  49.43700 24.34700 42.64800
H  50.00700 21.70300 42.07800
H  48.51400 22.73200 44.11900
H  49.71300 21.69000 44.95800
H  48.80800 21.04400 43.65900
H  50.92400 22.90900 40.52500
H  51.61500 24.44500 40.76100
H  49.15400 25.32600 40.46700
H  49.04600 23.86800 39.45100
H  52.97800 17.35700 43.95100
H  54.41800 17.47300 42.89600
H  52.98700 18.22400 42.33300
H  57.98100 17.09900 45.96500
H  57.31700 18.44900 46.90100
H  58.24500 18.72700 45.32500
H  59.06300 22.79000 46.04700
H  58.34600 25.28300 47.30800
H  58.65600 21.64400 48.08300
H  57.26200 22.64700 48.51200
H  58.93600 23.30200 48.62200
H  58.59300 25.27700 44.27400
H  60.02700 24.55200 44.96900
H  59.68100 26.93700 46.43800
H  59.23300 27.36500 44.73000
H  60.77500 26.68400 45.07100
H  54.75900 28.62600 47.27300
H  53.87700 29.72400 46.14700
H  55.45800 29.26000 45.67400
H  49.95200 26.72400 44.24700
H  48.86400 29.03000 41.45500
H  47.36900 27.97100 41.38300
H  48.60300 27.69200 40.30200
Mg 47.48300 16.80300 28.31300
C  45.25600 16.35700 31.06500
C  49.53600 18.52200 30.22700
C  49.25500 17.49500 25.54100
C  45.34200 14.85800 26.42200
N  47.27200 17.46300 30.39700
C  46.38100 17.08400 31.36500
C  46.91500 17.50800 32.77400
C  48.23400 18.27100 32.41100
C  48.41400 18.12200 30.94600
C  48.15000 19.81300 32.80500
C  47.03900 16.34100 33.85000
C  46.57300 16.53000 35.30500
H  46.23600 17.86900 35.86200
N  49.29300 17.77700 27.93900
C  49.97200 18.43700 28.86800
C  51.09700 19.06000 28.28600
C  51.09100 18.75100 26.87600
C  49.85300 17.99400 26.68900
C  52.09700 19.79900 29.14900
C  52.02600 19.07500 25.85900
O  51.93900 18.68000 24.71400
C  53.25400 19.89000 26.27500
N  47.27800 16.25200 26.28200
C  48.16000 16.60900 25.34900
C  47.68600 16.20900 23.99400
C  46.47800 15.28200 24.22500
C  46.39500 15.36000 25.74100
C  47.29000 17.42800 23.13100
C  46.66400 13.78000 23.70000
C  45.43700 12.99900 23.18700
N  45.67100 15.91900 28.55600
C  44.87400 15.21000 27.70100
C  43.60900 14.76100 28.30400
C  43.76200 15.25700 29.57600
C  44.95000 15.91300 29.70700
C  42.48000 13.92700 27.69900
C  43.07900 15.16800 30.84400
O  42.06900 14.58000 31.18100
C  44.09200 15.84700 31.89500
C  43.22700 16.80600 32.60700
O  42.78800 17.87100 32.19600
O  42.92300 16.32600 33.87200
C  42.04100 17.14100 34.76300
H  50.25100 18.96800 30.92200
H  49.70100 17.76500 24.58200
H  44.50600 14.31300 25.97700
H  46.17500 18.18200 33.20600
H  49.01000 17.71100 32.93300
H  48.65900 20.39800 32.03900
H  48.91400 19.94900 33.57000
H  47.17200 20.19400 33.09800
H  48.07800 16.05600 33.68400
H  46.41900 15.51700 33.49500
H  47.18400 16.07400 36.08400
H  45.68300 15.90200 35.30600
H  52.29000 19.26500 30.07900
H  51.78800 20.81800 29.38600
H  53.10400 19.66500 28.75400
H  53.57300 20.38300 25.35700
H  54.04400 19.29100 26.72700
H  52.90100 20.75400 26.83900
H  48.46500 15.63600 23.49200
H  45.54000 15.70800 23.86800
H  47.04100 18.29100 23.74700
H  46.43900 17.17800 22.49700
H  48.09700 17.54900 22.40800
H  47.04400 13.07900 24.44300
H  47.36000 13.78200 22.86100
H  45.66600 12.72300 22.15800
H  44.54100 13.61900 23.20700
H  45.24200 12.08600 23.75000
H  42.82400 13.40800 26.80500
H  41.61000 14.49600 27.37300
H  42.04700 13.26600 28.45000
H  44.54900 15.22600 32.66600
H  41.08400 16.69400 35.03300
H  41.88600 18.14000 34.35600
H  42.58300 17.24400 35.70200

