158

Mg 9.74900 47.30700 27.00300
C  7.99500 47.23300 29.89200
C  12.48000 48.46900 28.50100
C  11.27700 47.31000 24.02500
C  6.56500 46.51100 25.27500
N  10.16300 47.95500 28.96300
C  9.35600 47.62600 30.01900
C  10.10700 48.00800 31.37500
C  11.41100 48.66700 30.76800
C  11.35900 48.25000 29.33800
C  11.40000 50.22100 30.85800
C  10.34600 46.67400 32.20900
C  10.08600 46.73000 33.65500
H  10.45300 45.58800 34.57000
N  11.61100 47.80700 26.36200
C  12.61500 48.22000 27.15300
C  13.80900 48.31500 26.43800
C  13.50600 48.04200 25.08300
C  12.01600 47.74800 25.10400
C  15.04600 48.98700 26.92800
C  14.38600 47.95200 23.85100
O  13.90800 47.69100 22.79200
C  15.91400 48.10900 23.92500
N  8.92600 47.08700 24.89300
C  9.86200 46.96900 23.94700
C  9.20100 46.68700 22.60600
C  7.75200 46.20000 23.03700
C  7.75100 46.66300 24.48000
C  9.25700 47.86900 21.60700
C  7.64900 44.60600 22.93900
C  8.72900 43.80400 23.68000
N  7.75400 46.89700 27.40900
C  6.54800 46.65900 26.66400
C  5.39600 46.47700 27.56000
C  5.98600 46.62000 28.79600
C  7.35700 46.96000 28.66300
C  3.95200 46.27500 27.17900
C  5.60700 46.71700 30.16800
O  4.53200 46.69100 30.74700
C  6.94400 47.06700 30.92700
C  7.08800 45.91600 31.83700
O  7.52800 44.78500 31.56300
O  6.71600 46.36800 33.05800
C  6.57800 45.31400 34.05500
H  13.37600 48.76000 29.05400
H  11.74700 47.27700 23.04000
H  5.62400 46.36500 24.74100
H  9.56600 48.68700 32.03500
H  12.33300 48.22200 31.14200
H  12.10500 50.53500 31.62700
H  10.39700 50.62100 31.01000
H  11.73900 50.53300 29.87000
H  11.41300 46.45100 32.20000
H  9.86500 45.83800 31.70100
H  9.04800 47.01500 33.82500
H  10.59000 47.65000 33.95200
H  14.88500 49.44000 27.90600
H  15.30500 49.82900 26.28600
H  15.96200 48.39700 26.97100
H  16.28200 47.90300 22.91900
H  16.16000 47.38200 24.69900
H  16.22000 49.13600 24.12200
H  9.70200 45.84100 22.13600
H  6.97400 46.45100 22.31600
H  9.88400 48.69500 21.94400
H  8.29100 48.30300 21.34700
H  9.68800 47.56600 20.65300
H  7.90200 44.45200 21.89000
H  6.65000 44.28800 23.23600
H  8.60900 44.31300 24.63700
H  9.70900 43.96900 23.23100
H  8.45400 42.75100 23.73500
H  3.80500 46.19300 26.10200
H  3.35700 47.07800 27.61300
H  3.64700 45.35000 27.66800
H  6.88600 48.00000 31.48700
H  6.30800 45.77000 35.00800
H  7.58600 45.01200 34.33800
H  5.86000 44.54600 33.76800
Mg 1.15600 41.02500 26.20900
C  2.32800 41.85800 29.44000
C  -1.60800 39.84900 27.74900
C  0.04200 40.58400 23.10900
C  4.19400 42.47400 24.94300
N  0.37300 41.09300 28.36000
C  0.99500 41.52000 29.46700
C  0.14400 41.36700 30.67400
C  -1.16200 40.58100 30.15000
C  -0.81500 40.43000 28.66000
C  -1.50600 39.30600 30.97600
C  -0.10900 42.74400 31.29500
C  0.58700 42.92300 32.65300
H  -0.38100 43.06100 33.87400
N  -0.40000 40.12000 25.51300
C  -1.48600 39.61800 26.28900
C  -2.33700 38.91200 25.40500
C  -1.96000 39.19800 24.07200
C  -0.72500 39.95300 24.16600
C  -3.62000 38.29700 25.98300
C  -2.71800 38.92500 22.75200
O  -2.29600 39.30400 21.65600
C  -4.07100 38.24900 22.73700
N  2.12500 41.36300 24.31600
C  1.29600 41.17800 23.17800
C  2.09200 41.59900 21.91000
C  3.21300 42.47800 22.60600
C  3.23300 42.09500 24.01000
C  2.68900 40.50600 21.00200
C  2.99300 44.10100 22.38400
C  4.13400 44.94100 21.83100
N  2.96700 41.90700 27.03300
C  4.09300 42.36800 26.38600
C  5.05600 42.70400 27.40400
C  4.38600 42.53900 28.60500
C  3.11400 42.08700 28.32600
C  6.39800 43.16900 27.15900
C  4.58800 42.53700 30.01900
O  5.55600 42.89400 30.71100
C  3.23700 42.08300 30.64600
C  3.51300 40.77100 31.53100
O  3.34300 39.60400 31.18600
O  3.77300 41.20800 32.81900
C  3.40000 40.35700 33.92200
H  -2.56800 39.57200 28.18900
H  -0.36500 40.48400 22.10000
H  5.11900 42.96500 24.63400
H  0.75400 40.73600 31.32000
H  -1.99100 41.28700 30.18200
H  -2.00700 38.53600 30.38800
H  -2.21100 39.55300 31.77000
H  -0.68200 38.75300 31.42700
H  -1.17800 42.91300 31.42300
H  0.23400 43.45900 30.54700
H  1.07800 43.89600 32.61200
H  1.31900 42.15200 32.89400
H  -4.44500 38.96600 25.73900
H  -3.63500 38.26600 27.07200
H  -3.90800 37.27900 25.71900
H  -4.78500 38.99100 23.09200
H  -3.94300 37.42900 23.44400
H  -4.38900 37.95400 21.73700
H  1.47800 42.22900 21.26600
H  4.15500 42.09500 22.21500
H  2.80700 39.56200 21.53400
H  3.68300 40.74100 20.62000
H  2.04200 40.33900 20.14200
H  2.79500 44.44500 23.39900
H  2.13600 44.36200 21.76300
H  4.65200 45.55700 22.56700
H  3.68000 45.51900 21.02600
H  4.88400 44.29200 21.37800
H  7.01700 42.27200 27.15200
H  6.68300 43.92100 27.89500
H  6.46200 43.72500 26.22400
H  3.07400 42.85800 31.39500
H  3.49500 40.95200 34.83000
H  4.24000 39.67800 34.06300
H  2.43300 39.89000 33.73500

