158

Mg 1.61000 -0.95100 44.32000
C  4.99900 -0.46000 43.52600
C  0.85400 1.72800 42.45900
C  -1.48500 -2.13100 44.24600
C  2.64500 -3.89400 46.04900
N  2.75900 0.42500 43.07900
C  4.09400 0.36900 42.87200
C  4.58300 1.55400 41.99400
C  3.25700 2.35900 41.74200
C  2.22100 1.51300 42.58600
C  3.25300 3.94800 42.00900
C  5.35400 1.24400 40.69500
C  6.50700 2.29600 40.39400
H  6.38000 3.15600 39.16400
N  -0.09000 -0.21000 43.55300
C  -0.22400 0.95600 42.81500
C  -1.61200 1.25000 42.57500
C  -2.34200 0.16100 43.16600
C  -1.28700 -0.82100 43.69700
C  -2.04900 2.53500 41.97700
C  -3.82700 0.05800 43.30400
O  -4.55600 0.94000 42.87100
C  -4.44700 -0.96600 44.19500
N  0.72000 -2.82000 44.97100
C  -0.58400 -3.02600 44.78400
C  -0.92700 -4.47400 45.26100
C  0.21400 -4.73800 46.22200
C  1.28100 -3.81400 45.72800
C  -2.39400 -4.66900 45.96700
C  0.61700 -6.27300 46.42000
C  0.73200 -6.63100 47.94800
N  3.40400 -1.98400 44.79600
C  3.65600 -3.19100 45.46100
C  5.08400 -3.26300 45.62900
C  5.68500 -2.19000 44.96200
C  4.59600 -1.48600 44.43100
C  5.73800 -4.36200 46.41200
C  6.94200 -1.54800 44.53000
O  8.11200 -1.82700 44.76300
C  6.50500 -0.46400 43.53900
C  7.02600 0.72400 44.08800
O  6.60400 1.36700 45.03400
O  8.16400 1.13500 43.31000
C  8.52700 2.57600 43.70800
H  0.60700 2.60900 41.86300
H  -2.53800 -2.40700 44.33700
H  2.89100 -4.72400 46.71600
H  5.14200 2.26400 42.60300
H  2.89500 2.08800 40.75100
H  2.67600 4.55800 41.31400
H  4.27300 4.31600 42.12000
H  2.72800 4.05000 42.95800
H  4.80800 1.20300 39.75200
H  5.82200 0.27800 40.88000
H  7.39000 1.66400 40.29800
H  6.55700 3.09300 41.13600
H  -3.10100 2.62700 41.70800
H  -1.57300 2.83800 41.04400
H  -1.80200 3.25800 42.75300
H  -5.47100 -0.68400 44.43900
H  -3.87900 -0.99800 45.12500
H  -4.44100 -1.90200 43.63600
H  -0.90300 -5.12800 44.38900
H  -0.13900 -4.32100 47.16500
H  -3.20000 -4.35200 45.30400
H  -2.38400 -4.24500 46.97200
H  -2.69900 -5.70300 46.12600
H  1.58500 -6.61400 46.05300
H  -0.13500 -6.87500 45.91100
H  -0.16600 -7.13500 48.30500
H  0.99700 -5.71600 48.47700
H  1.61800 -7.26200 48.01000
H  6.76300 -4.65200 46.18400
H  5.16400 -5.26100 46.18800
H  5.63300 -4.11800 47.46900
H  6.97300 -0.52100 42.55500
H  9.09500 3.08800 42.93100
H  9.08300 2.46000 44.63800
H  7.71000 3.29200 43.80200
Mg 48.85500 44.75400 42.57100
C  45.64500 45.38100 41.56200
C  48.69000 41.63100 41.17500
C  52.16900 44.54900 42.92600
C  49.19500 48.28700 43.39800
N  47.43600 43.75100 41.44200
C  46.11100 44.10400 41.23000
C  45.40700 43.13600 40.28900
C  46.23200 41.84600 40.48500
C  47.53200 42.38600 41.16300
C  45.53400 40.79700 41.32000
C  45.37100 43.67400 38.82900
C  44.06900 43.58200 38.12400
H  44.08300 42.90000 36.73700
N  50.21100 43.27700 42.21500
C  49.97800 42.02000 41.62100
C  51.20400 41.32200 41.63400
C  52.17000 42.13300 42.24100
C  51.51700 43.41500 42.50100
C  51.29800 39.90900 40.98300
C  53.63500 41.74600 42.51700
O  54.14800 40.68700 42.18900
C  54.58800 42.58400 43.45600
N  50.45600 46.26100 43.10100
C  51.73500 45.85400 43.13900
C  52.63200 46.94300 43.61000
C  51.72700 48.19100 43.52300
C  50.38500 47.60700 43.28000
C  53.20100 46.69300 45.06300
C  52.07600 49.02800 42.20700
C  52.58500 50.44900 42.56200
N  47.68400 46.46900 42.51700
C  47.91000 47.79200 42.95200
C  46.67900 48.54400 42.86900
C  45.76700 47.58500 42.39700
C  46.42800 46.37600 42.10100
C  46.38500 49.99500 43.35800
C  44.33700 47.35100 42.11600
O  43.40900 48.15200 42.23300
C  44.20100 45.85600 41.55000
C  43.34900 44.96500 42.39500
O  42.18500 44.62000 42.19600
O  44.04200 44.43600 43.40300
C  43.48600 43.27100 44.11600
H  48.61300 40.60200 40.81900
H  53.23400 44.45600 43.14900
H  49.20300 49.35100 43.64100
H  44.45700 42.90500 40.77200
H  46.58600 41.41700 39.54800
H  46.22900 40.45600 42.08800
H  45.21400 39.94400 40.72200
H  44.70100 41.21000 41.88900
H  46.04600 43.10000 38.19300
H  45.61300 44.72400 38.66900
H  43.54700 44.53800 38.10200
H  43.35800 42.94800 38.65400
H  52.03900 39.34900 41.55400
H  51.59900 39.76400 39.94600
H  50.32600 39.44400 41.14400
H  53.95300 42.96200 44.25700
H  55.02300 43.27400 42.73300
H  55.31100 41.84900 43.80900
H  53.47100 46.97100 42.91500
H  51.69700 48.68200 44.49500
H  52.58300 47.06600 45.88000
H  54.18700 47.15100 44.98200
H  53.19700 45.61000 45.18400
H  51.19400 49.11100 41.57100
H  52.83200 48.47000 41.65500
H  53.60300 50.50700 42.17600
H  52.59400 50.70000 43.62300
H  51.92900 51.18700 42.10100
H  45.29900 50.08300 43.39700
H  46.70900 50.79000 42.68600
H  46.80300 50.08100 44.36100
H  43.75200 45.97100 40.56300
H  42.93100 42.53100 43.53900
H  42.82000 43.55800 44.93000
H  44.37200 42.73300 44.45400

