158

Mg 2.74800 -2.44700 43.68600
C  6.04300 -1.48800 43.11000
C  1.58600 0.03800 41.51900
C  -0.24400 -3.95500 43.58900
C  4.04300 -5.35400 45.17700
N  3.73300 -0.94200 42.48000
C  5.15000 -0.68000 42.37700
C  5.44000 0.49100 41.40800
C  3.95100 0.97000 41.08300
C  2.99600 -0.06000 41.69400
C  3.60400 2.34500 41.62100
C  6.40700 -0.03400 40.23200
C  7.71600 0.78800 40.06600
H  8.30400 0.97200 38.66100
N  0.84600 -1.79000 42.96500
C  0.59200 -0.76600 42.08700
C  -0.80600 -0.67700 41.83200
C  -1.35700 -1.88000 42.34300
C  -0.30400 -2.60400 43.01800
C  -1.39000 0.59500 41.07700
C  -2.82700 -2.27500 42.16300
O  -3.57800 -1.47900 41.52000
C  -3.49700 -3.54600 42.54700
N  2.06500 -4.44600 44.17000
C  0.72500 -4.74800 44.16100
C  0.43200 -6.23600 44.58800
C  1.74600 -6.51800 45.34700
C  2.72000 -5.43100 44.81600
C  -0.88300 -6.37500 45.44200
C  2.34200 -7.95900 45.12600
C  2.94200 -8.79300 46.27700
N  4.59800 -3.22500 44.25400
C  4.97800 -4.40400 44.82100
C  6.41500 -4.40300 45.11700
C  6.80500 -3.18800 44.49900
C  5.69000 -2.62600 43.88900
C  7.18800 -5.45100 45.88000
C  7.96000 -2.40600 44.21100
O  9.10900 -2.62600 44.51900
C  7.48500 -1.23900 43.35500
C  7.72200 0.02700 44.13800
O  7.26000 0.25300 45.24500
O  8.46800 0.86800 43.32400
C  8.63400 2.17200 43.84400
H  1.18500 0.84100 40.89600
H  -1.21900 -4.44300 43.52900
H  4.37300 -6.19500 45.79000
H  6.00300 1.24600 41.95700
H  3.81400 1.08800 40.00800
H  4.53000 2.90300 41.76200
H  3.03200 2.24000 42.54300
H  3.01900 2.88500 40.87700
H  5.90900 0.18300 39.28700
H  6.63500 -1.09600 40.31800
H  8.41700 0.24300 40.69800
H  7.53300 1.79100 40.44900
H  -2.40900 0.76900 41.42300
H  -1.34200 0.45700 39.99600
H  -0.81400 1.51500 41.17300
H  -3.43100 -3.92500 43.56600
H  -3.02400 -4.28300 41.89900
H  -4.57700 -3.43000 42.45800
H  0.31300 -6.77200 43.64700
H  1.64400 -6.29800 46.41000
H  -1.21900 -5.34100 45.51200
H  -0.71900 -6.95900 46.34800
H  -1.72900 -6.82500 44.92300
H  3.04200 -7.91000 44.29200
H  1.48900 -8.56600 44.82500
H  3.04200 -8.17100 47.16600
H  3.98300 -8.96900 46.00600
H  2.31300 -9.64800 46.52200
H  8.20200 -5.05800 45.79600
H  7.02100 -6.39900 45.36900
H  6.87900 -5.47900 46.92500
H  7.99400 -1.28700 42.39200
H  8.66300 2.79300 42.94900
H  9.43900 2.21600 44.57800
H  7.87900 2.60700 44.49900
Mg 7.55900 53.26700 41.26500
C  7.06300 49.72300 40.70200
C  10.85400 52.73300 40.25500
C  7.96900 56.46800 41.10800
C  4.13700 53.42200 41.68300
N  8.79800 51.46400 40.52500
C  8.32800 50.18500 40.39900
C  9.55100 49.25900 39.98100
C  10.81000 50.21000 40.17700
C  10.14100 51.58200 40.37600
C  11.69800 49.78200 41.33400
C  9.49900 48.72200 38.56200
C  9.13400 49.55600 37.35300
H  8.20300 48.95200 36.27700
N  9.20600 54.45700 40.75800
C  10.46400 54.04700 40.32200
C  11.30000 55.16500 40.08000
C  10.40600 56.33900 40.29000
C  9.14900 55.83300 40.72400
C  12.68300 54.98100 39.63200
C  10.80400 57.74300 39.97900
O  11.94400 58.01900 39.72200
C  9.76700 58.90200 39.84800
N  6.11900 54.74100 41.06400
C  6.64000 55.99400 41.32200
C  5.54400 56.98300 41.74700
C  4.26700 56.01800 41.89500
C  4.86800 54.65400 41.58100
C  5.88700 57.86200 43.05500
C  3.04700 56.36800 41.13500
C  3.10800 56.32400 39.64900
N  5.92900 51.95700 41.33600
C  4.53600 52.15600 41.48900
C  3.84300 50.94200 41.52300
C  4.85200 49.96500 41.26900
C  6.08200 50.59700 41.14600
C  2.38700 50.67600 41.74600
C  5.04200 48.55000 41.12600
O  4.19700 47.63800 41.09800
C  6.45400 48.33200 40.71300
C  6.34200 47.61400 39.43600
O  5.84900 48.08300 38.41000
O  6.89900 46.37400 39.54200
C  6.79800 45.46400 38.37500
H  11.88200 52.42300 40.05700
H  8.09500 57.53500 41.30300
H  3.08100 53.46000 41.95700
H  9.64000 48.43500 40.68800
H  11.27200 50.26000 39.19000
H  11.67800 48.70700 41.51200
H  11.15500 50.29200 42.13100
H  12.68200 50.20700 41.14000
H  8.71700 47.96300 38.53200
H  10.40400 48.13000 38.42600
H  10.05400 49.84600 36.84500
H  8.66900 50.44200 37.78500
H  12.79700 54.12400 38.96900
H  13.39000 54.91300 40.45900
H  12.90100 55.89300 39.07600
H  9.05600 58.60200 39.07800
H  10.23000 59.84100 39.54500
H  9.28800 59.21800 40.77500
H  5.40500 57.66800 40.91100
H  4.07500 56.14800 42.96000
H  5.97200 58.92800 42.84300
H  6.88400 57.56100 43.37900
H  5.18900 57.63900 43.86200
H  2.86000 57.40900 41.39900
H  2.17300 55.82900 41.50100
H  2.08600 56.45400 39.29300
H  3.53700 55.38000 39.31500
H  3.70200 57.16400 39.28900
H  2.14400 49.64700 41.47900
H  1.66800 51.32000 41.23900
H  2.40000 50.87500 42.81700
H  6.92300 47.64000 41.41200
H  6.98400 45.98300 37.43500
H  5.81000 45.00400 38.34300
H  7.63400 44.76500 38.39200

