158

Mg 25.20900 0.97400 28.85800
C  27.16000 0.70700 31.70600
C  22.41400 0.80500 31.15700
C  23.12200 1.15100 26.32200
C  27.92200 0.40200 26.86400
N  24.84500 0.61300 31.16200
C  25.85700 0.75100 32.11600
C  25.37300 0.76300 33.58100
C  23.78700 0.82800 33.35100
C  23.64700 0.68700 31.79400
C  22.89000 -0.17600 34.15700
C  25.83900 1.96600 34.42200
C  24.99300 2.44500 35.58400
H  25.61100 3.00900 36.86500
N  23.12000 0.94200 28.68300
C  22.19500 0.90100 29.71000
C  20.78300 1.04100 29.14000
C  20.94800 1.14300 27.72200
C  22.42400 1.09600 27.51400
C  19.53100 0.74700 29.88200
C  19.89500 1.14500 26.55400
O  20.20300 1.23100 25.37800
C  18.33600 0.99200 26.87600
N  25.43300 0.81300 26.88900
C  24.49700 1.01700 25.97500
C  25.05200 1.22200 24.60800
C  26.61900 1.19200 24.83700
C  26.68200 0.69100 26.25100
C  24.52200 0.21400 23.57300
C  27.37500 2.58100 24.67500
C  26.91900 3.70900 25.57000
N  27.19900 0.61000 29.13300
C  28.26000 0.40500 28.24000
C  29.50500 0.19600 28.97000
C  29.14300 0.35800 30.32200
C  27.70500 0.57100 30.36300
C  30.84400 0.06800 28.27500
C  29.64100 0.41000 31.68900
O  30.72000 0.25700 32.14200
C  28.36300 0.53200 32.56900
C  28.28600 -0.69400 33.39100
O  27.89500 -1.79100 33.09300
O  28.59500 -0.34800 34.68100
C  28.26400 -1.23000 35.84400
H  21.55300 0.81600 31.82900
H  22.57300 1.23400 25.38100
H  28.72000 0.16600 26.15700
H  25.73300 -0.14100 34.07400
H  23.41100 1.81300 33.62600
H  22.29100 -0.88200 33.58200
H  22.28100 0.40100 34.85200
H  23.56300 -0.86800 34.66300
H  25.90200 2.78900 33.71000
H  26.85800 1.91200 34.80500
H  24.28100 1.65400 35.82200
H  24.46400 3.36400 35.33400
H  18.73200 1.43900 29.61500
H  19.59200 0.77900 30.97000
H  19.16300 -0.20200 29.49300
H  17.74500 1.07300 25.96400
H  17.98600 1.65200 27.67000
H  18.29000 -0.00700 27.31000
H  24.73600 2.25700 24.47700
H  27.05900 0.37500 24.26400
H  23.99900 -0.69200 23.87900
H  25.35400 -0.00300 22.90400
H  23.75000 0.75500 23.02400
H  27.06700 3.04100 23.73600
H  28.43600 2.33600 24.63900
H  27.46500 3.52500 26.49500
H  25.83800 3.64900 25.69600
H  27.16800 4.68700 25.15800
H  30.88000 0.45700 27.25700
H  31.02400 -1.00700 28.30300
H  31.68200 0.39500 28.89100
H  28.42600 1.43800 33.17200
H  27.55700 -0.63100 36.41800
H  29.19600 -1.40400 36.38300
H  27.65400 -2.09500 35.58500
Mg 1.88800 41.99400 26.08400
C  3.59800 42.49000 28.96900
C  -0.86000 41.13800 27.87100
C  0.43000 40.89400 23.32300
C  4.81500 42.76900 24.25300
N  1.48900 41.79100 28.21300
C  2.25000 42.17800 29.22800
C  1.56900 42.10000 30.58100
C  0.11300 41.47300 30.10800
C  0.21100 41.46900 28.62800
C  -0.28900 40.09000 30.87900
C  1.52100 43.48000 31.41000
C  1.97600 43.41900 32.86800
H  1.75900 42.15300 33.69600
N  -0.03000 41.26400 25.65100
C  -1.03700 41.08200 26.50400
C  -2.25400 40.63800 25.83800
C  -1.89500 40.59200 24.41000
C  -0.45500 40.91800 24.43900
C  -3.58100 40.32400 26.56000
C  -2.78200 40.28300 23.20200
O  -2.46300 40.31200 22.02600
C  -4.29000 40.13700 23.58700
N  2.55300 41.76000 24.16200
C  1.78500 41.20200 23.19600
C  2.50200 40.92400 21.92100
C  3.78900 41.78600 22.07500
C  3.71900 42.19900 23.57400
C  2.58000 39.45600 21.45900
C  3.75000 43.15600 21.32600
C  5.24000 43.75700 20.95000
N  3.82100 42.55400 26.44400
C  4.87100 42.92200 25.64300
C  5.94900 43.35700 26.42900
C  5.54000 43.10000 27.74600
C  4.19100 42.69400 27.74000
C  7.29500 43.73100 25.96000
C  6.05000 42.92000 29.07000
O  7.21900 42.88100 29.52500
C  4.70800 42.65600 29.97500
C  5.03500 41.40500 30.71500
O  4.97600 40.27300 30.22200
O  5.37300 41.64800 32.06400
C  5.70700 40.45800 32.88700
H  -1.77000 41.03100 28.46500
H  -0.10900 40.58700 22.42400
H  5.67200 43.07400 23.65000
H  2.19900 41.40400 31.13500
H  -0.54400 42.25100 30.49700
H  -0.69500 39.34400 30.19600
H  -1.13300 40.35500 31.51600
H  0.55600 39.77600 31.49200
H  0.54800 43.96200 31.50700
H  2.06300 44.20900 30.80900
H  1.53900 44.29200 33.35300
H  3.06100 43.52400 32.89600
H  -4.25600 41.11500 26.23300
H  -3.49300 40.25400 27.64500
H  -3.94800 39.31500 26.37300
H  -4.51900 39.07300 23.64600
H  -4.88500 40.49600 22.74700
H  -4.70000 40.70500 24.42200
H  1.93900 41.52500 21.20700
H  4.78300 41.34000 22.03100
H  3.59400 39.07600 21.58500
H  2.22400 39.44000 20.42900
H  2.09500 38.75200 22.13500
H  3.18800 43.79300 22.00900
H  3.13700 43.27400 20.43300
H  5.37100 43.75100 19.86800
H  6.08200 43.15700 21.29700
H  5.48700 44.71800 21.40000
H  7.21000 44.11300 24.94300
H  7.96800 42.87500 26.00100
H  7.71200 44.38800 26.72300
H  4.46900 43.53800 30.57000
H  5.69500 40.89500 33.88500
H  6.68000 39.98200 32.76400
H  5.03100 39.63000 32.67200

