158

Mg 44.36200 3.62100 47.25300
C  42.28200 6.40500 46.93500
C  41.54100 1.65800 46.66300
C  46.40800 0.88700 46.99600
C  47.11600 5.75500 47.23100
N  42.12400 3.98800 46.78200
C  41.52800 5.23700 46.77100
C  40.04000 5.09800 46.80300
C  39.76100 3.48400 46.79900
C  41.18600 2.95700 46.74300
C  38.95300 2.88300 47.99600
C  39.17700 5.81100 45.73200
C  39.47900 5.49700 44.24400
H  39.74200 6.75300 43.36400
N  44.01800 1.59500 46.88900
C  42.84600 0.97000 46.67900
C  42.93800 -0.46500 46.68600
C  44.31700 -0.66600 46.48300
C  45.02500 0.61200 46.76600
C  41.76000 -1.40600 46.65400
C  44.98200 -1.94700 45.98900
O  44.27600 -2.92700 45.79000
C  46.37100 -2.00400 45.51500
N  46.38300 3.30900 47.11400
C  47.02000 2.11800 47.24600
C  48.56200 2.32000 47.41600
C  48.73600 3.85800 47.34800
C  47.31200 4.33700 47.21700
C  49.12900 1.64600 48.67400
C  49.69300 4.42300 46.23800
C  51.24000 4.06600 46.45300
N  44.64100 5.67700 47.12300
C  45.85700 6.40700 47.21500
C  45.49200 7.85400 47.29700
C  44.13900 7.87900 47.25900
C  43.62300 6.55700 47.04000
C  46.55500 8.94200 47.46100
C  43.04300 8.71400 47.40200
O  42.94800 9.88600 47.79900
C  41.78800 7.83100 47.03200
C  40.82700 8.06600 48.15800
O  40.80700 7.55000 49.26200
O  39.90800 8.95300 47.79700
C  38.91800 9.46800 48.78000
H  40.67200 1.00200 46.58100
H  47.06200 0.01900 47.09900
H  47.96700 6.41800 47.40200
H  39.68300 5.42500 47.78000
H  39.22600 3.05100 45.95300
H  38.60400 3.70200 48.62400
H  39.60000 2.36100 48.70200
H  38.19100 2.14800 47.73700
H  39.14700 6.87500 45.96800
H  38.15900 5.49900 45.96800
H  38.59800 5.04900 43.78300
H  40.24000 4.71900 44.19400
H  42.00300 -2.27400 47.26800
H  41.41300 -1.60900 45.64100
H  40.82900 -1.00100 47.04900
H  46.48300 -1.05400 44.99300
H  46.40100 -2.75300 44.72300
H  47.05700 -2.07600 46.35900
H  48.95400 1.85900 46.51000
H  49.00100 4.17600 48.35600
H  48.47400 1.01200 49.27100
H  49.46200 2.41100 49.37600
H  50.04900 1.19200 48.30600
H  49.57600 5.50500 46.17900
H  49.45200 4.02600 45.25200
H  51.85500 4.96200 46.53300
H  51.51100 3.41600 45.62100
H  51.42500 3.51700 47.37600
H  47.10900 8.78700 48.38600
H  46.10900 9.93400 47.38200
H  47.28000 8.93700 46.64700
H  41.36600 8.13400 46.07400
H  38.96200 9.10200 49.80600
H  37.97800 9.07900 48.38800
H  38.91600 10.53200 49.01500
Mg 29.74500 58.45800 39.69500
C  26.94900 56.44000 38.84500
C  31.75100 55.80100 38.66200
C  32.31600 60.49400 39.63300
C  27.52400 61.20800 39.84800
N  29.38600 56.50000 38.72700
C  28.20300 55.85300 38.52300
C  28.33400 54.42100 38.04900
C  29.75900 54.10800 38.54500
C  30.39800 55.58300 38.65500
C  29.90700 53.28600 39.82500
C  27.96700 54.09700 36.57400
C  26.66000 53.42900 36.33600
H  26.29300 53.14000 34.84500
N  31.76700 58.14100 39.36000
C  32.41300 56.97700 39.00700
C  33.83600 57.28500 38.88200
C  34.08700 58.62000 39.24200
C  32.69200 59.16400 39.46600
C  34.88500 56.32200 38.35200
C  35.42200 59.31500 39.32800
O  36.41700 58.64500 39.02600
C  35.56400 60.78800 39.63600
N  29.87400 60.58600 39.59700
C  31.05000 61.18100 39.76100
C  30.95000 62.69600 39.98000
C  29.40200 62.90900 39.73700
C  28.88300 61.45200 39.74000
C  31.40700 63.12000 41.40900
C  29.05100 63.54200 38.37300
C  27.84500 64.51500 38.35700
N  27.63900 58.75000 39.66300
C  26.88500 59.91100 39.74700
C  25.50200 59.54700 39.70200
C  25.49300 58.19800 39.33600
C  26.82500 57.78400 39.26800
C  24.43200 60.44600 40.15400
C  24.63200 57.09400 39.11800
O  23.43900 57.05800 39.16100
C  25.56400 55.91900 38.75900
C  25.25700 54.83400 39.58100
O  25.93400 54.55300 40.55500
O  24.11600 54.18500 38.98800
C  23.81200 52.99700 39.80400
H  32.37300 54.98400 38.28900
H  33.12300 61.23000 39.64600
H  26.77300 62.00100 39.85100
H  27.64200 53.79400 38.61000
H  30.25400 53.60100 37.71600
H  30.48600 53.89200 40.52200
H  30.42700 52.36500 39.56300
H  28.96500 53.04300 40.31700
H  28.71700 53.49000 36.06600
H  27.95600 55.03900 36.02700
H  25.80000 53.99500 36.69400
H  26.59000 52.47100 36.84900
H  35.55100 56.67700 37.56600
H  34.43800 55.38900 38.00900
H  35.50100 55.97500 39.18200
H  36.62900 60.98200 39.50600
H  35.31300 60.80000 40.69700
H  35.06800 61.42300 38.90200
H  31.45100 63.16800 39.13400
H  28.87500 63.40300 40.55400
H  30.57300 63.54400 41.96800
H  32.12300 63.93100 41.27100
H  31.84600 62.30200 41.98000
H  28.71100 62.80000 37.65100
H  29.93000 64.02500 37.94600
H  27.12400 64.20800 37.60000
H  28.22100 65.47500 38.00100
H  27.40700 64.59800 39.35100
H  24.57600 60.98000 41.09300
H  23.56300 59.79600 40.25500
H  24.19100 60.99000 39.24000
H  25.28700 55.73400 37.72100
H  23.23000 53.32300 40.66600
H  24.66200 52.34600 40.01100
H  23.23400 52.41500 39.08700

