158

Mg 42.53700 41.50600 26.40600
C  41.72900 43.93200 28.68700
C  43.59100 39.42500 29.19400
C  43.60800 39.08900 24.31100
C  42.09100 43.76600 23.87100
N  42.65400 41.71600 28.67700
C  42.21900 42.77900 29.32100
C  42.15500 42.45700 30.86400
C  43.01900 41.17800 31.03600
C  43.12600 40.71700 29.53600
C  44.35500 41.50800 31.68300
C  40.69600 42.37300 31.51600
C  40.27400 43.50400 32.47100
H  39.58900 43.04000 33.76300
N  43.34900 39.45700 26.70000
C  43.74000 38.86600 27.90700
C  44.13700 37.55800 27.60200
C  44.01300 37.38000 26.21800
C  43.66100 38.67800 25.66400
C  44.56000 36.53700 28.61200
C  44.13500 36.07000 25.41000
O  44.07200 36.02400 24.19800
C  44.48300 34.84100 26.08700
N  42.91200 41.48400 24.45100
C  43.19100 40.32900 23.72300
C  43.16900 40.60300 22.21500
C  42.69300 42.09600 22.04300
C  42.55300 42.51200 23.51300
C  44.56400 40.31000 21.54400
C  41.40500 42.36100 21.32500
C  41.36700 43.65600 20.37700
N  41.89600 43.44000 26.22500
C  41.85500 44.26300 25.16100
C  41.25200 45.54400 25.63600
C  41.25900 45.46400 26.97300
C  41.66000 44.19000 27.31200
C  40.96000 46.71500 24.77700
C  40.99400 46.20300 28.20200
O  40.73200 47.37000 28.33500
C  41.23500 45.19200 29.39600
C  42.12800 45.90800 30.32700
O  43.32600 46.06800 30.21200
O  41.40600 46.40200 31.38200
C  42.20900 47.01600 32.44200
H  43.95400 38.88400 30.07000
H  43.89600 38.37400 23.53800
H  41.91200 44.47700 23.06100
H  42.66700 43.29300 31.33800
H  42.49400 40.43000 31.63000
H  44.46800 42.57300 31.88800
H  45.24600 41.10300 31.20300
H  44.44900 41.11200 32.69500
H  40.63200 41.39500 31.99200
H  40.01900 42.30100 30.66500
H  39.55400 44.24500 32.12300
H  41.19200 44.05300 32.68100
H  44.53800 36.87000 29.65000
H  45.57500 36.20600 28.39300
H  43.90900 35.67000 28.73300
H  43.74900 34.68400 26.87800
H  45.40600 34.88500 26.66500
H  44.61600 33.95100 25.47200
H  42.46300 39.99000 21.65500
H  43.54700 42.68900 21.71600
H  45.26800 39.88700 22.26000
H  44.91300 41.19600 21.01300
H  44.44600 39.50000 20.82400
H  40.61500 42.29900 22.07300
H  41.16300 41.46000 20.76100
H  41.13100 43.37300 19.35200
H  42.32300 44.16700 20.48800
H  40.63000 44.38200 20.72000
H  41.65900 47.50400 25.05400
H  39.95900 47.02300 25.07900
H  41.10500 46.54200 23.71100
H  40.26800 44.93900 29.83000
H  43.29600 47.05600 32.38100
H  42.01300 46.41200 33.32800
H  41.97300 48.07600 32.53500
Mg 26.55600 50.42200 25.80200
C  24.61000 51.37400 28.70400
C  28.93100 49.44600 28.01900
C  28.64600 50.04600 23.07900
C  24.20700 51.89200 23.68900
N  26.68100 50.38900 28.12300
C  25.75100 50.72300 29.06300
C  26.18800 50.31200 30.46300
C  27.65000 49.88300 30.23700
C  27.77200 49.92900 28.71000
C  28.72500 50.84900 30.80700
C  25.32000 49.16100 30.95000
C  24.99800 49.17100 32.47100
H  26.09300 49.43700 33.53800
N  28.50500 49.95200 25.62100
C  29.32100 49.51100 26.66900
C  30.60300 49.04500 26.07600
C  30.58100 49.30400 24.67700
C  29.15900 49.75100 24.38300
C  31.68700 48.47500 27.02200
C  31.69000 49.04000 23.66800
O  31.50500 49.37000 22.50300
C  32.96500 48.36800 24.06200
N  26.52500 51.01200 23.68800
C  27.42300 50.57700 22.76700
C  26.83600 50.54100 21.32600
C  25.38100 50.96300 21.51900
C  25.32100 51.34200 23.05600
C  27.69700 51.43700 20.41100
C  24.22100 49.92900 21.05700
C  23.49800 50.35000 19.78300
N  24.77000 51.35100 26.01000
C  23.96300 51.97700 25.10500
C  22.77500 52.35400 25.87000
C  23.04800 52.28600 27.22300
C  24.26300 51.58200 27.28700
C  21.66000 53.09500 25.17500
C  22.50500 52.50400 28.54200
O  21.49300 53.09000 28.86800
C  23.57500 52.05600 29.51600
C  24.12400 53.22600 30.25800
O  24.64300 54.26100 29.80400
O  24.10000 53.02400 31.64100
C  24.92400 53.91500 32.45900
H  29.71000 48.94200 28.59500
H  29.13000 49.67800 22.17200
H  23.39400 52.14900 23.00600
H  26.13000 51.16800 31.13600
H  27.88100 48.85300 30.50800
H  29.59200 50.30000 31.17600
H  28.29100 51.60800 31.45800
H  29.19300 51.53200 30.09900
H  25.67300 48.18900 30.60400
H  24.35200 49.09400 30.45400
H  24.60600 48.18800 32.73400
H  24.22800 49.93800 32.55200
H  32.68000 48.83800 26.75500
H  31.64800 47.38700 27.08100
H  31.66000 48.85900 28.04100
H  32.65500 47.42100 24.50500
H  33.54900 48.95500 24.77000
H  33.55800 48.18600 23.16600
H  26.86000 49.48400 21.06000
H  25.17900 51.93300 21.06500
H  27.76100 50.94500 19.44100
H  28.71600 51.47000 20.79600
H  27.34700 52.44700 20.19900
H  23.58700 49.76600 21.92800
H  24.64500 48.95900 20.79500
H  23.62400 49.66800 18.94300
H  23.78600 51.37900 19.56400
H  22.46200 50.43900 20.10900
H  21.62500 52.65600 24.17800
H  21.89300 54.16000 25.19200
H  20.75500 52.96800 25.76800
H  23.10500 51.42100 30.26700
H  25.95300 53.83200 32.10900
H  24.82800 53.53200 33.47500
H  24.57000 54.94600 32.43500

