158

Mg 24.31500 -5.19300 46.08800
C  26.24100 -2.77900 44.10200
C  21.60000 -4.41500 44.07200
C  22.84600 -7.84500 47.20400
C  27.43200 -6.06100 47.47400
N  24.02400 -3.81800 44.27800
C  24.91700 -2.89800 43.67700
C  24.19900 -1.99400 42.71600
C  22.69300 -2.39300 42.84900
C  22.75200 -3.65300 43.79000
C  21.71900 -1.35900 43.35500
C  24.71300 -2.10800 41.21800
C  24.82300 -0.87500 40.35000
H  24.61400 -1.04900 38.79000
N  22.40100 -5.99500 45.71300
C  21.44900 -5.54100 44.89800
C  20.35100 -6.41100 44.98200
C  20.75700 -7.50500 45.75900
C  22.05800 -7.17400 46.28000
C  19.00700 -6.12100 44.35200
C  19.80000 -8.70300 45.99500
O  18.68300 -8.71900 45.53100
C  20.31600 -9.78600 46.82900
N  25.08900 -6.78100 47.11100
C  24.21900 -7.65100 47.62000
C  25.01700 -8.58700 48.61300
C  26.39500 -7.89900 48.82300
C  26.34800 -6.90800 47.69000
C  24.28400 -9.02000 49.87600
C  27.71100 -8.86900 48.94900
C  28.40700 -9.27400 47.63100
N  26.34700 -4.44200 45.94300
C  27.47400 -4.96100 46.58900
C  28.63400 -4.14400 46.18500
C  28.20800 -3.28900 45.23300
C  26.83400 -3.54600 45.10600
C  30.03100 -4.22600 46.80800
C  28.61800 -2.15100 44.40200
O  29.66900 -1.46500 44.33400
C  27.27400 -1.75400 43.65300
C  26.88600 -0.34100 44.08400
O  26.30900 -0.01600 45.08800
O  27.42000 0.53800 43.19700
C  27.31700 2.02100 43.22500
H  20.83800 -4.11400 43.35000
H  22.39700 -8.64500 47.79700
H  28.33900 -6.30400 48.03000
H  24.30100 -1.04500 43.24100
H  22.29300 -2.76000 41.90400
H  21.11700 -0.83700 42.61000
H  22.19200 -0.53100 43.88300
H  21.04200 -1.75900 44.10900
H  24.08300 -2.81500 40.67800
H  25.66200 -2.64200 41.25000
H  25.89000 -0.65500 40.40100
H  24.16000 -0.11100 40.75500
H  18.93700 -6.72700 43.44800
H  18.82300 -5.12300 43.95400
H  18.10700 -6.40900 44.89500
H  20.29800 -9.21300 47.75600
H  21.31500 -10.14700 46.58300
H  19.66500 -10.65100 46.95400
H  25.24200 -9.48200 48.03200
H  26.27400 -7.19400 49.64500
H  24.46400 -10.08700 50.00800
H  23.24400 -8.71100 49.77300
H  24.77000 -8.51200 50.70900
H  27.51800 -9.81700 49.45100
H  28.41700 -8.17400 49.40400
H  28.05500 -10.29000 47.45200
H  29.48300 -9.10400 47.66900
H  28.04500 -8.72500 46.76200
H  30.59600 -3.33500 46.53500
H  30.62300 -5.05600 46.42200
H  30.15900 -4.27700 47.89000
H  27.36000 -1.82400 42.56800
H  26.55000 2.30500 42.50400
H  28.24500 2.49200 42.90200
H  27.13100 2.39200 44.23300
Mg 9.65300 48.47200 25.53700
C  7.61200 48.79200 28.40800
C  12.32500 49.57700 27.47300
C  11.56700 48.32800 22.84100
C  6.81400 47.76200 23.63700
N  9.90100 49.27100 27.63400
C  8.99700 49.14900 28.62200
C  9.56600 49.45800 30.04100
C  11.03500 49.94900 29.65100
C  11.10800 49.54600 28.16200
C  11.25500 51.51100 29.79800
C  9.60600 48.23000 30.96300
C  9.42200 48.55900 32.46100
H  8.94000 47.37600 33.27200
N  11.64200 49.05300 25.15300
C  12.59200 49.30100 26.10500
C  13.89600 49.29500 25.48400
C  13.71200 48.90000 24.11600
C  12.28500 48.80400 23.95600
C  15.24700 49.64400 26.16700
C  14.76500 48.84400 22.99800
O  14.49000 48.69400 21.82300
C  16.24400 48.83100 23.28800
N  9.22000 48.30200 23.56600
C  10.23800 48.08100 22.69800
C  9.78300 47.59400 21.29400
C  8.33900 47.14600 21.64400
C  8.04700 47.76100 23.01500
C  9.86100 48.63400 20.14400
C  8.03000 45.62500 21.61700
C  7.89600 44.77900 22.88500
N  7.59300 48.29500 25.89600
C  6.52900 48.08300 24.98600
C  5.29700 48.13300 25.76500
C  5.66000 48.41400 27.08600
C  7.03100 48.52300 27.13400
C  3.86700 47.85200 25.22900
C  5.12300 48.51300 28.41800
O  3.95900 48.34400 28.82900
C  6.39800 48.60200 29.31000
C  6.29900 47.29600 30.05300
O  6.49500 46.16200 29.56700
O  5.68700 47.52900 31.28700
C  5.30500 46.33900 32.08900
H  13.18200 49.87900 28.07800
H  12.14500 48.16500 21.92900
H  5.95600 47.58800 22.98300
H  9.02800 50.22500 30.59800
H  11.86300 49.53200 30.22400
H  12.15900 51.73100 30.36600
H  10.42800 52.04600 30.26400
H  11.37000 51.93200 28.79900
H  10.61200 47.81400 30.91900
H  8.95400 47.46000 30.55100
H  8.61000 49.28000 32.55700
H  10.33200 48.96700 32.89900
H  15.01300 49.83600 27.21400
H  15.71900 50.52900 25.74000
H  15.88900 48.76400 26.19600
H  16.52400 49.78100 23.74500
H  16.75500 48.56900 22.36200
H  16.29800 48.05100 24.04700
H  10.34600 46.73400 20.93200
H  7.64000 47.65500 20.98000
H  10.69100 49.32800 20.27000
H  8.87300 49.07800 20.01800
H  10.17500 48.08800 19.25400
H  8.78500 45.13100 21.00500
H  7.09700 45.59700 21.05500
H  8.58800 45.13700 23.64700
H  8.12600 43.73100 22.69300
H  6.90300 44.79200 23.33300
H  3.44900 47.54100 26.18600
H  3.78400 46.97100 24.59200
H  3.23400 48.66600 24.87300
H  6.25400 49.37900 30.06100
H  5.97000 45.50700 31.85500
H  4.23800 46.15500 31.96300
H  5.43100 46.37300 33.17100

