158

Mg 8.64400 3.16400 27.48300
C  10.02500 1.85800 30.33700
C  6.77300 5.38300 29.52900
C  7.25400 4.40600 24.69700
C  9.83900 0.39300 25.61300
N  8.41500 3.58400 29.72000
C  9.15600 2.95100 30.66000
C  8.86600 3.59800 32.02500
C  7.68700 4.59600 31.73800
C  7.62300 4.57500 30.24900
C  6.27700 4.25100 32.17700
C  10.10600 4.30200 32.63000
C  10.47200 3.96700 34.11700
H  10.74700 5.08800 35.14900
N  7.33500 4.79500 27.07500
C  6.65000 5.50700 28.10000
C  5.77800 6.39100 27.41100
C  5.91300 6.16700 25.99100
C  6.92800 5.09100 25.87700
C  4.93100 7.41200 28.05200
C  5.10900 6.76900 24.81100
O  5.45000 6.59000 23.63400
C  3.81600 7.54900 25.11100
N  8.76200 2.53800 25.31200
C  8.01200 3.22800 24.35600
C  8.07300 2.50900 22.94200
C  8.88600 1.22200 23.31500
C  9.16700 1.33700 24.80800
C  6.77900 2.12800 22.29900
C  10.17100 0.84600 22.50200
C  10.03600 -0.47000 21.79600
N  9.58900 1.46300 27.79600
C  10.08100 0.48300 27.01700
C  10.80600 -0.47700 27.88800
C  10.95300 0.05700 29.13700
C  10.15200 1.25000 29.07600
C  11.54100 -1.70300 27.35800
C  11.52900 -0.09200 30.46500
O  12.26200 -0.96900 30.96400
C  10.93600 1.10900 31.29100
C  10.20200 0.50100 32.42300
O  9.15500 -0.07200 32.29900
O  11.00500 0.64100 33.55400
C  10.34900 0.13900 34.79000
H  6.32700 6.16800 30.14300
H  6.74700 4.70500 23.77700
H  10.23400 -0.51000 25.14300
H  8.31200 2.85600 32.59900
H  7.88000 5.59700 32.12400
H  5.77500 5.16900 32.48000
H  6.22800 3.53100 32.99400
H  5.62100 3.79300 31.43700
H  10.00500 5.37700 32.48000
H  10.93900 3.90600 32.04800
H  11.37500 3.36700 34.00100
H  9.70600 3.29600 34.50800
H  5.32700 7.77300 29.00200
H  3.93200 7.00600 28.21000
H  5.12300 8.30800 27.46100
H  3.21900 7.63200 24.20300
H  4.19400 8.48400 25.52400
H  3.38200 6.94800 25.90900
H  8.67600 3.05700 22.21800
H  8.21300 0.36400 23.31900
H  6.10800 2.33400 23.13200
H  6.63200 1.07700 22.04900
H  6.55800 2.84400 21.50800
H  11.05900 0.81000 23.13300
H  10.41400 1.73300 21.91700
H  10.21200 -0.40600 20.72200
H  9.09200 -0.97800 21.98700
H  10.78200 -1.20900 22.08800
H  12.58800 -1.42400 27.23900
H  11.06200 -2.00800 26.42800
H  11.45100 -2.48700 28.11000
H  11.71500 1.81700 31.57300
H  9.66800 -0.70200 34.65900
H  9.64900 0.93700 35.03900
H  11.02800 -0.07800 35.61500
Mg 54.52200 24.12700 44.69800
C  51.93000 26.26000 43.93200
C  52.90600 21.69400 42.81400
C  57.19500 22.08200 44.83300
C  56.32200 26.66700 46.04800
N  52.63600 24.03300 43.43500
C  51.69300 25.04400 43.41600
C  50.56000 24.61700 42.38900
C  50.72500 23.00100 42.43400
C  52.12700 22.84400 43.01600
C  49.56500 22.25400 43.24900
C  50.83600 25.20300 40.96500
C  50.81900 24.42500 39.66000
H  50.52200 25.17000 38.36200
N  54.94600 22.11100 44.03200
C  54.12400 21.34900 43.28400
C  54.60800 20.03000 43.21400
C  55.96000 20.06700 43.69400
C  56.12900 21.43200 44.22200
C  53.96200 18.86600 42.50900
C  56.96200 18.89500 43.61700
O  56.71300 17.82500 43.08700
C  58.29200 19.06700 44.20200
N  56.55100 24.40100 45.18000
C  57.39300 23.34800 45.34300
C  58.74400 23.80100 45.86100
C  58.43200 25.40600 46.20000
C  56.98700 25.47600 45.76100
C  59.24700 22.97200 47.04700
C  59.40500 26.45600 45.46800
C  60.20700 27.46700 46.25900
N  54.16200 26.07000 45.16600
C  54.93400 26.98300 45.76600
C  54.20500 28.22800 45.94300
C  52.97200 27.98900 45.27800
C  53.03000 26.66300 44.75400
C  54.63300 29.56400 46.46900
C  51.66400 28.46800 44.89800
O  51.26000 29.55000 45.04500
C  50.91500 27.41100 44.05700
C  50.54300 27.97700 42.81300
O  51.37200 28.34300 41.94200
O  49.21700 28.03100 42.72000
C  48.74400 28.44000 41.43400
H  52.35900 20.99600 42.17600
H  58.04000 21.40900 44.99100
H  56.88100 27.44800 46.56800
H  49.59900 24.98900 42.74400
H  50.65600 22.57500 41.43300
H  49.96600 21.79400 44.15200
H  49.14600 21.50800 42.57300
H  48.81600 22.94900 43.62900
H  51.79900 25.71300 40.98400
H  49.98000 25.86700 40.83900
H  50.04800 23.65400 39.68200
H  51.76800 23.91700 39.48900
H  54.31300 18.86600 41.47700
H  52.88600 19.04000 42.49300
H  54.19600 17.89800 42.95300
H  58.18500 19.38600 45.23900
H  58.87400 19.76900 43.60500
H  58.74900 18.08600 44.07300
H  59.36100 23.69300 44.97000
H  58.48900 25.62400 47.26700
H  58.53100 22.18400 47.28100
H  59.54700 23.63600 47.85800
H  60.15400 22.45600 46.73400
H  58.85200 27.00100 44.70300
H  60.18700 25.92500 44.92500
H  61.21700 27.23300 45.92200
H  60.08600 27.48500 47.34200
H  59.82100 28.43000 45.92700
H  54.96300 30.19800 45.64600
H  55.51600 29.32300 47.06100
H  53.85700 29.92600 47.14400
H  50.02900 27.17600 44.64600
H  49.24200 28.05200 40.54600
H  48.85500 29.52400 41.44500
H  47.73500 28.02800 41.42700

