158

Mg 35.15200 2.96100 29.69000
C  32.48300 3.92300 31.88700
C  37.24400 3.37700 32.32200
C  37.56400 2.12600 27.67500
C  32.85100 3.13000 27.02400
N  34.85600 3.50100 31.90400
C  33.70900 3.79900 32.56300
C  33.87200 3.79600 34.15100
C  35.42400 4.09700 34.10800
C  35.87400 3.59900 32.72700
C  35.81900 5.49900 34.55900
C  33.39400 2.42600 34.78600
C  33.12800 2.50300 36.26800
H  33.96900 3.47100 37.06600
N  37.13200 2.68000 29.98600
C  37.87600 2.93900 31.13800
C  39.26500 2.57100 30.95700
C  39.34200 2.13700 29.59500
C  38.02000 2.33300 28.99200
C  40.21800 2.71800 32.05900
C  40.51800 1.55600 28.87500
O  40.44400 1.28200 27.65200
C  41.83700 1.28900 29.52900
N  35.21400 2.66000 27.59200
C  36.32700 2.24700 26.95700
C  36.24200 2.36000 25.42200
C  34.64900 2.58900 25.20100
C  34.20100 2.79100 26.67000
C  37.12500 3.56100 24.84600
C  34.06000 1.28100 24.59700
C  33.34100 1.40000 23.23300
N  33.08600 3.55600 29.40600
C  32.34400 3.46000 28.25900
C  30.94300 3.63900 28.71400
C  30.98300 3.87500 30.11400
C  32.31800 3.78400 30.46700
C  29.76400 3.68300 27.80900
C  30.15200 4.19300 31.34000
O  28.95700 4.41000 31.41500
C  31.07400 4.15400 32.53300
C  31.06400 5.33500 33.41500
O  31.50400 6.43300 33.23400
O  30.57800 4.86200 34.60200
C  30.60300 5.86900 35.66100
H  37.92800 3.51800 33.16200
H  38.41100 1.81600 27.05900
H  32.13900 2.98400 26.20800
H  33.26900 4.60700 34.55900
H  35.85300 3.37800 34.80600
H  36.46800 5.44500 35.43400
H  34.95100 6.05000 34.92000
H  36.31500 6.11200 33.80600
H  34.20600 1.71700 34.63100
H  32.59800 1.97500 34.19300
H  33.16600 1.57600 36.84100
H  32.13500 2.95200 36.25400
H  40.93100 1.89900 31.96400
H  39.67600 2.63300 33.00000
H  40.75000 3.66800 32.11800
H  41.57900 0.65200 30.37500
H  42.29400 2.24500 29.78200
H  42.45800 0.78100 28.79100
H  36.59800 1.40500 25.03600
H  34.58800 3.45500 24.54200
H  36.58800 4.35600 24.32900
H  37.92500 3.21700 24.19100
H  37.58200 4.05300 25.70500
H  33.29300 0.93100 25.28700
H  34.67500 0.38700 24.70000
H  34.08000 1.01900 22.52700
H  33.20400 2.46500 23.04600
H  32.47500 0.74300 23.14700
H  28.95600 4.25500 28.26500
H  29.40400 2.71900 27.44700
H  30.12800 4.26100 26.96100
H  30.79200 3.30700 33.15800
H  30.30800 5.58300 36.67000
H  30.01600 6.72700 35.33400
H  31.63900 6.20400 35.71400
Mg 29.97700 58.57900 38.69700
C  27.61500 56.56000 37.32600
C  32.44000 56.18000 38.08400
C  32.31900 61.01200 39.28400
C  27.53500 61.20400 38.69700
N  30.00500 56.51600 37.65000
C  28.85300 55.88600 37.36200
C  29.12300 54.39100 37.12100
C  30.66100 54.26400 37.45100
C  31.09100 55.69500 37.80500
C  31.03000 53.26500 38.49000
C  28.78400 53.84300 35.67000
C  29.21600 54.63600 34.42200
H  28.08700 55.06000 33.48100
N  32.10000 58.49800 38.81400
C  32.88900 57.43000 38.48200
C  34.30100 57.79900 38.73700
C  34.23500 59.18500 39.20800
C  32.84600 59.64400 39.07500
C  35.49200 56.88100 38.57200
C  35.48400 59.92300 39.58300
O  36.60700 59.42400 39.64000
C  35.48500 61.44600 39.92100
N  29.94200 60.74600 39.01700
C  31.02700 61.44800 39.39000
C  30.75800 62.93300 39.39100
C  29.21400 62.93700 39.46900
C  28.81100 61.56100 39.04600
C  31.55400 63.86100 40.39400
C  28.47700 64.12300 38.69000
C  28.54100 64.01500 37.10500
N  28.04600 58.88000 38.07200
C  27.13100 59.96400 38.20500
C  25.79700 59.63000 37.71500
C  25.86900 58.19000 37.57600
C  27.28200 57.92400 37.65600
C  24.51800 60.48800 37.56600
C  25.10100 56.99900 37.27900
O  23.90900 56.70500 37.14200
C  26.25600 55.88100 37.03600
C  25.77900 54.74200 37.92400
O  26.05100 54.56400 39.10000
O  24.90200 53.95600 37.21300
C  24.23400 52.93100 37.98200
H  33.13000 55.33400 38.05400
H  32.98400 61.86000 39.45800
H  26.74400 61.94000 38.85400
H  28.51200 53.81200 37.81400
H  31.11500 54.04600 36.48400
H  30.15700 52.92800 39.05000
H  31.76500 53.66000 39.19100
H  31.44500 52.36000 38.04700
H  27.76800 53.45100 35.61700
H  29.38200 52.93500 35.59100
H  29.90200 54.02100 33.83800
H  29.60400 55.57000 34.82900
H  36.11200 57.36700 37.81800
H  35.16900 55.93200 38.14400
H  36.12800 56.66100 39.43000
H  36.46000 61.83400 40.21400
H  34.79300 61.59700 40.75000
H  35.10400 62.09700 39.13400
H  30.96300 63.31500 38.39100
H  28.95000 63.14600 40.50600
H  32.29900 64.48800 39.90400
H  32.02600 63.30500 41.20400
H  30.83800 64.52100 40.88500
H  28.84800 65.12000 38.93100
H  27.47400 64.01700 39.10500
H  28.93900 64.90800 36.62300
H  27.55400 63.76000 36.71700
H  29.06800 63.14300 36.71800
H  23.76700 60.01400 36.93400
H  24.69300 61.49300 37.18000
H  23.99000 60.54600 38.51700
H  26.21100 55.47400 36.02600
H  23.72600 52.27200 37.27900
H  23.54200 53.43100 38.65900
H  24.92600 52.27100 38.50600

