158

Mg 8.72900 4.08400 27.06100
C  10.37900 2.68900 29.98300
C  7.11600 6.11600 29.28000
C  7.07000 5.26200 24.49800
C  10.41000 1.65000 25.19700
N  8.65200 4.17000 29.47900
C  9.40200 3.59500 30.40200
C  9.21700 4.20700 31.79100
C  8.12400 5.30400 31.51100
C  7.97800 5.23000 29.93800
C  6.82300 5.29700 32.37400
C  10.55000 4.84500 32.49000
C  10.87900 4.34200 33.91900
H  11.01600 5.38200 35.03700
N  7.31800 5.61600 26.81100
C  6.79500 6.32500 27.85600
C  5.88200 7.30800 27.30900
C  5.86100 7.09400 25.87200
C  6.77200 5.95100 25.68300
C  5.05900 8.26900 28.16400
C  5.14900 7.81300 24.71800
O  5.18400 7.46700 23.52400
C  4.53900 9.10000 24.94700
N  8.73700 3.52700 25.10300
C  7.96600 4.14900 24.24700
C  8.20800 3.54100 22.84700
C  9.29900 2.44600 23.06400
C  9.47900 2.47800 24.53500
C  6.94400 2.89300 22.16800
C  10.55400 2.78300 22.29100
C  11.37100 1.52200 21.75400
N  10.03800 2.46000 27.47200
C  10.62900 1.56600 26.60300
C  11.47600 0.62000 27.31600
C  11.48300 1.14100 28.65000
C  10.58600 2.22800 28.65900
C  12.18900 -0.53900 26.71100
C  11.99900 0.91400 29.97900
O  12.76500 0.03400 30.37800
C  11.36500 1.96700 30.87900
C  10.77400 1.18900 32.09200
O  9.79300 0.45900 32.06500
O  11.50600 1.36800 33.21400
C  11.19700 0.73500 34.53800
H  6.64600 6.82500 29.96500
H  6.53200 5.53900 23.58900
H  10.96000 0.85800 24.68500
H  8.71100 3.42400 32.35600
H  8.63500 6.25900 31.63400
H  5.94900 5.27300 31.72300
H  6.78000 6.22900 32.93900
H  6.89100 4.39800 32.98700
H  10.53100 5.93400 32.50200
H  11.46000 4.68600 31.91200
H  11.78200 3.73300 33.93600
H  10.15200 3.58100 34.20500
H  5.51200 9.24100 27.97000
H  5.07900 8.00400 29.22100
H  4.04500 8.46400 27.81300
H  3.80400 8.96900 25.74100
H  4.02700 9.35600 24.01900
H  5.36400 9.76700 25.19600
H  8.64600 4.23600 22.13100
H  8.93900 1.43900 22.85400
H  6.17000 2.60300 22.87900
H  7.20200 2.07300 21.49800
H  6.48100 3.67200 21.56300
H  11.14200 3.19100 23.11300
H  10.39600 3.42500 21.42400
H  11.70300 1.80000 20.75400
H  10.75900 0.63300 21.60400
H  12.21600 1.36600 22.42500
H  13.15300 -0.20600 26.32700
H  11.58900 -0.99300 25.92200
H  12.26300 -1.37800 27.40300
H  12.15400 2.60200 31.28300
H  10.15000 0.81800 34.83000
H  11.79500 1.30700 35.24800
H  11.56300 -0.28800 34.45500
Mg 40.51400 9.63400 28.82200
C  42.23500 10.82900 31.59800
C  38.23900 8.10200 30.95400
C  39.05300 8.13800 26.25100
C  43.36300 10.26400 26.86900
N  40.22300 9.45900 30.95700
C  40.98800 10.17900 31.89000
C  40.43100 9.96700 33.29700
C  39.28300 8.88700 33.10500
C  39.24500 8.77200 31.56000
C  39.52900 7.50400 33.83500
C  39.99900 11.17100 34.12800
C  39.93800 11.01300 35.63000
H  40.63400 12.16500 36.44200
N  38.74600 8.48000 28.60300
C  37.89100 8.03200 29.55800
C  36.83000 7.22500 29.00500
C  36.94400 7.40100 27.61800
C  38.31400 8.04600 27.42100
C  35.85900 6.43400 29.87000
C  36.02400 6.85600 26.49400
O  36.21300 7.01000 25.29200
C  34.69800 6.17000 26.78600
N  41.03500 9.34000 26.76500
C  40.27100 8.68600 25.90800
C  40.85800 8.70700 24.51300
C  42.28600 9.39900 24.77100
C  42.27600 9.63300 26.24500
C  41.17900 7.26400 23.91100
C  42.39900 10.66100 23.81200
C  41.68200 11.99200 24.18100
N  42.39200 10.38900 29.13200
C  43.41400 10.68100 28.23400
C  44.38600 11.43700 28.89300
C  43.88700 11.63500 30.22500
C  42.75400 10.87100 30.31100
C  45.67700 11.90100 28.29000
C  44.18400 12.27700 31.50900
O  45.13900 12.90400 31.90000
C  43.08600 11.71900 32.47400
C  43.79000 10.97600 33.60700
O  44.66500 10.17000 33.58700
O  43.24300 11.47300 34.71900
C  43.81700 10.87500 36.00600
H  37.53000 7.56100 31.58300
H  38.70500 7.55100 25.39800
H  44.19100 10.61300 26.24800
H  41.17000 9.46300 33.91900
H  38.37800 9.33500 33.51400
H  40.57600 7.40100 34.11800
H  39.25600 6.77400 33.07300
H  38.90000 7.40300 34.72000
H  39.01100 11.44900 33.76000
H  40.60900 12.04400 33.89500
H  40.45900 10.09100 35.88500
H  38.87700 10.99700 35.88000
H  36.35800 5.91300 30.68700
H  35.47200 5.73000 29.13300
H  35.17300 7.15900 30.30800
H  34.09900 6.40400 25.90600
H  34.16000 6.59300 27.63400
H  34.94700 5.13600 27.02600
H  40.19800 9.25200 23.83900
H  43.19300 8.80900 24.63500
H  40.39900 7.11200 23.16500
H  41.02300 6.56700 24.73500
H  42.22900 7.19600 23.62600
H  41.99100 10.27400 22.87800
H  43.46300 10.89500 23.78000
H  41.08900 11.72500 25.05600
H  41.11900 12.45200 23.36900
H  42.37200 12.76600 24.51700
H  46.25600 12.63000 28.85700
H  45.49800 12.39700 27.33600
H  46.35500 11.07200 28.08800
H  42.42000 12.53000 32.76900
H  44.89300 10.70600 36.05400
H  43.35900 9.89200 36.11200
H  43.43000 11.52000 36.79600

