158

Mg 35.52100 49.12900 24.91800
C  35.69300 47.46100 27.98100
C  34.21700 51.85500 26.51500
C  35.19700 50.61000 21.91000
C  36.84600 46.16100 23.38300
N  35.03000 49.56600 27.05500
C  35.30500 48.81300 28.19400
C  35.12400 49.66600 29.40600
C  34.35500 50.93700 28.93700
C  34.53800 50.78900 27.45200
C  32.82900 51.07500 29.37000
C  36.51700 49.92700 30.09900
C  36.56800 49.52900 31.55900
H  35.24400 49.61800 32.26200
N  34.95200 51.03100 24.31500
C  34.40900 52.00900 25.14000
C  34.06300 53.11500 24.27700
C  34.35800 52.73200 22.94800
C  34.89100 51.38500 23.01100
C  33.43600 54.37600 24.86600
C  34.07100 53.50000 21.69300
O  34.30600 53.25200 20.49300
C  33.37900 54.89700 21.76800
N  35.97200 48.39300 22.90300
C  35.75500 49.27200 21.85700
C  36.38400 48.71700 20.62300
C  37.09700 47.37400 21.07400
C  36.51400 47.24900 22.52000
C  35.29800 48.44500 19.57500
C  38.70100 47.32500 21.07500
C  39.29600 46.01000 20.51700
N  35.95500 47.14100 25.46600
C  36.54000 46.11800 24.79800
C  36.90500 45.01600 25.66800
C  36.36000 45.42900 26.89400
C  35.94400 46.76100 26.78800
C  37.55200 43.72900 25.28700
C  36.28200 45.07800 28.30200
O  36.50800 44.00000 28.85900
C  35.86100 46.34700 29.02500
C  34.59000 45.92700 29.84100
O  33.41400 45.88600 29.50600
O  35.01400 45.55200 31.11800
C  34.00600 45.23000 32.17100
H  33.80000 52.65200 27.13500
H  35.02500 51.13600 20.96800
H  37.36600 45.26600 23.03400
H  34.49000 48.99300 29.98400
H  34.93600 51.83600 29.14200
H  32.27400 51.08600 28.43200
H  32.68000 51.98900 29.94600
H  32.48400 50.19500 29.91400
H  36.79000 50.97800 29.99800
H  37.24900 49.46500 29.43600
H  37.24800 50.05400 32.23000
H  37.00900 48.53900 31.45000
H  34.11000 55.23200 24.86000
H  33.25700 54.18300 25.92400
H  32.50300 54.54600 24.32800
H  34.02000 55.68600 22.16100
H  32.38100 54.83400 22.20000
H  33.17500 55.20700 20.74300
H  37.12400 49.42800 20.25600
H  36.70500 46.47500 20.60000
H  35.32600 47.38700 19.31100
H  35.43600 49.02700 18.66400
H  34.30900 48.70800 19.95100
H  39.01300 47.61100 22.08000
H  39.10800 48.13000 20.46300
H  40.20700 45.84800 21.09200
H  39.75200 46.08200 19.52900
H  38.47600 45.29700 20.43500
H  38.25700 43.86100 24.46600
H  36.80700 43.01200 24.94000
H  38.01600 43.20600 26.12300
H  36.55600 46.74600 29.76400
H  33.01900 45.23300 31.70900
H  34.01300 45.99600 32.94700
H  34.18500 44.22300 32.54800
Mg -9.55400 39.30700 42.11900
C  -8.96700 35.87800 41.74800
C  -6.55700 39.92000 40.71800
C  -10.58900 42.51600 41.71000
C  -12.79700 38.60100 43.48100
N  -8.08400 38.06100 41.25800
C  -7.94100 36.66900 41.22900
C  -6.70400 36.17800 40.48200
C  -5.84500 37.41400 40.65900
C  -6.90100 38.61000 40.93200
C  -4.89700 37.44000 41.90500
C  -7.00900 35.71800 39.01000
C  -5.77600 35.18800 38.28000
H  -4.99500 36.02500 37.29200
N  -8.73700 40.98300 41.24200
C  -7.46700 41.06000 40.75800
C  -7.20600 42.41500 40.53400
C  -8.43000 43.08900 40.54800
C  -9.31600 42.17100 41.21900
C  -5.81600 42.88300 40.12800
C  -8.70100 44.50000 40.00300
O  -7.78200 45.08600 39.51100
C  -10.10500 45.12100 39.80300
N  -11.46200 40.40400 42.54200
C  -11.54500 41.75800 42.30100
C  -12.88100 42.33500 42.77300
C  -13.65500 41.00800 43.16200
C  -12.53900 39.94300 43.16100
C  -12.90900 43.34400 44.01000
C  -14.75300 40.65000 42.13100
C  -16.18400 40.77100 42.63000
N  -10.71200 37.63200 42.58900
C  -11.96100 37.50900 43.17200
C  -12.25900 36.09700 43.19600
C  -11.09700 35.42300 42.70400
C  -10.16300 36.41600 42.30700
C  -13.49500 35.44300 43.60900
C  -10.50500 34.13700 42.45600
O  -10.90200 33.03900 42.67900
C  -9.12300 34.38300 41.79200
C  -8.11500 33.65400 42.58600
O  -8.16400 33.29900 43.76300
O  -7.06700 33.32100 41.74800
C  -5.87300 32.68500 42.33300
H  -5.58500 40.09100 40.25100
H  -10.90800 43.55800 41.77600
H  -13.79400 38.45800 43.90300
H  -6.18300 35.42000 41.06700
H  -5.30600 37.74100 39.77100
H  -5.35600 37.87200 42.79400
H  -4.09400 38.11900 41.61900
H  -4.59600 36.40200 42.04800
H  -7.48000 36.51100 38.43100
H  -7.69000 34.87000 38.92300
H  -6.05400 34.25300 37.79400
H  -5.02800 35.00700 39.05200
H  -5.60600 42.61400 39.09300
H  -5.00700 42.64400 40.81800
H  -5.73200 43.96600 40.03700
H  -10.45000 45.55700 40.74000
H  -10.84600 44.36400 39.54600
H  -10.10300 45.95400 39.10000
H  -13.35600 42.89600 41.96800
H  -14.10400 41.07400 44.15300
H  -13.14500 42.72100 44.87300
H  -13.75700 44.01900 43.89700
H  -11.87900 43.70000 43.99500
H  -14.55000 39.64700 41.75300
H  -14.53700 41.28600 41.27300
H  -16.65100 41.66800 42.22400
H  -16.32900 40.80500 43.71000
H  -16.65700 39.88400 42.21000
H  -13.67900 35.76300 44.63400
H  -13.34600 34.36400 43.57000
H  -14.35800 35.78600 43.03800
H  -9.06600 34.14700 40.72900
H  -5.23200 32.21400 41.58800
H  -6.14100 31.91700 43.05900
H  -5.40700 33.49000 42.90100

