158

Mg 44.66900 3.95500 46.45900
C  43.06400 7.15800 46.24300
C  41.81900 2.51400 45.72900
C  46.44700 1.23700 46.09100
C  47.77700 5.87500 46.13000
N  42.68800 4.80800 45.98200
C  42.19000 6.06100 45.95700
C  40.67600 6.16100 45.68100
C  40.32200 4.60400 45.65000
C  41.69400 3.87100 45.88100
C  39.28500 4.20100 46.70200
C  40.28400 6.91500 44.37300
C  41.33200 6.92600 43.32100
H  40.76400 6.94100 41.80800
N  44.18800 2.13500 45.87500
C  42.89400 1.67200 45.68700
C  42.96900 0.33300 45.46300
C  44.24500 -0.11800 45.66200
C  45.02100 1.05300 45.96300
C  41.81900 -0.59800 45.09300
C  44.78600 -1.56100 45.50100
O  44.04600 -2.43500 45.12600
C  46.22900 -1.95500 45.69000
N  46.87300 3.64400 46.05400
C  47.27200 2.36200 46.21300
C  48.82400 2.30700 46.25200
C  49.27000 3.72900 46.03800
C  47.93000 4.49300 46.06200
C  49.33400 1.62800 47.50600
C  50.19800 4.05600 44.83700
C  49.50200 4.16000 43.42400
N  45.35000 6.01400 46.40300
C  46.62100 6.63100 46.22200
C  46.53700 8.05600 46.14500
C  45.17700 8.25700 46.29900
C  44.47300 7.03700 46.32000
C  47.73300 8.91200 46.05000
C  44.13800 9.26000 46.55200
O  44.26600 10.45700 46.78200
C  42.75400 8.57800 46.45600
C  41.90600 8.83700 47.61600
O  41.97000 8.29800 48.70700
O  40.90800 9.77200 47.27500
C  39.85900 10.03300 48.25600
H  40.91200 1.92200 45.59800
H  47.01200 0.30900 46.20400
H  48.76800 6.33600 46.12300
H  40.03700 6.58000 46.45800
H  39.87300 4.31500 44.70000
H  38.66500 5.07500 46.90200
H  39.64700 3.98600 47.70700
H  38.66000 3.37200 46.37000
H  39.71700 7.82900 44.55500
H  39.51500 6.35500 43.84100
H  41.94800 6.02700 43.34600
H  41.96300 7.80500 43.45100
H  41.74000 -1.51500 45.67600
H  41.83600 -0.82400 44.02700
H  40.88600 -0.06200 45.26800
H  46.56200 -2.98600 45.57000
H  46.40600 -1.69700 46.73500
H  46.81300 -1.40200 44.95400
H  49.01200 1.69800 45.36800
H  49.83500 4.09200 46.89600
H  49.30700 0.54200 47.41800
H  48.51500 1.69400 48.22200
H  50.29300 1.93400 47.92300
H  50.93200 3.25000 44.84400
H  50.79600 4.89800 45.18600
H  48.45600 3.85400 43.39300
H  49.91900 3.59700 42.58900
H  49.43800 5.20700 43.12700
H  48.21000 8.58400 45.12600
H  48.38800 8.82200 46.91700
H  47.44800 9.95500 45.91500
H  42.12800 8.92000 45.63100
H  39.55800 11.07600 48.35200
H  39.97200 9.59900 49.25000
H  38.98300 9.45700 47.95700
Mg 0.10000 42.71800 24.64700
C  1.47500 42.83600 27.98600
C  -2.68900 41.33700 25.98900
C  -0.79300 41.87400 21.69700
C  3.46400 43.38000 23.50400
N  -0.48600 42.27400 26.82600
C  0.09900 42.53800 28.03200
C  -0.83000 42.30600 29.18400
C  -2.17600 41.74000 28.47500
C  -1.76600 41.72600 26.99600
C  -2.67100 40.32400 28.93900
C  -0.99600 43.43800 30.21100
C  -0.53000 43.37400 31.70900
H  -1.71900 43.50200 32.75600
N  -1.64600 42.11700 23.95200
C  -2.71300 41.59300 24.65100
C  -3.82000 41.29200 23.73300
C  -3.27000 41.39200 22.38000
C  -1.86500 41.81700 22.57800
C  -5.24300 40.90200 24.10400
C  -3.82400 41.01800 21.01500
O  -3.22300 41.33200 19.96400
C  -5.17600 40.32600 21.01100
N  1.14400 42.72100 22.79600
C  0.53600 42.37500 21.65800
C  1.44800 42.37800 20.45400
C  2.75200 43.00100 21.06500
C  2.48500 43.01000 22.57400
C  1.67800 40.95400 19.79000
C  3.09200 44.41100 20.45900
C  2.50900 45.66000 21.07400
N  2.05800 43.09200 25.45400
C  3.33200 43.33900 24.91100
C  4.29700 43.50800 25.90900
C  3.56700 43.44700 27.10200
C  2.22500 43.11000 26.81900
C  5.72200 43.83700 25.76900
C  3.69200 43.69900 28.51600
O  4.60500 44.08500 29.19400
C  2.31400 43.18800 29.11400
C  2.68300 42.02400 29.95600
O  2.54600 40.81300 29.75900
O  3.04600 42.54600 31.16100
C  3.58900 41.60100 32.11000
H  -3.53300 40.78400 26.40400
H  -1.04600 41.72700 20.64500
H  4.39800 43.64900 23.00600
H  -0.45700 41.42600 29.70800
H  -2.95500 42.50200 28.48500
H  -2.06700 39.92700 29.75400
H  -2.60000 39.69800 28.04900
H  -3.74500 40.33800 29.12800
H  -2.04400 43.73000 30.14900
H  -0.50900 44.34700 29.85900
H  0.25400 44.12600 31.79200
H  -0.08000 42.38800 31.82900
H  -5.35800 39.83200 24.28100
H  -5.99100 41.24000 23.38800
H  -5.54400 41.32100 25.06400
H  -5.14700 39.66400 20.14500
H  -5.92900 41.09700 20.85100
H  -5.34500 39.70700 21.89200
H  1.18200 43.11000 19.69200
H  3.63500 42.41500 20.80900
H  2.72700 40.68400 19.90300
H  1.38600 40.96500 18.74000
H  1.02600 40.25100 20.30800
H  2.77300 44.42100 19.41700
H  4.18100 44.41700 20.50600
H  3.32500 46.20400 21.55000
H  1.87100 45.30100 21.88100
H  1.82200 46.15700 20.38900
H  5.99800 44.07000 24.74100
H  6.35300 43.08400 26.24200
H  5.93900 44.70600 26.38900
H  1.81000 43.90700 29.76100
H  3.40800 42.18200 33.01500
H  4.65800 41.45800 31.95300
H  3.10900 40.63000 32.23400

