158

Mg 17.25100 -1.83200 27.15100
C  16.29100 0.43900 29.64500
C  19.19600 -3.40500 29.43700
C  18.79000 -3.40800 24.55400
C  15.74600 0.34400 24.80700
N  17.56100 -1.59000 29.33900
C  17.08700 -0.55800 30.08500
C  17.52800 -0.76400 31.58900
C  18.56400 -1.91900 31.45800
C  18.51100 -2.32800 29.98600
C  20.07100 -1.36500 31.79200
C  16.38800 -1.14100 32.63200
C  16.50200 -0.58400 34.06800
H  17.96800 -0.32400 34.61300
N  18.75100 -3.36500 27.00800
C  19.36000 -3.89200 28.09000
C  20.06500 -4.97600 27.64500
C  19.88900 -5.09100 26.24100
C  19.06600 -3.91000 25.81600
C  20.88400 -5.91900 28.58500
C  20.38500 -6.17900 25.29600
O  20.07200 -6.25700 24.12000
C  21.29000 -7.23100 25.72700
N  17.28200 -1.49400 25.04000
C  18.01300 -2.28400 24.15400
C  17.80500 -1.88200 22.70300
C  16.71600 -0.71900 22.73300
C  16.67800 -0.54400 24.30400
C  19.11900 -1.38300 22.03300
C  15.39500 -1.02300 22.14700
C  15.28500 -0.56600 20.64900
N  16.09700 -0.17500 27.18600
C  15.49000 0.59400 26.14900
C  14.78600 1.70100 26.75600
C  15.11200 1.75000 28.14400
C  15.92600 0.62900 28.30300
C  14.00400 2.73800 25.95600
C  15.06100 2.39100 29.38100
O  14.31600 3.31300 29.63900
C  15.69600 1.56300 30.46500
C  16.53700 2.42500 31.39800
O  17.39500 3.26400 31.02100
O  16.11200 2.26500 32.70800
C  16.51500 3.19800 33.65400
H  19.69900 -3.88200 30.28100
H  19.26000 -3.97100 23.74400
H  15.16700 1.03100 24.18600
H  17.96700 0.17300 31.93400
H  18.25200 -2.70400 32.14700
H  20.38000 -1.93300 32.66900
H  20.02400 -0.33000 32.13200
H  20.77400 -1.52000 30.97400
H  16.19700 -2.20700 32.75500
H  15.42200 -0.81300 32.25000
H  15.93000 -1.15700 34.79800
H  15.91300 0.32800 33.96300
H  21.89500 -6.21700 28.30700
H  20.37500 -6.87600 28.70100
H  21.03200 -5.41400 29.54000
H  22.32100 -6.88800 25.81300
H  21.49900 -7.90400 24.89500
H  20.91600 -7.75800 26.60500
H  17.44900 -2.74500 22.14100
H  17.19800 0.20900 22.42500
H  18.81000 -0.52900 21.43100
H  19.60000 -2.06500 21.33100
H  19.70400 -0.95800 22.84800
H  14.54400 -0.84400 22.80400
H  15.36200 -2.09800 21.97100
H  14.78100 -1.29200 20.01000
H  16.29100 -0.24500 20.37700
H  14.68200 0.34100 20.60900
H  14.76700 2.92900 25.20100
H  13.68500 3.56200 26.59600
H  13.18300 2.14200 25.55700
H  14.94800 1.13300 31.13300
H  16.99700 2.70200 34.49700
H  15.65100 3.79700 33.93900
H  17.24000 3.94300 33.32600
Mg 9.75000 47.82000 26.51700
C  8.08500 47.61200 29.48300
C  12.45000 48.99200 28.37400
C  11.30100 48.24800 23.54900
C  6.60700 47.45500 24.74800
N  10.20600 48.23400 28.70800
C  9.32400 48.15000 29.71500
C  9.93500 48.67800 31.03400
C  11.09300 49.59400 30.56900
C  11.30100 48.89200 29.12700
C  10.84100 51.22000 30.58900
C  10.35500 47.49200 31.93300
C  9.88600 47.55500 33.38600
H  9.98400 46.19200 34.11800
N  11.68400 48.32100 26.07900
C  12.60800 48.76900 27.00600
C  13.82100 48.74400 26.31700
C  13.51200 48.51200 24.92600
C  12.07600 48.37300 24.76700
C  15.17400 48.97800 27.03200
C  14.47900 48.50600 23.73100
O  14.17900 48.19600 22.60700
C  15.91300 48.66900 23.92400
N  9.01300 47.90100 24.39200
C  9.87400 48.03000 23.40800
C  9.21300 48.06700 22.01000
C  7.68200 47.79400 22.42200
C  7.74400 47.61800 23.97600
C  9.45500 49.30900 21.03700
C  7.01200 46.62100 21.65900
C  6.57300 46.99000 20.20200
N  7.74700 47.46700 26.99600
C  6.64500 47.37300 26.22900
C  5.51900 47.19600 27.09700
C  5.99400 47.27600 28.39400
C  7.38500 47.46400 28.22700
C  4.14800 46.97000 26.58300
C  5.71100 47.17700 29.80500
O  4.69800 46.99300 30.43600
C  7.06000 47.43100 30.50900
C  7.27800 46.18500 31.28300
O  7.73500 45.11700 30.92400
O  6.75900 46.31200 32.51400
C  6.42100 45.07800 33.28200
H  13.32700 49.33700 28.92700
H  11.81800 48.34000 22.59200
H  5.63600 47.30500 24.27200
H  9.18200 49.24600 31.58000
H  11.94400 49.51700 31.24600
H  10.98800 51.40000 29.52400
H  11.76600 51.53600 31.07300
H  9.93300 51.56900 31.08100
H  11.44300 47.46200 31.97800
H  10.18400 46.51300 31.48400
H  8.85500 47.90200 33.32900
H  10.33900 48.40300 33.90000
H  15.27300 48.77400 28.09800
H  15.46500 49.95400 26.64300
H  15.84200 48.18100 26.70300
H  16.43100 48.77800 22.97100
H  16.19600 47.74700 24.43100
H  16.29800 49.49800 24.51900
H  9.52800 47.21600 21.40600
H  7.07500 48.69000 22.29300
H  8.52300 49.72400 20.65400
H  10.02300 49.03300 20.14900
H  10.00800 50.06800 21.59100
H  6.09800 46.37600 22.19900
H  7.65200 45.74400 21.76000
H  6.71700 48.05200 20.00200
H  5.54000 46.75900 19.94100
H  7.13800 46.37500 19.50200
H  4.07000 46.36400 25.68100
H  3.61700 47.91100 26.43800
H  3.48600 46.48600 27.30000
H  6.93800 48.21600 31.25500
H  6.87300 45.13200 34.27200
H  6.65000 44.11100 32.83400
H  5.34500 45.12600 33.44500

