158

Mg 16.78000 52.45300 24.64900
C  18.15700 51.39000 27.71200
C  14.13700 53.72900 26.36600
C  15.57800 53.61600 21.75300
C  19.32300 50.86600 23.03300
N  16.16000 52.29400 26.88600
C  16.93700 52.04600 27.92200
C  16.30900 52.48500 29.25700
C  14.89200 52.92600 28.79300
C  15.09100 53.12000 27.19300
C  13.72000 51.92600 28.93900
C  17.13400 53.53700 30.11400
C  17.47900 53.30800 31.71500
H  16.66100 52.28500 32.48900
N  14.97100 53.39300 24.12500
C  14.02300 53.92100 24.95200
C  13.09000 54.64100 24.17500
C  13.42500 54.54000 22.84200
C  14.75300 53.86500 22.84300
C  11.89800 55.42700 24.88000
C  12.74900 55.10400 21.58800
O  13.27000 55.00200 20.47400
C  11.38400 55.79700 21.68300
N  17.30100 52.18400 22.59900
C  16.77100 52.87900 21.57000
C  17.45800 52.66600 20.20900
C  18.60800 51.81500 20.74800
C  18.54400 51.73500 22.24500
C  16.52700 52.00700 19.12600
C  20.05700 52.34500 20.35200
C  20.23500 52.66700 18.88200
N  18.36500 51.23300 25.20800
C  19.34200 50.61900 24.40400
C  20.33000 49.90500 25.23300
C  19.88200 50.32800 26.51400
C  18.70200 51.06000 26.45900
C  21.70300 49.37900 24.93000
C  20.32300 50.26400 27.89200
O  21.20300 49.53200 28.30100
C  19.17500 50.99800 28.71600
C  18.63000 49.86800 29.55600
O  17.73500 49.08100 29.24100
O  19.19900 49.73000 30.79400
C  18.55400 48.88700 31.81100
H  13.36700 54.24400 26.94300
H  15.14700 53.99400 20.82400
H  20.08600 50.44700 22.37300
H  16.40000 51.53800 29.79000
H  14.65900 53.89700 29.22900
H  13.96700 51.20600 29.71900
H  13.51900 51.41900 27.99500
H  12.81700 52.48100 29.19000
H  16.79000 54.56000 29.96500
H  18.08400 53.50700 29.58200
H  17.34000 54.27200 32.20500
H  18.56100 53.19100 31.77100
H  11.80800 56.35400 24.31300
H  12.24300 55.80000 25.84400
H  11.02100 54.78400 24.96200
H  11.12100 56.07100 20.66100
H  11.45800 56.74800 22.21100
H  10.67500 55.09700 22.12400
H  17.77600 53.64700 19.85700
H  18.39900 50.83500 20.31800
H  16.89800 51.05800 18.73800
H  16.56800 52.54700 18.18000
H  15.51000 51.91500 19.50600
H  20.96800 51.81300 20.62800
H  20.12800 53.23400 20.97800
H  21.16500 52.20600 18.54900
H  20.33400 53.72900 18.65400
H  19.45400 52.25900 18.24100
H  22.38400 50.16000 25.26700
H  21.85300 49.34700 23.85000
H  21.85100 48.40700 25.40000
H  19.52200 51.87600 29.26000
H  18.77700 47.83600 31.62900
H  17.48200 48.87600 32.00700
H  19.03300 49.16900 32.74900
Mg -11.25800 18.45500 43.08500
C  -7.75600 18.69300 43.93700
C  -11.50800 21.81100 42.86700
C  -14.28000 18.02500 41.83000
C  -10.72100 14.91700 43.09200
N  -9.75600 19.95900 43.36600
C  -8.43700 19.87100 43.65600
C  -7.76300 21.21800 43.37000
C  -9.01800 22.22900 43.48900
C  -10.20000 21.32000 43.16100
C  -9.17900 23.08000 44.78700
C  -7.20600 21.14100 41.89600
C  -5.72100 21.32800 41.83600
H  -5.14600 21.99200 40.62900
N  -12.73600 19.74900 42.42100
C  -12.70100 21.11200 42.40500
C  -13.82000 21.68500 41.80100
C  -14.71500 20.54000 41.44800
C  -13.97600 19.38100 41.97500
C  -13.95600 23.14900 41.58600
C  -16.10700 20.70200 40.90300
O  -16.50700 21.78700 40.55200
C  -16.96500 19.55800 40.58900
N  -12.32300 16.75800 42.50200
C  -13.59600 16.83400 41.98300
C  -14.20400 15.47500 41.75300
C  -13.13700 14.43600 42.26800
C  -11.96800 15.38500 42.61000
C  -15.68000 15.32500 42.24400
C  -12.74700 13.32600 41.17400
C  -12.58000 11.84500 41.69900
N  -9.63800 16.95100 43.57700
C  -9.60500 15.61600 43.52300
C  -8.27000 15.14800 43.83700
C  -7.49400 16.27000 44.08600
C  -8.41100 17.38100 43.93800
C  -7.83200 13.69600 43.83200
C  -6.17900 16.83100 44.41400
O  -5.13500 16.26000 44.79000
C  -6.32800 18.35700 44.35500
C  -5.91400 18.87000 45.71900
O  -6.55700 18.76800 46.71500
O  -4.57200 19.27300 45.73000
C  -4.07600 20.03200 46.86100
H  -11.48200 22.90200 42.91100
H  -15.26300 17.74400 41.44600
H  -10.51000 13.87800 42.83000
H  -7.10700 21.36000 44.22900
H  -8.83100 22.94300 42.68700
H  -9.49400 24.06900 44.45300
H  -8.19800 23.15900 45.25700
H  -9.90400 22.62000 45.45800
H  -7.66100 21.85800 41.21200
H  -7.42900 20.19300 41.40700
H  -5.25400 20.37300 42.07700
H  -5.44700 21.91500 42.71300
H  -14.36900 23.40600 40.61000
H  -12.95400 23.56900 41.50100
H  -14.55600 23.59300 42.38000
H  -16.60000 18.96300 39.75100
H  -17.92600 19.89800 40.20300
H  -17.16900 18.91400 41.44400
H  -14.16600 15.36900 40.66900
H  -13.46600 13.92600 43.17400
H  -15.96100 16.16900 42.87400
H  -15.75800 14.36300 42.74900
H  -16.33400 15.23900 41.37700
H  -11.83200 13.66800 40.69000
H  -13.48900 13.33900 40.37500
H  -12.46700 11.09000 40.92100
H  -13.53900 11.48500 42.07200
H  -11.84900 11.87400 42.50600
H  -8.05600 13.27600 42.85100
H  -8.27600 13.12700 44.64900
H  -6.74600 13.61700 43.88600
H  -5.55000 18.56500 43.62000
H  -4.28700 21.09400 46.73200
H  -3.01000 20.06500 47.08800
H  -4.67300 19.79100 47.74000

