158

Mg 45.36300 5.48300 48.32300
C  43.44300 8.14500 47.45000
C  42.92700 3.30000 47.21400
C  47.60700 2.83400 48.43400
C  48.08400 7.58900 48.73700
N  43.56700 5.72700 47.27900
C  42.86800 6.90600 47.12800
C  41.59900 6.70200 46.41100
C  41.28900 5.19900 46.69000
C  42.67500 4.68400 47.11700
C  40.16100 4.91500 47.67500
C  41.60700 7.09200 44.86800
C  40.50100 7.94600 44.30800
H  39.90700 7.54700 43.00100
N  45.26100 3.35200 48.03200
C  44.09800 2.66300 47.64600
C  44.34600 1.22900 47.67200
C  45.67200 1.08500 48.15400
C  46.26300 2.48000 48.23400
C  43.33200 0.23800 47.48500
C  46.34000 -0.30600 48.50800
O  45.67200 -1.33000 48.44700
C  47.66700 -0.54200 49.01500
N  47.57100 5.27700 48.51700
C  48.20000 4.11900 48.57800
C  49.70900 4.20700 48.85000
C  49.86100 5.79200 48.91200
C  48.38000 6.29100 48.70900
C  50.18700 3.60400 50.22800
C  50.82900 6.37400 47.88400
C  51.58400 7.59500 48.48900
N  45.77200 7.52900 48.28600
C  46.89400 8.20400 48.40000
C  46.63500 9.61800 48.12900
C  45.25200 9.66400 47.84500
C  44.77300 8.32900 47.96200
C  47.62400 10.75100 48.06700
C  44.14100 10.49200 47.48800
O  44.02200 11.65900 47.36000
C  42.92600 9.50200 47.28700
C  41.73100 9.82400 48.13800
O  41.63400 9.41400 49.32100
O  40.85900 10.55700 47.44400
C  39.69000 11.00800 48.11700
H  42.21300 2.56600 46.83600
H  48.41600 2.10600 48.51400
H  48.80200 8.35800 49.03100
H  40.82200 7.26700 46.92600
H  41.03000 4.62800 45.79800
H  39.76700 5.80800 48.15900
H  40.56100 4.36000 48.52300
H  39.38100 4.33300 47.18400
H  41.65600 6.20900 44.23100
H  42.56700 7.60300 44.79900
H  40.82300 8.98600 44.26200
H  39.65800 7.91800 44.99800
H  43.48400 -0.40900 46.62100
H  42.34500 0.55800 47.15100
H  43.18400 -0.37100 48.37700
H  48.01200 -1.55000 49.24800
H  47.66800 -0.00000 49.96100
H  48.37000 -0.14200 48.28500
H  50.29300 3.75700 48.04800
H  50.02200 6.07100 49.95400
H  50.93700 4.26700 50.65700
H  50.51000 2.58200 50.03000
H  49.32700 3.43800 50.87700
H  50.26000 6.86000 47.09100
H  51.58300 5.65300 47.56700
H  52.29900 7.97000 47.75700
H  52.07700 7.10900 49.33100
H  50.83600 8.35000 48.73200
H  48.58200 10.39900 47.68500
H  47.68500 11.03500 49.11800
H  47.18500 11.50700 47.41500
H  42.65300 9.58400 46.23500
H  39.53700 12.03700 47.79300
H  39.77800 10.97300 49.20300
H  38.85400 10.35600 47.86500
Mg 28.32900 56.64200 40.69300
C  26.71800 53.68000 39.81600
C  31.27200 55.34600 39.32300
C  29.83900 59.53000 41.42400
C  25.16600 58.03000 41.36600
N  28.90700 54.70300 39.67900
C  28.05000 53.67700 39.39200
C  28.73800 52.51500 38.78700
C  30.22600 52.92300 38.83300
C  30.17800 54.39600 39.39200
C  31.32500 51.96800 39.58700
C  28.16000 51.93500 37.38100
C  27.67700 53.08600 36.45800
H  27.94400 53.01400 34.94800
N  30.34200 57.37100 40.36200
C  31.34000 56.71300 39.78300
C  32.50400 57.63300 39.70600
C  32.15200 58.83700 40.38500
C  30.73600 58.61300 40.78900
C  33.86100 57.22200 39.09200
C  33.05100 60.01900 40.58300
O  34.22300 59.89900 40.27000
C  32.67000 61.27600 41.32000
N  27.59000 58.54800 41.03400
C  28.41500 59.50400 41.50500
C  27.64800 60.75200 42.06200
C  26.14900 60.36400 41.83900
C  26.24600 58.87500 41.39100
C  28.01500 61.02800 43.52900
C  25.46800 61.20300 40.71100
C  26.31100 61.54500 39.51100
N  26.29200 56.00000 40.75200
C  25.12100 56.65300 41.01500
C  23.92500 55.76100 40.87500
C  24.53700 54.60000 40.45400
C  25.96900 54.79100 40.34300
C  22.53400 56.09400 41.26100
C  24.31600 53.21900 40.05700
O  23.29000 52.59500 39.99000
C  25.72000 52.52400 39.81700
C  25.93000 51.51300 40.87500
O  25.74500 51.69200 42.08200
O  26.58900 50.50900 40.31700
C  27.35000 49.58900 41.20000
H  32.25900 55.00400 39.00200
H  30.36900 60.38700 41.84600
H  24.24200 58.31400 41.87300
H  28.63000 51.66400 39.45900
H  30.51400 53.06200 37.79100
H  32.22000 51.87200 38.97300
H  30.79900 51.06000 39.88200
H  31.66100 52.47900 40.49000
H  27.33500 51.26400 37.62400
H  28.93900 51.35500 36.88600
H  28.21800 54.00500 36.68300
H  26.62700 53.29800 36.65800
H  34.21800 58.01300 38.43300
H  33.80700 56.22400 38.65800
H  34.60800 57.07100 39.87200
H  32.23500 60.97800 42.27400
H  31.97200 61.87300 40.73400
H  33.52900 61.82700 41.70300
H  27.89900 61.67000 41.53100
H  25.59700 60.36900 42.77900
H  27.13100 61.10200 44.16100
H  28.51300 61.98700 43.67400
H  28.54000 60.21500 44.03200
H  25.14200 62.13100 41.17900
H  24.57200 60.77400 40.26100
H  27.15500 60.88300 39.31700
H  26.68300 62.54700 39.72600
H  25.69500 61.53800 38.61200
H  22.25900 57.10500 40.96000
H  22.49400 55.97000 42.34400
H  21.91200 55.32500 40.80400
H  25.53200 51.98600 38.88800
H  28.38000 49.45900 40.86700
H  26.85900 48.63000 41.36200
H  27.47200 50.06300 42.17400

