158

Mg 17.28700 -2.43800 27.49800
C  16.00800 -0.44000 30.10400
C  18.99800 -4.18700 29.92800
C  18.53300 -4.40500 25.06100
C  15.42100 -0.70500 25.21700
N  17.60500 -2.16000 29.71600
C  16.82100 -1.38700 30.56500
C  17.29400 -1.54500 32.10000
C  18.25800 -2.82700 32.07300
C  18.32900 -3.10600 30.46500
C  19.56900 -2.58300 32.85700
C  16.10200 -1.68100 33.08900
C  16.13200 -0.97100 34.43100
H  17.48900 -0.43500 35.03600
N  18.56800 -4.11900 27.49500
C  19.21700 -4.67400 28.61900
C  19.92600 -5.90200 28.19500
C  19.75800 -6.02400 26.82500
C  18.92900 -4.77600 26.37100
C  20.65500 -6.90000 29.14000
C  20.24500 -7.10300 25.81400
O  19.81900 -7.05300 24.64200
C  21.15500 -8.18900 26.30200
N  17.01300 -2.54400 25.39600
C  17.73700 -3.34600 24.65000
C  17.50600 -3.05700 23.19100
C  16.35000 -2.01300 23.19900
C  16.18700 -1.77100 24.70100
C  18.86700 -2.61600 22.45400
C  14.99500 -2.40500 22.50200
C  13.67800 -2.69600 23.32900
N  15.89700 -0.91800 27.57900
C  15.23000 -0.27800 26.56600
C  14.37300 0.76700 27.11400
C  14.72400 0.78200 28.49100
C  15.64800 -0.23600 28.71300
C  13.22300 1.59000 26.46900
C  14.40400 1.42000 29.73400
O  13.57300 2.24700 30.05900
C  15.24700 0.66700 30.85200
C  16.05300 1.61800 31.58800
O  16.90800 2.36000 31.08200
O  15.52000 1.81000 32.80800
C  15.99000 3.07700 33.44200
H  19.46000 -4.81100 30.69600
H  18.74600 -5.11700 24.26100
H  14.79900 -0.21900 24.46200
H  17.86300 -0.62600 32.23700
H  17.84600 -3.70400 32.57300
H  19.88900 -1.54500 32.77700
H  20.36100 -3.22900 32.48000
H  19.31100 -2.94400 33.85300
H  16.16100 -2.71200 33.43800
H  15.21400 -1.51200 32.48000
H  15.72900 -1.59300 35.23100
H  15.39700 -0.17600 34.30700
H  20.32000 -7.92600 28.98200
H  20.37800 -6.62100 30.15700
H  21.72800 -6.92200 28.95000
H  21.95800 -7.83000 26.94500
H  21.61500 -8.79000 25.51700
H  20.64200 -8.86600 26.98600
H  17.02700 -3.92900 22.74700
H  16.73300 -1.10200 22.74000
H  19.67700 -2.93500 23.11000
H  18.96900 -1.53100 22.44500
H  18.97900 -3.27300 21.59200
H  15.21200 -3.28100 21.89000
H  14.75700 -1.63000 21.77400
H  13.06400 -1.80100 23.23200
H  13.89200 -2.88700 24.38000
H  13.12100 -3.50700 22.85800
H  12.49100 1.39400 27.25100
H  12.96100 1.09100 25.53600
H  13.40000 2.63600 26.21600
H  14.50700 0.22400 31.51900
H  15.81000 3.84300 32.68800
H  17.04300 2.92700 33.67800
H  15.46200 3.46900 34.31100
Mg 37.03700 50.14500 25.46400
C  37.07000 48.06600 28.27700
C  35.09700 52.37200 27.27200
C  36.39600 51.79800 22.61300
C  37.88600 47.35300 23.52200
N  36.26000 50.17700 27.50500
C  36.63800 49.33800 28.54000
C  36.34300 49.94400 29.88700
C  35.38600 51.18600 29.51200
C  35.56400 51.26600 28.01600
C  33.93400 51.15800 30.05200
C  37.67200 50.16000 30.65100
C  37.58700 49.75600 32.07600
H  36.20300 49.64500 32.74000
N  35.97300 51.91400 25.02400
C  35.26100 52.69300 25.87300
C  34.73600 53.84400 25.24100
C  35.11400 53.69600 23.84000
C  35.91300 52.39200 23.77100
C  33.84600 54.90500 25.94500
C  34.85800 54.62200 22.69900
O  35.07900 54.27200 21.55500
C  34.38900 56.04000 22.95900
N  37.39300 49.74000 23.37500
C  36.93800 50.52400 22.36100
C  37.19800 49.98300 20.99500
C  37.91600 48.63100 21.37300
C  37.64400 48.51800 22.86300
C  35.92400 49.88500 20.11100
C  39.36100 48.43300 20.81500
C  40.39600 49.55300 21.05500
N  37.57500 48.10500 25.79300
C  37.85400 47.05500 24.90500
C  38.11500 45.83600 25.65700
C  37.81200 46.19700 27.00400
C  37.51300 47.56900 27.02400
C  38.58300 44.53000 25.06100
C  37.67100 45.62400 28.32200
O  37.74900 44.45500 28.72700
C  37.27600 46.84800 29.21500
C  36.05400 46.40800 29.92800
O  34.96800 46.26100 29.46200
O  36.35400 46.06400 31.25200
C  35.27900 45.37000 32.06100
H  34.45700 53.10100 27.77400
H  36.36300 52.45200 21.73900
H  38.08300 46.59300 22.76300
H  35.58400 49.32500 30.36700
H  35.83400 52.10000 29.90100
H  33.83700 50.21400 30.58800
H  33.27900 51.25900 29.18600
H  33.87800 51.92700 30.82200
H  38.02700 51.18000 30.50300
H  38.49900 49.55900 30.27100
H  38.08600 50.53900 32.64700
H  38.10500 48.81500 32.25800
H  34.59800 55.60600 26.30800
H  33.32300 54.43400 26.77800
H  33.08500 55.31800 25.28300
H  34.74300 56.46300 23.89900
H  33.36700 56.21300 22.62200
H  34.93800 56.59800 22.20000
H  37.97200 50.58300 20.51600
H  37.33800 47.82800 20.91600
H  35.62400 50.89900 19.84700
H  35.14900 49.46600 20.75300
H  36.07400 49.33800 19.18000
H  39.13400 48.28700 19.75900
H  39.87900 47.58500 21.26300
H  40.68300 50.05600 20.13200
H  41.36000 49.14000 21.35100
H  40.05300 50.28000 21.79200
H  38.82500 44.74100 24.02000
H  37.94600 43.67700 25.29400
H  39.59700 44.25300 25.34900
H  38.01200 46.92500 30.01600
H  35.34500 45.60800 33.12300
H  35.56000 44.31900 31.98000
H  34.28600 45.52200 31.63900

