158

Mg 8.72600 2.85400 27.37500
C  10.05000 1.36900 30.33500
C  6.74800 4.82400 29.42200
C  7.35200 4.11300 24.52400
C  10.36300 0.27400 25.55000
N  8.40300 2.92300 29.58600
C  9.13700 2.37200 30.56700
C  8.83700 2.95500 31.90100
C  7.77000 3.97700 31.59300
C  7.55500 3.90200 30.09200
C  6.38900 3.79400 32.31400
C  10.01900 3.44600 32.82600
C  9.77800 4.29400 34.08300
H  10.45200 4.00900 35.41900
N  7.44000 4.38300 27.06100
C  6.68800 5.07700 28.00000
C  5.80200 5.91000 27.33400
C  5.99700 5.78500 25.92900
C  6.98200 4.69100 25.75100
C  4.89900 6.81900 28.08700
C  5.36600 6.61700 24.81200
O  5.62500 6.39100 23.61100
C  4.51200 7.80900 25.14800
N  8.95200 2.33000 25.37400
C  8.30500 3.03300 24.34500
C  8.51800 2.36000 22.97300
C  9.66600 1.35500 23.30800
C  9.55000 1.22100 24.82200
C  7.15700 1.83600 22.44700
C  11.14700 1.73000 22.95500
C  11.75300 0.85400 21.85200
N  9.97000 1.16400 27.78600
C  10.62400 0.26200 26.96100
C  11.37900 -0.70200 27.68100
C  11.21200 -0.26100 29.01200
C  10.35900 0.84000 29.02600
C  12.33300 -1.67900 27.07600
C  11.66900 -0.49300 30.36400
O  12.44700 -1.38600 30.79400
C  10.93100 0.52900 31.29100
C  10.23900 -0.18000 32.36200
O  9.41400 -0.95900 32.22700
O  10.78900 0.23200 33.54800
C  10.28300 -0.38700 34.76400
H  6.18900 5.47600 30.09600
H  6.93900 4.43400 23.56600
H  11.00300 -0.38900 24.96500
H  8.29300 2.18500 32.44900
H  8.00900 5.02000 31.80000
H  5.79900 3.08000 31.74000
H  5.89000 4.76000 32.38900
H  6.46500 3.32000 33.29200
H  10.65300 4.00200 32.13500
H  10.62100 2.64800 33.26100
H  8.70300 4.24200 34.25400
H  9.99500 5.29500 33.70800
H  5.11900 7.84600 27.79400
H  4.79500 6.66100 29.16000
H  3.99400 6.60700 27.51700
H  3.59900 7.46900 25.63800
H  4.18900 8.16400 24.16900
H  5.00600 8.62800 25.66900
H  8.86800 3.09200 22.24500
H  9.46800 0.38500 22.85300
H  6.87900 2.40800 21.56200
H  6.35600 1.99300 23.16900
H  7.19900 0.78700 22.15200
H  11.77600 1.97100 23.81200
H  11.03000 2.67600 22.42800
H  12.01500 1.35500 20.92000
H  11.11400 -0.00100 21.63600
H  12.60200 0.27800 22.22000
H  11.84400 -2.65100 27.02200
H  13.08900 -1.94300 27.81400
H  12.73800 -1.33800 26.12200
H  11.67600 1.16900 31.76500
H  9.23900 -0.69400 34.70000
H  10.35200 0.27600 35.62600
H  10.90700 -1.21700 35.09500
Mg 35.57600 1.87800 29.21400
C  33.39800 3.06000 31.68300
C  38.09500 2.04400 31.40200
C  37.45400 1.11800 26.64700
C  32.72800 1.92700 27.00400
N  35.77700 2.72900 31.30700
C  34.67200 2.89400 32.14800
C  35.15200 2.86200 33.62800
C  36.74200 2.80600 33.44700
C  36.92200 2.48000 31.98500
C  37.38400 4.13500 33.83600
C  34.39100 1.68300 34.40500
C  33.93300 1.94800 35.87700
H  34.39700 3.27800 36.52300
N  37.50000 1.59100 29.06800
C  38.44800 1.67800 30.09800
C  39.69400 1.17100 29.57200
C  39.54900 1.02200 28.16900
C  38.10700 1.24200 27.88300
C  40.87500 0.89700 30.48500
C  40.57000 0.62700 27.16100
O  40.31400 0.49900 25.96600
C  42.01100 0.46100 27.54600
N  35.09100 1.50200 27.07800
C  36.08500 1.15200 26.24400
C  35.59600 0.94800 24.77000
C  34.06200 0.95800 25.04000
C  33.91200 1.44400 26.44300
C  36.07600 2.01600 23.80000
C  33.32300 -0.41400 24.85100
C  32.73700 -0.61100 23.48800
N  33.51300 2.48700 29.25000
C  32.52800 2.48400 28.31400
C  31.21900 2.96500 28.84700
C  31.56700 3.20800 30.17000
C  32.95200 2.94300 30.36300
C  29.84600 3.14500 28.17100
C  30.96700 3.59900 31.40100
O  29.87100 3.98800 31.80300
C  32.12200 3.44100 32.45300
C  32.23400 4.75700 33.20800
O  32.80000 5.75400 32.75800
O  31.60800 4.64200 34.37600
C  31.32400 5.92900 35.15000
H  38.95400 1.92200 32.06500
H  38.12100 0.86200 25.82100
H  31.83100 1.93900 26.38100
H  34.86600 3.78700 34.13000
H  37.22700 2.08100 34.10100
H  38.13000 4.01100 34.62100
H  36.74600 4.96600 34.13600
H  37.99700 4.55600 33.04000
H  35.09300 0.85300 34.48200
H  33.50200 1.38300 33.85000
H  34.13300 1.10400 36.53700
H  32.84800 1.96800 35.78100
H  41.31000 -0.07500 30.25500
H  40.69300 0.79400 31.55500
H  41.55500 1.72900 30.30300
H  42.67500 0.31000 26.69400
H  42.12500 -0.31800 28.30000
H  42.43200 1.34000 28.03300
H  35.94800 -0.05100 24.51300
H  33.56200 1.68400 24.39900
H  35.22500 2.42100 23.25300
H  36.87900 1.57000 23.21200
H  36.39300 2.84700 24.43000
H  32.57000 -0.62500 25.61000
H  34.06400 -1.20900 24.93700
H  31.65900 -0.48700 23.58200
H  32.95600 -1.63300 23.17900
H  33.09200 0.05600 22.70200
H  29.61700 4.20000 28.02000
H  29.23100 2.65300 28.92400
H  29.79400 2.64500 27.20400
H  31.77300 2.64100 33.10600
H  30.48300 6.47200 34.71900
H  32.08500 6.69900 35.27800
H  31.11400 5.50700 36.13300

