158

Mg 46.87400 24.76700 28.74000
C  47.86500 27.28400 30.95200
C  45.89700 22.79800 31.32600
C  46.64400 22.33100 26.55600
C  48.68200 26.64300 26.24700
N  46.91100 25.02800 30.85300
C  47.23000 26.14300 31.55600
C  46.96600 25.90300 33.07900
C  46.65600 24.36000 33.16500
C  46.53600 23.98300 31.66100
C  47.59900 23.47900 33.98800
C  45.81200 26.79500 33.64300
C  45.48800 26.74200 35.14800
H  46.54500 26.17600 36.14300
N  46.16400 22.85800 28.89600
C  45.67400 22.25700 30.02000
C  44.94900 21.09400 29.64000
C  45.14800 20.90700 28.24400
C  46.04600 22.00700 27.81100
C  44.22600 20.11100 30.57900
C  44.60100 19.82300 27.29200
O  44.72400 19.96000 26.05300
C  43.73100 18.68700 27.74700
N  47.76400 24.50800 26.72500
C  47.44300 23.36100 26.05900
C  47.96900 23.37300 24.57300
C  48.35600 24.88100 24.46100
C  48.32400 25.37100 25.85700
C  49.11600 22.39000 24.25900
C  47.41300 25.72900 23.54800
C  48.06900 26.51400 22.36500
N  47.88300 26.63700 28.54500
C  48.58400 27.22900 27.55000
C  49.09900 28.54700 27.92300
C  48.78000 28.61300 29.29500
C  48.15500 27.40200 29.61800
C  49.78800 29.44800 26.94000
C  48.96800 29.45000 30.51800
O  49.42400 30.61400 30.65300
C  48.36600 28.53700 31.61500
C  49.50000 28.41400 32.48500
O  50.49500 27.69200 32.27000
O  49.27400 29.13400 33.64700
C  50.32900 29.11000 34.65100
H  45.57800 22.13100 32.13000
H  46.60900 21.45200 25.90900
H  49.14700 27.30200 25.51000
H  47.89000 26.22300 33.56000
H  45.75100 24.27200 33.76600
H  48.33800 24.02000 34.57900
H  48.14500 22.87700 33.26100
H  47.09500 22.68700 34.54200
H  44.89900 26.73000 33.05100
H  46.12600 27.83800 33.67000
H  44.62000 26.09200 35.26200
H  45.28100 27.76200 35.47200
H  44.41200 20.47000 31.59100
H  44.66300 19.11700 30.49200
H  43.18400 20.16200 30.26000
H  44.07000 18.20500 28.66400
H  43.79100 17.94300 26.95300
H  42.77400 19.14200 28.00100
H  47.17700 23.23500 23.83600
H  49.40500 24.83900 24.16800
H  49.05500 21.67800 25.08100
H  50.10800 22.83300 24.35900
H  48.86500 21.97700 23.28200
H  46.74700 26.33400 24.16300
H  46.81300 25.04500 22.94700
H  47.52900 27.46200 22.36700
H  47.89600 26.06700 21.38600
H  49.13200 26.72400 22.48200
H  50.79100 29.02200 26.90800
H  49.78800 30.47500 27.30500
H  49.25300 29.43000 25.99100
H  47.52400 29.02000 32.11100
H  50.33700 28.11700 35.10000
H  50.16600 29.94000 35.33800
H  51.28000 29.08100 34.11900
Mg 30.17600 58.00200 39.93700
C  27.06700 56.60800 39.16000
C  31.71600 54.98900 39.06800
C  33.19300 59.61700 39.72000
C  28.51800 61.08300 40.11900
N  29.45400 56.02400 39.10100
C  28.12600 55.69400 39.02800
C  27.98500 54.20600 38.76800
C  29.49200 53.63600 38.79700
C  30.30100 54.96700 39.03500
C  29.90300 52.55100 39.86500
C  27.32000 53.89200 37.46600
C  27.95300 54.42700 36.09100
H  27.01100 55.29800 35.23700
N  32.19100 57.31800 39.72100
C  32.63700 56.04100 39.27300
C  34.07400 56.07700 39.12000
C  34.46200 57.46500 39.32900
C  33.25700 58.19800 39.64800
C  34.93400 54.96500 38.77100
C  35.85700 57.97800 39.26100
O  36.69700 57.23000 38.87000
C  36.34600 59.36400 39.78500
N  30.74700 60.00500 39.89200
C  32.01400 60.40200 39.90700
C  32.18600 61.93300 39.84900
C  30.76700 62.39600 40.01600
C  29.95600 61.05000 40.04800
C  33.21000 62.48800 40.84300
C  30.24200 63.44000 38.99900
C  29.86300 64.80100 39.55200
N  28.20900 58.73100 39.85300
C  27.69100 59.99900 39.97800
C  26.23800 59.91900 39.90800
C  26.02100 58.61900 39.51000
C  27.21300 57.96800 39.52900
C  25.36700 61.01400 40.05600
C  24.92000 57.70400 39.17500
O  23.66400 57.87000 39.06400
C  25.58700 56.42500 38.99800
C  24.89400 55.49500 39.86700
O  25.17200 55.37800 41.03600
O  24.03200 54.64500 39.24500
C  23.33000 53.78500 40.16800
H  32.17800 54.02900 38.82700
H  34.12400 60.11700 39.44500
H  28.03000 62.05100 40.24900
H  27.34100 53.85900 39.57500
H  29.77500 53.18800 37.84500
H  30.47800 52.95700 40.69700
H  30.38900 51.65500 39.47800
H  28.99500 52.16400 40.32800
H  26.33000 54.34800 37.45200
H  27.28600 52.80400 37.41400
H  28.25800 53.53900 35.53600
H  28.87700 54.96000 36.31500
H  35.74500 54.80200 39.48100
H  35.31900 55.10300 37.76000
H  34.48100 53.97500 38.81700
H  36.13600 60.18200 39.09600
H  37.42000 59.17300 39.79900
H  36.01800 59.46200 40.82000
H  32.62900 62.25500 38.90600
H  30.63200 62.81200 41.01400
H  33.52500 61.60300 41.39700
H  32.74200 63.23200 41.48600
H  34.09300 62.94500 40.39500
H  29.33900 62.98300 38.59400
H  30.99900 63.49000 38.21600
H  30.28600 65.62800 38.98200
H  30.05400 64.99600 40.60700
H  28.79600 64.98700 39.43400
H  25.73100 61.65000 40.86300
H  24.38000 60.83200 40.48300
H  25.15900 61.53300 39.12100
H  25.32500 56.06200 38.00400
H  23.84600 52.85100 40.38700
H  22.45600 53.45000 39.61100
H  22.90600 54.42000 40.94600

