158

Mg 16.63200 -1.51300 28.01800
C  15.21800 0.41200 30.61600
C  18.56300 -3.10800 30.47500
C  18.31000 -3.12800 25.50400
C  14.78100 0.24400 25.72600
N  16.77200 -1.46000 30.32900
C  16.15200 -0.54300 31.09100
C  16.65400 -0.64000 32.54500
C  17.89600 -1.58100 32.38600
C  17.73300 -2.13100 30.98100
C  19.28800 -0.94400 32.65500
C  15.63700 -1.11100 33.58700
C  15.96600 -0.90900 35.09800
H  17.24400 -0.26200 35.55500
N  18.14800 -2.99800 27.98600
C  18.79600 -3.56800 29.10300
C  19.59200 -4.73400 28.70800
C  19.64400 -4.68200 27.22300
C  18.67200 -3.54600 26.83400
C  20.17700 -5.65600 29.70100
C  20.36600 -5.60800 26.18300
O  20.22100 -5.61100 24.97900
C  21.35400 -6.61700 26.66000
N  16.68000 -1.30000 25.88800
C  17.39300 -2.18300 25.12500
C  17.10000 -1.92800 23.63800
C  15.97600 -0.86700 23.66600
C  15.76600 -0.59300 25.20200
C  18.38700 -1.37300 22.88700
C  14.64300 -1.29800 23.03000
C  13.94500 -0.37000 22.08100
N  15.22300 0.02700 28.11200
C  14.47800 0.50700 27.07700
C  13.52800 1.45800 27.66100
C  13.81700 1.48600 29.02500
C  14.84600 0.57700 29.23700
C  12.47300 2.16300 26.81000
C  13.47200 2.11900 30.29100
O  12.69400 3.02900 30.59200
C  14.44200 1.44900 31.34300
C  15.29400 2.66200 31.81200
O  15.66700 3.56500 31.08300
O  15.43500 2.56500 33.16900
C  15.91700 3.81000 33.81100
H  19.28300 -3.59200 31.13800
H  18.84500 -3.62000 24.68800
H  14.23400 0.91500 25.06000
H  17.10900 0.32000 32.78800
H  17.81600 -2.44300 33.04900
H  19.05200 0.00300 33.14000
H  19.81700 -0.91000 31.70200
H  19.87700 -1.53800 33.35300
H  15.47900 -2.18600 33.50100
H  14.66600 -0.62000 33.51500
H  16.01500 -1.91500 35.51500
H  15.12800 -0.43500 35.60900
H  20.48700 -6.60300 29.26100
H  19.41000 -5.84700 30.45200
H  20.99400 -5.20300 30.26300
H  20.87500 -7.58100 26.83100
H  21.95500 -6.14900 27.44000
H  22.08400 -6.66900 25.85300
H  16.90000 -2.89300 23.17200
H  16.35800 0.08600 23.30000
H  19.08200 -2.20300 22.76300
H  18.78000 -0.48000 23.37400
H  18.08100 -0.89800 21.95400
H  13.88500 -1.59700 23.75300
H  14.87600 -2.28900 22.64000
H  12.97700 -0.14200 22.52800
H  13.76300 -0.92400 21.16000
H  14.53200 0.52800 21.88800
H  12.90400 3.00500 26.26800
H  11.60000 2.49900 27.36900
H  12.09600 1.50500 26.02800
H  14.04400 1.03300 32.26900
H  16.86400 4.12700 33.37400
H  16.17700 3.48700 34.81900
H  15.15100 4.58400 33.84600
Mg 47.46600 26.07000 28.17800
C  48.59000 27.93800 30.89900
C  46.51800 23.63400 30.42100
C  46.74500 24.10100 25.57100
C  48.81700 28.55200 26.08000
N  47.43300 25.92600 30.40000
C  47.88300 26.84300 31.28200
C  47.67400 26.34800 32.74800
C  47.27800 24.90600 32.57500
C  47.11600 24.76800 31.02500
C  48.33500 23.88400 33.11500
C  46.58800 27.15000 33.50800
C  47.03800 27.70400 34.88900
H  46.05500 27.76200 36.08700
N  46.70700 24.15600 28.00800
C  46.35100 23.32700 29.01100
C  45.90900 22.08800 28.46500
C  45.84300 22.30300 27.06800
C  46.43800 23.57200 26.79600
C  45.62000 20.84600 29.31000
C  45.37500 21.38100 25.98000
O  45.57200 21.52300 24.78400
C  44.49100 20.26100 26.34300
N  47.92500 26.18300 26.17200
C  47.39700 25.28400 25.26500
C  47.52500 25.83200 23.83200
C  47.98400 27.33500 24.06100
C  48.21700 27.39200 25.58400
C  48.41200 24.89500 22.96400
C  47.04300 28.55100 23.55600
C  47.57000 29.68800 22.66100
N  48.50200 27.86600 28.39600
C  49.03800 28.70100 27.45600
C  49.77000 29.75600 28.05900
C  49.57300 29.49600 29.43000
C  48.84200 28.31700 29.59700
C  50.54600 30.87100 27.37500
C  49.85600 30.06800 30.73700
O  50.33900 31.17900 31.05200
C  49.18800 29.18400 31.79200
C  50.31500 28.77800 32.73900
O  51.17600 27.98600 32.49400
O  50.15000 29.41700 33.92800
C  51.29400 29.29500 34.87200
H  46.20400 22.93100 31.19500
H  46.32600 23.75700 24.62300
H  49.24400 29.32700 25.44000
H  48.59800 26.34200 33.32700
H  46.39400 24.63600 33.15300
H  47.84500 23.27200 33.87200
H  49.26600 24.37200 33.40500
H  48.57800 23.20600 32.29700
H  45.61900 26.66300 33.61500
H  46.28800 27.95500 32.83700
H  47.45100 28.70900 34.80600
H  47.82400 27.02200 35.21200
H  46.31000 20.09600 28.92600
H  44.59700 20.56200 29.06300
H  45.65600 20.88900 30.39900
H  44.22500 19.64000 25.48700
H  43.61600 20.63900 26.87200
H  45.10000 19.68400 27.04000
H  46.51300 25.94000 23.44000
H  49.00200 27.41600 23.68200
H  48.70700 24.11400 23.66500
H  49.32600 25.41400 22.67600
H  47.90700 24.56700 22.05600
H  46.60700 28.91400 24.48600
H  46.14900 28.18200 23.05300
H  48.57300 29.56300 22.25400
H  47.52500 30.52800 23.35400
H  46.95200 29.78600 21.76800
H  50.55500 31.77200 27.98800
H  50.01900 31.17500 26.47000
H  51.52300 30.46200 27.12000
H  48.30600 29.53000 32.33200
H  51.19900 28.36100 35.42700
H  51.30300 30.07800 35.63000
H  52.25600 29.17500 34.37500

