158

Mg 47.06000 16.65900 28.21200
C  44.96500 16.22200 30.94200
C  49.09500 18.60500 30.32900
C  48.77200 17.66100 25.48500
C  44.61100 15.23000 26.22900
N  46.93200 17.44200 30.37100
C  46.09000 16.95800 31.27300
C  46.46600 17.41500 32.69400
C  47.66200 18.40700 32.43500
C  47.96600 18.18200 30.92800
C  47.64800 19.89300 32.81400
C  46.83800 16.21100 33.63900
C  46.22300 16.21700 34.92700
H  45.73800 17.60100 35.56800
N  48.79300 17.82400 27.99100
C  49.49000 18.51700 28.94600
C  50.58800 19.21000 28.30100
C  50.58200 18.83400 26.90100
C  49.35100 18.06400 26.76600
C  51.64200 19.88600 29.14500
C  51.59300 19.18200 25.82000
O  51.42900 18.89900 24.65600
C  52.90200 19.82700 26.14300
N  46.78200 16.43800 26.19000
C  47.60700 16.88500 25.23100
C  47.04600 16.70200 23.83500
C  45.85800 15.75700 24.12200
C  45.70800 15.76700 25.58400
C  46.52900 18.11100 23.26500
C  46.08100 14.31300 23.65200
C  44.86300 13.42700 23.35100
N  45.18100 15.76000 28.57600
C  44.30400 15.21600 27.63000
C  43.19600 14.59500 28.31300
C  43.43500 14.93000 29.69400
C  44.60900 15.76200 29.67800
C  42.07900 13.87300 27.75200
C  42.84600 14.92100 31.05300
O  41.81800 14.40600 31.45800
C  43.85800 15.81200 31.92800
C  43.06800 16.98600 32.43300
O  42.76800 17.94300 31.77300
O  42.67700 16.81100 33.74400
C  41.89200 17.89200 34.38700
H  49.70400 19.19600 31.01700
H  49.29200 17.92100 24.56000
H  43.79400 14.83500 25.62200
H  45.70900 18.07700 33.11500
H  48.57300 18.06000 32.92200
H  46.79300 20.31200 33.34500
H  47.82700 20.59400 31.99900
H  48.50200 19.95000 33.48900
H  47.90200 16.01600 33.78000
H  46.46800 15.32100 33.13000
H  46.91800 15.77000 35.63800
H  45.41100 15.49100 34.96700
H  52.67100 19.72800 28.82200
H  51.69600 19.60500 30.19700
H  51.47900 20.96400 29.15400
H  52.74100 20.76500 26.67400
H  53.37400 20.11000 25.20200
H  53.46800 19.08400 26.70600
H  47.80900 16.28300 23.17900
H  44.93800 16.10400 23.65100
H  46.33500 18.87400 24.01800
H  45.66500 17.84700 22.65400
H  47.29300 18.57800 22.64300
H  46.70900 13.77000 24.35900
H  46.69000 14.32200 22.74800
H  43.94800 13.74600 23.84800
H  45.15400 12.42400 23.66500
H  44.71400 13.39600 22.27100
H  41.50800 13.56000 28.62600
H  42.28700 13.08800 27.02400
H  41.39800 14.55500 27.24400
H  44.01900 15.20500 32.81900
H  42.24700 18.88500 34.11300
H  42.15200 17.75200 35.43700
H  40.80400 17.83800 34.35500
Mg 7.02500 53.92100 41.38800
C  5.83100 50.77400 40.47600
C  10.18100 53.15600 40.44500
C  7.81100 57.40800 41.44000
C  3.65900 54.80700 42.11500
N  7.82000 52.22400 40.32400
C  7.16100 51.02000 40.12300
C  8.18200 49.91500 39.71700
C  9.54400 50.62600 40.13600
C  9.21500 52.11400 40.24100
C  10.24800 50.04800 41.42500
C  8.02300 49.49200 38.23600
C  7.00900 50.02400 37.18900
H  6.67800 49.17900 36.01600
N  8.78000 55.04800 41.01700
C  9.95300 54.52300 40.63300
C  10.95500 55.49700 40.72600
C  10.34200 56.76100 40.98400
C  8.84800 56.45600 41.15300
C  12.42300 55.25300 40.28300
C  10.98200 58.08200 41.07300
O  12.19600 58.11200 40.80000
C  10.34400 59.36900 41.42100
N  5.88300 55.86500 41.73100
C  6.42200 57.10000 41.60200
C  5.37900 58.19300 41.94000
C  4.11800 57.36100 42.25200
C  4.51700 55.92700 41.96400
C  5.81600 59.31000 43.00300
C  2.82300 57.74400 41.42400
C  1.81300 58.66100 42.15700
N  5.08600 52.98200 41.52400
C  3.87400 53.49900 41.78200
C  2.92400 52.40900 41.77100
C  3.62900 51.33300 41.21800
C  4.94300 51.73500 41.05900
C  1.47900 52.44000 42.25100
C  3.56700 49.82300 40.89300
O  2.69300 48.99600 41.03300
C  5.01700 49.49700 40.57900
C  4.90200 48.54700 39.38000
O  4.28500 48.65600 38.35600
O  5.67800 47.39000 39.66200
C  5.50700 46.20800 38.77000
H  11.25200 52.96700 40.54200
H  8.06000 58.46000 41.59700
H  2.62600 55.01400 42.40500
H  7.99500 49.06000 40.36700
H  10.26300 50.44400 39.33700
H  10.63700 50.91500 41.95900
H  11.05200 49.38900 41.09800
H  9.56200 49.43100 42.00500
H  7.82800 48.42500 38.13000
H  8.90900 49.63700 37.61700
H  7.23800 51.04700 36.89100
H  6.04100 50.25100 37.63500
H  12.68300 55.99100 39.52500
H  12.54400 54.23400 39.91700
H  13.06300 55.43300 41.14700
H  9.84800 59.13300 42.36300
H  9.76100 59.59900 40.52900
H  11.12700 60.10600 41.59700
H  5.16600 58.66800 40.98200
H  3.93800 57.39400 43.32600
H  6.83900 59.15200 43.34400
H  5.10400 59.33000 43.82800
H  5.69300 60.25300 42.46900
H  2.30300 56.86300 41.04800
H  3.08400 58.23400 40.48600
H  0.96700 58.05900 42.48800
H  1.50500 59.53100 41.57800
H  2.24800 59.05900 43.07400
H  1.44700 52.71600 43.30500
H  1.05800 51.45400 42.05900
H  1.04300 53.21900 41.62500
H  5.33700 48.93200 41.45500
H  5.30900 45.26000 39.27100
H  6.31300 45.99200 38.06900
H  4.70000 46.25800 38.03900

