158

Mg 47.32500 45.17000 43.14500
C  43.89400 44.74800 42.65500
C  47.81000 41.90300 42.21700
C  50.54900 45.88400 43.36000
C  46.67400 48.69400 43.54200
N  45.94300 43.60300 42.26400
C  44.59700 43.58800 42.34700
C  44.01100 42.17800 42.10300
C  45.29000 41.26800 42.09700
C  46.42400 42.30700 42.24800
C  45.19500 40.05100 43.07400
C  43.20400 42.06800 40.83100
C  43.71800 42.80500 39.59300
H  43.52100 42.11200 38.24400
N  49.02500 43.95900 42.85900
C  49.04800 42.58900 42.46200
C  50.43900 42.13000 42.57000
C  51.28500 43.30300 42.84400
C  50.34200 44.50800 42.96400
C  50.72900 40.65100 42.29600
C  52.78100 43.29600 42.94800
O  53.38900 42.25400 42.65800
C  53.47100 44.57000 43.28400
N  48.45200 46.99900 43.51200
C  49.76000 46.98000 43.63500
C  50.31000 48.41500 43.94100
C  48.97300 49.28800 44.03700
C  47.95900 48.25800 43.66300
C  51.24700 48.49100 45.23000
C  49.00800 50.58100 43.10800
C  48.27800 51.82600 43.77200
N  45.66900 46.58100 42.95800
C  45.53500 47.87000 43.29900
C  44.15100 48.27900 43.35000
C  43.47600 47.08400 43.11700
C  44.42000 46.06800 42.90300
C  43.62800 49.61600 43.78700
C  42.17000 46.40400 43.03000
O  41.05900 46.79100 43.17000
C  42.34600 44.86000 42.76100
C  41.73200 44.14100 43.89400
O  40.69400 43.56700 43.75900
O  42.51900 44.19800 45.03800
C  41.99500 43.61600 46.20300
H  47.92700 40.83000 42.05200
H  51.55900 46.17800 43.65600
H  46.40900 49.74300 43.69000
H  43.38800 41.93300 42.96400
H  45.42900 40.71300 41.16900
H  44.18300 39.67900 42.91100
H  45.46600 40.33600 44.09000
H  45.82800 39.29400 42.61200
H  42.15300 42.23500 41.06500
H  43.25400 41.01900 40.54100
H  44.74700 43.16000 39.65100
H  43.10000 43.70200 39.63600
H  50.29600 40.21600 43.19700
H  51.79800 40.44300 42.34200
H  50.25800 40.30200 41.37800
H  53.25000 45.26000 42.47000
H  54.53100 44.46900 43.51600
H  52.98500 44.84000 44.22200
H  50.83100 48.70400 43.02800
H  48.70200 49.55700 45.05800
H  52.27700 48.75600 44.99400
H  51.38800 47.59100 45.82800
H  50.91100 49.16100 46.02100
H  48.55800 50.33200 42.14700
H  50.07400 50.73400 42.93800
H  48.94100 52.68900 43.83400
H  47.85200 51.53400 44.73200
H  47.49900 52.04400 43.04000
H  43.19500 49.41300 44.76600
H  42.85500 49.95700 43.09800
H  44.32300 50.45300 43.84600
H  41.89600 44.66200 41.78800
H  42.60500 43.98500 47.02800
H  41.99100 42.52600 46.19300
H  40.96500 43.93300 46.37000
Mg 36.63600 50.50300 25.32100
C  36.41000 48.68600 28.30700
C  35.39900 53.27600 26.96600
C  36.46800 52.07300 22.32800
C  37.16400 47.40600 23.61600
N  35.96200 50.88500 27.43200
C  36.11000 50.02100 28.52200
C  35.80900 50.76000 29.81400
C  35.26300 52.19100 29.33500
C  35.59000 52.13400 27.83400
C  33.83900 52.60900 29.69100
C  37.12900 50.79700 30.64200
C  36.94100 50.55200 32.13800
H  35.51400 50.46200 32.77000
N  36.05300 52.41200 24.68300
C  35.64000 53.42900 25.61400
C  35.50800 54.62900 24.85800
C  35.65500 54.31100 23.40000
C  36.04900 52.86200 23.36700
C  35.22200 55.91200 25.57200
C  35.63900 55.16800 22.07800
O  35.88400 54.77500 20.97000
C  35.29000 56.61100 22.11100
N  36.67800 49.85600 23.31600
C  36.73000 50.72200 22.24700
C  37.19500 50.05900 20.92200
C  37.63700 48.60800 21.46500
C  37.23500 48.60800 22.94300
C  36.23000 49.99400 19.75700
C  39.17100 48.32400 21.29500
C  40.20100 48.82100 22.30600
N  36.81600 48.45900 25.79400
C  36.99600 47.31600 25.00700
C  37.15400 46.22700 25.81300
C  36.91100 46.73500 27.10400
C  36.66400 48.11900 27.06900
C  37.56400 44.79200 25.38400
C  36.87200 46.34200 28.49900
O  37.06500 45.24100 29.01500
C  36.52600 47.67000 29.37100
C  35.27300 47.28900 30.17100
O  34.12500 47.53300 29.83600
O  35.63900 46.38400 31.10600
C  34.57500 45.96200 32.01200
H  35.04600 54.17300 27.47700
H  36.74100 52.50500 21.36300
H  37.34800 46.46900 23.08600
H  34.99800 50.22100 30.30400
H  35.97100 52.91400 29.74000
H  33.37400 52.61500 28.70500
H  33.70700 53.60200 30.12200
H  33.47800 51.84400 30.37800
H  37.56200 51.76600 30.39200
H  37.89900 50.14900 30.22200
H  37.35100 51.44200 32.61600
H  37.54100 49.71400 32.49400
H  35.99300 56.17500 26.29600
H  34.26600 55.83400 26.09000
H  35.17800 56.70300 24.82300
H  35.38100 57.05200 21.11900
H  35.95100 57.12300 22.81100
H  34.31800 56.77800 22.57600
H  38.08800 50.67600 20.81600
H  37.00100 47.86400 20.98600
H  35.21200 50.05600 20.14200
H  36.32400 49.10300 19.13600
H  36.49200 50.86100 19.15000
H  39.42300 48.66600 20.29100
H  39.19100 47.24100 21.17900
H  40.89900 47.98500 22.34000
H  39.75300 48.97300 23.28800
H  40.64200 49.77400 22.01300
H  36.85600 43.97000 25.48100
H  38.44700 44.60700 25.99500
H  37.93300 44.85700 24.36000
H  37.35300 47.82100 30.06600
H  34.91300 45.39000 32.87600
H  33.87300 45.30300 31.50200
H  34.12600 46.86200 32.43400

