158

Mg 24.99600 -6.27200 47.51300
C  26.51900 -3.62400 45.76200
C  22.34500 -6.19800 45.34000
C  24.17900 -9.26300 48.60800
C  28.14400 -6.54400 49.29300
N  24.65300 -5.18400 45.60700
C  25.34100 -4.04600 45.18500
C  24.67300 -3.45600 43.90300
C  23.21400 -4.07300 44.04200
C  23.35000 -5.25500 45.07000
C  22.12200 -2.96200 44.44700
C  25.45900 -3.88700 42.62600
C  25.93700 -2.75400 41.77400
H  25.21000 -2.38300 40.44000
N  23.36200 -7.54300 47.16600
C  22.37300 -7.31000 46.24300
C  21.49700 -8.46600 46.23200
C  22.04500 -9.46600 47.10500
C  23.24400 -8.78400 47.71300
C  20.29800 -8.49200 45.28300
C  21.50400 -10.84400 47.42500
O  20.50900 -11.21200 46.74800
C  21.92600 -11.77200 48.52300
N  26.01300 -7.64600 48.82900
C  25.39300 -8.78900 49.12100
C  26.29300 -9.78600 49.88500
C  27.64200 -8.96100 49.95500
C  27.30500 -7.65200 49.35400
C  25.86600 -10.37100 51.28400
C  28.82800 -9.60000 49.26200
C  29.84400 -10.29200 50.17300
N  26.91300 -5.22200 47.67800
C  28.03500 -5.40100 48.47300
C  29.00000 -4.27200 48.32500
C  28.39700 -3.50600 47.29100
C  27.25800 -4.23400 46.85700
C  30.18800 -4.03300 49.25100
C  28.52100 -2.32500 46.40900
O  29.37900 -1.47900 46.40700
C  27.38600 -2.42400 45.34800
C  26.68500 -1.02500 45.50200
O  27.21500 0.02400 45.13600
O  25.49400 -1.19900 46.25200
C  24.79100 0.00500 46.68700
H  21.48200 -5.95600 44.71600
H  23.96300 -10.25000 49.02200
H  29.05200 -6.65900 49.88800
H  24.55200 -2.38300 44.05600
H  22.89400 -4.40000 43.05300
H  21.68500 -3.15100 45.42800
H  21.39000 -3.02400 43.64200
H  22.56100 -1.96700 44.37000
H  24.80400 -4.51000 42.01700
H  26.33600 -4.48700 42.86800
H  27.00700 -2.89900 41.62600
H  25.93400 -1.79900 42.30000
H  20.20500 -9.40600 44.69600
H  20.28900 -7.74200 44.49200
H  19.48200 -8.42300 46.00300
H  22.85400 -12.23200 48.18500
H  21.22900 -12.60600 48.61500
H  21.98600 -11.23900 49.47200
H  26.23000 -10.70300 49.29800
H  28.01800 -8.81800 50.96800
H  26.61600 -10.19700 52.05600
H  25.48500 -11.38600 51.17400
H  25.12400 -9.65300 51.63500
H  29.39000 -8.79400 48.79000
H  28.51400 -10.28900 48.47800
H  30.12600 -11.30600 49.89100
H  29.29300 -10.47200 51.09600
H  30.66400 -9.58100 50.27100
H  30.18500 -2.95200 49.38800
H  31.03500 -4.33900 48.63600
H  30.12300 -4.58700 50.18800
H  27.87200 -2.60500 44.39000
H  23.98400 -0.38000 47.31000
H  24.39200 0.46500 45.78200
H  25.42200 0.67400 47.27300
Mg 48.44400 34.58400 27.27800
C  46.19200 33.48800 29.79800
C  49.29100 37.28400 29.22500
C  49.76300 36.03400 24.57600
C  46.93000 32.12200 25.13600
N  47.79200 35.26300 29.30400
C  46.92500 34.67100 30.14500
C  46.97500 35.41000 31.49600
C  47.62900 36.79900 31.11100
C  48.35000 36.45300 29.86600
C  46.61400 37.95400 30.87300
C  47.83700 34.54000 32.52000
C  47.28700 34.37800 33.92600
H  48.22500 34.87900 35.04300
N  49.46100 36.31300 26.97900
C  49.74600 37.28400 27.86800
C  50.55900 38.22700 27.20900
C  50.75300 37.92500 25.85900
C  49.94700 36.71900 25.74500
C  51.07500 39.46600 27.91000
C  51.45400 38.65700 24.77400
O  51.54400 38.14500 23.66200
C  52.17800 40.01800 25.09900
N  48.30000 34.14300 25.24700
C  49.05600 34.87800 24.32900
C  48.76000 34.37700 22.87400
C  48.16300 33.00900 23.18600
C  47.76400 33.08000 24.60300
C  47.84200 35.38400 22.13800
C  49.06900 31.76500 22.86200
C  50.15700 31.35100 23.83500
N  47.08200 32.96000 27.46500
C  46.62200 32.02000 26.50400
C  45.74600 31.00400 27.15900
C  45.50600 31.62100 28.42400
C  46.35500 32.75900 28.51400
C  45.20400 29.75100 26.52100
C  44.70800 31.48200 29.54700
O  43.89300 30.59100 29.80000
C  45.12100 32.67300 30.52400
C  45.55300 32.01600 31.80900
O  46.50200 31.26600 32.06600
O  44.55100 32.21200 32.74600
C  44.75000 31.77400 34.17900
H  49.48500 38.18600 29.80900
H  50.17400 36.40200 23.63400
H  46.66100 31.27100 24.50700
H  45.99900 35.55600 31.95800
H  48.37500 37.21800 31.78700
H  46.76100 38.80600 31.53600
H  45.57300 37.65900 31.00100
H  46.59400 38.31700 29.84500
H  48.87600 34.86600 32.55800
H  48.04200 33.59100 32.02400
H  47.18100 33.33700 34.23300
H  46.28800 34.81200 33.98600
H  50.34500 40.21500 27.59900
H  52.10000 39.60900 27.56800
H  51.12700 39.27900 28.98200
H  51.41300 40.61900 25.58900
H  52.60000 40.45500 24.19400
H  53.01100 39.77400 25.75800
H  49.65300 34.21000 22.27100
H  47.29700 32.90200 22.53300
H  47.74900 36.36400 22.60600
H  46.87900 34.91000 21.95000
H  48.27700 35.51700 21.14700
H  49.50700 32.10600 21.92500
H  48.44800 30.90000 22.62600
H  49.78200 30.42700 24.27600
H  50.40200 32.00900 24.66800
H  51.14200 31.20100 23.39300
H  45.87600 28.94500 26.81600
H  45.19800 29.85900 25.43600
H  44.20200 29.68500 26.94600
H  44.30500 33.36600 30.72700
H  45.35900 30.87000 34.20600
H  43.70100 31.58800 34.40700
H  45.13500 32.60900 34.76400

