158

Mg 1.81300 -2.68800 44.68700
C  4.90600 -1.21900 43.79800
C  0.23800 -0.16500 42.97700
C  -0.98800 -4.48900 45.05800
C  3.77000 -5.56200 45.79100
N  2.58500 -0.98800 43.50200
C  3.82300 -0.48400 43.33900
C  3.87500 0.84600 42.50600
C  2.40800 1.29600 42.69900
C  1.64800 -0.03700 43.00800
C  2.19300 2.39800 43.81900
C  4.42400 0.78600 41.05000
C  5.77400 1.59600 40.83000
H  6.91400 0.76100 40.33200
N  -0.04800 -2.39300 44.03000
C  -0.51900 -1.30600 43.40300
C  -1.89200 -1.40300 43.13600
C  -2.32600 -2.62200 43.74800
C  -1.10300 -3.21800 44.33800
C  -2.70300 -0.55400 42.27300
C  -3.70900 -3.18600 43.75900
O  -4.60900 -2.53000 43.28900
C  -4.06100 -4.55800 44.35100
N  1.44900 -4.80700 45.24900
C  0.10400 -5.20000 45.43100
C  0.07300 -6.61300 45.99200
C  1.57600 -6.90400 46.33800
C  2.36200 -5.73700 45.76500
C  -0.83400 -6.85400 47.30100
C  2.06400 -8.22200 45.65400
C  3.13200 -9.06700 46.40400
N  3.82800 -3.29200 44.93800
C  4.48500 -4.44600 45.42300
C  5.84900 -4.19800 45.51600
C  6.07600 -2.94800 44.83400
C  4.82800 -2.45800 44.52800
C  6.81000 -5.10400 46.21200
C  7.10900 -2.00500 44.37700
O  8.33500 -1.96900 44.46900
C  6.35700 -0.75700 43.76100
C  6.64100 0.51900 44.60400
O  6.14800 0.88400 45.62900
O  7.50300 1.21600 43.90500
C  8.08100 2.44600 44.49300
H  -0.19300 0.66400 42.41300
H  -1.85700 -5.14500 45.14600
H  4.33900 -6.36600 46.26100
H  4.40900 1.50300 43.19300
H  2.07600 1.64700 41.72200
H  2.44700 3.36500 43.38300
H  2.85900 2.23400 44.66500
H  1.21100 2.39700 44.29200
H  3.80000 1.24300 40.28100
H  4.49500 -0.26700 40.77900
H  6.09200 2.01000 41.78600
H  5.68900 2.41800 40.11900
H  -2.09600 0.15800 41.71600
H  -3.40100 0.03200 42.87200
H  -3.29600 -1.15300 41.58200
H  -3.49800 -5.24300 43.71700
H  -5.13800 -4.57600 44.18200
H  -3.85900 -4.63200 45.42000
H  -0.28700 -7.25700 45.19000
H  1.68200 -6.97900 47.42000
H  -0.92400 -7.90700 47.56800
H  -1.82400 -6.40900 47.20500
H  -0.41400 -6.30900 48.14700
H  2.45300 -7.98400 44.66400
H  1.19800 -8.87800 45.56400
H  3.69300 -9.55000 45.60300
H  2.76900 -9.88500 47.02600
H  3.72500 -8.51700 47.13500
H  7.08100 -5.85000 45.46500
H  6.41900 -5.59900 47.10000
H  7.66400 -4.44300 46.35700
H  6.70700 -0.75600 42.72800
H  8.07200 3.20600 43.71200
H  9.12100 2.20700 44.71800
H  7.63400 2.76600 45.43500
Mg 48.41200 35.25200 27.71600
C  46.14500 33.67700 29.90600
C  48.49700 38.03100 29.99100
C  50.16300 37.10200 25.43000
C  47.48500 33.02200 25.23900
N  47.45500 35.71500 29.71000
C  46.70900 34.90900 30.45300
C  46.70400 35.28700 31.88300
C  46.84300 36.89000 31.63600
C  47.69000 36.92500 30.39800
C  45.44400 37.65700 31.52800
C  47.75700 34.62600 32.81300
C  47.63100 34.78900 34.32600
H  46.80400 35.98400 34.84300
N  49.41900 37.15800 27.82400
C  49.33200 38.12300 28.81500
C  50.25800 39.17500 28.48500
C  50.81300 38.91500 27.17000
C  50.16300 37.65900 26.72200
C  50.41100 40.37000 29.35200
C  51.74900 39.75100 26.32900
O  52.19100 39.33300 25.24800
C  52.31100 41.05500 26.79600
N  48.79800 35.09500 25.58400
C  49.59500 35.90600 24.91100
C  49.77300 35.41100 23.47500
C  49.03500 34.07000 23.47100
C  48.38300 34.07300 24.87600
C  49.34300 36.44400 22.47700
C  49.89300 32.86800 23.13100
C  49.97900 32.41700 21.60700
N  47.06600 33.68800 27.52900
C  46.80500 32.85700 26.49500
C  45.86600 31.80000 26.87200
C  45.54100 32.12700 28.20300
C  46.28700 33.34300 28.54700
C  45.40700 30.69200 26.04900
C  44.77900 31.71700 29.42800
O  44.06600 30.74800 29.59600
C  45.00400 32.85200 30.46300
C  45.11100 32.35900 31.80700
O  45.92400 31.55700 32.19300
O  44.26000 32.93100 32.68900
C  44.16300 32.46600 34.06600
H  48.43400 38.86800 30.69000
H  50.74300 37.65100 24.68500
H  47.33500 32.21000 24.52400
H  45.71700 35.08000 32.29600
H  47.47600 37.28900 32.42900
H  44.58700 37.04100 31.80000
H  45.40600 37.95500 30.48000
H  45.37700 38.49400 32.22200
H  48.72700 35.07900 32.60900
H  47.83000 33.61500 32.41100
H  48.63400 34.90900 34.73400
H  47.20400 33.85400 34.69100
H  51.38400 40.31300 29.84000
H  49.68800 40.34400 30.16700
H  50.45500 41.35100 28.87900
H  53.02400 41.39200 26.04400
H  52.78200 41.02500 27.77800
H  51.61300 41.89200 26.83000
H  50.86200 35.36700 23.44700
H  48.15300 34.11800 22.83300
H  48.35700 36.84900 22.70800
H  49.29400 36.13100 21.43400
H  49.94900 37.34500 22.56000
H  49.75500 31.94200 23.69000
H  50.95400 33.07600 23.26900
H  49.35800 33.14000 21.07900
H  49.71200 31.38500 21.37700
H  50.90900 32.38200 21.03800
H  44.60600 31.17900 25.49200
H  45.10900 29.89000 26.72300
H  46.22600 30.41100 25.38600
H  44.09200 33.44800 30.50000
H  44.85600 31.67100 34.34200
H  43.11500 32.17200 34.10600
H  44.25400 33.27700 34.78900

