158

Mg 8.59300 2.93400 26.90700
C  9.71800 1.04200 29.67800
C  6.72600 4.75200 28.99000
C  7.57700 4.52100 24.08400
C  10.36900 0.67900 24.81200
N  8.25200 2.88000 29.13900
C  8.93900 2.14800 30.07300
C  8.87100 2.88100 31.45800
C  7.67000 3.93500 31.27400
C  7.39100 3.76800 29.70800
C  6.28200 3.80300 32.06500
C  10.28400 3.44500 31.86600
C  10.76700 2.92100 33.19500
H  11.04600 3.98100 34.21600
N  7.28600 4.33100 26.54200
C  6.62800 5.02300 27.57700
C  5.84000 6.06700 26.95200
C  6.13400 6.14600 25.60300
C  7.03200 4.99800 25.32300
C  4.90700 6.93300 27.72000
C  5.72800 7.14100 24.52900
O  6.25100 7.17600 23.45000
C  4.73700 8.20500 24.77800
N  8.85600 2.60900 24.68300
C  8.33600 3.40800 23.77000
C  8.68800 2.93700 22.38000
C  9.63500 1.72600 22.63100
C  9.70300 1.69000 24.12200
C  7.53000 2.61400 21.47800
C  10.94900 1.79000 21.84500
C  11.32900 0.45300 21.29200
N  9.74200 1.12500 27.13400
C  10.42800 0.37000 26.19500
C  11.03500 -0.76800 26.85500
C  10.85700 -0.48200 28.23600
C  10.00000 0.63200 28.36000
C  11.74400 -1.92200 26.16600
C  11.26100 -0.91900 29.58100
O  11.98700 -1.85800 29.96600
C  10.53600 0.09000 30.56700
C  9.76200 -0.65200 31.59400
O  8.86100 -1.44500 31.31900
O  10.36300 -0.46800 32.84200
C  9.58900 -0.98100 33.99000
H  6.23500 5.41900 29.70200
H  7.42600 5.18600 23.23100
H  10.90800 -0.16100 24.36700
H  8.65000 2.08400 32.16800
H  8.00600 4.95800 31.44300
H  5.85300 4.78700 32.25700
H  6.48200 3.23200 32.97200
H  5.58700 3.26300 31.42200
H  10.11100 4.52000 31.91400
H  11.03000 3.20100 31.10900
H  11.74400 2.44700 33.10200
H  10.07100 2.20100 33.62500
H  5.46600 7.73900 28.19500
H  4.46700 6.42600 28.57900
H  3.98000 7.24700 27.24000
H  3.76600 7.72100 24.88400
H  4.57300 8.81600 23.89000
H  5.05000 8.75800 25.66300
H  9.31600 3.74100 21.99500
H  9.12600 0.80700 22.33900
H  7.64300 1.68800 20.91400
H  7.42600 3.44800 20.78300
H  6.58700 2.61500 22.02500
H  11.63900 2.16600 22.60100
H  10.87400 2.49400 21.01700
H  11.95500 -0.11800 21.97700
H  11.94700 0.62200 20.41000
H  10.39000 -0.07700 21.13200
H  12.50300 -1.55200 25.47700
H  10.97600 -2.58000 25.76000
H  12.39100 -2.49900 26.82800
H  11.34300 0.66100 31.02700
H  9.56400 -0.18700 34.73600
H  10.04600 -1.89600 34.36800
H  8.56500 -1.25300 33.73800
Mg 17.25900 52.61900 25.68300
C  18.58600 51.08000 28.59000
C  14.72400 53.89300 27.68900
C  15.73600 53.64800 22.87900
C  19.68300 50.97800 23.76400
N  16.70800 52.44200 27.93900
C  17.42300 51.81600 28.92600
C  16.75800 51.95100 30.26400
C  15.44500 52.70400 29.90900
C  15.60400 53.01000 28.38800
C  14.05500 51.99900 30.37200
C  17.61100 52.53800 31.37500
C  17.69800 51.88800 32.80100
H  16.45900 51.00100 33.09900
N  15.52800 53.54000 25.36300
C  14.56100 53.92800 26.33400
C  13.43700 54.65200 25.64900
C  13.71500 54.56600 24.26300
C  15.01200 53.82600 24.09700
C  12.29700 55.30900 26.44200
C  13.00900 55.20900 23.16800
O  13.41100 55.11600 22.01100
C  11.82700 56.07900 23.49500
N  17.56900 52.16500 23.59300
C  16.91600 52.88200 22.70700
C  17.56800 52.87400 21.27500
C  18.80300 51.96700 21.60600
C  18.68600 51.65400 23.06900
C  16.72000 52.25500 20.13300
C  20.18100 52.66600 21.18500
C  21.43800 51.82100 20.95000
N  18.89500 51.36200 26.08000
C  19.78700 50.79500 25.18700
C  20.79200 49.95400 25.95200
C  20.33600 50.02300 27.28300
C  19.19400 50.90200 27.27900
C  21.93600 49.20500 25.30900
C  20.58200 49.56900 28.66500
O  21.43800 48.80200 29.08100
C  19.47500 50.29800 29.58100
C  18.83900 49.17300 30.37500
O  17.88100 48.47500 30.04500
O  19.54700 49.01700 31.56300
C  19.13800 47.88700 32.37200
H  13.98500 54.42700 28.28900
H  15.23500 53.93800 21.95300
H  20.54300 50.58400 23.21900
H  16.48100 50.91000 30.43400
H  15.30700 53.69000 30.35300
H  14.32200 51.02300 30.77600
H  13.42100 51.85900 29.49700
H  13.54600 52.54700 31.16500
H  17.08800 53.47700 31.55300
H  18.63400 52.77700 31.08500
H  17.82000 52.61200 33.60600
H  18.55700 51.22300 32.88800
H  11.28600 55.04800 26.12800
H  12.29700 56.39600 26.36300
H  12.44900 55.21600 27.51700
H  11.04500 55.46400 23.94100
H  11.41100 56.48800 22.57400
H  12.09700 56.92000 24.13200
H  17.71700 53.91700 20.99500
H  18.83800 50.94400 21.22900
H  16.02500 51.46300 20.41400
H  17.32800 51.78300 19.36100
H  16.00300 52.99200 19.77100
H  20.58600 53.22000 22.03200
H  19.94300 53.35800 20.37700
H  21.74100 51.98700 19.91600
H  21.31400 50.73900 20.99500
H  22.22300 52.10800 21.64900
H  22.16700 48.24900 25.78000
H  22.85800 49.69700 25.62100
H  21.93800 49.16800 24.22000
H  19.96700 51.01900 30.23300
H  18.10800 47.87500 32.72900
H  19.93500 47.89800 33.11500
H  19.37900 47.09100 31.66700

