158

Mg 24.48000 -4.85900 46.10100
C  26.77400 -2.82400 44.31100
C  22.03100 -3.75000 43.84500
C  22.51300 -7.55400 46.93100
C  27.21500 -6.32800 47.68800
N  24.36000 -3.33000 44.50700
C  25.44300 -2.64600 43.94000
C  24.93600 -1.74400 42.80800
C  23.38400 -1.69900 43.16700
C  23.23900 -3.01900 43.85400
C  23.02700 -0.50600 44.04600
C  25.37300 -2.24900 41.43800
C  26.31900 -1.30100 40.69500
H  26.03500 -0.82000 39.19900
N  22.53700 -5.51300 45.51400
C  21.66800 -4.87300 44.59100
C  20.43900 -5.65400 44.47400
C  20.55700 -6.73800 45.48000
C  21.93300 -6.65000 46.07800
C  19.27600 -5.18400 43.63600
C  19.47200 -7.83100 45.72900
O  18.33900 -7.81500 45.12900
C  19.71400 -9.17000 46.58900
N  24.87500 -6.81500 46.93300
C  23.86300 -7.68800 47.30700
C  24.38600 -8.87800 48.18200
C  25.87400 -8.36500 48.43800
C  26.04600 -7.10300 47.56800
C  23.53800 -9.24400 49.41200
C  26.98800 -9.39200 47.82000
C  27.38100 -10.61300 48.70600
N  26.61500 -4.51000 46.21700
C  27.57900 -5.16200 46.94100
C  28.88400 -4.57300 46.64700
C  28.64500 -3.64100 45.62800
C  27.24000 -3.67200 45.35800
C  30.14800 -5.19500 47.24800
C  29.21500 -2.67000 44.72800
O  30.31900 -2.22100 44.56000
C  27.99900 -2.06500 43.87500
C  27.87300 -0.65800 44.17300
O  27.71600 -0.18200 45.30400
O  27.99900 0.08100 43.07800
C  27.67500 1.55400 43.23800
H  21.26200 -3.34400 43.18400
H  21.80100 -8.25800 47.36600
H  27.98900 -6.77600 48.31600
H  25.31100 -0.76600 43.10700
H  22.65700 -1.64700 42.35700
H  22.30600 -0.69800 44.84100
H  22.72600 0.34200 43.43000
H  23.96300 -0.27500 44.55400
H  24.40200 -2.25000 40.94200
H  25.78600 -3.24300 41.60800
H  27.34500 -1.67000 40.67700
H  26.43900 -0.35600 41.22500
H  18.37700 -5.65800 44.02800
H  19.39300 -5.36700 42.56800
H  19.11500 -4.10600 43.67400
H  20.66500 -9.64000 46.33900
H  18.83500 -9.74400 46.29300
H  19.59600 -8.93400 47.64600
H  24.28200 -9.66200 47.43200
H  26.15000 -8.13200 49.46700
H  23.18900 -10.27200 49.31300
H  22.65400 -8.60600 49.43000
H  24.00000 -9.16600 50.39600
H  27.87200 -8.88900 47.42900
H  26.54500 -9.79000 46.90700
H  26.62600 -11.35000 48.43300
H  27.53600 -10.37700 49.75900
H  28.31900 -11.04700 48.36000
H  31.00100 -4.65500 46.83700
H  30.12300 -6.26000 47.01400
H  30.21400 -5.10800 48.33200
H  28.29600 -2.19600 42.83500
H  27.57300 2.04300 42.26900
H  28.44000 2.08500 43.80300
H  26.76500 1.68300 43.82400
Mg -11.57600 16.85200 41.59400
C  -8.42100 15.35000 41.09600
C  -10.11500 19.80900 40.41000
C  -14.63900 18.05600 41.38700
C  -12.82100 13.64000 42.38200
N  -9.51700 17.47900 40.68000
C  -8.43800 16.70000 40.72600
C  -7.20800 17.43300 40.28300
C  -7.74100 18.91100 40.26600
C  -9.22300 18.73500 40.44400
C  -7.04400 19.88600 41.32400
C  -6.65800 17.01200 38.87100
C  -5.15300 16.96200 38.73100
H  -4.63800 17.19700 37.27900
N  -12.33200 18.68800 40.93000
C  -11.57800 19.78500 40.58000
C  -12.49200 20.87300 40.25600
C  -13.85600 20.44300 40.53000
C  -13.68900 19.03000 41.00500
C  -12.06600 22.25100 39.75700
C  -15.11400 21.23500 40.27800
O  -15.08800 22.38500 39.79900
C  -16.47500 20.66100 40.61000
N  -13.47100 15.96000 41.86100
C  -14.57700 16.67700 41.70600
C  -15.86300 15.87600 41.98000
C  -15.28300 14.48500 42.37200
C  -13.74200 14.66500 42.26700
C  -16.81900 16.50300 42.98700
C  -15.80200 13.28100 41.48900
C  -16.98600 12.54100 42.03900
N  -10.78500 14.86100 41.80100
C  -11.40300 13.69400 42.24300
C  -10.35400 12.66500 42.23900
C  -9.17700 13.24200 41.82000
C  -9.48700 14.55600 41.56300
C  -10.66700 11.24400 42.45900
C  -7.75800 12.98400 41.46700
O  -7.07800 11.99600 41.51800
C  -7.16200 14.45900 41.03500
C  -6.16200 14.86000 42.04700
O  -6.37200 15.14600 43.21200
O  -4.86800 14.83600 41.44400
C  -3.69000 15.03500 42.30600
H  -9.67500 20.80100 40.28700
H  -15.65100 18.46400 41.34400
H  -13.29000 12.66700 42.54300
H  -6.51800 17.28400 41.11300
H  -7.58500 19.43400 39.32200
H  -6.17800 19.41700 41.79100
H  -7.76800 19.90800 42.13900
H  -6.84800 20.90000 40.97500
H  -7.03100 17.61900 38.04600
H  -6.99300 15.98900 38.70100
H  -4.68300 16.01900 39.00800
H  -4.86200 17.80900 39.35200
H  -12.33800 22.56400 38.74900
H  -10.99100 22.41200 39.83000
H  -12.40200 23.01400 40.46000
H  -16.64700 19.84700 39.90600
H  -17.23600 21.43000 40.47400
H  -16.43100 20.25300 41.61900
H  -16.23700 16.01700 40.96600
H  -15.52700 14.34800 43.42500
H  -16.98800 15.92200 43.89400
H  -17.81400 16.66800 42.57400
H  -16.40700 17.46600 43.28700
H  -14.96600 12.61500 41.27700
H  -16.11600 13.66400 40.51800
H  -17.25100 13.01800 42.98300
H  -16.68900 11.52600 42.30300
H  -17.80400 12.48500 41.32000
H  -11.40700 11.25300 43.25900
H  -9.80400 10.62600 42.70500
H  -11.17000 10.79100 41.60400
H  -6.64000 14.43800 40.07900
H  -3.88200 15.05500 43.37900
H  -3.31600 16.04300 42.13200
H  -2.92100 14.32000 42.01300

