158

Mg 34.85500 2.95100 29.35600
C  32.79000 4.14900 31.94900
C  37.26800 2.43600 31.67900
C  36.83500 2.27600 26.72100
C  32.22300 3.52300 27.12600
N  34.97900 3.30400 31.53400
C  34.05800 3.74200 32.39800
C  34.51700 3.59400 33.84300
C  36.03400 3.34000 33.70100
C  36.12300 3.07000 32.18800
C  36.92000 4.46900 34.28400
C  33.77900 2.49300 34.62600
C  33.61300 2.79500 36.16300
H  34.31700 4.08700 36.70600
N  36.83400 2.33500 29.21300
C  37.71500 2.23600 30.26900
C  38.99700 1.83100 29.70500
C  38.88100 1.77000 28.28300
C  37.47700 2.16600 28.00200
C  40.23700 1.56800 30.51500
C  39.87800 1.31400 27.23800
O  39.61100 1.16900 26.10400
C  41.39300 1.06300 27.62300
N  34.64800 2.84300 27.27800
C  35.52700 2.36700 26.42300
C  34.98700 2.29900 24.99600
C  33.49500 2.64000 25.13300
C  33.45100 3.04700 26.62100
C  35.79400 3.11500 23.89200
C  32.40700 1.41400 24.83300
C  31.06700 1.92500 24.31800
N  32.87700 3.74100 29.46100
C  31.96900 3.81000 28.44400
C  30.73500 4.32800 28.99100
C  31.03700 4.54500 30.37000
C  32.31000 4.09400 30.59400
C  29.46600 4.51000 28.22100
C  30.43900 4.78500 31.63700
O  29.24800 4.99900 31.90100
C  31.58600 4.67300 32.78100
C  31.87400 5.96000 33.47800
O  32.51400 6.82200 32.96500
O  31.22400 6.01700 34.70500
C  31.46900 7.14800 35.62900
H  38.15600 2.34600 32.30800
H  37.38500 1.94300 25.83900
H  31.38700 3.63500 26.43300
H  34.41100 4.58100 34.29400
H  36.29500 2.47600 34.31300
H  37.25400 4.10700 35.25600
H  36.41200 5.42000 34.44400
H  37.72900 4.62200 33.57000
H  34.23900 1.50800 34.53500
H  32.81800 2.28900 34.15500
H  33.97200 1.97300 36.78200
H  32.54200 2.88300 36.34400
H  40.78100 0.62400 30.52700
H  40.00100 1.75800 31.56200
H  40.88900 2.40800 30.27600
H  41.76200 1.90200 28.21200
H  41.91800 1.06600 26.66800
H  41.54000 0.07900 28.06700
H  34.89700 1.27700 24.62900
H  33.15300 3.52400 24.59600
H  35.07600 3.73300 23.35400
H  36.42800 2.51500 23.23900
H  36.46700 3.80000 24.40900
H  32.30300 0.88100 25.77800
H  32.76900 0.67200 24.12100
H  30.20000 1.36800 24.67500
H  31.04100 1.93900 23.22800
H  30.93200 2.98800 24.51700
H  29.48300 3.79900 27.39400
H  29.42800 5.50300 27.77300
H  28.66500 4.44000 28.95700
H  31.30600 3.95400 33.55000
H  32.31400 7.77200 35.33800
H  31.57500 6.63100 36.58300
H  30.54300 7.71500 35.72500
Mg 16.78800 52.38700 26.67700
C  19.14400 50.59700 28.48400
C  14.90000 52.76900 29.44000
C  14.68200 53.99800 24.73800
C  18.60800 51.32000 23.69000
N  17.05000 51.89700 28.69800
C  18.08700 51.17000 29.27600
C  18.04600 51.20200 30.81000
C  16.55100 51.56300 31.01200
C  16.14400 52.10700 29.60300
C  15.60800 50.41400 31.31400
C  19.11200 52.21400 31.46700
C  19.20700 52.39200 32.96800
H  18.11500 51.77900 33.87600
N  15.02600 53.21500 27.00200
C  14.37400 53.30000 28.26800
C  13.13500 54.06900 28.17300
C  13.08000 54.52800 26.81600
C  14.29600 53.95800 26.09500
C  12.13900 54.24200 29.25100
C  12.11700 55.47700 26.13700
O  12.02800 55.57400 24.91700
C  11.19000 56.29800 26.98200
N  16.67200 52.63700 24.58600
C  15.74300 53.44100 24.00100
C  15.81400 53.55700 22.42200
C  17.10700 52.71400 22.22700
C  17.51200 52.21500 23.60300
C  14.69200 52.99100 21.55300
C  18.26400 53.45200 21.51000
C  19.17300 54.27400 22.48700
N  18.54000 51.21400 26.13800
C  19.15600 50.90300 24.92700
C  20.37100 50.07200 25.24000
C  20.38700 49.96400 26.65200
C  19.24600 50.67000 27.10500
C  21.39400 49.59500 24.18100
C  21.05100 49.36300 27.80000
O  21.99200 48.59700 27.83700
C  20.40300 49.96200 29.01000
C  20.19700 48.81000 29.96900
O  19.40900 47.88600 29.85500
O  20.76800 49.13700 31.19200
C  20.40700 48.37400 32.36400
H  14.30600 52.99000 30.32900
H  14.04000 54.60400 24.09500
H  19.23400 51.00300 22.85300
H  18.12700 50.21700 31.27000
H  16.39500 52.36300 31.73600
H  14.90200 50.89000 31.99500
H  16.12900 49.60100 31.82000
H  15.08300 50.09600 30.41300
H  18.90900 53.22700 31.12100
H  20.13200 51.95700 31.17700
H  19.26500 53.47700 33.05900
H  20.19500 52.02000 33.24000
H  11.47800 55.10800 29.25700
H  12.68100 54.30600 30.19500
H  11.45000 53.39800 29.29500
H  11.71900 56.71900 27.83700
H  10.34600 55.72400 27.36300
H  10.86300 57.15900 26.39900
H  16.02300 54.56500 22.06500
H  16.92300 51.74700 21.76000
H  13.96600 52.37500 22.08300
H  15.11300 52.38200 20.75300
H  14.12500 53.77200 21.04500
H  17.89800 54.12100 20.73100
H  18.74100 52.70100 20.88100
H  19.46000 55.26600 22.13600
H  20.05800 53.64300 22.56700
H  18.75400 54.43000 23.48100
H  22.21800 49.10800 24.70200
H  21.74800 50.37900 23.51300
H  20.86600 48.94200 23.48600
H  21.11300 50.72600 29.32600
H  21.35700 48.34000 32.89800
H  20.03700 47.37800 32.12300
H  19.72700 48.98700 32.95600

