158

Mg 9.41900 47.85500 26.41600
C  7.62200 48.00200 29.39300
C  12.16800 49.00400 28.09000
C  11.22300 47.68200 23.59400
C  6.45800 47.33900 24.74800
N  9.79600 48.36300 28.52000
C  8.88500 48.45900 29.54200
C  9.54600 49.00400 30.83300
C  10.86000 49.62400 30.24600
C  10.96700 48.92800 28.88600
C  10.81800 51.15700 30.14100
C  9.87000 47.74100 31.74400
C  9.48300 47.86200 33.18600
H  9.29300 46.54300 34.01000
N  11.43900 48.16700 25.92700
C  12.38000 48.56600 26.77800
C  13.64400 48.57800 26.14900
C  13.40500 48.25900 24.82400
C  12.01300 48.02100 24.69100
C  14.93600 48.94100 26.88800
C  14.35500 48.05600 23.69000
O  13.97800 47.86900 22.52900
C  15.87400 48.30500 23.86200
N  8.95100 47.80100 24.43000
C  9.83100 47.58100 23.40100
C  9.23500 47.32300 22.04800
C  7.71800 47.18700 22.41700
C  7.67600 47.35200 24.01000
C  9.62900 48.48100 21.04700
C  7.06100 45.95400 21.88000
C  5.72100 46.22000 21.27300
N  7.43300 47.75500 26.91300
C  6.34600 47.63300 26.10500
C  5.13400 47.56700 26.90900
C  5.59800 47.77900 28.22500
C  7.00100 47.78500 28.16800
C  3.74600 47.27800 26.44200
C  5.22300 47.87000 29.68400
O  4.08700 47.84900 30.17100
C  6.52100 47.89100 30.52100
C  6.60900 46.57500 31.24900
O  7.06100 45.57400 30.86500
O  6.01500 46.76300 32.52600
C  5.64600 45.56100 33.33800
H  12.95000 49.44500 28.71200
H  11.66700 47.45300 22.62300
H  5.56500 47.11900 24.15800
H  8.81100 49.66200 31.29700
H  11.73700 49.39000 30.84900
H  10.77200 51.48600 29.10300
H  11.67000 51.62000 30.63800
H  10.01100 51.53400 30.76900
H  10.95900 47.70800 31.71200
H  9.49800 46.83400 31.26700
H  8.61700 48.48700 33.40300
H  10.26600 48.48100 33.62400
H  14.85300 48.92000 27.97500
H  15.21700 49.92900 26.52300
H  15.85500 48.37200 26.74400
H  16.01400 49.30500 24.27300
H  16.31100 48.20200 22.86900
H  16.31200 47.54300 24.50600
H  9.56900 46.40000 21.57200
H  7.17500 48.03600 22.00100
H  8.88400 49.23600 20.79500
H  10.08500 48.05600 20.15300
H  10.53200 48.94100 21.44600
H  6.75400 45.24800 22.65200
H  7.70700 45.54900 21.10100
H  5.75600 46.46000 20.21000
H  5.33000 47.11200 21.76200
H  5.00300 45.42700 21.48300
H  3.07900 48.11600 26.64300
H  3.45600 46.46200 27.10400
H  3.69600 47.15000 25.36100
H  6.39900 48.78500 31.13200
H  4.57600 45.63400 33.53300
H  6.28300 45.39400 34.20600
H  5.65200 44.62700 32.77600
Mg -12.82200 39.36800 42.78100
C  -11.11100 36.36600 41.76100
C  -10.42500 41.10900 41.04000
C  -14.61900 41.99500 43.26100
C  -15.46200 37.22200 43.82600
N  -10.92300 38.71300 41.54700
C  -10.45600 37.43700 41.31700
C  -9.19500 37.52200 40.34000
C  -8.87300 39.06500 40.30600
C  -10.09300 39.70700 40.97900
C  -7.55800 39.51800 40.95400
C  -9.34200 36.87400 38.97700
C  -8.14700 36.02700 38.43600
H  -7.23200 36.75300 37.56900
N  -12.51100 41.31300 42.33000
C  -11.50600 41.85300 41.55100
C  -11.75800 43.26300 41.39000
C  -12.88600 43.60100 42.23200
C  -13.41400 42.29500 42.65700
C  -10.75700 44.25400 40.66700
C  -13.40600 45.04000 42.59200
O  -12.90200 45.97700 41.94300
C  -14.29100 45.25900 43.69600
N  -14.80300 39.52900 43.34300
C  -15.27200 40.80600 43.58100
C  -16.58000 40.75700 44.35300
C  -16.82300 39.19300 44.63900
C  -15.63500 38.63000 43.87500
C  -16.73100 41.71900 45.56700
C  -18.17800 38.69200 44.14400
C  -19.12100 38.41200 45.43300
N  -13.23200 37.20400 42.77600
C  -14.34800 36.53700 43.22200
C  -14.07700 35.12700 43.29800
C  -12.79800 34.99700 42.67500
C  -12.37200 36.29200 42.42800
C  -14.94700 34.07200 43.90900
C  -11.74600 34.05000 42.38600
O  -11.72600 32.79600 42.49000
C  -10.67700 34.90800 41.66000
C  -9.33100 34.62800 42.20800
O  -8.90000 35.00300 43.25000
O  -8.78200 33.48900 41.60600
C  -7.53900 32.88200 42.13000
H  -9.65000 41.65600 40.49900
H  -15.17900 42.91100 43.46300
H  -16.29200 36.57400 44.11500
H  -8.42100 36.88700 40.77100
H  -8.74600 39.39100 39.27400
H  -7.13600 38.78000 41.63700
H  -7.63600 40.35100 41.65200
H  -6.88900 39.83400 40.15300
H  -9.36800 37.62100 38.18400
H  -10.28600 36.33600 38.88300
H  -8.64100 35.22400 37.88900
H  -7.74300 35.38000 39.21500
H  -10.29100 45.05400 41.24200
H  -11.25300 44.73200 39.82200
H  -9.83100 43.85200 40.25600
H  -15.32500 45.34200 43.36000
H  -14.14100 46.23100 44.16600
H  -14.12000 44.54600 44.50200
H  -17.37100 41.09700 43.68500
H  -16.69300 38.99700 45.70400
H  -16.82700 41.26000 46.55100
H  -17.65700 42.27000 45.40900
H  -15.91600 42.44100 45.62300
H  -18.03800 37.77900 43.56600
H  -18.64700 39.44600 43.51300
H  -20.05900 38.92700 45.22700
H  -18.72100 39.01300 46.25000
H  -19.23500 37.38700 45.78700
H  -15.21000 34.47100 44.88900
H  -14.69200 33.01500 43.97700
H  -15.90600 34.23500 43.41700
H  -10.65900 34.56900 40.62400
H  -6.68800 33.54200 42.29600
H  -7.17800 32.21900 41.34500
H  -7.72400 32.31300 43.04200

