158

Mg 1.28000 -1.54000 44.39600
C  4.61200 -0.24900 44.00000
C  0.21500 1.27500 42.74300
C  -1.73600 -3.00900 43.94600
C  2.51500 -4.23900 45.90200
N  2.33700 0.15000 43.20800
C  3.68000 0.52300 43.30500
C  3.98900 1.88300 42.75700
C  2.57200 2.54000 42.83700
C  1.62100 1.27500 42.90900
C  2.38900 3.50100 44.02800
C  4.55500 1.80500 41.33100
C  6.01400 2.12900 40.90500
H  6.15800 2.99200 39.60900
N  -0.66800 -0.83400 43.59300
C  -0.85800 0.35400 42.97500
C  -2.19900 0.53600 42.58000
C  -2.77800 -0.78300 42.86600
C  -1.70000 -1.61200 43.47000
C  -2.72000 1.81200 41.91300
C  -4.19300 -1.17600 42.56500
O  -4.91700 -0.42300 41.92300
C  -4.73800 -2.43200 43.06200
N  0.57500 -3.40000 44.78300
C  -0.72100 -3.69500 44.61500
C  -1.00100 -5.00800 45.34500
C  0.30700 -5.49600 45.90500
C  1.17100 -4.30800 45.48800
C  -2.06600 -4.81000 46.40900
C  0.80700 -6.89300 45.32000
C  1.13900 -7.88900 46.43100
N  3.14200 -2.21500 44.78400
C  3.52400 -3.34200 45.45000
C  4.86100 -3.29200 45.83500
C  5.36000 -2.11800 45.27200
C  4.27300 -1.48300 44.60500
C  5.64000 -4.27600 46.70600
C  6.50600 -1.25300 45.24600
O  7.62200 -1.29000 45.76600
C  6.12800 -0.07800 44.27700
C  6.38500 1.12600 45.04900
O  5.61000 1.60200 45.90700
O  7.59000 1.64000 44.65300
C  8.09600 2.71700 45.36900
H  -0.05100 2.29200 42.44800
H  -2.59300 -3.68600 43.97600
H  2.95200 -5.05100 46.48700
H  4.61200 2.44800 43.45000
H  2.35200 3.21200 42.00800
H  3.27000 3.83000 44.57900
H  1.69000 3.03600 44.72300
H  1.95600 4.44700 43.70300
H  3.98900 2.44400 40.65300
H  4.32500 0.90000 40.76800
H  6.35900 1.12300 40.66900
H  6.54400 2.56500 41.75300
H  -2.85500 1.56100 40.86100
H  -2.11900 2.72000 41.86500
H  -3.71500 2.03000 42.30200
H  -5.78900 -2.62300 42.84300
H  -4.53900 -2.31100 44.12700
H  -4.12700 -3.16600 42.53700
H  -1.31500 -5.71900 44.58000
H  0.19400 -5.47000 46.98900
H  -1.46100 -4.39700 47.21600
H  -2.48200 -5.78600 46.66100
H  -2.90300 -4.22400 46.03100
H  1.76000 -6.65100 44.85100
H  0.16100 -7.41500 44.61400
H  2.09000 -7.57900 46.86400
H  1.11700 -8.90800 46.04400
H  0.37000 -7.98100 47.19700
H  5.97500 -5.01300 45.97600
H  4.98600 -4.80100 47.40200
H  6.44600 -3.63900 47.07100
H  6.81900 0.00500 43.43800
H  9.12900 2.91700 45.08600
H  8.10800 2.44800 46.42500
H  7.50400 3.59300 45.10400
Mg 5.67700 54.56100 41.21800
C  5.20800 50.87900 40.58000
C  8.64300 54.16400 39.74000
C  5.68600 57.68500 41.26500
C  2.41300 54.35500 42.54500
N  6.69400 52.74100 40.17200
C  6.38600 51.37400 40.03700
C  7.55800 50.68400 39.41300
C  8.80200 51.70300 39.51900
C  7.97800 52.95800 39.79600
C  9.81800 51.32700 40.61800
C  7.36700 50.00300 38.00400
C  6.37200 50.70400 37.00300
H  5.68000 49.74400 35.98000
N  6.93700 55.76700 40.39400
C  8.21100 55.44500 39.86700
C  8.91700 56.61100 39.58000
C  8.11000 57.72000 40.07200
C  6.83700 57.07600 40.61300
C  10.35300 56.69200 39.13000
C  8.56800 59.15300 40.10300
O  9.64500 59.52900 39.62100
C  7.76800 60.26000 40.80900
N  4.25000 55.85600 41.84900
C  4.49900 57.14300 41.72700
C  3.28900 57.96800 42.24300
C  2.20200 56.91200 42.64900
C  3.04800 55.62800 42.40900
C  3.70100 58.86900 43.38500
C  0.87800 57.00600 41.79300
C  0.87000 56.39100 40.38100
N  4.15600 52.96800 41.69500
C  2.89000 53.10000 42.24000
C  2.24000 51.76100 42.29900
C  3.21700 50.91100 41.69700
C  4.27800 51.71100 41.24400
C  0.82300 51.46900 42.68400
C  3.40500 49.56700 41.24400
O  2.63500 48.60700 41.25100
C  4.72800 49.46400 40.60900
C  4.55500 48.69100 39.34900
O  3.96200 48.96500 38.28500
O  5.14500 47.44700 39.54700
C  5.01300 46.46000 38.46200
H  9.61600 54.12200 39.24600
H  5.65300 58.77300 41.17700
H  1.40600 54.39800 42.96500
H  7.77700 49.90800 40.14700
H  9.37200 51.89600 38.61000
H  9.70900 50.26500 40.83800
H  9.60300 51.96600 41.47500
H  10.85100 51.56000 40.35800
H  6.88500 49.06800 38.28800
H  8.31100 49.92200 37.46500
H  7.10300 51.28700 36.44100
H  5.65500 51.34800 37.51200
H  10.92300 56.80400 40.05200
H  10.51100 57.52500 38.44400
H  10.57200 55.73900 38.64800
H  8.40000 61.08200 41.14800
H  7.45100 59.92100 41.79500
H  7.03000 60.60300 40.08400
H  2.86300 58.57000 41.44100
H  1.97900 57.09600 43.70000
H  3.44600 59.88100 43.06800
H  4.76200 59.06600 43.53900
H  3.17600 58.65500 44.31600
H  0.68300 58.07700 41.74100
H  0.13800 56.64100 42.50500
H  0.71800 57.08000 39.55000
H  -0.00700 55.74800 40.30700
H  1.75500 55.76600 40.26900
H  0.27300 52.38700 42.89100
H  0.71000 50.74600 43.49200
H  0.38900 50.99300 41.80500
H  5.37700 48.90200 41.28200
H  5.86500 45.78900 38.57400
H  5.16500 46.90700 37.47900
H  4.17900 45.75900 38.49900

