158

Mg 7.75600 2.17600 28.13800
C  9.42600 0.97700 30.99400
C  5.89100 4.13300 30.12500
C  5.98600 2.97300 25.45100
C  9.66500 0.03900 26.21000
N  7.62500 2.37700 30.37600
C  8.50600 1.97800 31.30600
C  8.25500 2.78100 32.66400
C  7.03700 3.66500 32.29000
C  6.79000 3.35900 30.84400
C  5.76400 3.29700 33.17300
C  9.53100 3.62500 33.12500
C  10.14400 3.41800 34.52400
H  9.80900 4.50600 35.58200
N  6.26600 3.53300 27.86400
C  5.62100 4.26800 28.76300
C  4.51000 5.08000 28.12900
C  4.52900 4.64400 26.75100
C  5.61700 3.67900 26.65600
C  3.65100 6.03500 28.96000
C  3.66200 5.17000 25.59100
O  3.69800 4.79700 24.41500
C  2.75200 6.27700 26.00800
N  7.79100 1.59000 26.09000
C  7.00200 2.08800 25.13600
C  7.14800 1.43900 23.78300
C  8.45900 0.61200 24.00900
C  8.69100 0.73900 25.57700
C  6.00600 0.57000 23.34400
C  9.69200 1.26500 23.24300
C  9.99700 0.80900 21.81700
N  9.18800 0.72600 28.46800
C  9.89900 -0.02500 27.60000
C  10.75800 -0.96400 28.24200
C  10.62200 -0.48900 29.57900
C  9.65200 0.47400 29.66100
C  11.48400 -2.02400 27.54900
C  11.09200 -0.80200 30.86900
O  11.85300 -1.70100 31.25300
C  10.47300 0.23100 31.81400
C  10.01800 -0.41800 33.09900
O  8.88900 -0.82000 33.33200
O  10.98700 -0.15200 34.11100
C  10.49000 -0.42800 35.47800
H  5.37700 4.79400 30.82600
H  5.25600 3.03700 24.64100
H  10.11300 -0.61900 25.46300
H  8.03400 1.95800 33.34400
H  7.27800 4.70500 32.51200
H  6.10300 2.63400 33.96800
H  4.89600 2.88600 32.65600
H  5.39600 4.21900 33.62200
H  9.40900 4.68400 32.90100
H  10.21500 3.29800 32.34200
H  11.23200 3.35200 34.52400
H  9.82800 2.45600 34.92700
H  3.80300 5.91700 30.03300
H  2.60800 5.80400 28.73900
H  3.84500 7.08000 28.72000
H  3.22300 7.04100 26.62600
H  1.88900 5.85700 26.52400
H  2.34300 6.67400 25.07900
H  7.28200 2.31500 23.14700
H  8.27000 -0.42900 23.74700
H  5.73100 0.98100 22.37200
H  5.17700 0.62600 24.04900
H  6.16600 -0.50200 23.22900
H  10.55900 1.13400 23.88900
H  9.56000 2.34300 23.16100
H  9.34700 0.06600 21.35500
H  11.04100 0.49600 21.81200
H  9.82500 1.67700 21.18100
H  10.77400 -2.84700 27.45900
H  12.46100 -2.24400 27.97800
H  11.61400 -1.76400 26.49800
H  11.25300 0.92600 32.12500
H  9.83500 0.38700 35.78500
H  11.36400 -0.51000 36.12400
H  9.92500 -1.36100 35.47700
Mg 54.44300 23.98600 43.06500
C  52.04700 26.43200 42.63300
C  52.13900 21.70200 42.16100
C  56.99400 21.85500 42.23800
C  56.90700 26.54200 42.99100
N  52.25500 24.03500 42.63400
C  51.49200 25.13800 42.47000
C  50.10700 24.75500 41.99300
C  50.11400 23.20100 42.13900
C  51.61500 22.94300 42.30900
C  49.38400 22.63300 43.32100
C  49.81300 25.14000 40.56300
C  51.00300 24.92900 39.53900
H  50.66100 24.75200 38.07700
N  54.51400 21.98600 42.48100
C  53.42600 21.14900 42.24400
C  53.89700 19.86400 41.81400
C  55.31000 19.92000 41.96700
C  55.67500 21.31600 42.25100
C  53.04400 18.63500 41.54400
C  56.22100 18.66900 41.81800
O  55.76800 17.58600 41.36900
C  57.66200 18.72600 42.09200
N  56.65500 24.10900 42.73000
C  57.50000 23.07600 42.49900
C  58.97900 23.45400 42.34200
C  58.87300 24.99500 42.59800
C  57.37600 25.22600 42.79600
C  60.02300 22.74900 43.24800
C  59.55400 25.88800 41.49800
C  58.75100 26.16000 40.22400
N  54.44800 26.01200 43.10700
C  55.47800 26.93400 43.03100
C  54.98900 28.27300 43.11600
C  53.63300 28.12600 43.05700
C  53.34800 26.72600 42.95200
C  55.80600 29.44500 43.00700
C  52.35900 28.83500 43.12600
O  52.10800 29.96700 43.41100
C  51.29000 27.82500 42.61300
C  50.81300 28.30400 41.32300
O  51.50700 28.25300 40.31000
O  49.50100 28.76000 41.33600
C  49.03200 29.14300 40.02700
H  51.44800 20.86600 42.02900
H  57.83300 21.22300 41.93900
H  57.64700 27.34400 43.03100
H  49.43200 25.18300 42.73300
H  49.63900 22.71500 41.28800
H  49.64600 23.29400 44.14700
H  49.77900 21.67400 43.65800
H  48.30300 22.52600 43.23200
H  49.41400 26.15300 40.49700
H  49.08700 24.48700 40.08000
H  51.60600 24.09200 39.89000
H  51.68300 25.77100 39.67000
H  52.99900 18.54600 40.45900
H  52.05100 18.78900 41.96900
H  53.51400 17.75700 41.98800
H  58.14800 17.75100 42.06200
H  57.99300 19.13800 43.04500
H  58.04600 19.30300 41.25000
H  59.25700 23.33800 41.29400
H  59.40400 25.15700 43.53600
H  60.65000 22.08200 42.65700
H  59.51100 22.22500 44.05500
H  60.71200 23.49800 43.63900
H  60.50600 25.40100 41.28200
H  59.86000 26.80800 41.99600
H  58.67200 27.23500 40.05900
H  57.73900 25.76100 40.28800
H  59.29000 25.70000 39.39500
H  55.17600 30.33300 43.06100
H  56.24700 29.40000 42.01100
H  56.55000 29.36600 43.79900
H  50.48000 27.81300 43.34100
H  49.38800 30.15800 39.84700
H  47.94400 29.18000 40.08500
H  49.40600 28.47900 39.24800

