158

Mg 16.89200 -2.56000 28.52000
C  15.37000 -0.80700 31.23100
C  19.03100 -4.11300 30.69100
C  18.14300 -4.20100 25.97000
C  15.08800 -0.41800 26.39100
N  17.05900 -2.62700 30.79200
C  16.41700 -1.73200 31.66300
C  17.13900 -1.90700 33.04700
C  18.41800 -2.73700 32.78700
C  18.19600 -3.17400 31.31500
C  19.79300 -2.08000 32.92100
C  16.18000 -2.56800 34.02300
C  15.81600 -1.80300 35.31400
H  16.90700 -0.95200 35.97000
N  18.15200 -4.25600 28.38500
C  18.93600 -4.72000 29.39700
C  19.73200 -5.78200 28.81800
C  19.45300 -5.90200 27.40100
C  18.56700 -4.72300 27.15500
C  20.63200 -6.54500 29.69000
C  19.92500 -6.81100 26.34100
O  19.69500 -6.77200 25.15700
C  20.72600 -8.01800 26.78100
N  16.69900 -2.22700 26.45100
C  17.22900 -3.17100 25.61400
C  16.99800 -2.66700 24.16400
C  15.92900 -1.59200 24.25200
C  15.83900 -1.41500 25.75800
C  18.32000 -2.19500 23.48000
C  14.58300 -1.90900 23.52000
C  14.19900 -0.88800 22.28700
N  15.58300 -0.95300 28.67300
C  14.96200 -0.16400 27.77900
C  14.07800 0.80400 28.33700
C  14.24700 0.59600 29.69900
C  15.11100 -0.51900 29.87500
C  13.14200 1.78100 27.64600
C  13.89000 1.10500 30.97800
O  13.31500 2.14700 31.31700
C  14.48900 0.13800 32.04900
C  15.22000 0.97100 33.09400
O  16.40300 1.20600 32.95500
O  14.39900 1.72600 33.97700
C  15.12400 2.64600 34.80200
H  19.98600 -4.35300 31.16400
H  18.60700 -4.74400 25.14400
H  14.53300 0.15000 25.64100
H  17.49600 -0.96600 33.46600
H  18.52600 -3.64200 33.38500
H  19.64600 -1.23800 33.59700
H  20.26900 -1.78000 31.98700
H  20.53100 -2.77400 33.32300
H  16.47700 -3.57100 34.33000
H  15.26800 -2.60900 33.42600
H  15.28600 -2.44500 36.01700
H  15.07600 -1.03300 35.09700
H  20.39900 -7.60000 29.54300
H  20.39900 -6.43300 30.74900
H  21.65900 -6.38700 29.36200
H  21.53300 -7.60200 27.38400
H  21.19500 -8.38300 25.86800
H  20.15300 -8.77800 27.31300
H  16.55800 -3.51600 23.64100
H  16.26100 -0.60100 23.94200
H  18.60300 -3.02700 22.83700
H  19.14700 -1.96000 24.15100
H  18.17200 -1.25300 22.95100
H  13.80100 -1.91000 24.27900
H  14.47500 -2.94100 23.18500
H  13.17700 -0.54300 22.44400
H  14.18600 -1.55800 21.42700
H  14.94400 -0.10300 22.15600
H  13.53500 2.07600 26.67400
H  13.13200 2.67000 28.27700
H  12.14600 1.35200 27.53400
H  13.72400 -0.35600 32.64700
H  14.41200 2.93200 35.57700
H  15.26700 3.59700 34.29000
H  16.06900 2.27400 35.19800
Mg 47.37500 25.77300 27.62500
C  48.17400 28.18200 30.15300
C  47.02400 23.49500 30.13900
C  46.91800 23.40600 25.21800
C  48.91000 27.83600 25.26300
N  47.51300 25.89100 29.81400
C  47.72700 26.97000 30.66600
C  47.59300 26.64800 32.11100
C  47.50300 25.08300 32.05200
C  47.33900 24.81400 30.60900
C  48.72000 24.28300 32.70900
C  46.44500 27.45600 32.78900
C  45.84300 26.96200 34.12900
H  45.80300 27.93200 35.28900
N  46.90600 23.72900 27.63300
C  46.79500 22.97000 28.82900
C  46.29200 21.63400 28.53000
C  46.19000 21.60200 27.04700
C  46.74400 22.89100 26.55400
C  46.10700 20.56800 29.55600
C  45.69700 20.48800 26.15700
O  45.75800 20.59300 24.93600
C  45.13500 19.25500 26.64400
N  47.79700 25.62500 25.51000
C  47.52300 24.58100 24.69100
C  47.89800 24.87400 23.21400
C  48.08200 26.42700 23.25400
C  48.32100 26.63900 24.75700
C  49.03600 23.94800 22.73800
C  46.92200 27.29000 22.65000
C  47.35500 28.49800 21.79800
N  48.29000 27.64800 27.63900
C  48.93300 28.26800 26.63100
C  49.34600 29.59200 27.13400
C  49.06600 29.59600 28.51800
C  48.47200 28.38000 28.79100
C  49.88000 30.70000 26.32400
C  49.15600 30.38900 29.76400
O  49.68200 31.51200 29.93100
C  48.58100 29.48400 30.93500
C  49.62700 29.28800 31.95500
O  50.54000 28.40900 32.00900
O  49.25900 30.05900 33.06000
C  49.82400 29.57200 34.31700
H  46.87300 22.71000 30.88400
H  46.85000 22.67700 24.40800
H  49.32600 28.48200 24.48800
H  48.58400 26.90400 32.48400
H  46.65000 24.77100 32.65500
H  49.51000 24.91900 33.10800
H  49.24900 23.71600 31.94300
H  48.33600 23.58200 33.45000
H  45.61000 27.55200 32.09600
H  46.90800 28.43000 32.94900
H  46.22100 25.96600 34.36100
H  44.77700 26.77000 34.01100
H  45.07400 20.22500 29.51300
H  46.19400 20.88000 30.59600
H  46.77700 19.76000 29.26400
H  44.21600 19.40400 27.20900
H  45.92700 18.72800 27.17500
H  44.78000 18.72600 25.76000
H  47.04900 24.60900 22.58500
H  49.03800 26.52000 22.73900
H  49.38100 23.38000 23.60100
H  49.80900 24.57500 22.29400
H  48.52800 23.26800 22.05400
H  46.31500 27.63900 23.48500
H  46.22900 26.66300 22.08900
H  47.45000 29.37600 22.43800
H  46.53400 28.65200 21.09800
H  48.26300 28.32500 21.22000
H  49.16100 31.06600 25.59100
H  50.81100 30.47900 25.80300
H  50.09400 31.47100 27.06500
H  47.71300 29.89600 31.45100
H  50.90800 29.48400 34.23700
H  49.29400 28.64100 34.51500
H  49.63400 30.33900 35.06900

