158

Mg -1.95300 17.60700 27.94500
C  -2.48700 15.69000 30.75800
C  -2.71700 20.42400 29.97700
C  -1.69900 19.43400 25.19800
C  -1.37100 14.63500 26.02200
N  -2.52900 18.00200 30.06800
C  -2.55700 17.05000 31.07800
C  -2.75400 17.68600 32.41900
C  -3.07900 19.17100 32.14500
C  -2.77900 19.22200 30.62600
C  -4.55200 19.54700 32.43300
C  -1.57900 17.45300 33.42300
C  -1.99700 17.01100 34.85000
H  -0.89400 16.96900 35.94700
N  -2.05400 19.65200 27.61200
C  -2.45200 20.60700 28.56200
C  -2.37300 21.90000 27.87300
C  -2.02100 21.61800 26.51100
C  -1.89800 20.23500 26.37500
C  -2.39800 23.19000 28.70500
C  -1.74800 22.53700 25.35000
O  -1.47600 22.19300 24.24700
C  -1.73300 24.06500 25.50200
N  -1.77700 17.10200 25.85800
C  -1.50700 18.07300 24.96300
C  -1.11100 17.40000 23.63300
C  -0.84800 15.90900 23.89900
C  -1.27300 15.88700 25.36700
C  -2.15700 17.66700 22.55200
C  0.64500 15.44800 23.73200
C  1.73000 16.04500 24.66200
N  -2.02900 15.58600 28.21900
C  -1.81700 14.48800 27.35700
C  -1.98500 13.28200 28.11400
C  -2.28000 13.71700 29.40700
C  -2.18000 15.13700 29.45100
C  -1.81600 11.82600 27.67600
C  -2.55500 13.27000 30.74000
O  -2.65500 12.14300 31.16900
C  -2.57400 14.51000 31.65500
C  -1.43000 14.28000 32.52400
O  -0.27400 14.51000 32.23000
O  -1.82500 13.74300 33.74300
C  -0.78100 13.19300 34.63900
H  -3.06900 21.27400 30.56500
H  -1.57100 20.01300 24.28200
H  -1.25500 13.79800 25.33200
H  -3.70300 17.30200 32.79200
H  -2.28400 19.77400 32.58300
H  -4.89600 20.15700 31.59800
H  -4.55100 20.20600 33.30100
H  -5.20100 18.67200 32.45900
H  -1.01800 18.38500 33.48800
H  -0.96900 16.65300 33.00400
H  -2.49000 16.04100 34.90400
H  -2.71400 17.75900 35.18600
H  -3.20000 23.91300 28.55400
H  -1.49800 23.80100 28.63600
H  -2.33300 22.96000 29.76800
H  -1.95000 24.41100 24.49100
H  -0.80100 24.47000 25.89500
H  -2.60400 24.38500 26.07400
H  -0.20400 17.83200 23.21100
H  -1.39700 15.20600 23.27200
H  -2.98200 16.95600 22.53200
H  -1.73000 17.55500 21.55500
H  -2.59500 18.65000 22.72600
H  1.00000 15.75400 22.74800
H  0.68500 14.36800 23.87400
H  2.04600 16.99500 24.23100
H  2.64200 15.44800 24.68200
H  1.29000 16.13500 25.65500
H  -1.10300 11.67200 26.86500
H  -2.84100 11.63600 27.35800
H  -1.57400 11.16600 28.50900
H  -3.46000 14.51500 32.28900
H  0.25500 13.35800 34.34200
H  -0.94600 12.13700 34.85400
H  -1.05200 13.67600 35.57800
Mg -9.39300 40.12600 39.79700
C  -8.53900 36.76900 39.23500
C  -6.20600 41.01400 39.06300
C  -10.52300 43.19600 38.95600
C  -12.70100 39.11800 40.17400
N  -7.63100 39.04800 39.26700
C  -7.42300 37.69400 39.20800
C  -5.98200 37.31200 38.90400
C  -5.19000 38.61100 39.09100
C  -6.37800 39.64800 39.17400
C  -4.13700 38.65500 40.19300
C  -5.77400 36.54600 37.59400
C  -6.35000 37.24500 36.35600
H  -7.10400 36.40000 35.35800
N  -8.46400 41.87800 39.28000
C  -7.16500 42.01700 38.98800
C  -6.92400 43.35600 38.59000
C  -8.15400 44.03400 38.50700
C  -9.14100 43.05100 38.86600
C  -5.57200 44.01300 38.43700
C  -8.45300 45.52200 38.13200
O  -7.46700 46.19800 37.94500
C  -9.80900 46.16700 38.02900
N  -11.27500 40.98500 39.60500
C  -11.47300 42.28900 39.29800
C  -12.98100 42.61800 39.30200
C  -13.62700 41.44700 40.04100
C  -12.51800 40.43000 39.91700
C  -13.45900 44.08100 39.72100
C  -15.05600 41.09700 39.43600
C  -16.00700 40.31200 40.30400
N  -10.50800 38.37000 39.83100
C  -11.82500 38.09300 39.96400
C  -12.01300 36.64000 39.89500
C  -10.77300 36.07700 39.59000
C  -9.86000 37.19000 39.60700
C  -13.32700 35.88300 40.11700
C  -10.04100 34.82000 39.36700
O  -10.44300 33.67100 39.30000
C  -8.59600 35.26200 39.02800
C  -7.61800 34.45300 39.88100
O  -7.27600 34.75200 41.00800
O  -7.05000 33.44800 39.21000
C  -5.86000 32.89000 39.87100
H  -5.20900 41.43900 38.93000
H  -10.92400 44.20900 38.89300
H  -13.71800 38.76200 40.35100
H  -5.81900 36.57200 39.68700
H  -4.68000 38.93300 38.18300
H  -4.15300 39.60300 40.73000
H  -3.13700 38.53600 39.77600
H  -4.40900 37.90700 40.93800
H  -6.01000 35.49200 37.73600
H  -4.70300 36.56600 37.39700
H  -5.51900 37.69400 35.81100
H  -6.98300 38.09300 36.61800
H  -5.57500 44.47100 37.44800
H  -4.78300 43.26100 38.44800
H  -5.45000 44.75400 39.22700
H  -10.27600 46.40200 38.98500
H  -10.56800 45.61100 37.48000
H  -9.55200 47.09400 37.51600
H  -13.34100 42.62300 38.27300
H  -13.79400 41.53200 41.11500
H  -12.71000 44.86800 39.81100
H  -14.07900 44.12100 40.61700
H  -14.07400 44.49000 38.91900
H  -14.79900 40.44000 38.60600
H  -15.58900 41.95700 39.03000
H  -16.72600 41.00900 40.73600
H  -15.50400 39.91300 41.18500
H  -16.42800 39.52900 39.67400
H  -13.89800 35.85100 39.18900
H  -13.90400 36.19900 40.98500
H  -13.04300 34.85600 40.34800
H  -8.53700 34.97500 37.97800
H  -5.21500 33.74700 40.06300
H  -5.36700 32.15600 39.23400
H  -6.20900 32.37400 40.76500

