158

Mg 9.07000 3.78500 27.86600
C  10.42700 2.08300 30.75400
C  7.58200 6.04400 29.95200
C  7.20700 4.68600 25.23600
C  10.24500 0.97000 25.91600
N  8.83200 3.82500 30.11600
C  9.54300 3.15200 31.08500
C  9.45200 3.84700 32.45300
C  8.28700 4.92100 32.21300
C  8.25600 4.93200 30.66600
C  6.87700 4.59400 32.78800
C  10.81600 4.53700 32.94300
C  11.26200 4.02000 34.29500
H  10.21300 3.73100 35.38500
N  7.68900 5.18700 27.61800
C  7.32300 6.14300 28.53300
C  6.44500 7.16000 27.90600
C  6.26600 6.72100 26.56400
C  7.02700 5.45800 26.42200
C  5.89200 8.33400 28.63900
C  5.38100 7.35200 25.46600
O  5.19200 6.78900 24.37300
C  4.85300 8.64100 25.65900
N  8.66900 2.90500 25.93500
C  7.98900 3.60500 24.96500
C  8.08400 3.05800 23.58300
C  9.20100 1.91900 23.79800
C  9.38300 1.89400 25.31600
C  6.76100 2.53100 22.97300
C  10.60200 2.29400 23.12100
C  11.39700 3.35200 23.89100
N  10.28800 2.00500 28.16500
C  10.61800 0.90400 27.30600
C  11.38300 -0.08700 28.04300
C  11.39800 0.42900 29.35500
C  10.68100 1.63200 29.39700
C  11.80800 -1.35100 27.50400
C  11.84000 0.09300 30.71200
O  12.44200 -0.83300 31.25200
C  11.34700 1.28600 31.68200
C  10.59500 0.60200 32.79100
O  9.41400 0.27100 32.68900
O  11.30600 0.41200 34.00000
C  10.50700 -0.22200 35.13600
H  7.14100 6.75500 30.65300
H  6.82400 5.24500 24.37900
H  10.54600 0.19000 25.21400
H  9.16700 3.08400 33.17800
H  8.64100 5.85800 32.64400
H  6.40700 5.50900 33.14900
H  6.94000 3.84900 33.58100
H  6.23500 4.18400 32.00800
H  11.00200 5.61100 32.94300
H  11.59600 4.20000 32.26100
H  11.85100 4.76100 34.83600
H  11.93300 3.19700 34.04600
H  6.30000 8.45300 29.64300
H  4.82600 8.12900 28.73200
H  6.09500 9.24500 28.07700
H  5.80500 9.16900 25.72800
H  4.20000 8.79200 26.51800
H  4.26400 8.95100 24.79600
H  8.45100 3.68900 22.77300
H  8.95800 0.96800 23.32500
H  5.90200 2.57700 23.64200
H  6.87000 1.45400 22.85300
H  6.50900 3.04100 22.04300
H  10.45900 2.60600 22.08600
H  11.13400 1.34800 23.22500
H  10.71100 4.06400 24.35100
H  12.01400 3.94900 23.21900
H  11.92700 2.79800 24.66600
H  12.83900 -1.32200 27.15300
H  11.24500 -1.62200 26.61100
H  11.78200 -2.13300 28.26400
H  12.24200 1.78600 32.05300
H  11.22600 -0.35800 35.94300
H  10.09600 -1.17700 34.81000
H  9.71700 0.46100 35.45000
Mg 34.72400 48.69000 25.54400
C  34.98100 46.98500 28.56100
C  33.04300 51.22400 27.25400
C  34.17700 50.16600 22.70600
C  36.09900 45.84900 23.91800
N  33.99500 48.95600 27.64400
C  34.32200 48.20800 28.69600
C  33.89100 48.87900 30.00600
C  33.00000 50.02300 29.51400
C  33.35400 50.07500 28.05900
C  31.46100 49.86700 29.81500
C  35.10200 49.35900 30.92400
C  34.98300 48.97500 32.39600
H  33.65600 49.12600 33.01700
N  33.70400 50.37800 25.03100
C  33.19100 51.36400 25.88000
C  32.62400 52.48000 25.14500
C  32.92600 52.14300 23.83700
C  33.67100 50.86900 23.78700
C  31.97900 53.77200 25.64300
C  32.63300 52.91500 22.61200
O  33.16300 52.76400 21.47200
C  31.75100 54.19100 22.65100
N  35.26900 48.13800 23.63000
C  34.92800 48.96000 22.61900
C  35.34400 48.37700 21.24800
C  36.14700 47.04900 21.69900
C  35.79900 47.02000 23.18900
C  34.16400 48.10000 20.31300
C  37.70600 46.93900 21.49200
C  38.45500 47.89300 20.56100
N  35.44700 46.73200 26.08200
C  35.95700 45.73900 25.37400
C  36.38400 44.69300 26.23700
C  36.04200 45.10800 27.54100
C  35.38300 46.36000 27.33700
C  36.96000 43.32800 25.80800
C  36.10600 44.80700 28.90800
O  36.46900 43.74000 29.47800
C  35.49100 46.02200 29.68100
C  34.44000 45.58400 30.67200
O  33.24100 45.60800 30.49300
O  35.02900 45.05500 31.81600
C  34.20400 44.64400 32.98400
H  32.60500 52.03600 27.83800
H  34.14400 50.64000 21.72300
H  36.44900 44.96000 23.39000
H  33.29600 48.24000 30.65900
H  33.28300 50.98100 29.95000
H  31.17200 50.82800 30.23900
H  31.24500 49.17500 30.63000
H  30.90800 49.46500 28.96600
H  35.21700 50.42800 30.74300
H  36.02100 48.99000 30.47000
H  35.77900 49.53400 32.88600
H  35.13600 47.89900 32.47900
H  30.93000 53.83500 25.35200
H  32.52800 54.63200 25.26000
H  32.05100 53.80100 26.73100
H  32.20000 55.08200 23.09000
H  30.77700 53.98800 23.09500
H  31.60200 54.47700 21.61000
H  35.95100 49.10600 20.71000
H  35.64400 46.22100 21.20000
H  33.36300 47.64600 20.89600
H  34.43900 47.43500 19.49500
H  33.70400 49.01600 19.94100
H  38.01100 45.95800 21.12900
H  38.13300 47.05700 22.48800
H  37.79500 48.26100 19.77600
H  39.27700 47.34500 20.09900
H  38.87600 48.79200 21.01000
H  36.31500 42.60200 25.31300
H  37.53100 42.89400 26.62900
H  37.73400 43.52000 25.06600
H  36.41700 46.32600 30.16800
H  33.65500 43.73000 32.75800
H  33.70100 45.55200 33.31600
H  34.89000 44.32700 33.77000

