158

Mg 1.66400 -1.22200 44.30500
C  5.12600 -0.61500 44.22200
C  1.23700 1.75300 42.58800
C  -1.51700 -2.10800 43.87900
C  2.37000 -4.51700 45.55400
N  3.05700 0.34300 43.53600
C  4.42100 0.39600 43.53800
C  5.04500 1.51400 42.64900
C  3.76200 2.44600 42.49300
C  2.62600 1.45700 42.81000
C  3.67500 3.76800 43.24500
C  5.56700 1.04500 41.28500
C  7.05700 1.37900 41.01400
H  7.39000 1.92400 39.65400
N  0.08100 -0.23700 43.48500
C  0.11700 0.96300 42.83800
C  -1.23400 1.32000 42.40300
C  -2.11100 0.27200 42.78400
C  -1.20900 -0.78300 43.47400
C  -1.56000 2.64700 41.72400
C  -3.59300 0.25800 42.56400
O  -4.10600 1.22100 41.95300
C  -4.41400 -0.81200 43.17300
N  0.61300 -3.02600 44.70800
C  -0.73500 -3.14200 44.45500
C  -1.29300 -4.53800 44.90600
C  0.00500 -5.32800 45.31500
C  1.06200 -4.26500 45.16800
C  -2.42000 -4.60200 46.01600
C  0.27900 -6.55900 44.45700
C  0.86400 -7.74700 45.23800
N  3.38500 -2.31200 44.86000
C  3.51100 -3.60800 45.33600
C  4.87100 -3.85600 45.67500
C  5.56500 -2.67300 45.35800
C  4.60400 -1.75500 44.83800
C  5.36100 -5.17000 46.26400
C  6.85500 -2.04300 45.31300
O  7.92400 -2.48900 45.68500
C  6.61900 -0.70100 44.56300
C  6.88900 0.39500 45.55000
O  6.34300 0.52200 46.68800
O  7.72800 1.41600 44.94400
C  7.78100 2.73100 45.56600
H  1.09100 2.67200 42.01600
H  -2.52800 -2.47800 43.69400
H  2.64800 -5.44300 46.06200
H  5.73400 2.06700 43.28800
H  3.60400 2.67700 41.44000
H  3.53000 4.53300 42.48200
H  4.63100 3.98300 43.72100
H  2.88500 3.86600 43.99000
H  5.05000 1.41500 40.39900
H  5.43200 -0.03400 41.35500
H  7.60900 0.45000 41.15800
H  7.52200 2.11900 41.66500
H  -2.24400 2.46500 40.89500
H  -0.76200 3.24900 41.29100
H  -2.18300 3.25600 42.37900
H  -4.26000 -1.71900 42.58900
H  -5.44000 -0.45200 43.24400
H  -3.98900 -0.92700 44.17000
H  -1.73700 -4.99600 44.02200
H  -0.02700 -5.60600 46.36900
H  -3.37200 -4.81600 45.53000
H  -2.56800 -3.71700 46.63400
H  -2.15700 -5.36700 46.74700
H  0.84600 -6.36500 43.54600
H  -0.64000 -7.00200 44.07400
H  1.42000 -8.34900 44.51900
H  -0.03100 -8.21000 45.65300
H  1.42800 -7.57100 46.15400
H  6.44300 -5.28400 46.20600
H  4.81100 -5.99700 45.81400
H  5.17600 -5.10300 47.33600
H  7.12500 -0.55200 43.60900
H  8.64800 3.34100 45.31100
H  7.64000 2.71800 46.64700
H  6.88800 3.25900 45.23300
Mg 27.23900 50.39600 26.10000
C  25.07700 51.26400 28.89900
C  29.44900 49.27900 28.45700
C  29.37200 50.07200 23.63200
C  24.85200 51.82600 23.90000
N  27.31800 50.46600 28.39600
C  26.27200 50.69200 29.27600
C  26.59500 50.29100 30.70000
C  28.03100 49.71200 30.54100
C  28.27100 49.79300 29.03200
C  29.18700 50.38200 31.38300
C  25.59700 49.28400 31.29400
C  24.88100 49.74100 32.50900
H  25.78900 50.26200 33.74500
N  29.19500 49.72600 26.04700
C  29.96000 49.29700 27.16500
C  31.23000 48.87000 26.55200
C  31.22600 49.09100 25.18100
C  29.90300 49.61000 24.91800
C  32.29900 48.20400 27.41400
C  32.36900 48.86200 24.17900
O  32.27500 49.30100 23.04700
C  33.66400 48.21700 24.63000
N  27.24700 51.20700 24.09000
C  28.19100 50.70400 23.31400
C  27.71400 50.80400 21.77500
C  26.21400 51.15000 21.88200
C  26.09700 51.41400 23.36000
C  28.54700 51.74000 20.81900
C  25.25600 49.97700 21.48800
C  24.33200 50.46600 20.33300
N  25.39200 51.38600 26.33300
C  24.50100 51.85900 25.33700
C  23.28200 52.33800 25.98400
C  23.48500 52.18700 27.39500
C  24.73900 51.57300 27.57500
C  22.08600 52.98400 25.37000
C  22.90900 52.36200 28.65900
O  21.86300 52.97100 28.92900
C  23.94000 51.83200 29.75200
C  24.38600 52.90800 30.69100
O  25.42100 53.60600 30.61900
O  23.41900 53.07600 31.60200
C  23.86400 53.73300 32.85100
H  30.02100 48.71200 29.19500
H  29.84700 49.70300 22.72100
H  23.99100 52.06400 23.27200
H  26.55800 51.19900 31.30200
H  28.04500 48.66600 30.84900
H  28.81900 50.94100 32.24300
H  29.90600 51.04600 30.90400
H  29.81700 49.55200 31.70300
H  26.02300 48.28800 31.41600
H  24.83600 49.16300 30.52400
H  24.30600 48.94100 32.97600
H  24.16600 50.52300 32.25500
H  32.54600 47.18800 27.10700
H  31.92100 47.98200 28.41200
H  33.16300 48.86700 27.38900
H  33.38500 47.25500 25.05800
H  34.17500 48.82200 25.38000
H  34.21500 47.93700 23.73200
H  27.71800 49.80200 21.34400
H  26.19700 52.13100 21.40900
H  29.53500 51.90800 21.24800
H  27.98600 52.66800 20.70600
H  28.69300 51.21000 19.87800
H  24.65400 49.72200 22.36000
H  25.93600 49.13900 21.33800
H  24.82100 50.40100 19.36100
H  24.05900 51.50500 20.52100
H  23.34900 49.99800 20.27900
H  21.95400 52.80100 24.30400
H  22.09300 54.02400 25.69700
H  21.20300 52.64100 25.91000
H  23.47100 50.97900 30.24300
H  24.40400 54.64800 32.60900
H  24.56700 53.14800 33.44300
H  23.00800 53.97200 33.48200

