158

Mg 25.93500 0.77300 29.03200
C  27.99200 0.43600 31.89700
C  23.29100 1.15900 31.10300
C  24.01200 0.94800 26.20400
C  28.62600 -0.23000 27.03800
N  25.69100 0.61700 31.24200
C  26.66200 0.60900 32.24600
C  26.08000 0.88100 33.61800
C  24.53500 0.88300 33.37100
C  24.46800 0.89300 31.82900
C  23.70600 -0.19400 34.21100
C  26.70100 2.17500 34.26900
C  26.16200 2.73200 35.65800
H  27.05700 2.74300 36.90300
N  23.91300 1.10200 28.70500
C  23.00600 1.30000 29.70800
C  21.70900 1.56000 29.06900
C  21.89000 1.44500 27.65800
C  23.32400 1.13500 27.43500
C  20.39900 1.73500 29.82500
C  20.87200 1.64400 26.51900
O  21.23400 1.52800 25.35000
C  19.43800 1.87800 26.84700
N  26.26700 0.37500 26.93200
C  25.35600 0.58300 25.98500
C  25.91200 0.39600 24.61100
C  27.41000 0.09900 24.85900
C  27.45200 0.00600 26.37400
C  25.22100 -0.66800 23.81200
C  28.29500 1.19400 24.24100
C  29.67300 0.73800 23.74900
N  27.90800 0.22200 29.35000
C  28.89600 -0.19100 28.49400
C  30.21300 -0.32500 29.16500
C  29.81800 -0.13000 30.51200
C  28.44200 0.20300 30.59600
C  31.51700 -0.69300 28.49700
C  30.32900 -0.24600 31.85900
O  31.48400 -0.41900 32.27300
C  29.20100 0.20600 32.79900
C  28.98300 -0.86100 33.85300
O  28.35900 -1.89300 33.62500
O  29.57200 -0.60700 35.04700
C  29.29700 -1.61200 36.17400
H  22.46700 1.35500 31.79100
H  23.61000 1.18900 25.21800
H  29.47500 -0.56900 26.44000
H  26.31700 0.06300 34.29800
H  24.24600 1.91100 33.58900
H  22.85400 -0.51900 33.61300
H  23.32500 0.08600 35.19400
H  24.23900 -1.10500 34.48400
H  26.73400 2.94600 33.50000
H  27.75200 1.96100 34.46000
H  25.18700 2.29000 35.86200
H  25.81900 3.75900 35.53500
H  20.09000 2.76100 29.62600
H  20.47600 1.74900 30.91300
H  19.72600 0.89200 29.67300
H  19.50900 2.62900 27.63300
H  18.96800 1.09000 27.43700
H  18.89100 2.20700 25.96400
H  25.74200 1.32600 24.06900
H  27.72500 -0.87500 24.48400
H  24.65500 -0.22800 22.99200
H  24.57500 -1.11700 24.56700
H  25.92600 -1.46800 23.58700
H  28.33100 2.04700 24.91800
H  27.82300 1.47200 23.29900
H  30.36300 1.35000 24.33000
H  29.76800 0.94900 22.68300
H  29.93600 -0.30500 23.92500
H  31.61600 -0.19500 27.53300
H  31.63700 -1.77200 28.39100
H  32.33400 -0.33200 29.12300
H  29.63000 1.06700 33.31200
H  29.93100 -1.56900 37.05900
H  29.34500 -2.67800 35.95100
H  28.30800 -1.45800 36.60700
Mg -10.03800 39.68200 39.89200
C  -9.09600 36.33500 39.18200
C  -6.95500 40.70100 38.79700
C  -11.30200 42.92500 39.61300
C  -13.16400 38.59900 40.74100
N  -8.30900 38.57100 38.85900
C  -8.07100 37.24800 38.76300
C  -6.66800 36.95700 38.24900
C  -5.91900 38.34000 38.52300
C  -7.13500 39.23500 38.76300
C  -5.08300 38.30800 39.86400
C  -6.52900 36.38700 36.78200
C  -6.64100 37.28700 35.57500
H  -7.82400 37.16000 34.62900
N  -9.27000 41.50500 39.28500
C  -7.92900 41.71300 38.96200
C  -7.69300 43.12500 38.92900
C  -8.90400 43.77600 39.06900
C  -9.91700 42.73000 39.31900
C  -6.32400 43.77100 38.74400
C  -9.06100 45.34000 38.94200
O  -8.20300 46.10000 38.58000
C  -10.36900 45.95700 39.39600
N  -11.92300 40.66500 40.01900
C  -12.25600 41.98100 39.87600
C  -13.71700 42.39000 40.14400
C  -14.28700 40.95900 40.53500
C  -13.02800 39.98800 40.44600
C  -13.89200 43.52000 41.22500
C  -15.54300 40.61600 39.67400
C  -16.88300 40.84500 40.21600
N  -10.97200 37.82900 40.11100
C  -12.29500 37.56000 40.45700
C  -12.49900 36.13600 40.37400
C  -11.25800 35.62900 39.90100
C  -10.42900 36.68400 39.65400
C  -13.70300 35.33800 40.68300
C  -10.54600 34.39300 39.57100
O  -11.03900 33.26800 39.55300
C  -9.13600 34.76800 39.06000
C  -8.09000 34.04800 39.81800
O  -7.98300 33.99800 41.03100
O  -7.15600 33.61900 38.97600
C  -5.83700 33.10000 39.41300
H  -5.90400 40.96800 38.67300
H  -11.68300 43.93700 39.45900
H  -14.16900 38.32200 41.06500
H  -6.40800 36.14200 38.92400
H  -5.27300 38.75600 37.75100
H  -5.11300 37.32300 40.33000
H  -5.27300 39.04000 40.64900
H  -4.02600 38.56800 39.79400
H  -7.33500 35.65300 36.77400
H  -5.62600 35.77600 36.77100
H  -5.68600 37.15200 35.06800
H  -6.61700 38.30300 35.97100
H  -6.29200 44.20400 37.74400
H  -5.51000 43.05100 38.83100
H  -6.14600 44.59200 39.43900
H  -10.58700 45.71700 40.43700
H  -11.21400 45.82900 38.72000
H  -10.26300 47.04200 39.40900
H  -14.07600 42.78800 39.19500
H  -14.56100 40.96000 41.59000
H  -12.85300 43.69200 41.50500
H  -14.45200 43.21900 42.11000
H  -14.26300 44.42600 40.74500
H  -15.35600 39.64300 39.22000
H  -15.56700 41.34400 38.86400
H  -17.55100 39.98600 40.15900
H  -17.40400 41.69000 39.76500
H  -16.84200 41.01800 41.29100
H  -14.46400 35.34300 39.90200
H  -14.01700 35.74900 41.64200
H  -13.33700 34.31400 40.61700
H  -9.07100 34.49700 38.00600
H  -5.78800 33.18000 40.49900
H  -4.99000 33.54600 38.89300
H  -5.72600 32.04900 39.14400

