158

Mg -3.00500 17.42600 27.77200
C  -3.63800 15.17000 30.42600
C  -3.42500 20.04200 29.86600
C  -2.85400 19.41900 25.14600
C  -3.11600 14.62500 25.59200
N  -3.39400 17.53500 29.89100
C  -3.44000 16.48000 30.84000
C  -3.65200 17.12500 32.24800
C  -3.89400 18.65700 31.92200
C  -3.55200 18.78400 30.43000
C  -5.27200 19.30200 32.28200
C  -2.39700 16.82200 33.16200
C  -2.28300 17.56300 34.55600
H  -2.25900 16.76000 35.82000
N  -2.93400 19.48400 27.57300
C  -3.20300 20.39600 28.51300
C  -2.93900 21.69400 27.95700
C  -2.62800 21.53200 26.57400
C  -2.86300 20.08000 26.34300
C  -3.02800 22.87500 28.79400
C  -2.10200 22.49800 25.61400
O  -1.91100 22.24000 24.40900
C  -1.62900 23.77800 26.00200
N  -2.99300 17.07600 25.65500
C  -2.91300 18.07400 24.79300
C  -2.88000 17.64400 23.34500
C  -2.92800 16.09300 23.45700
C  -3.00500 15.89900 24.99100
C  -4.05500 18.16800 22.45900
C  -1.81500 15.29800 22.72800
C  -0.46700 15.24500 23.42100
N  -3.33200 15.32000 27.87400
C  -3.40000 14.35100 26.94600
C  -3.86300 13.12200 27.59900
C  -3.96000 13.37500 28.91900
C  -3.57800 14.70400 29.06900
C  -4.10300 11.80500 26.83600
C  -4.30600 12.77000 30.21800
O  -4.70100 11.65200 30.50900
C  -4.04800 13.92700 31.27800
C  -3.01200 13.32000 32.19500
O  -1.74700 13.36700 32.04200
O  -3.62000 12.69600 33.28200
C  -2.79100 12.12100 34.29500
H  -3.43500 20.91300 30.52400
H  -2.83500 20.05800 24.26000
H  -3.09300 13.74600 24.94400
H  -4.55800 16.73900 32.71500
H  -3.13200 19.29000 32.37800
H  -5.17500 20.00200 33.11200
H  -6.08400 18.62900 32.55900
H  -5.67800 20.02500 31.57400
H  -1.47700 16.91900 32.58600
H  -2.51100 15.74800 33.31200
H  -3.09100 18.28900 34.65400
H  -1.41800 18.22500 34.55600
H  -2.97900 23.75500 28.15200
H  -2.18300 22.82400 29.48000
H  -3.94200 22.94500 29.38500
H  -0.90000 23.50600 26.76500
H  -2.37800 24.54400 26.20400
H  -0.98800 24.20300 25.23000
H  -1.93900 18.00100 22.92500
H  -3.94900 15.82500 23.18500
H  -4.88300 18.53000 23.06800
H  -4.37000 17.44500 21.70700
H  -3.54400 19.00300 21.97700
H  -1.70800 15.73900 21.73600
H  -2.09700 14.27500 22.47600
H  -0.44500 15.65200 24.43300
H  0.26700 15.81200 22.84800
H  -0.09100 14.22500 23.50200
H  -3.19700 11.22300 27.00600
H  -4.25400 12.11900 25.80300
H  -5.01700 11.33600 27.20000
H  -4.98100 14.09500 31.81500
H  -3.21900 11.17900 34.64000
H  -2.80500 12.82200 35.13000
H  -1.77300 11.89900 33.97700
Mg -12.34000 17.33200 40.88300
C  -9.16100 15.70000 40.45300
C  -10.81700 20.21000 39.99100
C  -15.41300 18.70700 40.93000
C  -13.82100 14.13900 41.40200
N  -10.19700 17.75600 40.31600
C  -9.08700 17.05600 40.20700
C  -7.87600 17.83300 39.76000
C  -8.37600 19.28200 39.77800
C  -9.90000 19.10400 40.04900
C  -7.77200 20.34400 40.76600
C  -7.25900 17.28700 38.43200
C  -5.75200 17.02100 38.46400
H  -5.31100 15.71900 37.70300
N  -13.00900 19.15000 40.43100
C  -12.24200 20.25700 40.03800
C  -13.10700 21.40300 39.84600
C  -14.40000 20.99600 40.15300
C  -14.34500 19.56600 40.57100
C  -12.52400 22.76000 39.44200
C  -15.61000 21.91100 40.05000
O  -15.43500 23.12000 39.80700
C  -17.06600 21.47700 40.19400
N  -14.38300 16.56300 41.15500
C  -15.43500 17.35100 41.24500
C  -16.72700 16.57100 41.58900
C  -16.22000 15.11600 41.50500
C  -14.70000 15.24600 41.29200
C  -17.50300 16.94700 42.88200
C  -16.97900 14.03400 40.65400
C  -17.74800 12.89600 41.30600
N  -11.73900 15.37200 40.95500
C  -12.40300 14.19200 41.24600
C  -11.50500 13.08000 41.17400
C  -10.27000 13.64100 40.87100
C  -10.42300 15.02300 40.79500
C  -11.90800 11.59300 41.36200
C  -8.88400 13.27700 40.60000
O  -8.36400 12.14500 40.56500
C  -8.11400 14.56100 40.30400
C  -6.96900 14.77800 41.20500
O  -7.01600 15.49200 42.25600
O  -5.87200 14.04700 40.83700
C  -4.63600 14.47600 41.56300
H  -10.47600 21.23400 39.82100
H  -16.40000 19.17000 40.98800
H  -14.33800 13.17900 41.34500
H  -7.16500 17.69300 40.57500
H  -8.29200 19.69700 38.77300
H  -6.88100 20.08200 41.33600
H  -8.63300 20.66700 41.35200
H  -7.58200 21.23400 40.16600
H  -7.32100 18.00300 37.61300
H  -7.87300 16.46100 38.07400
H  -5.34500 16.97200 39.47400
H  -5.29100 17.91500 38.04600
H  -11.90800 22.79000 38.54300
H  -11.76700 23.00000 40.18800
H  -13.15700 23.64700 39.46000
H  -17.25300 20.55100 39.64900
H  -17.76900 22.18700 39.75900
H  -17.27900 21.38300 41.25800
H  -17.30800 16.88900 40.72300
H  -16.13900 14.81800 42.55000
H  -17.41400 16.25300 43.71900
H  -18.58500 17.00800 42.76700
H  -17.12800 17.88000 43.30400
H  -16.39300 13.63400 39.82700
H  -17.82200 14.55500 40.20000
H  -17.10000 12.03800 41.12500
H  -18.61100 12.56100 40.73100
H  -18.04600 12.87900 42.35400
H  -12.96100 11.51400 41.63500
H  -11.31300 10.98600 42.04300
H  -11.87300 11.07400 40.40400
H  -7.75400 14.45900 39.28000
H  -4.56900 15.56200 41.63700
H  -3.81700 14.11400 40.94300
H  -4.53400 14.01700 42.54600

