158

Mg 41.97800 41.21000 26.92900
C  40.65400 43.43900 29.13500
C  42.11000 38.80100 29.44800
C  43.58600 39.07700 24.83600
C  42.00600 43.65600 24.47500
N  41.36900 41.11800 28.99100
C  40.85300 42.18900 29.71100
C  40.80400 41.94000 31.27300
C  41.22900 40.46400 31.31200
C  41.63800 40.06600 29.83000
C  42.32200 40.13300 32.32700
C  39.41000 42.15300 31.94100
C  39.30700 42.64200 33.43100
H  38.53300 41.80700 34.49000
N  42.71400 39.21400 27.10200
C  42.55100 38.38200 28.17200
C  43.01900 37.02300 27.78600
C  43.43400 37.11800 26.42100
C  43.22800 38.51300 26.08900
C  42.96600 35.76600 28.76400
C  43.94600 36.01800 25.45600
O  44.15500 36.11500 24.23800
C  43.98000 34.54100 25.95700
N  42.57600 41.33400 24.84100
C  43.20200 40.30800 24.17100
C  43.68100 40.70900 22.79000
C  42.94900 42.06500 22.58200
C  42.51800 42.44500 24.07200
C  45.22100 40.81900 22.68900
C  41.71300 42.04300 21.60300
C  40.40800 41.36100 22.05800
N  41.43100 43.20300 26.80600
C  41.55400 44.06300 25.74700
C  41.15600 45.34300 26.17500
C  40.65700 45.17500 27.52200
C  40.94100 43.84600 27.87000
C  41.31600 46.60800 25.33900
C  40.14800 45.78600 28.71400
O  39.81500 46.96700 28.88600
C  40.20800 44.74300 29.85500
C  41.23500 45.34600 30.76500
O  42.34200 45.66500 30.51800
O  40.68900 45.69500 32.01600
C  41.57800 46.28100 33.00800
H  42.05700 38.08800 30.27300
H  44.15300 38.46000 24.13600
H  42.12600 44.40100 23.68600
H  41.52400 42.59000 31.77000
H  40.36900 39.82000 31.50100
H  42.50200 40.89400 33.08700
H  43.30800 40.07200 31.86500
H  42.11100 39.17800 32.80800
H  38.90400 41.18900 32.00200
H  38.82500 42.78500 31.27300
H  38.68900 43.52900 33.29800
H  40.30800 42.92100 33.75900
H  42.61700 34.96700 28.11000
H  42.25200 35.97100 29.56200
H  43.88700 35.71000 29.34500
H  44.52800 33.92600 25.24300
H  42.92900 34.25400 25.99000
H  44.56400 34.50100 26.87700
H  43.34200 40.06600 21.97800
H  43.64900 42.85600 22.31000
H  45.64800 41.79000 22.43800
H  45.57800 40.17900 21.88200
H  45.68200 40.50200 23.62400
H  41.99000 41.44100 20.73800
H  41.62200 43.07500 21.26600
H  40.60300 40.46600 22.64900
H  39.81700 41.03800 21.20100
H  39.80600 42.11300 22.56700
H  40.44100 46.62300 24.69000
H  42.27400 46.77000 24.84500
H  41.21200 47.46300 26.00800
H  39.29800 44.67700 30.45100
H  42.07200 45.47100 33.54500
H  41.04800 46.80600 33.80200
H  42.26500 47.05000 32.65300
Mg -1.94000 34.23600 26.85800
C  -3.41000 32.50400 29.49800
C  -0.95800 36.58700 29.07800
C  -1.25400 36.14900 24.21900
C  -3.58600 31.89500 24.61900
N  -2.23900 34.59600 29.00000
C  -2.72000 33.66900 29.93200
C  -2.32300 34.08300 31.38400
C  -1.41900 35.31600 31.20200
C  -1.60200 35.54200 29.67300
C  -1.66500 36.57800 32.04600
C  -1.70100 32.86500 32.19700
C  -2.39000 32.42700 33.51000
H  -1.60900 32.53200 34.90100
N  -1.16500 36.06900 26.66300
C  -0.90900 36.92000 27.77900
C  -0.35800 38.19000 27.20300
C  -0.28400 37.99300 25.77900
C  -0.96100 36.69600 25.48400
C  0.47300 39.27200 27.96400
C  0.34400 38.89300 24.68900
O  0.28600 38.60900 23.43900
C  1.03300 40.07700 24.98600
N  -2.43000 34.10100 24.64500
C  -1.91700 34.96100 23.82400
C  -2.05500 34.40400 22.35300
C  -2.58800 33.00000 22.48700
C  -2.94400 33.00200 24.00000
C  -2.90200 35.20100 21.37900
C  -1.48700 31.94100 22.10600
C  -0.34000 31.91500 23.06300
N  -3.21700 32.54800 27.02600
C  -3.70300 31.67600 26.05500
C  -4.45700 30.58600 26.71700
C  -4.40500 30.87600 28.09600
C  -3.52700 32.03000 28.18800
C  -5.26900 29.57400 26.08700
C  -4.81600 30.53100 29.37400
O  -5.57800 29.60000 29.69600
C  -4.22500 31.54400 30.29000
C  -5.26300 32.27500 31.08100
O  -6.02300 33.12200 30.66900
O  -5.21000 31.69300 32.34500
C  -6.31900 32.11800 33.22100
H  -0.40600 37.24800 29.75000
H  -0.94500 36.71700 23.33900
H  -4.08000 31.15200 23.99000
H  -3.21800 34.46100 31.87900
H  -0.41400 34.98900 31.46900
H  -1.71600 37.49000 31.45000
H  -0.96900 36.56700 32.88500
H  -2.65000 36.52600 32.50900
H  -0.66600 33.03000 32.49700
H  -1.63700 31.98500 31.55800
H  -2.70700 31.38400 33.50600
H  -3.26700 33.07300 33.54000
H  0.16500 40.25300 27.60200
H  1.55200 39.25400 27.81500
H  0.34800 39.26500 29.04700
H  1.79300 40.20000 25.75800
H  0.40300 40.96600 24.96700
H  1.56000 40.43500 24.10200
H  -1.03600 34.50500 21.97900
H  -3.39400 32.74300 21.79900
H  -3.52500 35.85500 21.99000
H  -3.50600 34.63600 20.66900
H  -2.31700 35.92700 20.81600
H  -1.06200 32.16500 21.12700
H  -1.91500 30.94000 22.15100
H  -0.51200 31.43500 24.02600
H  0.00500 32.90800 23.35100
H  0.47300 31.34500 22.61300
H  -4.84400 29.20400 25.15400
H  -6.32500 29.82800 25.99400
H  -5.17700 28.74100 26.78300
H  -3.44000 31.09500 30.89900
H  -5.92900 32.56200 34.13600
H  -6.81800 31.18600 33.48900
H  -6.93700 32.91100 32.80100

