158

Mg -1.70800 16.96500 26.28600
C  -2.23200 15.01800 29.08000
C  -1.95700 19.76100 28.16200
C  -1.87400 18.78500 23.31200
C  -1.89700 14.07300 24.23500
N  -2.21000 17.26700 28.35200
C  -2.34900 16.36100 29.33300
C  -2.70800 17.05200 30.74200
C  -2.50400 18.61600 30.36500
C  -2.16000 18.53100 28.85700
C  -3.71600 19.54400 30.69300
C  -1.75300 16.50700 31.87200
C  -1.49400 17.39100 33.11600
H  -1.25500 16.58100 34.42500
N  -1.73500 18.97600 25.80300
C  -1.97800 19.98500 26.70000
C  -2.18600 21.24600 25.99600
C  -2.19000 20.95300 24.60100
C  -1.86300 19.54500 24.51700
C  -2.41900 22.55800 26.66400
C  -2.54600 21.87600 23.47900
O  -2.52800 21.53200 22.30500
C  -3.17900 23.18300 23.75700
N  -1.75000 16.43600 24.02700
C  -1.85100 17.42500 23.05200
C  -1.84300 16.75700 21.64900
C  -1.69900 15.21600 21.90100
C  -1.81600 15.17800 23.44800
C  -3.02300 17.21600 20.74000
C  -0.53500 14.36700 21.28800
C  0.89800 14.74000 21.79700
N  -1.99300 15.00200 26.53600
C  -2.03200 14.00400 25.63600
C  -2.07100 12.74800 26.36600
C  -2.15000 13.06900 27.68600
C  -2.10700 14.49700 27.77100
C  -2.06700 11.34300 25.80000
C  -2.19600 12.52900 28.99900
O  -2.20800 11.36200 29.37600
C  -2.32000 13.76600 30.02900
C  -1.25100 13.56800 31.01300
O  -0.05000 13.70300 30.81100
O  -1.77000 13.02300 32.15600
C  -0.79600 12.73100 33.13300
H  -1.96800 20.62700 28.82700
H  -1.94300 19.34200 22.37600
H  -1.86800 13.17300 23.61800
H  -3.75500 16.86500 30.97900
H  -1.58600 19.02800 30.78500
H  -3.26600 20.38600 31.21900
H  -4.37500 19.08500 31.43100
H  -4.30800 19.88000 29.84200
H  -0.83600 16.23700 31.34700
H  -2.18900 15.61200 32.31600
H  -2.31500 18.08100 33.30900
H  -0.61100 18.00200 32.92300
H  -1.53300 23.17300 26.50600
H  -2.60000 22.37700 27.72400
H  -3.32100 23.06700 26.32400
H  -4.11500 22.99900 24.28500
H  -3.30300 23.65900 22.78500
H  -2.58900 23.86900 24.36500
H  -0.85300 16.92300 21.22500
H  -2.55400 14.69800 21.46800
H  -3.52100 17.84000 21.48200
H  -3.73000 16.45700 20.40400
H  -2.76400 17.89100 19.92500
H  -0.54100 14.81600 20.29400
H  -0.72300 13.29300 21.28500
H  1.52200 15.22600 21.04700
H  1.39000 13.93000 22.33500
H  0.95000 15.51600 22.56100
H  -1.61900 10.74700 26.59500
H  -1.56500 11.31100 24.83300
H  -3.09600 11.03600 25.61600
H  -3.21000 13.82600 30.65500
H  -0.33000 13.68700 33.37400
H  -0.00700 12.06400 32.78400
H  -1.19300 12.28300 34.04400
Mg 41.77600 41.45900 26.18800
C  40.92800 43.72300 28.73000
C  42.71700 39.13500 28.65800
C  43.06800 39.59700 23.73500
C  41.08800 43.98200 23.75300
N  41.89100 41.48300 28.44700
C  41.36000 42.45600 29.25000
C  41.56600 42.05900 30.77400
C  42.18300 40.59900 30.71500
C  42.30100 40.36300 29.19300
C  43.43300 40.21700 31.68400
C  40.22700 42.02000 31.48300
C  40.17800 41.48700 32.92400
H  40.38000 42.38700 34.14000
N  42.60700 39.62500 26.14700
C  42.97700 38.81100 27.26800
C  43.41200 37.48800 26.74100
C  43.68200 37.70700 25.33500
C  43.11400 39.01700 24.98500
C  43.52200 36.23200 27.53900
C  44.21700 36.75800 24.36400
O  44.69500 37.12200 23.27900
C  44.53600 35.31200 24.68800
N  41.98100 41.66900 24.01500
C  42.48300 40.72800 23.20700
C  42.40600 41.09700 21.75200
C  41.56600 42.40100 21.78200
C  41.48300 42.66500 23.25900
C  43.74000 41.34200 21.05500
C  40.20100 42.18600 21.16400
C  39.23800 41.21900 21.95800
N  41.22000 43.42200 26.14400
C  41.03900 44.34300 25.11600
C  40.64800 45.62600 25.66900
C  40.53000 45.42100 27.04000
C  40.92100 44.06400 27.31000
C  40.56100 46.89400 24.92100
C  40.26000 46.03100 28.32900
O  39.98200 47.17600 28.56700
C  40.43100 44.97600 29.41600
C  41.44600 45.43800 30.34600
O  42.63400 45.49700 30.05800
O  41.01500 45.68800 31.67400
C  42.01000 46.22900 32.56200
H  43.02500 38.40200 29.40700
H  43.38000 38.92600 22.93200
H  40.71200 44.77400 23.10200
H  42.26800 42.77500 31.20200
H  41.37800 39.92900 31.01700
H  43.13200 39.86200 32.66900
H  44.21400 40.97700 31.64900
H  43.93400 39.33900 31.27600
H  39.42500 41.43400 31.03300
H  39.86900 42.99600 31.81000
H  40.88200 40.65700 32.96900
H  39.17800 41.12100 33.15600
H  43.24000 36.51300 28.55400
H  44.55200 35.88100 27.60700
H  42.90800 35.44000 27.11300
H  45.42500 35.33100 25.31800
H  44.76200 34.71100 23.80700
H  43.74200 34.83900 25.26700
H  41.80900 40.35900 21.21700
H  42.06200 43.21400 21.25200
H  43.95800 40.32000 20.74400
H  44.35500 41.64900 21.90100
H  43.58500 41.83700 20.09600
H  40.41800 41.71600 20.20500
H  39.77000 43.16600 20.95900
H  38.47000 41.79000 22.47900
H  39.74800 40.60600 22.70200
H  38.79800 40.58000 21.19200
H  40.87200 47.76700 25.49400
H  39.52600 47.03200 24.60800
H  41.29100 46.81500 24.11500
H  39.52800 44.70300 29.96300
H  41.51600 47.02300 33.12200
H  42.91000 46.59500 32.06900
H  42.33600 45.50000 33.30400

