158

Mg 48.20800 34.92400 26.43400
C  46.16700 34.21100 29.14500
C  48.93800 38.00300 27.95900
C  49.65000 35.95900 23.67500
C  46.98800 32.04000 24.82500
N  47.51900 36.01500 28.32400
C  46.80300 35.42800 29.33800
C  46.84600 36.35700 30.58400
C  47.33000 37.80200 30.00200
C  47.96500 37.27700 28.66000
C  46.27000 38.90500 29.92300
C  47.51800 35.64600 31.79900
C  48.23700 36.56000 32.79600
H  47.51600 37.54100 33.70700
N  49.37300 36.58600 25.94800
C  49.56500 37.74400 26.69600
C  50.60700 38.57400 25.98900
C  50.71500 38.04500 24.73600
C  49.84200 36.79100 24.75600
C  51.10100 39.83300 26.56600
C  51.54500 38.46400 23.55200
O  51.62100 37.85000 22.50900
C  52.35200 39.74400 23.59200
N  48.24600 34.08500 24.55700
C  48.89700 34.79800 23.54400
C  48.83000 33.98200 22.23100
C  48.29600 32.58300 22.65100
C  47.79200 32.84400 24.08800
C  48.07500 34.69800 21.14200
C  49.35900 31.43400 22.59800
C  49.03700 30.30400 21.58500
N  46.80900 33.46100 26.81600
C  46.53300 32.30300 26.11500
C  45.63200 31.48700 26.91600
C  45.40700 32.21700 28.11800
C  46.22600 33.33900 28.02600
C  45.02500 30.14500 26.57800
C  44.69200 32.39000 29.36900
O  43.80800 31.71200 29.84900
C  45.26100 33.49200 30.14300
C  46.01600 32.92700 31.28200
O  47.23000 32.61500 31.10600
O  45.29500 32.81200 32.41800
C  46.01400 32.13800 33.52000
H  49.28500 38.95300 28.37100
H  50.11000 36.27000 22.73500
H  46.66900 31.11500 24.33900
H  45.81200 36.51000 30.89200
H  48.07800 38.18400 30.69700
H  45.82900 38.83800 28.92900
H  46.58000 39.92600 30.14500
H  45.44300 38.63200 30.57800
H  48.28200 34.96600 31.42100
H  46.78900 35.08500 32.38300
H  49.13100 37.11800 32.52000
H  48.73600 35.80800 33.40700
H  52.18900 39.86800 26.51200
H  50.78800 39.90700 27.60800
H  50.64400 40.59000 25.92800
H  51.82300 40.65800 23.86200
H  52.69800 39.90200 22.57100
H  53.18900 39.64000 24.28300
H  49.83000 33.83500 21.82500
H  47.45500 32.25600 22.03900
H  48.76700 34.54600 20.31400
H  48.10500 35.77500 21.30200
H  47.05500 34.32300 21.06600
H  49.43700 30.99400 23.59200
H  50.34300 31.79700 22.30000
H  49.74300 30.19900 20.76000
H  48.07600 30.46100 21.09600
H  49.14700 29.39000 22.16800
H  44.58600 30.14600 25.58100
H  44.15300 29.97100 27.20800
H  45.77700 29.37400 26.74900
H  44.46600 34.12600 30.53500
H  46.65100 31.36100 33.09900
H  45.37500 31.84400 34.35200
H  46.67800 32.94900 33.81900
Mg -1.62200 34.95100 26.90600
C  -3.65000 33.06700 29.04400
C  -0.71500 36.99300 29.50200
C  -0.16300 37.05100 24.63000
C  -3.05100 33.29200 24.16200
N  -2.20300 35.10700 28.97700
C  -2.97800 34.12800 29.67600
C  -2.85300 34.42200 31.19800
C  -2.13700 35.86100 31.20000
C  -1.74600 36.06400 29.78500
C  -2.90700 37.06300 31.86000
C  -2.22400 33.30100 32.07600
C  -3.03300 32.48800 33.10000
H  -2.45400 32.42600 34.56000
N  -0.45500 36.75100 27.08900
C  -0.15800 37.32300 28.27300
C  0.71700 38.42600 27.99800
C  0.87000 38.49800 26.56100
C  0.07300 37.41600 25.99100
C  1.35500 39.27000 29.03900
C  1.73500 39.46800 25.74100
O  1.82500 39.45800 24.53400
C  2.39900 40.58800 26.48200
N  -1.49800 35.05500 24.66000
C  -0.89300 36.10800 23.96400
C  -1.20900 36.09800 22.49400
C  -2.01500 34.78100 22.35100
C  -2.18000 34.32300 23.82600
C  -1.94900 37.39400 22.08200
C  -1.41900 33.69000 21.42100
C  -0.48800 32.64200 21.97000
N  -2.91200 33.45400 26.60000
C  -3.50000 32.90800 25.43200
C  -4.43600 31.82400 25.77100
C  -4.53000 31.87000 27.21900
C  -3.58900 32.86800 27.66100
C  -5.09900 30.86100 24.82900
C  -5.20700 31.31800 28.36200
O  -6.16100 30.51600 28.36800
C  -4.51100 31.89800 29.55800
C  -5.67700 32.32200 30.44700
O  -6.20800 33.44500 30.50500
O  -5.97100 31.18700 31.19100
C  -6.97700 31.36200 32.21500
H  -0.31200 37.52800 30.36500
H  0.24300 37.77800 23.92400
H  -3.59800 32.66800 23.45200
H  -3.84500 34.59600 31.61300
H  -1.14600 35.74200 31.63800
H  -2.22300 37.66700 32.45700
H  -3.76700 36.74300 32.44900
H  -3.29600 37.70900 31.07200
H  -1.29300 33.60900 32.55100
H  -1.85200 32.58900 31.33900
H  -3.19400 31.45000 32.80900
H  -3.98200 33.02400 33.07800
H  1.36500 38.68300 29.95700
H  1.00200 40.30000 29.09200
H  2.41400 39.37000 28.80300
H  1.78900 41.16100 27.18100
H  2.74400 41.27000 25.70500
H  3.31700 40.19100 26.91500
H  -0.32000 36.19800 21.87100
H  -3.03100 34.84900 21.96000
H  -1.69400 38.21600 22.75100
H  -3.02700 37.41700 22.24000
H  -1.77500 37.71600 21.05500
H  -1.10100 34.13200 20.47700
H  -2.28200 33.14500 21.03900
H  -1.00800 31.70000 22.14300
H  -0.15200 32.96500 22.95600
H  0.40500 32.42300 21.38500
H  -5.40800 29.97500 25.38500
H  -4.37500 30.61400 24.05300
H  -5.95700 31.32100 24.33900
H  -4.03600 31.06900 30.08300
H  -6.66800 31.89000 33.11600
H  -7.42400 30.45500 32.62400
H  -7.77800 32.01700 31.87300

