158

Mg 54.71800 24.36900 44.64300
C  52.07600 26.36900 43.39200
C  52.83500 21.49700 44.04500
C  57.52900 22.53000 45.07000
C  56.52000 27.30500 45.32100
N  52.63500 24.02500 44.00400
C  51.78700 24.94800 43.36900
C  50.54400 24.22900 42.88700
C  50.67600 22.76400 43.47500
C  52.15500 22.70500 43.92300
C  49.67000 22.15900 44.56000
C  50.32200 24.33100 41.35500
C  48.89900 23.97400 40.93300
H  48.84200 22.79500 40.01700
N  55.24500 22.27700 44.52300
C  54.28700 21.30600 44.34500
C  54.96000 20.03000 44.35500
C  56.31400 20.27500 44.70400
C  56.42100 21.75000 44.75100
C  54.26200 18.69800 43.91200
C  57.31300 19.19900 44.95700
O  56.97200 17.99800 44.97700
C  58.70100 19.55200 45.40500
N  56.80000 24.89300 44.87700
C  57.71100 23.89800 45.14600
C  59.04100 24.47600 45.76000
C  58.69200 26.03900 45.78200
C  57.22800 26.11500 45.26700
C  59.43400 24.00400 47.16300
C  59.61300 26.83000 44.88000
C  59.94700 28.26400 45.39200
N  54.41800 26.47100 44.40900
C  55.22800 27.57300 44.76800
C  54.44500 28.76400 44.63000
C  53.24600 28.34200 44.08600
C  53.27600 26.91200 43.89700
C  54.98500 30.13600 44.94100
C  52.00400 28.78700 43.56100
O  51.56400 29.88000 43.34600
C  51.24700 27.55800 42.92200
C  51.28900 27.70200 41.40200
O  52.25800 27.57300 40.67700
O  49.99700 27.92000 41.06500
C  49.75100 28.00200 39.64800
H  52.25100 20.57500 44.01400
H  58.45500 22.06300 45.41200
H  57.07000 28.22700 45.52400
H  49.78700 24.71800 43.50000
H  50.61400 22.09500 42.61600
H  49.07800 23.00900 44.89700
H  50.23900 21.70800 45.37300
H  49.05400 21.41700 44.05000
H  51.00800 23.65900 40.83800
H  50.49900 25.31600 40.92400
H  48.31600 24.81400 40.55600
H  48.38800 23.68900 41.85200
H  54.04800 18.09600 44.79500
H  54.93000 18.01700 43.38500
H  53.38300 18.97900 43.33100
H  59.19900 20.04100 44.56900
H  59.24400 18.63500 45.63400
H  58.59900 20.13700 46.31900
H  59.84300 24.32400 45.03700
H  58.86300 26.47600 46.76600
H  59.11100 22.98000 47.34900
H  59.04800 24.62300 47.97300
H  60.51400 23.86200 47.13000
H  59.14400 27.07600 43.92700
H  60.59900 26.37600 44.77900
H  60.76600 28.14800 46.10300
H  59.18900 28.90600 45.84000
H  60.31400 28.85800 44.55400
H  54.76200 30.39900 45.97500
H  54.53100 30.95700 44.38600
H  56.07500 30.13600 44.94900
H  50.29400 27.29700 43.38300
H  49.64500 27.02900 39.16900
H  50.61200 28.47400 39.17300
H  48.86200 28.58400 39.40700
Mg 41.61500 40.97200 27.03900
C  40.76500 43.22000 29.46100
C  42.12200 38.53000 29.34600
C  42.24100 38.72200 24.54000
C  41.19200 43.37400 24.61700
N  41.48800 40.89900 29.09000
C  41.09200 41.96100 29.90300
C  41.13000 41.57900 31.39100
C  41.58300 40.08900 31.35500
C  41.75700 39.82500 29.82000
C  42.97900 39.70800 32.11900
C  39.75300 41.84200 32.08800
C  39.63900 42.88700 33.27300
H  39.06800 42.40900 34.63100
N  42.15800 38.94500 26.95300
C  42.37400 38.08500 28.00200
C  42.74400 36.73600 27.56100
C  42.71500 36.75800 26.17800
C  42.31900 38.17900 25.79500
C  43.19800 35.60100 28.53000
C  43.06600 35.70800 25.18200
O  42.93500 35.88400 23.96400
C  43.61200 34.37500 25.65900
N  41.84400 41.08500 24.89600
C  42.07100 40.07500 24.11500
C  42.17700 40.48700 22.59100
C  41.75600 41.97300 22.70600
C  41.55200 42.13300 24.16700
C  43.59700 40.36100 21.90700
C  40.44200 42.21600 21.88900
C  39.01700 41.94900 22.54200
N  41.06800 42.98200 26.99700
C  40.96000 43.85700 25.92700
C  40.58800 45.16200 26.38400
C  40.44700 44.96700 27.79900
C  40.78800 43.64600 28.08700
C  40.44000 46.36100 25.60700
C  40.18400 45.57000 29.05700
O  39.88300 46.78200 29.29900
C  40.40800 44.50500 30.15400
C  41.38400 44.96800 31.10700
O  42.57100 44.65100 31.10100
O  40.72500 45.84400 31.98000
C  41.49500 46.26200 33.13800
H  42.21400 37.70800 30.05800
H  42.24600 38.06500 23.66800
H  41.10000 44.16600 23.87000
H  41.94800 42.13000 31.85400
H  40.76300 39.45800 31.69800
H  42.72900 38.82300 32.70400
H  43.27000 40.50200 32.80600
H  43.82200 39.34400 31.53300
H  39.32700 40.91500 32.47400
H  38.95100 42.03100 31.37500
H  39.09800 43.70300 32.79300
H  40.65500 43.27600 33.34900
H  44.28500 35.66300 28.57900
H  42.80600 34.64000 28.19700
H  42.71000 35.62600 29.50400
H  42.80700 33.72100 25.99300
H  44.41300 34.46200 26.39300
H  43.99500 33.85900 24.77800
H  41.44500 39.86200 22.08000
H  42.50100 42.67500 22.33300
H  44.36100 39.89900 22.53200
H  43.96900 41.33900 21.60200
H  43.46400 39.70400 21.04700
H  40.55200 41.59700 20.99900
H  40.40100 43.27500 21.63400
H  38.33600 41.51700 21.80800
H  38.64600 42.89100 22.94600
H  39.22600 41.14500 23.24800
H  39.43200 46.77000 25.68200
H  40.90400 46.32400 24.62200
H  41.15100 47.06800 26.03500
H  39.46400 44.41300 30.69100
H  42.46900 46.69300 32.90400
H  41.54100 45.40900 33.81600
H  40.94400 47.05200 33.64700

