158

Mg 24.31400 -5.54800 46.54300
C  26.37500 -3.08600 45.17200
C  21.60100 -4.09000 44.89900
C  22.47700 -8.43000 47.20900
C  26.85800 -6.80700 48.36500
N  24.03000 -3.72100 45.24500
C  25.06700 -2.93200 44.74800
C  24.52600 -1.99800 43.67300
C  22.95100 -1.94100 44.02900
C  22.80700 -3.33500 44.81100
C  22.57300 -0.61700 44.82200
C  24.98700 -2.38100 42.17800
C  25.71500 -1.36400 41.27800
H  25.26300 -1.41000 39.80600
N  22.38300 -6.24400 46.01400
C  21.42100 -5.41000 45.44200
C  20.16300 -6.17700 45.47500
C  20.36900 -7.41800 46.10000
C  21.80900 -7.41400 46.50500
C  18.86700 -5.57000 44.91600
C  19.40000 -8.47700 46.29700
O  18.22400 -8.26700 45.90900
C  19.65400 -9.79600 46.90500
N  24.57800 -7.36800 47.62100
C  23.74700 -8.44100 47.67800
C  24.34200 -9.61800 48.59000
C  25.69600 -8.92500 49.05800
C  25.71000 -7.61600 48.33600
C  23.58100 -10.24600 49.76800
C  27.03100 -9.77000 48.89400
C  27.95500 -9.87800 50.12100
N  26.20200 -5.15500 46.70900
C  27.09800 -5.65400 47.61800
C  28.35100 -4.84600 47.58000
C  28.10400 -3.93700 46.47700
C  26.80500 -4.10000 46.10100
C  29.54000 -4.94800 48.39600
C  28.72900 -2.86000 45.71400
O  29.84900 -2.43100 45.87100
C  27.60400 -2.34600 44.71500
C  27.59800 -0.85600 44.91400
O  27.58500 -0.36100 45.97900
O  27.52200 -0.14800 43.75700
C  27.68100 1.26700 43.98400
H  20.80800 -3.46600 44.48200
H  21.98100 -9.33500 47.56400
H  27.64200 -7.16800 49.03300
H  24.96600 -1.00700 43.78700
H  22.39700 -1.89000 43.09200
H  22.09600 0.06200 44.11500
H  23.42000 -0.20800 45.37300
H  21.92900 -1.00500 45.61100
H  24.06600 -2.64400 41.65800
H  25.50500 -3.34000 42.15700
H  26.75600 -1.68400 41.23400
H  25.73400 -0.40200 41.79100
H  18.37400 -4.97400 45.68400
H  18.11400 -6.30600 44.63400
H  19.05800 -4.98700 44.01600
H  18.75300 -10.40400 46.82600
H  19.95800 -9.69700 47.94700
H  20.33100 -10.42300 46.32600
H  24.64500 -10.46000 47.96700
H  25.70500 -8.70100 50.12500
H  22.66300 -9.75200 50.08600
H  24.22700 -10.35400 50.63900
H  23.24200 -11.25300 49.52400
H  27.62200 -9.30800 48.10300
H  26.67600 -10.75500 48.59300
H  28.91700 -9.44600 49.84700
H  27.98200 -10.91500 50.45700
H  27.69600 -9.22800 50.95700
H  29.73300 -3.95500 48.80000
H  30.33800 -5.26200 47.72300
H  29.38900 -5.71700 49.15400
H  27.82500 -2.52300 43.66200
H  27.63800 1.67300 42.97300
H  28.65000 1.53500 44.40400
H  26.92500 1.77200 44.58600
Mg 53.43100 24.33500 43.95000
C  50.73500 26.70000 43.83600
C  51.20700 21.85100 43.40200
C  56.02000 22.22700 43.36500
C  55.64900 26.92900 44.33200
N  51.24800 24.33400 43.65100
C  50.35800 25.31700 43.66000
C  49.00000 24.79200 43.45200
C  49.14400 23.29800 43.84300
C  50.63300 23.08900 43.62900
C  48.69200 22.95800 45.23500
C  48.45000 25.01500 42.01700
C  49.22500 24.63600 40.75600
H  49.61500 25.69700 39.72300
N  53.58400 22.33000 43.50900
C  52.55200 21.49700 43.20600
C  53.06100 20.13500 42.92000
C  54.40700 20.23500 42.95200
C  54.76200 21.64500 43.32200
C  52.18500 18.92200 42.71700
C  55.47200 19.10200 42.69400
O  55.15400 18.00700 42.23900
C  57.02300 19.26200 42.94500
N  55.58400 24.62700 43.66100
C  56.41600 23.57800 43.54400
C  57.86500 23.98100 43.41800
C  57.77300 25.50700 43.85300
C  56.28100 25.71900 44.00200
C  59.04200 23.16500 44.07500
C  58.46700 26.40000 42.82000
C  57.69500 26.80700 41.51900
N  53.27000 26.41700 43.93100
C  54.20500 27.34000 44.32500
C  53.62500 28.66000 44.57700
C  52.25200 28.40800 44.26800
C  52.07800 27.05800 43.88400
C  54.28000 29.93800 45.09200
C  51.03000 29.14700 44.28100
O  50.76400 30.32600 44.46600
C  49.90700 28.02500 43.94900
C  49.32100 28.46400 42.61500
O  49.92200 28.70800 41.60900
O  47.97800 28.33700 42.63800
C  47.33600 28.88500 41.39900
H  50.65100 20.91500 43.32600
H  56.87400 21.62500 43.04900
H  56.23700 27.82300 44.55000
H  48.39400 25.41100 44.11400
H  48.55200 22.66400 43.18400
H  48.39400 23.81000 45.84500
H  49.48300 22.64900 45.91900
H  47.88000 22.23200 45.22800
H  48.28700 26.09000 41.94100
H  47.50100 24.47800 42.01200
H  48.72800 23.85700 40.17700
H  50.15600 24.12200 40.99300
H  52.73300 17.99800 42.53200
H  51.42300 19.10600 41.96000
H  51.63600 18.82600 43.65400
H  57.36600 19.92400 42.15000
H  57.31400 18.21200 42.92200
H  57.05400 19.66100 43.95900
H  58.07000 23.87000 42.35300
H  58.31200 25.71800 44.77600
H  59.79100 22.93400 43.31600
H  58.72000 22.32700 44.69200
H  59.53300 23.89900 44.71400
H  59.23800 25.71400 42.46800
H  59.02900 27.23300 43.24000
H  56.62200 26.78100 41.70700
H  57.76100 26.07000 40.71800
H  58.12300 27.73600 41.14100
H  54.06200 30.70500 44.34900
H  55.36500 29.97800 45.18700
H  53.73200 30.23800 45.98500
H  49.06700 28.02200 44.64400
H  47.55200 29.94700 41.28100
H  46.27800 28.64600 41.29300
H  47.73400 28.39800 40.50900

