158

Mg 41.56600 7.87900 30.02100
C  43.18700 9.52700 32.57400
C  39.25600 6.75500 32.22200
C  40.25300 6.33300 27.44200
C  44.45800 8.61000 28.01400
N  41.40000 8.05100 32.17000
C  42.12300 8.81400 33.02000
C  41.49600 8.78000 34.43700
C  40.27100 7.85400 34.26100
C  40.31600 7.48100 32.82900
C  40.34200 6.66400 35.18600
C  41.30000 10.09900 35.08300
C  40.28000 10.11900 36.27200
H  40.64200 11.15600 37.33700
N  39.89600 6.74700 29.85800
C  39.07800 6.33700 30.85800
C  37.99600 5.56500 30.28100
C  38.23600 5.54000 28.88800
C  39.52000 6.20900 28.64300
C  37.00000 4.75200 31.07600
C  37.35900 4.89400 27.78700
O  37.56100 4.94900 26.57900
C  36.12000 4.16900 28.17300
N  42.33100 7.39700 27.95000
C  41.49100 6.87300 27.10200
C  42.05700 6.83600 25.69500
C  43.44900 7.67600 25.83700
C  43.45200 7.90900 27.34300
C  42.15700 5.40200 25.05500
C  43.62800 8.96700 24.97800
C  42.72900 10.18000 25.43700
N  43.38600 8.90300 30.16100
C  44.48800 9.08500 29.32000
C  45.52300 9.93700 29.97100
C  44.91000 10.21500 31.18400
C  43.75200 9.49900 31.29100
C  46.75400 10.52400 29.31100
C  45.14300 10.92000 32.42500
O  46.16900 11.59100 32.70600
C  43.95800 10.48400 33.44400
C  44.64200 9.71400 34.52600
O  45.02300 8.51300 34.46100
O  44.74800 10.60200 35.56300
C  45.28600 9.95500 36.79300
H  38.37700 6.57400 32.84500
H  39.67300 5.91400 26.61700
H  45.26800 8.99500 27.39200
H  42.14800 8.22900 35.11600
H  39.40000 8.49100 34.40900
H  40.27100 5.77300 34.56300
H  39.46000 6.65400 35.82600
H  41.17600 6.52200 35.87400
H  41.10300 10.82600 34.29600
H  42.25700 10.46000 35.46100
H  40.16900 9.16100 36.78000
H  39.24500 10.31700 35.99200
H  36.00000 5.12800 30.85800
H  37.09900 5.09800 32.10500
H  36.95900 3.66900 30.95800
H  35.29400 4.08200 27.46700
H  35.61100 4.76300 28.93300
H  36.51100 3.19900 28.47800
H  41.38500 7.42300 25.06900
H  44.29700 7.00900 25.68900
H  41.50200 4.69900 25.57000
H  43.16700 4.99800 24.97800
H  41.73800 5.51600 24.05500
H  43.27900 8.65900 23.99300
H  44.62200 9.33300 24.72100
H  41.89600 10.17100 26.14000
H  42.36300 10.82300 24.63700
H  43.47600 10.82300 25.90500
H  47.48100 10.68700 30.10600
H  46.61000 11.43300 28.72700
H  47.18200 9.71200 28.72400
H  43.45300 11.36500 33.84100
H  46.32700 9.70600 36.58800
H  44.80700 9.00000 37.00700
H  45.30100 10.53900 37.71300
Mg 0.46300 43.73700 26.28300
C  2.34100 43.13200 29.16600
C  -2.36700 42.73500 28.14300
C  -1.32500 43.58500 23.38300
C  3.30200 44.27300 24.50400
N  0.05000 43.10100 28.44900
C  0.98000 43.00700 29.43500
C  0.36200 42.72500 30.76800
C  -1.11600 42.32000 30.37700
C  -1.13900 42.75500 28.92500
C  -1.28000 40.79800 30.57100
C  0.44000 44.11400 31.59400
C  0.46300 43.97600 33.13200
H  0.31300 42.55600 33.62400
N  -1.62400 43.37700 25.79700
C  -2.58700 43.04900 26.75200
C  -3.88000 42.99100 26.12100
C  -3.60700 43.20200 24.71900
C  -2.12600 43.44300 24.56000
C  -5.30100 42.70500 26.75300
C  -4.55500 43.17200 23.47900
O  -4.07000 43.33600 22.35000
C  -6.02400 43.14300 23.57900
N  0.87100 43.91400 24.29500
C  0.02600 43.71800 23.23900
C  0.71200 43.73600 21.84500
C  2.13200 44.24400 22.33100
C  2.11600 44.17000 23.83600
C  0.74400 42.28100 21.14700
C  2.46600 45.57500 21.62300
C  2.22600 46.91600 22.49600
N  2.41100 43.63000 26.68000
C  3.41200 43.86900 25.87800
C  4.68500 43.73400 26.60100
C  4.26900 43.38500 27.93900
C  2.87000 43.43800 27.96100
C  6.06800 43.85400 26.15700
C  4.80100 43.01500 29.19600
O  5.97200 42.73600 29.56400
C  3.56300 42.97100 30.09100
C  3.63500 41.70200 30.93300
O  3.04300 40.65100 30.66700
O  4.34200 42.04400 32.04800
C  4.49800 40.86900 33.04600
H  -3.31400 42.51000 28.63700
H  -1.83200 43.57600 22.41600
H  4.21600 44.54600 23.97300
H  0.91100 41.87200 31.16700
H  -1.87100 42.93900 30.86200
H  -1.84100 40.43100 29.71100
H  -2.01100 40.68800 31.37200
H  -0.37900 40.20500 30.72700
H  -0.43100 44.74700 31.42900
H  1.29200 44.72700 31.29800
H  -0.23800 44.61700 33.66700
H  1.48600 44.24400 33.39800
H  -6.07900 43.43500 26.53200
H  -5.26900 42.61200 27.83900
H  -5.49800 41.71400 26.34400
H  -6.42300 44.11500 23.87100
H  -6.30300 42.49600 24.41000
H  -6.37100 42.83500 22.59200
H  0.02900 44.35100 21.25800
H  2.88700 43.52300 22.01700
H  0.14500 41.58200 21.73200
H  1.74400 41.84800 21.19300
H  0.47000 42.36900 20.09600
H  1.91000 45.81300 20.71600
H  3.48900 45.61400 21.25000
H  1.28100 46.94300 23.03800
H  2.30700 47.85100 21.94100
H  2.98200 46.96600 23.28000
H  6.05900 44.29800 25.16200
H  6.63000 42.92300 26.08700
H  6.48700 44.51100 26.91900
H  3.64700 43.92800 30.60600
H  4.50600 39.85400 32.64800
H  3.66600 40.89500 33.74900
H  5.43500 40.93500 33.59800

