158

Mg 24.33200 -4.79200 45.89500
C  26.64700 -2.72500 44.20800
C  22.01200 -4.00900 43.69900
C  22.74200 -7.61800 46.77500
C  27.19300 -6.13000 47.72100
N  24.37200 -3.36400 44.28700
C  25.34100 -2.67600 43.65700
C  24.89300 -2.02800 42.36600
C  23.35400 -2.29700 42.44700
C  23.21500 -3.25100 43.57800
C  22.45900 -1.05600 42.54100
C  25.67800 -2.62400 41.16000
C  26.16300 -1.72300 40.05800
H  25.34300 -1.76900 38.72400
N  22.50300 -5.55400 45.40300
C  21.70100 -5.08100 44.49800
C  20.50200 -5.90400 44.33300
C  20.70800 -7.01300 45.16100
C  22.04700 -6.78700 45.83300
C  19.44100 -5.68500 43.41800
C  19.78900 -8.19200 45.33000
O  18.69700 -8.21000 44.74700
C  19.98500 -9.38700 46.25200
N  24.95200 -6.67200 46.99400
C  24.04700 -7.62100 47.27600
C  24.58500 -8.81700 48.13400
C  25.96500 -8.26200 48.41600
C  26.06400 -6.95700 47.63100
C  23.71300 -9.20500 49.41000
C  27.05800 -9.30700 47.95300
C  28.04100 -9.84300 49.10200
N  26.38300 -4.39500 46.11900
C  27.37300 -4.92400 46.98000
C  28.61400 -4.19000 46.77400
C  28.37800 -3.43800 45.66000
C  27.06400 -3.57800 45.27400
C  29.90100 -4.46100 47.46400
C  29.03900 -2.62700 44.67600
O  30.23800 -2.29700 44.51500
C  27.91200 -2.15900 43.64300
C  27.88900 -0.68800 43.68400
O  27.28700 -0.01100 44.49800
O  28.45600 -0.15000 42.58100
C  28.65600 1.30200 42.65200
H  21.27100 -3.65900 42.97800
H  22.28300 -8.53900 47.14100
H  27.94700 -6.56100 48.38300
H  24.98400 -0.94400 42.42600
H  22.99700 -2.81000 41.55400
H  22.91600 -0.11500 42.23500
H  22.05100 -1.05000 43.55200
H  21.65200 -1.22100 41.82700
H  24.94000 -3.27800 40.69600
H  26.50700 -3.24300 41.50200
H  27.16400 -2.06900 39.80100
H  26.18100 -0.70400 40.44400
H  18.99500 -6.56900 42.96200
H  19.89800 -5.18500 42.56400
H  18.70800 -5.00400 43.85000
H  20.14700 -8.99300 47.25500
H  20.94800 -9.83000 45.99600
H  19.28400 -10.22100 46.22800
H  24.52200 -9.67000 47.45900
H  26.19300 -8.05500 49.46100
H  22.77100 -8.66700 49.30300
H  24.16300 -8.91200 50.35900
H  23.63600 -10.28300 49.55100
H  27.75300 -8.78500 47.29600
H  26.74200 -10.21000 47.43200
H  28.09800 -10.92700 49.01100
H  27.66800 -9.61800 50.10100
H  29.00700 -9.34300 49.02500
H  30.67000 -4.75100 46.74700
H  29.83800 -5.21000 48.25300
H  30.29100 -3.57600 47.96700
H  28.11500 -2.60700 42.67100
H  29.34300 1.60500 43.44200
H  27.64500 1.70900 42.65800
H  29.10600 1.66100 41.72700
Mg 40.86700 8.57000 29.98800
C  42.49000 9.87100 32.85300
C  38.28100 7.45100 32.02500
C  39.20000 7.72600 27.27100
C  43.49000 9.81400 28.02400
N  40.47600 8.58700 32.20300
C  41.23300 9.24000 33.09900
C  40.65300 9.08400 34.54700
C  39.23500 8.33800 34.29300
C  39.28300 8.12800 32.75300
C  39.09800 6.91000 34.96400
C  40.58000 10.44600 35.28200
C  39.75200 10.60900 36.54800
H  40.48000 11.66200 37.55600
N  39.14300 7.52300 29.66900
C  38.19500 7.13400 30.63900
C  37.12500 6.43100 29.96800
C  37.27800 6.62900 28.54600
C  38.52900 7.34100 28.45200
C  35.93500 5.90700 30.75000
C  36.43900 6.22400 27.39300
O  36.70600 6.50700 26.25200
C  35.30300 5.33900 27.56300
N  41.28100 8.84500 27.99200
C  40.39900 8.36200 27.03200
C  40.87600 8.68500 25.62800
C  42.23100 9.41400 25.79200
C  42.36200 9.30700 27.36000
C  40.93900 7.48000 24.64600
C  42.23300 10.87100 25.25200
C  43.26400 11.13500 24.27900
N  42.64600 9.57600 30.39300
C  43.64300 10.03000 29.43100
C  44.65700 10.64000 30.11800
C  44.26800 10.65600 31.50400
C  43.00200 10.03000 31.63700
C  45.97600 11.05900 29.52000
C  44.71400 11.00100 32.89300
O  45.76100 11.40700 33.31000
C  43.48300 10.57700 33.78300
C  44.05000 9.63800 34.72000
O  44.10200 8.41600 34.61600
O  44.53200 10.34300 35.80600
C  45.25400 9.52000 36.75400
H  37.41800 7.16100 32.62900
H  38.83400 7.49200 26.26900
H  44.34700 10.17000 27.44800
H  41.31400 8.44400 35.13100
H  38.44600 9.06100 34.50400
H  38.11600 6.59200 35.31400
H  39.89200 6.85500 35.70800
H  39.26200 6.11300 34.23900
H  40.17700 11.16300 34.56700
H  41.56900 10.79500 35.58200
H  39.76700 9.64000 37.04700
H  38.74600 10.89500 36.23900
H  34.98300 6.24800 30.34400
H  36.04100 6.15700 31.80500
H  35.89500 4.81700 30.75600
H  35.64000 4.54900 28.23300
H  35.08300 5.11100 26.52000
H  34.44300 5.90000 27.93000
H  40.08200 9.35500 25.29800
H  42.96900 8.75300 25.33800
H  40.77000 6.53100 25.15400
H  41.90700 7.33400 24.16700
H  40.37300 7.62900 23.72700
H  42.40900 11.48400 26.13600
H  41.23000 10.98400 24.83900
H  44.05100 10.38800 24.17500
H  43.85900 11.95200 24.68800
H  42.86000 11.46100 23.32000
H  46.53000 11.35100 30.41300
H  45.82900 11.94000 28.89600
H  46.39000 10.16600 29.05300
H  43.07200 11.45800 34.27600
H  45.81700 10.18000 37.41300
H  46.07700 9.08200 36.18800
H  44.73900 8.78900 37.37800

