158

Mg 7.04600 2.87500 27.94800
C  8.65500 1.44200 30.88700
C  5.23100 4.78700 30.08800
C  5.50700 4.20300 25.26400
C  8.71300 0.67000 26.04700
N  6.91900 3.00400 30.32000
C  7.77200 2.44600 31.23000
C  7.46100 3.09900 32.60100
C  6.10400 4.01100 32.38200
C  6.14300 3.99900 30.82400
C  4.81200 3.44100 32.85000
C  8.61300 3.99600 33.01900
C  8.42200 4.72700 34.40000
H  9.34900 4.25000 35.47400
N  5.60600 4.28500 27.70000
C  4.91300 4.96300 28.70000
C  3.93400 5.91000 28.17700
C  4.10600 5.85500 26.74600
C  5.11700 4.80900 26.49200
C  3.08900 6.76700 29.10100
C  3.35200 6.65300 25.76400
O  3.61200 6.52100 24.59300
C  2.27700 7.73000 26.11800
N  6.99300 2.46200 25.96700
C  6.39200 3.14800 24.97700
C  6.72800 2.65400 23.54800
C  7.91500 1.66800 23.90000
C  7.82000 1.53300 25.43500
C  5.45200 2.04500 22.88400
C  9.27800 2.21800 23.39000
C  10.06200 3.18800 24.33600
N  8.25600 1.28300 28.35700
C  8.96300 0.54100 27.47700
C  9.82500 -0.34700 28.10400
C  9.72800 -0.09700 29.48700
C  8.82100 0.98800 29.58400
C  10.69100 -1.37300 27.33800
C  10.28100 -0.35900 30.79800
O  11.16200 -1.16500 31.12600
C  9.66000 0.68900 31.75200
C  9.07200 -0.01000 32.86800
O  7.95500 -0.44500 32.87500
O  9.96900 -0.18100 33.90700
C  9.50500 -0.56400 35.27800
H  4.87900 5.50900 30.82800
H  4.92500 4.58500 24.42200
H  9.21900 -0.06700 25.42000
H  7.21800 2.32300 33.32800
H  6.27300 4.99200 32.82600
H  4.57900 4.00600 33.75200
H  4.90500 2.36900 33.03000
H  4.00400 3.67100 32.15600
H  8.70600 4.81800 32.30900
H  9.53800 3.42000 33.05900
H  7.42500 4.43600 34.73000
H  8.52400 5.77700 34.12600
H  3.13800 7.80700 28.77800
H  3.50300 6.73400 30.10900
H  2.04300 6.45800 29.11000
H  1.57400 7.32900 26.84800
H  1.78700 8.08300 25.21100
H  2.79600 8.51900 26.66300
H  7.11800 3.60000 23.17300
H  7.57900 0.71700 23.48600
H  4.52300 2.34900 23.36700
H  5.52200 0.96000 22.95200
H  5.37200 2.27000 21.82000
H  9.03900 2.66000 22.42300
H  9.83600 1.32700 23.10000
H  9.90000 4.19500 23.95300
H  11.13900 3.02000 24.34500
H  9.80900 3.14500 25.39500
H  11.63200 -1.68400 27.79100
H  10.98600 -1.06200 26.33600
H  10.04500 -2.23600 27.17600
H  10.35000 1.48800 32.02200
H  8.58900 -1.15400 35.28700
H  9.21600 0.38300 35.73500
H  10.24200 -1.07100 35.90000
Mg -5.56100 25.62100 26.14600
C  -4.29200 26.96300 29.21100
C  -7.71800 23.76500 28.04200
C  -6.43800 24.07900 23.37200
C  -2.97200 27.38700 24.43000
N  -5.73500 25.24600 28.40400
C  -5.24200 25.97200 29.42200
C  -5.91100 25.57100 30.74600
C  -6.65000 24.27800 30.36000
C  -6.79400 24.46900 28.83800
C  -6.04000 22.89300 30.78700
C  -6.93400 26.70800 31.23400
C  -7.12700 26.91600 32.74300
H  -6.51600 25.76100 33.57600
N  -6.99900 24.25500 25.70900
C  -7.82700 23.67200 26.61700
C  -8.80500 22.80400 25.88400
C  -8.39900 22.90600 24.54000
C  -7.22100 23.77600 24.49700
C  -9.82400 21.87300 26.64700
C  -9.00000 22.12500 23.34600
O  -8.45200 22.10600 22.24300
C  -10.23000 21.26900 23.59600
N  -4.66500 25.48800 24.27100
C  -5.27400 24.78100 23.26500
C  -4.69400 25.16800 21.86500
C  -3.82300 26.37400 22.18100
C  -3.82800 26.46100 23.72400
C  -4.07900 23.99900 21.04200
C  -4.34200 27.74100 21.57500
C  -3.79100 28.14300 20.24200
N  -4.02100 26.86100 26.62800
C  -3.01800 27.50500 25.87700
C  -2.25300 28.36200 26.70100
C  -2.71900 28.21300 27.97200
C  -3.79800 27.26000 27.90400
C  -1.13500 29.15400 26.23900
C  -2.53100 28.64700 29.36100
O  -1.82400 29.55800 29.79100
C  -3.50500 27.75300 30.26600
C  -2.62800 27.02500 31.15100
O  -1.73300 26.27800 30.82100
O  -2.88700 27.32800 32.45600
C  -1.97900 26.77400 33.50900
H  -8.34000 23.07400 28.61400
H  -6.76100 23.73600 22.38700
H  -2.19000 27.94100 23.90500
H  -5.08200 25.22800 31.36600
H  -7.68700 24.28100 30.69600
H  -6.14000 22.06100 30.09000
H  -6.27300 22.55700 31.79800
H  -4.97600 23.10500 30.89400
H  -7.87800 26.61300 30.69700
H  -6.44500 27.57800 30.79600
H  -8.18800 27.00500 32.97700
H  -6.69100 27.88300 32.99200
H  -10.73100 21.80500 26.04600
H  -10.10100 22.24200 27.63500
H  -9.35500 20.89800 26.78200
H  -10.49100 20.73200 22.68400
H  -11.18900 21.68800 23.89800
H  -10.07500 20.42800 24.27200
H  -5.61100 25.44900 21.34600
H  -2.82100 26.08800 21.86300
H  -3.77500 23.23100 21.75300
H  -3.26000 24.40500 20.44900
H  -4.88900 23.65800 20.39700
H  -4.16400 28.57700 22.25100
H  -5.42300 27.71100 21.44400
H  -4.58000 28.49100 19.57600
H  -3.18500 27.34300 19.81700
H  -3.20500 29.05200 20.37300
H  -0.57200 28.57800 25.50400
H  -0.59200 29.35100 27.16300
H  -1.48700 30.11600 25.86600
H  -3.94000 28.49000 30.94000
H  -2.58700 26.84200 34.41100
H  -1.06100 27.36200 33.53200
H  -1.79700 25.70200 33.42700

