158

Mg -2.22800 17.41000 26.42900
C  -2.27200 15.12800 29.09600
C  -2.76600 19.93300 28.70600
C  -2.50900 19.64800 23.85400
C  -1.94100 14.89500 24.18800
N  -2.68900 17.59300 28.62300
C  -2.35100 16.51000 29.49300
C  -2.38600 16.94200 30.97800
C  -2.74300 18.46200 30.84600
C  -2.69200 18.75400 29.31900
C  -4.08800 18.84900 31.50800
C  -1.14300 16.56800 31.80300
C  -1.00000 17.28500 33.18100
H  -0.92100 16.37700 34.48300
N  -2.61200 19.44500 26.34100
C  -2.79600 20.35800 27.39700
C  -2.92400 21.68400 26.89500
C  -2.96500 21.63200 25.46200
C  -2.70600 20.16800 25.15800
C  -3.15300 22.87400 27.68400
C  -3.20400 22.66300 24.38800
O  -3.10800 22.44800 23.15100
C  -3.42300 24.11900 24.71300
N  -2.16600 17.34500 24.30900
C  -2.27700 18.31600 23.42300
C  -2.27400 17.90500 21.94400
C  -2.02000 16.43100 22.10000
C  -1.96400 16.21300 23.60000
C  -3.55500 18.25500 21.17000
C  -0.86200 15.77600 21.33300
C  -0.96200 14.38500 20.81400
N  -2.23300 15.39500 26.51100
C  -1.93200 14.48700 25.52400
C  -1.93700 13.13600 26.06400
C  -1.98200 13.39200 27.44800
C  -2.20000 14.75200 27.69100
C  -1.92700 11.88300 25.27500
C  -2.09100 12.71700 28.68000
O  -2.11100 11.48600 28.91900
C  -2.22700 13.78500 29.85000
C  -1.06600 13.49100 30.77700
O  0.11900 13.82300 30.69200
O  -1.62100 12.76600 31.81100
C  -0.75900 12.39900 32.98300
H  -2.57500 20.70200 29.45800
H  -2.70500 20.28300 22.98800
H  -1.73200 14.14500 23.42200
H  -3.22300 16.40800 31.42700
H  -1.93600 18.98500 31.35900
H  -4.06600 18.82400 32.59700
H  -4.99500 18.38700 31.11600
H  -4.29000 19.90200 31.30900
H  -0.25200 16.70700 31.19100
H  -1.14200 15.49500 31.99200
H  -1.82400 17.98800 33.30300
H  -0.08200 17.86800 33.25200
H  -3.10400 22.70000 28.75900
H  -4.12700 23.30400 27.44900
H  -2.35700 23.58300 27.45900
H  -3.81600 24.72100 23.89300
H  -2.49000 24.62700 24.95600
H  -4.04900 24.25700 25.59500
H  -1.39800 18.37000 21.49300
H  -2.93800 15.91900 21.81200
H  -4.14100 17.42300 20.77800
H  -3.25400 18.78000 20.26300
H  -4.20800 18.79300 21.85700
H  0.04500 15.86600 21.93100
H  -0.67900 16.39700 20.45600
H  -0.30100 13.69600 21.33900
H  -0.84900 14.38200 19.72900
H  -1.99900 14.06100 20.90700
H  -1.60100 11.96900 24.23800
H  -2.93600 11.47500 25.22700
H  -1.33000 11.09000 25.72400
H  -3.19100 13.55300 30.30300
H  -0.38300 11.38100 32.87500
H  -1.34900 12.43400 33.89900
H  0.07900 13.06600 33.18100
Mg 44.95900 3.65500 46.62700
C  42.86500 6.31700 46.55100
C  42.30300 1.53300 46.39900
C  47.10700 1.06400 46.08100
C  47.73300 5.80200 46.26500
N  42.78400 3.94500 46.55900
C  42.13800 5.11600 46.61800
C  40.57900 4.89800 46.49000
C  40.46400 3.33000 46.51400
C  41.93500 2.84400 46.58800
C  39.63400 2.78300 47.75200
C  39.84100 5.57000 45.32300
C  40.52700 5.53600 43.90100
H  39.62700 5.70500 42.65900
N  44.66000 1.54000 46.29600
C  43.46100 0.84200 46.28600
C  43.76800 -0.57100 46.22900
C  45.15900 -0.70800 46.02400
C  45.71800 0.64400 46.10900
C  42.73900 -1.71400 46.34000
C  45.80500 -1.96700 45.86500
O  45.21600 -3.06400 45.82300
C  47.30200 -2.11100 45.78000
N  47.11700 3.51000 46.09100
C  47.71100 2.31400 46.14300
C  49.20300 2.49500 46.29100
C  49.43100 3.97000 46.03900
C  48.03800 4.46100 46.13300
C  49.74200 1.92100 47.63200
C  50.23700 4.41200 44.72800
C  49.43300 4.43500 43.45100
N  45.30000 5.65300 46.28500
C  46.44600 6.39800 46.24600
C  46.08600 7.78500 46.13000
C  44.69100 7.79800 46.21900
C  44.23700 6.47500 46.37100
C  47.06200 8.89500 46.13900
C  43.53600 8.63800 46.34200
O  43.39200 9.84200 46.23300
C  42.27400 7.67400 46.38200
C  41.33300 7.99500 47.39700
O  41.45900 7.61400 48.53200
O  40.29800 8.86600 46.94400
C  39.33900 9.25000 47.92300
H  41.41100 0.90800 46.32400
H  47.78300 0.21200 46.18300
H  48.50800 6.57100 46.24600
H  40.10900 5.18200 47.43100
H  39.96300 3.09800 45.57500
H  39.05800 3.48400 48.35600
H  40.35500 2.25500 48.37600
H  38.95100 1.97400 47.49400
H  39.71000 6.62900 45.54400
H  38.82100 5.18800 45.28700
H  41.12400 4.65000 43.68600
H  41.17700 6.40200 43.77500
H  41.98900 -1.43900 47.08200
H  43.10400 -2.70900 46.59500
H  42.20800 -1.63400 45.39200
H  47.77600 -1.89400 46.73700
H  47.58700 -1.45600 44.95700
H  47.64400 -3.10700 45.50100
H  49.72200 1.92000 45.52400
H  49.94200 4.38600 46.90700
H  50.19900 0.96600 47.37400
H  48.95700 1.64100 48.33500
H  50.54000 2.57900 47.97700
H  51.00000 3.64000 44.62000
H  50.77500 5.34100 44.91600
H  48.37400 4.39200 43.70600
H  49.67100 3.49500 42.95300
H  49.52300 5.34200 42.85400
H  47.78000 8.74000 45.33400
H  47.73200 8.90700 46.99900
H  46.49400 9.79300 45.89600
H  41.77800 7.70200 45.41200
H  38.37800 8.80100 47.67500
H  39.25300 10.33600 47.93900
H  39.64400 8.98800 48.93600

