158

Mg 36.02100 49.22200 24.71800
C  35.99400 47.41800 27.75200
C  33.88900 51.55400 26.14500
C  35.43900 50.58000 21.65800
C  37.68200 46.69500 23.28000
N  34.95400 49.40600 26.70900
C  35.28000 48.63200 27.79700
C  34.84400 49.39000 29.09500
C  33.86600 50.41600 28.53900
C  34.28100 50.50100 27.00800
C  32.37400 50.09900 28.72400
C  36.01400 49.92700 29.89700
C  35.97100 49.91300 31.48400
H  34.71100 49.53200 32.29800
N  34.84600 50.88700 24.00500
C  34.18700 51.84200 24.83100
C  33.85800 53.01600 24.05200
C  34.36500 52.76600 22.74500
C  34.93500 51.37600 22.71800
C  33.34000 54.30600 24.65900
C  34.41000 53.71100 21.50700
O  35.00400 53.46700 20.47900
C  33.72200 55.17500 21.56200
N  36.27700 48.60200 22.71800
C  35.96100 49.28300 21.63300
C  36.60700 48.65700 20.28900
C  37.43000 47.48600 20.91100
C  37.10900 47.55000 22.36200
C  35.50500 48.26200 19.23800
C  38.97700 47.58200 20.54900
C  39.83000 48.60400 21.25000
N  36.79100 47.47600 25.30800
C  37.55100 46.60000 24.66100
C  38.02300 45.57400 25.53700
C  37.44800 45.90200 26.83000
C  36.66000 46.98300 26.60000
C  38.84300 44.40200 25.03700
C  37.37200 45.55300 28.15500
O  38.01600 44.69700 28.78500
C  36.40200 46.44800 28.76600
C  35.25000 45.64500 29.39800
O  34.44400 45.00900 28.74200
O  35.11000 45.86700 30.77700
C  34.07400 45.10500 31.51500
H  33.32200 52.41500 26.50600
H  35.43000 51.01300 20.65600
H  38.46000 46.03100 22.89500
H  34.26600 48.69500 29.70500
H  34.01500 51.41400 28.95200
H  32.04900 49.13200 29.10600
H  31.91200 50.16700 27.73900
H  32.05300 50.88900 29.40300
H  36.03400 51.00200 29.71300
H  36.92400 49.45900 29.52200
H  36.31900 50.78500 32.03700
H  36.72500 49.16400 31.72700
H  32.59700 54.86900 24.09300
H  34.18100 54.99000 24.77700
H  32.96000 54.28500 25.68000
H  32.64500 55.21200 21.72800
H  33.84600 55.76900 20.65700
H  34.26300 55.66800 22.36900
H  37.19100 49.47100 19.85900
H  37.05300 46.52900 20.55100
H  35.66100 48.60700 18.21600
H  34.47500 48.51800 19.49000
H  35.54300 47.17300 19.20100
H  39.06500 47.83500 19.49200
H  39.40100 46.58500 20.66700
H  39.76400 49.58400 20.77800
H  40.86700 48.26800 21.22400
H  39.43300 48.86800 22.23000
H  39.73100 44.58000 24.43100
H  38.22800 43.73400 24.43500
H  39.33000 43.94100 25.89700
H  36.91700 46.97700 29.56800
H  33.10400 45.60200 31.50900
H  34.26900 45.07200 32.58700
H  34.02400 44.04300 31.27600
Mg -13.09500 15.59300 43.14600
C  -10.44300 13.43400 42.32900
C  -11.65700 18.01800 41.39900
C  -16.16400 17.17100 42.95900
C  -14.78100 12.72800 44.50300
N  -11.31200 15.60800 41.82100
C  -10.35500 14.73600 41.72700
C  -9.09000 15.34800 41.08000
C  -9.37100 16.88500 41.11900
C  -10.90600 16.84800 41.49200
C  -8.49100 17.65100 42.20000
C  -8.70300 14.80500 39.75000
C  -7.22100 14.68800 39.38500
H  -6.63500 15.60000 38.21600
N  -13.76300 17.42800 42.43500
C  -13.00900 18.25000 41.68400
C  -13.66200 19.45900 41.39600
C  -15.00800 19.28800 41.88400
C  -15.04500 17.89400 42.46700
C  -13.11100 20.71300 40.72300
C  -16.10200 20.36700 41.84000
O  -15.89200 21.42900 41.16900
C  -17.48700 20.32000 42.48400
N  -15.21100 14.93000 43.59200
C  -16.18400 15.84000 43.54100
C  -17.51700 15.15200 44.07800
C  -17.01600 13.76100 44.73300
C  -15.59500 13.76400 44.19600
C  -18.42000 16.08400 44.97800
C  -17.81400 12.50300 44.51200
C  -18.13200 11.63000 45.75600
N  -12.69200 13.49900 43.53400
C  -13.43200 12.56800 44.16200
C  -12.62100 11.35700 44.28200
C  -11.41100 11.60600 43.64600
C  -11.53500 12.93900 43.13600
C  -13.02600 10.10600 44.96700
C  -10.09700 11.12600 43.27200
O  -9.47100 10.11200 43.53700
C  -9.47200 12.35600 42.37900
C  -8.23900 12.85100 43.06500
O  -8.16500 13.51800 44.08300
O  -7.16300 12.33200 42.38000
C  -5.79700 12.53600 42.76200
H  -11.08600 18.90200 41.10500
H  -17.17400 17.58400 42.91700
H  -15.35500 11.88800 44.89800
H  -8.33700 15.11800 41.83400
H  -9.25600 17.37000 40.15000
H  -9.06400 17.75400 43.12200
H  -8.11600 18.62300 41.87900
H  -7.64000 17.01200 42.43300
H  -9.23800 15.48000 39.08200
H  -9.06100 13.77600 39.76100
H  -7.21200 13.68900 38.94900
H  -6.64600 14.75500 40.30900
H  -12.06800 20.62200 40.42000
H  -13.27600 21.59100 41.34800
H  -13.64600 20.82100 39.77900
H  -17.53000 19.67600 43.36200
H  -18.06300 19.76800 41.74100
H  -17.91100 21.30200 42.69100
H  -18.15200 14.93200 43.22000
H  -16.91000 13.92800 45.80500
H  -17.71900 16.76100 45.46700
H  -18.96900 15.46400 45.68600
H  -19.19700 16.54900 44.37200
H  -17.38100 11.78000 43.82100
H  -18.82400 12.80800 44.23700
H  -19.13400 11.66700 46.18400
H  -17.70100 11.92900 46.71200
H  -17.81300 10.59700 45.61800
H  -12.18000 9.77200 45.56700
H  -13.19800 9.51200 44.07000
H  -13.86300 10.15100 45.66400
H  -9.25400 11.96800 41.38500
H  -5.55200 13.20200 43.59000
H  -5.39100 12.97500 41.85100
H  -5.22400 11.61100 42.83200

