158

Mg 10.03800 49.05900 25.79300
C  8.08000 48.85500 28.76900
C  12.77200 50.15700 27.54200
C  11.89000 48.88900 22.98600
C  7.06600 48.11200 24.05200
N  10.29900 49.37600 27.89200
C  9.42200 49.25900 28.95600
C  10.21200 49.43500 30.20500
C  11.41700 50.31600 29.79700
C  11.53700 49.87300 28.34900
C  11.20400 51.86600 29.87700
C  10.60800 48.00500 30.81500
C  10.38400 47.71100 32.26700
H  11.08400 48.58400 33.30700
N  12.14700 49.43200 25.28800
C  13.07200 49.87600 26.14800
C  14.41000 49.93100 25.55400
C  14.15500 49.53100 24.20200
C  12.65900 49.27300 24.08000
C  15.65900 50.35700 26.28400
C  15.06700 49.41200 23.00400
O  14.81000 49.06000 21.84200
C  16.55400 49.87200 23.29400
N  9.52500 48.76000 23.68300
C  10.53200 48.59200 22.78400
C  9.90700 47.89800 21.47400
C  8.36200 47.65900 21.81800
C  8.30700 48.21700 23.28300
C  10.20000 48.77700 20.17200
C  7.93300 46.15400 21.70600
C  8.72400 45.11300 22.48700
N  7.95600 48.68500 26.21700
C  6.89600 48.28000 25.45100
C  5.64300 48.13700 26.24700
C  6.09300 48.43400 27.49800
C  7.47300 48.68800 27.42000
C  4.29600 47.62000 25.79700
C  5.63600 48.59400 28.82900
O  4.54800 48.51600 29.33900
C  6.96100 48.64000 29.70900
C  6.94900 47.42700 30.54500
O  7.23400 46.29200 30.15100
O  6.57100 47.73900 31.84500
C  6.65100 46.50400 32.69700
H  13.52900 50.64800 28.15700
H  12.45000 48.85000 22.05000
H  6.13400 47.80300 23.57500
H  9.60500 50.01600 30.89800
H  12.37600 50.02100 30.22300
H  11.39300 52.25600 28.87700
H  11.87600 52.43000 30.52500
H  10.16100 51.94800 30.18300
H  11.65000 47.87200 30.52600
H  10.23800 47.15800 30.23700
H  10.70100 46.68200 32.43400
H  9.30800 47.79300 32.42200
H  15.59800 50.14300 27.35100
H  15.81300 51.43100 26.18500
H  16.51700 49.77100 25.95500
H  16.82100 49.06400 23.97500
H  16.65800 50.86000 23.74400
H  17.20700 49.67900 22.44300
H  10.40500 46.92900 21.43900
H  7.67400 48.25300 21.21600
H  11.06300 49.41000 20.37800
H  9.38800 49.47000 19.95000
H  10.41400 48.17000 19.29300
H  8.12800 45.91500 20.66100
H  6.87800 46.00700 21.93700
H  7.88600 44.65100 23.00900
H  9.33700 45.65200 23.20900
H  9.26000 44.33800 21.93900
H  3.77100 48.51600 25.46500
H  3.81700 47.22900 26.69500
H  4.37400 46.92800 24.95900
H  6.87700 49.45400 30.42900
H  5.81000 45.85400 32.45900
H  6.56000 46.78500 33.74600
H  7.56800 45.97400 32.43800
Mg -10.73800 38.38800 40.59000
C  -8.84400 35.73900 39.53000
C  -8.18200 40.47300 39.24400
C  -12.80700 41.15800 40.59800
C  -13.15600 36.33900 41.76600
N  -8.72600 38.05700 39.45500
C  -8.24100 36.87700 39.05900
C  -6.76800 37.00900 38.54300
C  -6.56300 38.57300 38.63800
C  -7.91400 39.12000 39.15700
C  -5.33300 39.03600 39.41000
C  -6.70500 36.38800 37.07300
C  -5.36300 35.75200 36.68300
H  -4.87600 36.16200 35.26100
N  -10.43700 40.61600 40.10200
C  -9.31400 41.22700 39.69300
C  -9.55300 42.52200 39.48300
C  -10.94900 42.81100 39.77500
C  -11.49000 41.47600 40.14800
C  -8.47600 43.52900 39.08100
C  -11.66000 44.11700 39.61000
O  -11.08100 45.19000 39.50500
C  -13.17200 44.15500 39.71000
N  -12.58600 38.68700 40.94600
C  -13.24700 39.89100 40.93600
C  -14.76000 39.67200 41.26000
C  -14.85000 38.17200 41.53700
C  -13.40300 37.71200 41.49500
C  -15.37900 40.67500 42.23900
C  -15.76200 37.31600 40.59800
C  -17.17600 37.11200 41.08300
N  -10.92400 36.47300 40.81000
C  -11.93300 35.74300 41.36900
C  -11.51400 34.36000 41.53300
C  -10.30200 34.27900 40.72000
C  -9.98500 35.60700 40.28200
C  -12.21800 33.23300 42.29100
C  -9.25300 33.37300 40.26400
O  -9.03900 32.16600 40.37100
C  -8.31600 34.28600 39.40900
C  -6.93200 34.03500 40.05100
O  -6.07400 33.38700 39.48900
O  -6.74900 34.76100 41.18900
C  -5.32600 34.69900 41.70100
H  -7.43600 41.16400 38.84600
H  -13.42300 42.04600 40.75400
H  -13.95800 35.73600 42.19800
H  -6.16600 36.38700 39.20600
H  -6.29700 38.94200 37.64700
H  -4.76200 39.74600 38.81200
H  -4.65200 38.18600 39.46500
H  -5.73000 39.51800 40.30300
H  -6.88300 37.27800 36.47000
H  -7.51800 35.72100 36.78600
H  -5.44800 34.66500 36.67500
H  -4.60100 36.03600 37.40900
H  -8.28600 43.27300 38.03900
H  -7.60300 43.34600 39.70700
H  -8.69500 44.59300 39.17600
H  -13.34800 44.04500 40.78000
H  -13.58400 43.40100 39.04000
H  -13.58100 45.12600 39.43000
H  -15.30400 39.87600 40.33800
H  -15.22600 37.92600 42.53000
H  -15.75700 40.23500 43.16200
H  -16.17300 41.23100 41.74000
H  -14.63400 41.41200 42.54000
H  -15.28900 36.37000 40.33600
H  -15.98600 37.80400 39.64900
H  -17.52500 36.25500 40.50600
H  -17.76800 38.00600 40.88800
H  -17.23700 36.89300 42.14900
H  -11.89100 33.27300 43.33000
H  -11.79600 32.31100 41.89100
H  -13.28900 33.39300 42.16800
H  -8.36600 33.86000 38.40700
H  -4.90700 35.52100 42.28200
H  -4.63700 34.72600 40.85700
H  -5.19500 33.75300 42.22700

