158

Mg 16.88000 -1.09200 27.15300
C  16.13300 1.08500 29.89900
C  19.22800 -2.60300 29.20800
C  18.32900 -2.56300 24.48400
C  15.58400 1.43600 25.10500
N  17.71900 -0.61200 29.27700
C  17.07600 0.14000 30.24700
C  17.62200 -0.27300 31.66600
C  18.69300 -1.37900 31.37500
C  18.61500 -1.46700 29.84100
C  20.23800 -1.05100 31.73800
C  16.54400 -0.73500 32.69200
C  16.42600 0.06100 33.97400
H  17.62100 0.39100 34.95100
N  18.36100 -2.63400 26.96300
C  19.16400 -3.12300 27.91600
C  19.90200 -4.21600 27.42900
C  19.61400 -4.21300 26.00100
C  18.72800 -3.15500 25.75200
C  20.82800 -4.95600 28.30600
C  20.21800 -5.09000 24.94000
O  19.83400 -5.00600 23.75800
C  21.20200 -6.16500 25.30200
N  16.88800 -0.63700 25.06200
C  17.43900 -1.52600 24.13400
C  17.23800 -1.02500 22.78300
C  16.25200 0.18900 22.92800
C  16.15900 0.31100 24.45100
C  18.48300 -0.54500 21.93800
C  14.85000 0.03700 22.36400
C  14.60700 -0.61800 21.03100
N  15.79400 0.75700 27.40600
C  15.29900 1.63200 26.49400
C  14.53500 2.62700 27.19900
C  14.78700 2.48400 28.54800
C  15.62200 1.33400 28.60800
C  13.69700 3.75400 26.61700
C  14.61000 3.07400 29.87900
O  14.04700 4.10900 30.23300
C  15.41300 2.10000 30.82200
C  16.27300 2.97300 31.71300
O  17.39100 3.37300 31.45600
O  15.66100 3.28100 32.88700
C  16.45300 4.10900 33.81400
H  19.92900 -3.13300 29.85600
H  18.76500 -2.90600 23.54400
H  15.12900 2.11500 24.38000
H  18.06200 0.66000 32.01900
H  18.50600 -2.35600 31.82200
H  20.09300 -0.44200 32.63000
H  20.61900 -0.38800 30.96000
H  20.90200 -1.89100 31.93700
H  16.59400 -1.78300 32.98700
H  15.56100 -0.66200 32.22700
H  15.81400 -0.50800 34.67400
H  15.83800 0.93200 33.68300
H  21.19600 -5.93100 27.98900
H  20.60500 -5.21500 29.34100
H  21.73100 -4.35100 28.38400
H  21.67000 -6.67000 24.45700
H  20.57600 -6.91400 25.78700
H  21.89000 -5.74400 26.03600
H  16.71400 -1.85300 22.30500
H  16.70600 1.11900 22.58500
H  19.46000 -0.73700 22.38200
H  18.54400 0.50400 21.64500
H  18.41000 -1.16900 21.04800
H  14.52700 1.06200 22.18600
H  14.20500 -0.41300 23.11900
H  13.84400 -0.14900 20.41000
H  14.33000 -1.65100 21.24300
H  15.50700 -0.51000 20.42600
H  12.64500 3.51800 26.45800
H  14.12600 4.04400 25.65800
H  13.84500 4.68000 27.17300
H  14.71800 1.67300 31.54600
H  16.42600 5.14800 33.48600
H  17.44300 3.66200 33.90700
H  16.10600 4.04600 34.84500
Mg 47.32800 16.02700 28.22300
C  45.03600 15.95700 30.89700
C  49.41500 17.92900 30.49000
C  49.20600 16.83700 25.75000
C  44.81700 14.82000 26.16100
N  47.17600 16.99300 30.44600
C  46.10800 16.70500 31.32400
C  46.51900 17.05500 32.76400
C  47.72000 17.99500 32.56900
C  48.19000 17.55200 31.13200
C  47.57600 19.56800 32.61400
C  46.96800 15.79400 33.54600
C  46.63500 15.94400 35.06200
H  46.38700 17.27800 35.70400
N  49.23900 17.06900 28.13500
C  49.90300 17.75100 29.16600
C  51.19200 18.22400 28.63300
C  51.17000 17.98900 27.21800
C  49.87400 17.27600 26.95500
C  52.32000 18.85100 29.47500
C  52.16400 18.33200 26.12900
O  51.86700 18.37000 24.96500
C  53.51400 18.96800 26.42400
N  47.02900 15.88700 26.28900
C  48.00200 16.20500 25.40600
C  47.57900 15.97100 23.94600
C  46.52600 14.91000 24.19700
C  46.05900 15.21600 25.61700
C  47.17600 17.23300 23.05400
C  47.23900 13.51500 24.19300
C  46.46900 12.41500 23.40800
N  45.32700 15.52700 28.41900
C  44.46800 14.90200 27.50900
C  43.30700 14.41500 28.19300
C  43.53300 14.73300 29.52300
C  44.72000 15.46800 29.62500
C  42.15300 13.56200 27.59300
C  42.94700 14.61300 30.83300
O  41.91600 14.05300 31.23600
C  43.92100 15.38400 31.79900
C  43.10500 16.32800 32.61100
O  42.69000 17.46700 32.23000
O  42.88600 15.84100 33.87100
C  42.03800 16.69100 34.71800
H  50.18800 18.30600 31.16400
H  49.84900 16.94900 24.87500
H  44.12400 14.22100 25.56600
H  45.73800 17.65500 33.23100
H  48.49700 17.73100 33.28700
H  47.58400 19.92600 31.58400
H  48.46000 20.02800 33.05700
H  46.68000 19.92400 33.12200
H  48.03100 15.58000 33.43600
H  46.47500 14.91500 33.13000
H  47.33500 15.33800 35.63700
H  45.72800 15.38200 35.28500
H  53.13800 18.15200 29.65000
H  51.96700 19.20900 30.44200
H  52.68800 19.69500 28.89100
H  53.42800 19.99300 26.78500
H  54.22100 18.94500 25.59500
H  53.89100 18.37400 27.25600
H  48.49100 15.67400 23.42800
H  45.71900 14.82200 23.46900
H  47.58300 18.15600 23.46700
H  46.09600 17.35400 22.97700
H  47.44400 17.04300 22.01500
H  47.28800 13.17600 25.22800
H  48.27800 13.54600 23.86200
H  47.19000 12.02400 22.69000
H  45.54000 12.78500 22.97400
H  46.07700 11.53800 23.92400
H  41.23500 13.97300 28.01200
H  42.24700 12.50500 27.84400
H  42.03500 13.65800 26.51300
H  44.32100 14.61400 32.45800
H  42.52400 16.68200 35.69400
H  41.07300 16.19500 34.82600
H  41.95300 17.73900 34.43100

