158

Mg 35.86300 0.67800 30.42500
C  33.55900 1.24200 33.08300
C  38.34800 0.83900 32.73500
C  37.98800 0.36500 27.83900
C  33.21800 1.11200 28.12500
N  35.88000 1.09500 32.66600
C  34.84600 1.10600 33.59600
C  35.25200 1.27900 34.97500
C  36.73100 1.73500 34.75800
C  37.05400 1.09900 33.30300
C  36.99800 3.29000 34.89900
C  35.11500 0.03700 35.86100
C  34.67600 0.51900 37.30700
H  35.01200 1.93000 37.80400
N  37.85200 0.57000 30.32300
C  38.70300 0.57700 31.37800
C  40.04700 0.24800 30.94000
C  40.01300 0.13600 29.52400
C  38.56300 0.41200 29.17900
C  41.21400 0.17200 31.91000
C  41.10200 -0.09500 28.59800
O  40.89200 -0.17700 27.41900
C  42.53900 -0.42300 29.02700
N  35.65800 0.74200 28.30700
C  36.65800 0.51100 27.43000
C  36.29800 0.61300 25.97400
C  34.76900 0.79800 26.06100
C  34.48500 0.87800 27.60000
C  36.99400 1.66500 25.03700
C  33.99500 -0.20600 25.14100
C  33.48900 -1.46400 25.87800
N  33.80000 0.96700 30.54400
C  32.91000 1.17600 29.50400
C  31.62200 1.52400 30.06600
C  31.77400 1.51800 31.48500
C  33.16100 1.19200 31.70200
C  30.31400 1.63400 29.27200
C  31.13700 1.75900 32.75900
O  29.93600 1.96700 32.95800
C  32.29600 1.63900 33.80900
C  32.35200 2.96400 34.44900
O  32.50300 4.05500 33.88800
O  32.04100 2.82900 35.83000
C  31.60700 4.13100 36.40700
H  39.20900 0.97400 33.39100
H  38.61800 0.14900 26.97400
H  32.49400 1.37100 27.35000
H  34.66600 2.08100 35.42200
H  37.44500 1.28700 35.44900
H  37.61400 3.61600 35.73700
H  36.08500 3.84200 35.12000
H  37.44500 3.73900 34.01200
H  35.93100 -0.66400 36.03400
H  34.33600 -0.55200 35.37500
H  35.04300 -0.22100 38.01900
H  33.58800 0.56100 37.27800
H  41.08500 0.73500 32.83400
H  42.14700 0.59300 31.53500
H  41.39500 -0.82100 32.32100
H  42.94700 0.39400 29.62300
H  43.06700 -0.51500 28.07700
H  42.73300 -1.37100 29.52700
H  36.35400 -0.37500 25.51700
H  34.48600 1.78400 25.69100
H  37.86500 2.14800 25.48000
H  36.31400 2.44300 24.69000
H  37.29700 1.17600 24.11200
H  34.56100 -0.51800 24.26300
H  33.10800 0.30400 24.76500
H  33.96000 -1.48000 26.86100
H  33.92200 -2.41400 25.56700
H  32.42400 -1.45700 26.11300
H  29.77200 0.79000 29.70000
H  30.57700 1.56900 28.21600
H  29.76900 2.56900 29.40500
H  32.00800 0.94200 34.59600
H  31.35500 4.89700 35.67400
H  32.39900 4.49500 37.06100
H  30.77900 3.90700 37.08000
Mg 35.76800 49.50600 25.25300
C  35.83700 47.52100 28.12100
C  35.04100 52.30800 27.22800
C  35.38200 51.20700 22.39100
C  36.36400 46.61600 23.36500
N  35.24100 49.81600 27.30100
C  35.54800 48.86700 28.33600
C  35.41200 49.56900 29.72800
C  34.83000 51.01800 29.42100
C  35.14000 51.07800 27.85300
C  33.32500 51.07500 29.90900
C  36.85000 49.57600 30.36900
C  36.84100 49.42700 31.89800
H  35.68000 49.93600 32.74300
N  35.43500 51.47000 24.88300
C  35.15700 52.52600 25.80600
C  35.01000 53.76500 25.07800
C  35.12000 53.45100 23.67800
C  35.34300 51.97900 23.58300
C  34.88900 55.05700 25.73900
C  35.05200 54.38200 22.53100
O  35.07600 53.98000 21.34200
C  35.05700 55.88000 22.83000
N  36.03500 49.03700 23.20000
C  35.63200 49.86100 22.19200
C  35.64800 49.21300 20.83300
C  36.21600 47.83800 21.14900
C  36.26500 47.84200 22.68900
C  34.29200 49.19400 19.92000
C  37.61800 47.50000 20.63800
C  38.03200 46.00400 20.40800
N  36.01800 47.42900 25.61000
C  36.28600 46.38600 24.75900
C  36.40800 45.21600 25.51000
C  36.22600 45.61300 26.86300
C  35.95900 46.96100 26.85400
C  36.72300 43.88300 24.90000
C  36.29900 45.16100 28.20300
O  36.63100 44.06500 28.62300
C  35.98300 46.35600 29.07400
C  34.71100 46.12400 29.79600
O  33.60400 46.36300 29.36200
O  35.05100 45.72000 31.03900
C  33.91000 45.76000 31.96800
H  34.76800 53.17200 27.83600
H  35.16600 51.76900 21.48000
H  36.60700 45.78600 22.69900
H  34.77900 48.98900 30.40000
H  35.43600 51.71800 29.99700
H  33.09300 52.11100 30.15600
H  33.26800 50.57600 30.87700
H  32.50300 50.80300 29.24800
H  37.36700 50.45100 29.97400
H  37.41800 48.75400 29.93400
H  37.69000 50.05400 32.17200
H  37.21200 48.44300 32.18400
H  35.73500 55.71500 25.53800
H  34.77300 55.05700 26.82300
H  33.99600 55.59500 25.42000
H  34.11800 56.11100 23.33400
H  35.03900 56.43200 21.89100
H  35.99100 56.10100 23.34500
H  36.36000 49.64400 20.12900
H  35.57400 47.10800 20.65700
H  33.43000 49.67300 20.38400
H  34.00800 48.17600 19.65400
H  34.48600 49.61900 18.93500
H  38.40000 47.94100 21.25500
H  37.77700 47.89500 19.63500
H  38.87500 45.97500 19.71800
H  37.29200 45.49800 19.78900
H  38.22800 45.47500 21.34100
H  37.24800 43.24200 25.60800
H  37.46400 43.92700 24.10200
H  35.89700 43.37500 24.40400
H  36.83400 46.36400 29.75400
H  34.23000 45.27800 32.89200
H  33.01300 45.20700 31.68800
H  33.61200 46.76300 32.27500

