158

Mg 45.45200 4.32300 47.55600
C  43.37800 7.03800 47.51400
C  42.61400 2.26800 47.11900
C  47.54600 1.71400 46.74400
C  48.25100 6.44100 47.42700
N  43.28100 4.63400 47.18600
C  42.66600 5.85600 47.19400
C  41.12400 5.82800 47.00600
C  40.90600 4.25100 47.07600
C  42.35000 3.66100 47.08400
C  39.94600 3.78100 48.22500
C  40.52100 6.38500 45.65000
C  41.43400 6.22000 44.48900
H  40.65200 5.57300 43.31000
N  45.12800 2.33800 47.07500
C  43.85300 1.66800 47.10700
C  44.13700 0.23100 47.05200
C  45.52100 0.04700 46.84500
C  46.12100 1.42300 46.83800
C  42.97700 -0.76700 47.14800
C  46.18300 -1.38900 46.63500
O  45.62800 -2.42400 46.87600
C  47.71700 -1.53100 46.32500
N  47.62700 4.16000 47.07100
C  48.20700 2.88900 47.01900
C  49.69600 2.92300 47.09200
C  49.86600 4.47100 47.39200
C  48.53600 5.07800 47.27700
C  50.22000 1.95600 48.21300
C  50.88600 5.20100 46.52200
C  52.31600 4.84000 46.97400
N  45.83900 6.37200 47.44200
C  47.04200 7.10700 47.47400
C  46.72200 8.50700 47.51400
C  45.31600 8.52800 47.58400
C  44.83400 7.19700 47.44600
C  47.70000 9.61600 47.55500
C  44.21700 9.34800 47.74500
O  44.20900 10.55200 47.82000
C  42.95000 8.51400 47.62000
C  42.09200 8.74100 48.74300
O  42.40600 8.52200 49.88800
O  40.90500 9.17200 48.34400
C  39.81600 9.26700 49.35100
H  41.70000 1.72400 46.86900
H  48.19700 0.83800 46.69100
H  49.10700 7.11600 47.48800
H  40.59000 6.17700 47.89000
H  40.40200 3.81300 46.21500
H  40.52500 3.27300 48.99600
H  39.24000 3.11700 47.72500
H  39.36500 4.58100 48.68500
H  40.35500 7.46100 45.71500
H  39.52700 6.03600 45.37200
H  42.25300 5.52800 44.68600
H  41.92700 7.14100 44.17800
H  42.04400 -0.35400 47.53000
H  43.18400 -1.68900 47.69000
H  42.61400 -1.05300 46.16100
H  47.87600 -2.50700 45.86700
H  48.29500 -1.40700 47.24100
H  47.96300 -0.85200 45.50900
H  50.12100 2.57800 46.14900
H  50.16800 4.59600 48.43200
H  50.71600 1.12600 47.71000
H  49.41000 1.57100 48.83200
H  50.93600 2.53100 48.80000
H  50.90100 6.29000 46.53900
H  50.92500 4.89400 45.47600
H  52.33900 3.96500 47.62400
H  52.81200 5.72100 47.37900
H  52.90000 4.61900 46.08100
H  48.16300 9.75200 48.53200
H  47.27200 10.60100 47.36900
H  48.51400 9.45200 46.84900
H  42.42100 8.78300 46.70500
H  40.20400 10.10600 49.92800
H  39.86900 8.34700 49.93200
H  38.80300 9.44800 48.99100
Mg 0.65900 43.19700 25.81200
C  2.28600 43.08900 29.11900
C  -2.06800 41.86000 27.29100
C  -0.53200 42.72100 22.76300
C  3.82700 43.71600 24.50600
N  0.22000 42.56600 27.95400
C  0.88100 42.82600 29.15600
C  -0.03800 42.76300 30.35300
C  -1.26200 42.08400 29.77700
C  -1.08900 42.14500 28.22400
C  -1.29200 40.58000 30.28000
C  -0.21400 44.18300 30.99100
C  0.45200 44.50600 32.43500
H  -0.45500 44.33600 33.69600
N  -1.09700 42.52200 25.17100
C  -2.13300 41.96600 25.86300
C  -3.27800 41.78200 24.99900
C  -2.77900 42.03500 23.65200
C  -1.42700 42.44100 23.84300
C  -4.69100 41.29300 25.38700
C  -3.60900 41.93000 22.38700
O  -3.26800 42.24300 21.27500
C  -4.97000 41.20800 22.40800
N  1.54200 43.16900 23.95300
C  0.84900 42.91000 22.81600
C  1.67700 42.98500 21.53100
C  2.92400 43.70600 22.13500
C  2.77000 43.54000 23.62800
C  1.97700 41.62600 20.86200
C  3.03200 45.23300 21.76300
C  3.42700 45.44200 20.27700
N  2.64000 43.43600 26.56800
C  3.86000 43.50700 25.89500
C  4.95800 43.55800 26.87400
C  4.35800 43.36500 28.03100
C  2.98600 43.25600 27.86800
C  6.41600 43.92500 26.69900
C  4.65100 43.00400 29.44700
O  5.72800 42.73800 29.90300
C  3.36000 43.04700 30.24200
C  3.37000 41.76500 31.01100
O  3.01800 40.66500 30.68800
O  3.96700 42.04800 32.22800
C  4.00700 41.07500 33.35800
H  -2.96900 41.57500 27.83900
H  -0.92600 42.55500 21.75800
H  4.82200 43.91100 24.10200
H  0.48400 42.18400 31.11600
H  -2.20400 42.50100 30.13200
H  -0.64000 40.22000 31.07600
H  -1.05700 39.94000 29.43000
H  -2.32600 40.40200 30.57500
H  -1.29800 44.28900 30.94100
H  0.29600 44.86100 30.30700
H  0.86900 45.51200 32.38000
H  1.28800 43.81000 32.51100
H  -5.51300 41.95900 25.12400
H  -4.72100 41.23400 26.47500
H  -4.85700 40.28600 25.00500
H  -4.83500 40.27700 22.95900
H  -5.38100 41.14700 21.40100
H  -5.61400 41.86000 22.99900
H  1.14700 43.65700 20.85600
H  3.72000 43.15800 21.63100
H  1.50900 40.80200 21.40100
H  3.04300 41.39800 20.85200
H  1.70900 41.60700 19.80500
H  3.85000 45.71900 22.29500
H  2.08800 45.77600 21.81100
H  3.45100 44.39700 19.96800
H  4.37100 45.97000 20.14200
H  2.62400 45.97200 19.76300
H  6.91000 43.76100 27.65600
H  6.52200 44.98800 26.47900
H  6.89600 43.34100 25.91400
H  3.44500 43.89700 30.91900
H  5.04000 40.72900 33.33900
H  3.28600 40.25800 33.33800
H  3.91000 41.59600 34.31000

