158

Mg 26.75700 0.82800 29.31300
C  28.45900 1.01700 32.35100
C  23.82700 1.73700 31.09300
C  24.98900 0.62500 26.43100
C  29.55000 -0.21800 27.74300
N  26.20500 1.40200 31.51500
C  27.04100 1.34700 32.61600
C  26.34900 1.65800 34.02500
C  24.87300 1.69000 33.49100
C  24.98800 1.58900 31.91000
C  24.01700 0.54700 34.08900
C  26.82700 3.02200 34.53900
C  27.50300 3.00500 35.90000
H  26.82600 3.67100 37.04400
N  24.65000 1.07900 28.86600
C  23.63400 1.41900 29.69700
C  22.43300 1.58900 28.99100
C  22.75800 1.33300 27.63200
C  24.18100 0.90400 27.57300
C  21.06400 1.85400 29.69900
C  21.88600 1.43100 26.35900
O  22.27200 1.20900 25.17200
C  20.44500 1.91900 26.54800
N  27.22700 0.38800 27.40100
C  26.34400 0.32200 26.35200
C  27.01800 0.09800 25.03100
C  28.54200 -0.22400 25.41200
C  28.49300 0.04900 26.90900
C  26.33500 -0.94500 24.12300
C  29.55700 0.64300 24.55400
C  30.53900 -0.21000 23.71700
N  28.56700 0.36900 29.93700
C  29.65000 -0.00600 29.12100
C  30.84100 0.01800 29.92600
C  30.49400 0.36600 31.16200
C  29.03100 0.57000 31.14300
C  32.13200 -0.27500 29.42700
C  30.92100 0.77200 32.47500
O  32.05000 0.89800 32.98900
C  29.65000 0.95300 33.35300
C  29.69200 -0.13500 34.41200
O  29.35600 -1.29500 34.19800
O  30.16500 0.32600 35.64700
C  29.88100 -0.51600 36.79000
H  23.01300 2.05100 31.75000
H  24.41700 0.64600 25.50100
H  30.52500 -0.38500 27.28100
H  26.63400 0.88500 34.73900
H  24.32500 2.60200 33.73000
H  23.27500 1.08400 34.68000
H  24.75700 -0.13200 34.51300
H  23.61800 -0.04900 33.26900
H  26.07000 3.80300 34.60200
H  27.60500 3.29900 33.82800
H  28.46700 3.49400 35.76300
H  27.72000 1.97700 36.19000
H  20.51500 2.61300 29.14100
H  21.12400 2.06500 30.76600
H  20.55700 0.90300 29.53800
H  20.01700 1.82200 25.55100
H  20.54000 2.96800 26.82500
H  19.83800 1.43300 27.31200
H  26.97500 1.07500 24.54800
H  28.71100 -1.28900 25.25000
H  25.58900 -1.46600 24.72300
H  27.12400 -1.58500 23.72700
H  25.83800 -0.38600 23.33000
H  30.06000 1.26300 25.29600
H  28.97700 1.15400 23.78600
H  31.54500 0.15100 23.93000
H  30.38800 0.01900 22.66200
H  30.46500 -1.28800 23.85900
H  32.56200 0.57600 28.89900
H  31.98900 -1.10300 28.73100
H  32.82500 -0.59700 30.20400
H  29.91400 1.85600 33.90400
H  29.48600 0.06300 37.62400
H  30.79300 -0.94500 37.20400
H  29.09700 -1.23900 36.56900
Mg -0.13300 44.30200 27.29800
C  2.27200 44.29000 29.96600
C  -2.61400 43.63500 29.60400
C  -2.14500 43.63500 24.69200
C  2.62600 44.56500 25.03300
N  -0.15200 43.85500 29.53600
C  0.89900 44.10500 30.38400
C  0.40900 44.05000 31.86000
C  -1.04800 43.41900 31.66200
C  -1.33400 43.68600 30.16700
C  -1.34700 41.89800 32.06500
C  0.52500 45.44000 32.57700
C  0.82700 45.33600 34.07500
H  0.68200 43.97500 34.81700
N  -2.15100 43.83300 27.21900
C  -2.98700 43.68600 28.27800
C  -4.33700 43.62100 27.71100
C  -4.20400 43.56700 26.33000
C  -2.81000 43.73000 25.98300
C  -5.58400 43.56800 28.61200
C  -5.36400 43.45700 25.19600
O  -5.11900 43.42900 24.00800
C  -6.77300 43.44300 25.57300
N  0.19300 44.05600 25.12300
C  -0.80300 43.83800 24.27800
C  -0.34000 43.87500 22.82800
C  1.04700 44.53800 22.96300
C  1.33700 44.29100 24.47200
C  -0.17900 42.49700 22.10900
C  1.10900 46.01600 22.57700
C  1.05900 47.04100 23.71000
N  2.07800 44.44400 27.44100
C  3.01100 44.61600 26.43400
C  4.30800 44.71700 26.96500
C  4.04900 44.64000 28.36500
C  2.66700 44.43500 28.61600
C  5.58400 44.90600 26.20300
C  4.66700 44.66200 29.72900
O  5.84300 44.69100 30.12900
C  3.54100 44.58200 30.78600
C  3.84200 43.49000 31.75600
O  3.64200 42.26300 31.50800
O  4.18400 43.96100 32.94500
C  4.77200 42.84800 33.80000
H  -3.44200 43.42500 30.28300
H  -2.85300 43.63300 23.86200
H  3.50200 44.69400 24.39300
H  1.05500 43.33200 32.36600
H  -1.69400 44.07600 32.24500
H  -1.76000 41.39900 31.18800
H  -2.13800 41.81800 32.81000
H  -0.39800 41.40100 32.26600
H  -0.42800 45.96900 32.56900
H  1.27300 46.08700 32.11900
H  0.19400 46.02700 34.63100
H  1.89500 45.55500 34.09400
H  -5.34300 43.33900 29.65000
H  -6.13800 42.72400 28.20200
H  -6.23200 44.41800 28.39800
H  -6.81000 44.13000 26.41900
H  -7.15800 42.47200 25.88500
H  -7.35500 43.97100 24.81800
H  -1.02900 44.46900 22.22900
H  1.85100 44.03700 22.42300
H  -0.40100 41.67800 22.79400
H  0.74800 42.33600 21.55900
H  -0.91500 42.45100 21.30600
H  0.22100 46.28500 22.00500
H  1.99600 46.23000 21.98200
H  1.11600 46.81600 24.77500
H  0.31500 47.82800 23.59300
H  2.03000 47.51900 23.58200
H  5.62900 44.40500 25.23600
H  6.22200 44.49600 26.98600
H  5.95700 45.91900 26.04700
H  3.56100 45.57800 31.22800
H  4.11600 42.03100 34.09800
H  5.32600 43.15900 34.68500
H  5.55700 42.45400 33.15400

