158

Mg 25.89700 1.37300 29.14000
C  27.72400 1.06900 32.12100
C  23.06900 1.83700 31.02300
C  23.99100 1.45600 26.24900
C  28.69000 0.68900 27.27900
N  25.39500 1.05200 31.37800
C  26.32400 1.19500 32.42100
C  25.68000 1.59800 33.74800
C  24.20500 1.78800 33.30500
C  24.17100 1.53300 31.84900
C  23.12400 0.91300 34.06700
C  26.30800 2.86500 34.43600
C  26.91400 2.59900 35.83000
H  26.42000 3.49000 36.92200
N  23.88500 1.63900 28.70700
C  22.86300 1.76500 29.65100
C  21.58100 1.91200 29.00500
C  21.80900 1.78800 27.59700
C  23.30100 1.63800 27.50100
C  20.32300 2.16300 29.80800
C  20.76300 1.83700 26.51300
O  21.08500 1.80300 25.30300
C  19.31400 2.08100 26.83100
N  26.32100 1.11000 27.15000
C  25.37000 1.19300 26.15300
C  25.92800 0.94000 24.71900
C  27.42500 0.77300 25.04500
C  27.51700 0.84200 26.58200
C  25.34500 -0.24600 24.00300
C  28.39800 1.80000 24.35500
C  29.01600 1.24900 23.05500
N  27.84200 0.94300 29.49700
C  28.88700 0.71900 28.65300
C  30.03500 0.36800 29.43600
C  29.62100 0.55300 30.77100
C  28.27200 0.87000 30.80400
C  31.40200 -0.17900 28.94400
C  30.11900 0.54600 32.15500
O  31.25300 0.45100 32.66100
C  28.90700 0.94000 33.09600
C  28.77100 -0.11000 34.12600
O  28.38300 -1.24400 33.92300
O  29.12000 0.35700 35.39100
C  29.20100 -0.49700 36.55800
H  22.25500 2.30300 31.58300
H  23.32500 1.60600 25.39800
H  29.59000 0.33600 26.77000
H  25.80500 0.72700 34.39200
H  23.96500 2.83300 33.49900
H  22.45400 0.38800 33.38600
H  22.55000 1.48700 34.79400
H  23.55200 0.11100 34.66800
H  25.61600 3.70700 34.42200
H  27.18500 3.23400 33.90500
H  27.97600 2.82900 35.91600
H  26.81100 1.58400 36.21400
H  19.82100 1.26600 30.17000
H  19.55800 2.69500 29.24200
H  20.58300 2.83500 30.62600
H  18.68800 1.94700 25.95000
H  19.17900 3.14900 27.00200
H  18.91200 1.47600 27.64400
H  25.59100 1.73100 24.05000
H  27.74800 -0.22200 24.74000
H  25.64500 -0.40200 22.96600
H  24.26500 -0.13800 24.10600
H  25.71700 -1.11200 24.55000
H  29.22100 1.99400 25.04300
H  27.89900 2.75200 24.17500
H  28.82900 1.84000 22.15800
H  28.49400 0.32800 22.80100
H  30.05800 0.93500 23.11800
H  31.11400 -0.94100 28.22000
H  31.94000 -0.72100 29.72100
H  32.02900 0.55300 28.43500
H  29.15600 1.86000 33.62400
H  28.38100 -0.17800 37.20200
H  30.12500 -0.34000 37.11400
H  29.20300 -1.57100 36.37000
Mg 49.88400 45.11700 42.29100
C  46.66300 45.78600 40.98100
C  49.46000 41.83200 41.16800
C  53.27800 44.74000 42.24600
C  50.38800 48.62300 42.55100
N  48.20200 43.97600 41.33200
C  46.99200 44.43800 40.83000
C  46.24000 43.30900 40.08600
C  47.03700 42.06300 40.54300
C  48.28700 42.61700 41.11700
C  46.36000 41.21200 41.61300
C  46.30300 43.57700 38.53100
C  45.11500 43.00100 37.76600
H  44.82200 43.41700 36.36400
N  51.15300 43.52200 41.98000
C  50.79500 42.24700 41.55700
C  51.96900 41.34900 41.70400
C  53.08000 42.22600 42.06600
C  52.48900 43.58000 42.11300
C  51.77000 39.89600 41.67400
C  54.54200 41.71600 42.35200
O  54.78400 40.55900 42.19100
C  55.56000 42.60800 43.00800
N  51.61700 46.44900 42.68100
C  52.85200 46.05000 42.51700
C  53.86200 47.19800 42.55200
C  52.94800 48.47800 42.57800
C  51.54300 47.84100 42.62200
C  54.91900 47.03500 43.73400
C  53.19600 49.39300 41.32200
C  52.62800 48.92100 39.93000
N  48.78500 46.86300 41.97500
C  49.14500 48.18900 42.08700
C  47.99000 49.03000 41.66000
C  46.96600 48.15300 41.32400
C  47.52400 46.83800 41.51700
C  47.95200 50.50100 41.55100
C  45.66300 48.08500 40.73100
O  44.82200 48.94900 40.46500
C  45.49500 46.54100 40.38100
C  44.06300 46.21200 40.70600
O  43.16300 46.19200 39.86900
O  43.96900 45.78300 42.00000
C  42.58600 45.60200 42.51300
H  49.35500 40.78300 40.88300
H  54.36700 44.67500 42.20500
H  50.58800 49.69700 42.56200
H  45.20000 43.31700 40.41400
H  47.12500 41.44400 39.65000
H  45.34800 41.56300 41.81400
H  46.93300 41.20000 42.54000
H  46.39100 40.16700 41.30400
H  47.23800 43.11900 38.20800
H  46.59800 44.59600 38.27900
H  44.19300 43.08300 38.34100
H  45.16900 41.91400 37.70400
H  52.72200 39.42000 41.90700
H  51.35700 39.45900 40.76400
H  51.15600 39.76400 42.56500
H  55.03500 43.18700 43.76700
H  55.95100 43.18600 42.17100
H  56.24000 41.87100 43.43800
H  54.51800 47.24700 41.68300
H  53.09700 48.93900 43.55500
H  55.23500 46.01800 43.96400
H  54.52900 47.49100 44.64400
H  55.77000 47.59900 43.35300
H  54.27300 49.54300 41.25900
H  52.74300 50.36000 41.54000
H  51.77000 49.54600 39.68400
H  52.34300 47.87000 39.96400
H  53.34000 49.01700 39.11100
H  47.14200 50.82900 40.89900
H  48.84700 50.98600 41.16100
H  47.88900 51.04900 42.49100
H  45.60900 46.44800 39.30100
H  41.83900 45.17600 41.84300
H  42.15100 46.49900 42.95300
H  42.81900 45.03300 43.41300

