158

Mg 0.70700 7.87600 25.23100
C  1.55900 9.86600 28.17600
C  1.04800 5.07900 27.17700
C  0.00000 6.32000 22.56900
C  0.88000 10.97100 23.41200
N  1.14200 7.51200 27.44000
C  1.54100 8.51200 28.42800
C  1.71400 7.77300 29.82200
C  1.76700 6.24300 29.37200
C  1.36300 6.28500 27.89100
C  3.22900 5.56800 29.60100
C  0.39600 8.07400 30.74000
C  0.65800 8.46900 32.18000
H  1.80000 7.74700 32.88100
N  0.61600 5.99100 24.85300
C  0.70600 4.91600 25.77700
C  0.36000 3.73000 25.08000
C  0.04600 4.01900 23.71600
C  0.15200 5.52200 23.62200
C  0.28400 2.39800 25.92500
C  -0.24500 3.04100 22.57900
O  -0.44700 3.34900 21.44200
C  -0.02900 1.61600 22.84800
N  0.35300 8.56800 23.32400
C  0.06000 7.74200 22.36000
C  -0.37100 8.46800 21.05100
C  -0.19700 9.97700 21.42600
C  0.39600 9.83400 22.78700
C  0.42500 8.05600 19.76100
C  -1.61100 10.74300 21.45300
C  -1.71600 12.08900 20.79500
N  1.07200 10.02100 25.64100
C  1.08800 11.10000 24.77800
C  1.38800 12.32000 25.51500
C  1.52800 11.86900 26.86000
C  1.31700 10.43300 26.88200
C  1.42200 13.61100 24.86900
C  1.81700 12.25000 28.17300
O  2.02000 13.34500 28.62200
C  1.81800 11.01600 29.12000
C  3.16500 10.86600 29.62400
O  4.27200 10.90100 29.07500
O  2.97700 10.93900 30.97200
C  4.17900 11.19700 31.86400
H  0.92900 4.15100 27.73900
H  -0.34600 5.75200 21.70200
H  0.78100 11.87100 22.80200
H  2.68900 7.96300 30.27000
H  1.05000 5.54300 29.80100
H  3.84500 6.21100 30.23000
H  3.74700 5.27400 28.68800
H  3.05100 4.61900 30.10700
H  -0.33600 7.28100 30.58800
H  -0.05400 8.93300 30.24100
H  -0.28400 8.32200 32.70800
H  0.85000 9.53900 32.25700
H  1.04200 1.67600 25.62500
H  -0.63200 1.82400 25.78800
H  0.47400 2.62400 26.97400
H  -0.13300 1.14500 21.87000
H  -0.76200 1.28400 23.58300
H  1.00200 1.34600 23.07700
H  -1.38500 8.29900 20.68600
H  0.48500 10.53600 20.78500
H  1.09400 7.25200 20.06700
H  0.96300 8.90700 19.34400
H  -0.18300 7.66700 18.94500
H  -1.96900 10.87200 22.47500
H  -2.41400 10.13800 21.03200
H  -2.56300 12.13700 20.11100
H  -0.78000 12.13800 20.23900
H  -1.65900 12.97000 21.43400
H  1.17300 14.33200 25.64800
H  0.73600 13.71600 24.02800
H  2.45100 13.79700 24.56300
H  1.03800 11.21100 29.85600
H  4.59500 12.20400 31.83700
H  4.96600 10.47200 31.65700
H  3.85200 10.95200 32.87400
Mg 35.60500 47.75800 25.98400
C  35.63200 45.71000 28.78900
C  34.41000 50.37300 27.88500
C  35.21600 49.57600 23.10800
C  36.22000 44.96800 23.90200
N  35.12300 47.97700 28.11500
C  35.23900 47.00600 29.07700
C  35.16400 47.72500 30.44700
C  34.53300 49.12300 30.10300
C  34.66900 49.13200 28.57900
C  33.02600 49.44000 30.54500
C  36.61300 47.75200 31.03900
C  36.70600 47.75600 32.57000
H  35.49200 47.82900 33.40900
N  35.02900 49.70800 25.54900
C  34.63400 50.61400 26.48500
C  34.43000 51.90500 25.84700
C  34.63800 51.73300 24.43100
C  34.95400 50.25100 24.27400
C  34.05700 53.15400 26.51800
C  34.73100 52.76300 23.31900
O  35.20700 52.53900 22.19200
C  34.19700 54.13500 23.54400
N  35.40600 47.29300 23.76100
C  35.39400 48.23600 22.84400
C  35.77500 47.83400 21.42100
C  36.08500 46.31100 21.67500
C  35.93200 46.17900 23.19900
C  34.75300 48.13700 20.30900
C  37.54900 45.93300 21.12700
C  38.69700 46.34800 22.03000
N  35.97200 45.81900 26.24900
C  36.17000 44.76000 25.32600
C  36.55600 43.57700 26.08000
C  36.40400 43.87800 27.44200
C  35.99100 45.30500 27.48200
C  36.90700 42.26500 25.40500
C  36.41500 43.36300 28.78300
O  36.73300 42.22000 29.22100
C  35.90600 44.54700 29.70400
C  34.69600 44.13700 30.38300
O  33.56900 44.00600 29.93600
O  34.89200 44.11000 31.74000
C  33.68600 43.75000 32.63000
H  34.07500 51.19500 28.52100
H  35.16100 50.09600 22.15000
H  36.46100 44.20900 23.15400
H  34.44900 47.23100 31.10500
H  35.09600 49.96800 30.49900
H  33.09000 50.40700 31.04300
H  32.53300 48.59900 31.03400
H  32.34800 49.61000 29.71000
H  37.23700 48.56100 30.66100
H  37.14500 46.85000 30.73700
H  37.34900 48.59800 32.82600
H  37.21200 46.85100 32.90600
H  33.07900 53.43200 26.12600
H  34.70800 54.01000 26.33900
H  34.08100 53.00300 27.59700
H  33.23700 53.88500 23.99500
H  33.97100 54.65200 22.61200
H  34.89200 54.66900 24.19300
H  36.71200 48.29900 21.11500
H  35.35700 45.66100 21.18900
H  34.25700 47.29000 19.83400
H  35.33100 48.52100 19.46800
H  33.96600 48.78800 20.68900
H  37.64600 46.42900 20.16100
H  37.73100 44.88200 20.90300
H  38.90300 45.50500 22.68900
H  38.48500 47.25600 22.59600
H  39.56300 46.72500 21.48600
H  37.98400 42.26200 25.23800
H  36.52300 42.22400 24.38600
H  36.63300 41.46400 26.09300
H  36.63500 44.72300 30.49400
H  34.04200 43.03100 33.36700
H  32.80200 43.35500 32.12900
H  33.50200 44.66100 33.20000

