158

Mg 41.06100 9.48700 29.75700
C  42.63300 10.32400 32.83000
C  38.57100 7.94200 31.59800
C  39.65600 8.70600 26.92400
C  43.88600 10.66600 27.95900
N  40.75900 9.14300 31.93700
C  41.42600 9.65200 32.96600
C  40.79600 9.20800 34.28100
C  39.58500 8.41300 33.91400
C  39.67200 8.47200 32.34300
C  39.45100 7.03800 34.56600
C  40.49000 10.39000 35.26800
C  40.80800 10.14600 36.77400
H  41.16800 11.39100 37.67400
N  39.39600 8.46600 29.30400
C  38.46400 7.89700 30.16100
C  37.30800 7.49700 29.44500
C  37.51400 7.80700 28.08000
C  38.93300 8.34800 28.07900
C  36.08200 6.78200 30.06900
C  36.69000 7.46900 26.89900
O  37.00300 7.70600 25.72600
C  35.26000 6.83300 27.01500
N  41.78000 9.49600 27.74500
C  40.90000 9.17700 26.80900
C  41.37700 9.47200 25.43500
C  42.79900 10.11800 25.73600
C  42.86400 10.13000 27.21400
C  41.26400 8.28800 24.45400
C  43.11800 11.45300 25.05700
C  41.98400 12.49600 25.40700
N  42.91800 10.30300 30.25800
C  43.95000 10.70700 29.41800
C  45.00300 11.30700 30.26500
C  44.48100 11.23600 31.60500
C  43.23100 10.60100 31.55800
C  46.27100 11.92400 29.76200
C  44.74300 11.51900 33.01000
O  45.61900 12.19900 33.46400
C  43.57400 10.90200 33.84400
C  44.18400 10.02300 34.87600
O  44.68400 8.93200 34.63900
O  44.14500 10.63300 36.11100
C  44.66800 9.74000 37.15200
H  37.69900 7.54400 32.12000
H  39.08300 8.53200 26.01000
H  44.72800 11.15000 27.45900
H  41.61000 8.63000 34.71900
H  38.65900 8.90800 34.20800
H  38.45700 7.04300 35.01300
H  40.30300 6.95600 35.24100
H  39.47300 6.30600 33.75900
H  39.45100 10.70700 35.17700
H  41.07200 11.25700 34.95500
H  41.63100 9.44700 36.92400
H  40.05000 9.72000 37.43100
H  35.20700 7.43100 30.06900
H  36.30800 6.60600 31.12100
H  35.80200 5.81000 29.66200
H  35.36900 5.86400 27.50400
H  35.01900 6.71600 25.95900
H  34.44200 7.37000 27.49300
H  40.69700 10.25100 25.09200
H  43.60200 9.45100 25.42300
H  40.82600 7.35500 24.80700
H  42.22100 8.02800 24.00000
H  40.64700 8.66300 23.63700
H  43.12000 11.21900 23.99200
H  44.10400 11.80500 25.36000
H  41.21000 12.49300 24.63900
H  42.45500 13.47100 25.52500
H  41.53500 12.33900 26.38700
H  46.79400 12.27300 30.65200
H  46.04600 12.69800 29.02800
H  46.79800 11.15300 29.20100
H  42.96500 11.66900 34.32400
H  45.74100 9.73000 36.95800
H  44.16300 8.77400 37.14300
H  44.36500 10.18300 38.10100
Mg 16.95400 51.11500 26.77900
C  18.78600 49.65900 29.27900
C  14.56400 52.00600 29.16500
C  14.94800 52.53900 24.43500
C  19.00900 49.97300 24.47500
N  16.87700 51.08800 29.00100
C  17.69400 50.32500 29.84000
C  17.43500 50.55600 31.28800
C  15.88400 51.02000 31.17000
C  15.73400 51.40000 29.68100
C  14.97800 49.92200 31.58100
C  18.40800 51.61900 31.80400
C  18.85500 51.57600 33.26800
H  18.18500 50.56300 34.18200
N  15.14700 52.26500 26.80300
C  14.38300 52.55200 27.86500
C  13.29800 53.46300 27.49000
C  13.39300 53.61600 26.11900
C  14.60000 52.83900 25.74800
C  12.33700 54.04500 28.39800
C  12.53800 54.39700 25.22200
O  12.78800 54.48300 24.02600
C  11.25800 55.11400 25.71200
N  16.81300 50.98100 24.68400
C  15.87600 51.58300 23.96500
C  16.16100 51.35900 22.47700
C  17.66400 50.90700 22.53400
C  17.86800 50.59500 23.96000
C  15.13900 50.38100 21.91300
C  18.68000 51.97300 21.95400
C  19.22000 51.78200 20.53900
N  18.39700 49.91700 26.82100
C  19.25500 49.63500 25.77000
C  20.35600 48.89500 26.23100
C  20.19900 48.81400 27.58500
C  18.97400 49.45800 27.93000
C  21.52900 48.43500 25.48800
C  20.88600 48.46100 28.81600
O  21.99300 48.07200 29.04100
C  19.96100 48.91700 30.00700
C  19.61800 47.76400 30.89900
O  19.04700 46.72000 30.65600
O  20.04800 48.07300 32.12700
C  19.71600 47.08300 33.19500
H  13.82000 52.33500 29.89500
H  14.42500 53.02800 23.61000
H  19.75600 49.72600 23.71800
H  17.54500 49.64100 31.87100
H  15.86700 51.89800 31.81600
H  14.27700 50.40400 32.26300
H  15.63200 49.21600 32.09200
H  14.46700 49.30700 30.84000
H  17.83700 52.54600 31.79100
H  19.21800 51.71800 31.08200
H  18.66400 52.59300 33.61100
H  19.91200 51.34600 33.39700
H  12.47000 55.12700 28.37700
H  12.42700 53.63000 29.40100
H  11.35300 53.69800 28.08300
H  11.52200 56.00900 26.27500
H  10.62300 54.43700 26.28400
H  10.61700 55.41700 24.88400
H  16.09200 52.33000 21.98600
H  17.80600 49.94900 22.03300
H  14.19900 50.34100 22.46400
H  15.68700 49.44500 21.81300
H  14.74800 50.73700 20.95900
H  19.50200 52.11400 22.65600
H  18.21400 52.95800 21.99400
H  18.98600 52.68300 19.97200
H  18.54000 51.00100 20.19900
H  20.22900 51.37200 20.56600
H  22.42500 48.99600 25.75400
H  21.29600 48.50900 24.42500
H  21.79900 47.38100 25.53900
H  20.70600 49.53100 30.51300
H  18.64400 46.96700 33.35500
H  20.13200 47.41400 34.14700
H  19.97200 46.05100 32.95400

