158

Mg 2.03300 -1.73300 44.23400
C  5.32400 -1.11000 43.38900
C  1.20200 1.03800 42.30900
C  -1.08300 -2.87100 43.92000
C  3.08300 -4.56700 45.92600
N  3.20900 -0.28100 42.82300
C  4.54400 -0.14500 42.79000
C  5.01800 1.03000 41.92000
C  3.67900 1.84100 41.77400
C  2.59800 0.85000 42.30500
C  3.69600 3.11000 42.66700
C  5.71800 0.60900 40.60700
C  6.81800 1.57600 40.06600
H  6.28900 2.50800 38.92200
N  0.24700 -0.90600 43.37500
C  0.14200 0.25900 42.72600
C  -1.28000 0.57800 42.49900
C  -1.98500 -0.65300 42.87800
C  -0.93900 -1.57900 43.34600
C  -1.73600 1.89200 42.10800
C  -3.52100 -0.75100 42.94100
O  -4.19800 0.18000 42.58500
C  -4.27700 -1.90200 43.56200
N  1.07500 -3.36500 44.93400
C  -0.19600 -3.71500 44.58200
C  -0.50600 -5.16300 44.98700
C  0.88700 -5.75400 45.37600
C  1.73000 -4.43500 45.52400
C  -1.59600 -5.29400 46.02800
C  1.27200 -6.98400 44.54100
C  1.53100 -8.22800 45.42400
N  3.76700 -2.59600 44.69000
C  4.08300 -3.70700 45.42900
C  5.53100 -3.90300 45.53900
C  6.02600 -2.85600 44.81100
C  4.91900 -2.15500 44.20900
C  6.22100 -5.02700 46.34200
C  7.26200 -2.17900 44.40200
O  8.41400 -2.42600 44.69800
C  6.86200 -1.00000 43.51100
C  7.37700 0.22000 44.11900
O  6.97500 0.61700 45.23100
O  8.25400 0.90600 43.28300
C  8.37000 2.32600 43.46200
H  0.83700 1.94900 41.82900
H  -2.03400 -3.36200 43.70500
H  3.31400 -5.56500 46.30300
H  5.73200 1.66300 42.44600
H  3.34300 1.95900 40.74400
H  3.02900 3.05800 43.52700
H  3.28700 3.86500 41.99600
H  4.64200 3.39700 43.12700
H  4.98000 0.54400 39.80800
H  6.19500 -0.36600 40.71200
H  7.69100 1.05700 39.67100
H  7.25800 2.30600 40.74600
H  -1.12300 2.21600 41.26700
H  -1.55200 2.55300 42.95500
H  -2.79600 1.92700 41.85400
H  -5.25400 -1.64800 43.97200
H  -3.79200 -2.26400 44.46900
H  -4.36400 -2.69400 42.81800
H  -0.86300 -5.63000 44.06900
H  0.73900 -6.05400 46.41300
H  -2.15100 -4.35500 46.04000
H  -1.10400 -5.39000 46.99600
H  -2.31800 -6.11000 46.00900
H  2.15800 -6.64700 44.00400
H  0.52300 -7.36700 43.84800
H  2.55200 -8.57800 45.26900
H  0.83500 -9.01900 45.14200
H  1.50700 -8.09100 46.50500
H  5.56400 -5.68500 46.91000
H  6.88100 -4.43400 46.97500
H  6.74700 -5.65400 45.62100
H  7.33600 -1.12700 42.53800
H  7.71400 2.85200 42.76800
H  9.37800 2.68200 43.24700
H  8.12000 2.57900 44.49300
Mg 47.17100 24.53500 28.05000
C  48.31100 26.79200 30.45700
C  46.79600 22.08600 30.49300
C  46.41900 22.36200 25.66300
C  47.99500 26.92100 25.59800
N  47.46200 24.44600 30.24100
C  47.84400 25.54900 31.00300
C  47.86700 25.15100 32.47100
C  47.38400 23.65400 32.51700
C  47.26400 23.34700 30.99900
C  48.39300 22.72400 33.34000
C  47.05700 26.15700 33.40700
C  46.57000 25.55700 34.70100
H  46.99900 26.29200 36.00900
N  46.58800 22.49800 28.02400
C  46.48100 21.67400 29.17200
C  46.07500 20.32300 28.68400
C  45.93200 20.38600 27.31000
C  46.32200 21.76100 26.92500
C  45.84000 19.19600 29.67000
C  45.60900 19.32200 26.33100
O  45.49300 19.54900 25.16100
C  45.34700 17.91900 26.74300
N  47.14200 24.62900 25.87300
C  46.79800 23.58300 25.12200
C  47.19100 23.84300 23.64100
C  47.31500 25.40900 23.70800
C  47.49200 25.69700 25.13700
C  48.48500 23.09400 23.21300
C  46.06800 26.14500 23.22800
C  46.25400 26.95700 21.93800
N  48.06900 26.41300 27.96000
C  48.30100 27.25800 26.90500
C  48.95300 28.53900 27.35800
C  48.90400 28.40100 28.77300
C  48.39700 27.07800 29.05400
C  49.43600 29.67700 26.56800
C  49.28000 28.99900 30.07800
O  49.78800 30.07700 30.32300
C  48.81200 27.98200 31.16000
C  49.94800 27.71000 32.09300
O  50.96700 27.09400 31.81800
O  49.67100 28.28900 33.30500
C  50.77600 28.38000 34.28000
H  46.63000 21.42400 31.34500
H  46.48000 21.70100 24.79600
H  48.22400 27.62400 24.79400
H  48.91000 25.27400 32.76200
H  46.39700 23.50700 32.95500
H  49.29300 23.12200 33.80700
H  48.69300 21.82900 32.79500
H  47.79400 22.42700 34.20100
H  46.34900 26.61200 32.71400
H  47.78200 26.90800 33.72100
H  46.77400 24.49700 34.85000
H  45.48100 25.55800 34.64400
H  46.67500 19.15500 30.37000
H  45.72100 18.22100 29.19800
H  44.90100 19.45200 30.16100
H  44.97900 17.29800 25.92600
H  44.46700 18.09500 27.36100
H  46.16800 17.47700 27.30800
H  46.34200 23.64100 22.98800
H  48.20100 25.69200 23.14000
H  49.37400 23.72200 23.25800
H  48.30400 22.65900 22.23000
H  48.59900 22.26800 23.91600
H  45.72400 26.91000 23.92400
H  45.20400 25.52000 23.00100
H  47.01900 26.59000 21.25300
H  46.54700 27.93500 22.31900
H  45.30400 27.16300 21.44500
H  49.26500 29.56900 25.49700
H  50.52200 29.75700 26.60900
H  49.02500 30.61900 26.93300
H  48.01900 28.56500 31.62700
H  50.69100 27.64100 35.07600
H  50.70400 29.34200 34.78700
H  51.75500 28.29100 33.80700

