158

Mg 24.57100 1.01000 29.01600
C  26.51700 0.83000 31.92900
C  21.77700 1.57600 31.11600
C  22.70900 1.05800 26.26100
C  27.42200 0.27200 27.08200
N  24.23700 0.99100 31.27000
C  25.19600 1.07500 32.20400
C  24.60900 1.43800 33.60700
C  23.08100 1.30700 33.33400
C  22.99700 1.28900 31.78000
C  22.34600 0.03900 33.99500
C  25.08400 2.85000 34.10400
C  24.68300 3.26400 35.48600
H  25.74500 3.61800 36.57700
N  22.52600 1.29400 28.76900
C  21.53300 1.47100 29.70200
C  20.26000 1.46500 29.00300
C  20.51400 1.16600 27.64400
C  21.95900 1.18300 27.54000
C  19.01100 1.73300 29.66300
C  19.47800 1.05400 26.50600
O  19.82400 0.96300 25.29600
C  17.98500 0.92700 26.73900
N  25.02700 0.72500 26.99400
C  24.10300 0.81100 26.02400
C  24.62200 0.76300 24.57600
C  26.18100 0.86100 24.86600
C  26.22100 0.53000 26.38600
C  24.12700 -0.55200 23.79600
C  26.83300 2.14700 24.45300
C  26.20000 3.42000 24.90100
N  26.54300 0.58000 29.31700
C  27.55500 0.28100 28.48500
C  28.78500 0.15900 29.25300
C  28.37700 0.36100 30.58400
C  27.01600 0.57700 30.60600
C  30.12900 -0.22900 28.64000
C  28.92500 0.46100 31.95800
O  30.07400 0.44600 32.38000
C  27.70300 0.82500 32.88800
C  27.58800 -0.21000 33.93200
O  27.55500 -1.45400 33.83600
O  27.67400 0.46300 35.12200
C  27.39400 -0.35900 36.34100
H  20.84800 1.79500 31.64700
H  22.21300 1.24900 25.30700
H  28.31200 0.15000 26.46200
H  24.74300 0.72400 34.41900
H  22.48700 2.18000 33.60600
H  23.01200 -0.62200 34.55000
H  21.92100 -0.60300 33.22300
H  21.50500 0.26900 34.64900
H  24.64000 3.63300 33.48900
H  26.14000 3.03800 33.91300
H  24.05600 2.49200 35.93200
H  24.17400 4.22700 35.44200
H  18.37200 0.85400 29.75100
H  18.53700 2.54300 29.10900
H  19.06300 2.24000 30.62700
H  17.51700 0.99800 25.75700
H  17.57900 1.67800 27.41700
H  17.77000 -0.10500 27.01700
H  24.18700 1.64700 24.11000
H  26.79700 0.03600 24.50700
H  23.78300 -0.28800 22.79600
H  23.27600 -1.01900 24.29200
H  24.87600 -1.33700 23.68600
H  26.68000 2.21400 23.37600
H  27.90700 2.15800 24.63600
H  25.62400 3.87100 24.09300
H  27.04500 3.96900 25.31700
H  25.56900 3.24700 25.77200
H  30.09700 -0.46300 27.57600
H  30.62500 -0.98100 29.25500
H  30.69900 0.69300 28.75400
H  27.77900 1.83400 33.29500
H  26.43100 -0.85900 36.23500
H  27.46100 0.19600 37.27700
H  28.18500 -1.10200 36.23300
Mg 40.80700 9.55100 29.15500
C  42.71100 10.90900 31.89100
C  38.49700 8.64500 31.63600
C  39.10200 7.99500 26.78000
C  43.38900 10.44400 27.04700
N  40.58200 9.87900 31.57800
C  41.47100 10.36200 32.41400
C  40.96900 10.37500 33.87200
C  39.59100 9.73800 33.76800
C  39.54000 9.34900 32.29100
C  39.51800 8.44400 34.71000
C  41.00700 11.82900 34.51000
C  40.38800 11.89400 35.90900
H  41.20100 12.72900 36.87000
N  39.01700 8.63000 29.12000
C  38.28700 8.23400 30.29400
C  37.29900 7.22000 29.90100
C  37.39500 7.06100 28.50800
C  38.52100 7.95500 28.06300
C  36.37400 6.63500 30.86000
C  36.57300 6.27400 27.48900
O  36.60500 6.42100 26.28200
C  35.47200 5.35900 28.04900
N  41.20100 9.13000 27.25800
C  40.28800 8.63200 26.37100
C  40.80800 8.82100 24.95400
C  42.13300 9.54600 25.05500
C  42.24700 9.77100 26.54100
C  40.62200 7.65300 23.95300
C  42.31700 10.84100 24.18600
C  41.74400 12.09200 24.66600
N  42.67400 10.33900 29.33200
C  43.63800 10.61800 28.44100
C  44.68900 11.25500 29.05000
C  44.35300 11.46800 30.37300
C  43.13000 10.82400 30.51900
C  45.89900 11.74400 28.43900
C  44.77100 12.01800 31.66000
O  45.79800 12.69900 31.88600
C  43.81100 11.62000 32.71400
C  44.60100 10.67900 33.62200
O  45.17300 9.63300 33.39900
O  44.68100 11.26200 34.83600
C  45.38200 10.60800 35.93600
H  37.75100 8.47500 32.41500
H  38.50300 7.47100 26.03200
H  44.06800 10.80900 26.27300
H  41.66300 9.80800 34.49300
H  38.85500 10.46000 34.12400
H  40.44500 8.31200 35.26800
H  39.29700 7.51400 34.18800
H  38.75500 8.44500 35.48700
H  40.64700 12.59500 33.82300
H  42.07600 12.00400 34.63600
H  40.23500 10.93700 36.40600
H  39.39900 12.33200 35.77500
H  36.39900 5.55200 30.73700
H  35.36400 7.04000 30.92400
H  36.83300 6.71400 31.84500
H  34.81400 6.01200 28.62300
H  35.95800 4.61800 28.68400
H  34.94500 4.88400 27.22200
H  40.09900 9.57100 24.60200
H  42.98200 8.90700 24.81300
H  40.28200 6.75700 24.47300
H  41.56400 7.44100 23.44600
H  39.87900 7.90900 23.19800
H  41.83900 10.70000 23.21600
H  43.36600 10.86100 23.89000
H  41.23100 11.94600 25.61700
H  41.09700 12.62800 23.97200
H  42.58300 12.73000 24.94600
H  45.67500 12.60000 27.80200
H  46.29500 10.98700 27.76300
H  46.65300 12.04600 29.16600
H  43.46300 12.53000 33.20300
H  45.97300 11.40700 36.38400
H  46.11300 9.82900 35.72400
H  44.69400 10.18400 36.66800

