158

Mg 1.64700 -1.64100 44.03100
C  4.98700 -0.54400 43.14800
C  0.42300 1.11900 42.30100
C  -1.30500 -3.03500 44.34300
C  3.26600 -4.53900 45.33000
N  2.59400 -0.06600 42.69600
C  3.96800 0.18400 42.45000
C  4.16100 1.30100 41.50600
C  2.81200 2.14800 41.78500
C  1.84500 1.01200 42.21000
C  2.98200 3.24400 42.88600
C  4.37100 0.72900 40.03300
C  5.36600 1.54700 39.19100
H  4.95200 2.11500 37.90100
N  -0.19700 -0.96100 43.48500
C  -0.55500 0.17600 42.82100
C  -2.03000 0.35600 42.87500
C  -2.52300 -0.83300 43.54500
C  -1.33800 -1.68700 43.80500
C  -2.74200 1.47600 42.16300
C  -4.01500 -1.10000 43.82100
O  -4.88400 -0.24900 43.58400
C  -4.52500 -2.33700 44.56400
N  0.99900 -3.58500 44.61400
C  -0.27400 -3.92500 44.74900
C  -0.44400 -5.36600 45.31200
C  1.01500 -5.84500 45.42500
C  1.81800 -4.57900 45.18200
C  -1.25700 -5.57600 46.63100
C  1.51400 -7.07900 44.50800
C  2.33200 -8.15400 45.31000
N  3.66900 -2.33800 44.39200
C  4.10000 -3.47300 44.97600
C  5.58700 -3.49900 45.09500
C  5.95900 -2.32700 44.34800
C  4.77300 -1.68100 43.95100
C  6.45300 -4.44800 45.78800
C  7.08200 -1.45600 43.95600
O  8.31200 -1.51700 44.18800
C  6.45800 -0.27400 43.17600
C  6.80000 1.03300 43.86100
O  6.87800 1.07000 45.09700
O  7.29300 2.00300 42.96300
C  7.74900 3.25100 43.60100
H  -0.08000 1.99200 41.88100
H  -2.21700 -3.59300 44.56600
H  3.70600 -5.38000 45.87100
H  4.99900 1.92100 41.82300
H  2.39400 2.61800 40.89500
H  2.80100 4.15200 42.31100
H  4.02000 3.18600 43.21500
H  2.33200 3.21000 43.76000
H  3.38200 0.68300 39.57600
H  4.56000 -0.34500 40.04200
H  6.19100 0.86000 39.00200
H  5.75900 2.39000 39.76000
H  -3.63100 1.60500 42.78000
H  -2.86800 1.38600 41.08400
H  -2.14500 2.38800 42.19400
H  -5.49900 -2.20300 45.03300
H  -3.90200 -2.64400 45.40400
H  -4.47000 -3.22000 43.92600
H  -0.89900 -5.89300 44.47300
H  1.24900 -6.01400 46.47600
H  -1.35400 -4.63700 47.17600
H  -0.72600 -6.29500 47.25400
H  -2.26800 -5.97600 46.55500
H  2.21100 -6.72200 43.74900
H  0.72000 -7.65300 44.03000
H  1.84500 -9.12600 45.23300
H  2.28400 -7.95400 46.38000
H  3.35200 -8.20400 44.93100
H  6.21400 -4.51100 46.85000
H  7.51700 -4.23400 45.68800
H  6.28800 -5.42800 45.34000
H  6.89700 -0.28000 42.17800
H  7.06000 4.07400 43.41200
H  8.73900 3.50800 43.22300
H  7.94700 3.16300 44.66900
Mg 9.61300 47.80600 26.18800
C  7.38800 47.59100 29.10500
C  11.79800 49.36200 28.18800
C  11.33900 48.33500 23.43200
C  6.85900 46.54000 24.28300
N  9.58600 48.39800 28.41800
C  8.73400 48.10500 29.38500
C  9.29400 48.43700 30.81700
C  10.46400 49.37600 30.34700
C  10.63100 49.08500 28.87600
C  10.21000 50.86500 30.65600
C  9.79400 47.08300 31.59600
C  10.50400 47.54500 32.92600
H  9.76000 47.43200 34.31100
N  11.42600 48.69500 25.86000
C  12.18600 49.21300 26.82500
C  13.45600 49.65700 26.16900
C  13.36200 49.22600 24.84700
C  12.00200 48.70400 24.63900
C  14.55900 50.08800 27.06800
C  14.47500 49.11700 23.81100
O  14.19900 48.68600 22.67300
C  15.93000 49.64300 24.03800
N  9.10000 47.55000 24.15100
C  10.04600 47.82600 23.18100
C  9.64800 47.32700 21.80800
C  8.35200 46.51900 22.16800
C  8.04500 46.82800 23.63500
C  9.44400 48.48500 20.76800
C  8.36400 44.97800 21.81300
C  8.33500 43.90500 22.92200
N  7.47900 47.32600 26.54600
C  6.52900 46.82600 25.66900
C  5.27100 46.65200 26.37400
C  5.57200 46.86100 27.70100
C  6.89800 47.30500 27.81300
C  3.93500 46.15500 25.87000
C  5.01500 46.84500 29.03700
O  3.87900 46.61800 29.46000
C  6.23300 47.28100 30.00000
C  6.50900 46.05400 30.77000
O  6.97300 44.98000 30.31900
O  6.11900 46.27400 32.09200
C  6.43100 45.18100 33.02400
H  12.64900 49.67800 28.79400
H  11.87700 48.34900 22.48200
H  6.08300 46.05100 23.69100
H  8.49800 48.98100 31.32600
H  11.34100 48.90300 30.78800
H  10.96300 51.58000 30.32500
H  9.93100 50.92200 31.70800
H  9.29300 51.15700 30.14300
H  10.28600 46.45500 30.85300
H  8.88600 46.54700 31.87300
H  10.79100 48.59500 32.86700
H  11.41700 46.95500 32.99500
H  15.07200 49.16300 27.32800
H  14.29700 50.76800 27.87900
H  15.27700 50.67300 26.49200
H  15.89400 50.67700 24.38100
H  16.51600 49.62100 23.11900
H  16.51800 49.00100 24.69400
H  10.48900 46.72300 21.46600
H  7.45200 46.84300 21.64500
H  10.37800 48.68900 20.24400
H  9.01400 49.32200 21.31700
H  8.67600 48.27800 20.02200
H  9.34800 44.81100 21.37700
H  7.55400 44.80800 21.10400
H  8.13400 44.34300 23.90000
H  9.26700 43.35500 22.79900
H  7.54700 43.16800 22.77000
H  3.40800 45.55200 26.61000
H  4.10800 45.48300 25.02900
H  3.31400 47.01500 25.62100
H  6.05300 48.13300 30.65600
H  6.42400 45.57000 34.04200
H  7.35200 44.62700 32.84600
H  5.70700 44.37600 32.90000

