158

Mg 1.70900 -1.40900 44.45400
C  5.07200 -0.53300 43.83500
C  0.89700 1.76000 42.95500
C  -1.51400 -2.36200 43.96400
C  2.74300 -4.47000 45.38700
N  2.87100 0.42200 43.41900
C  4.25000 0.46400 43.36900
C  4.75300 1.82400 42.79200
C  3.39400 2.65800 42.73900
C  2.31300 1.59000 42.98600
C  3.16900 3.72800 43.76600
C  5.47100 1.63600 41.45900
C  6.67700 2.58800 41.09900
H  6.92900 2.86000 39.63800
N  -0.10400 -0.40500 43.62800
C  -0.17200 0.83300 43.11200
C  -1.57200 1.14900 42.80500
C  -2.36900 -0.00000 43.12600
C  -1.35200 -1.01800 43.59900
C  -2.10500 2.47200 42.27800
C  -3.90300 -0.15700 43.04100
O  -4.59800 0.73200 42.59400
C  -4.57700 -1.40200 43.43200
N  0.77500 -3.11600 44.56500
C  -0.57000 -3.31400 44.46200
C  -0.94700 -4.81500 44.79300
C  0.43200 -5.42400 45.22000
C  1.41600 -4.29700 45.02300
C  -2.17500 -5.09000 45.65700
C  0.81300 -6.85500 44.54400
C  1.61900 -7.87600 45.46200
N  3.55200 -2.36800 44.56700
C  3.80000 -3.61600 45.05200
C  5.25400 -3.78300 45.12800
C  5.83800 -2.59200 44.69700
C  4.72800 -1.78500 44.30300
C  5.94600 -4.95600 45.58300
C  7.06700 -1.87000 44.50200
O  8.24100 -2.17700 44.72200
C  6.60300 -0.52900 43.90800
C  7.09600 0.63200 44.71300
O  6.55500 0.96900 45.74900
O  8.22500 1.23100 44.16900
C  8.48400 2.52100 44.70100
H  0.53700 2.72400 42.59100
H  -2.44100 -2.91800 43.81200
H  3.07600 -5.39700 45.85700
H  5.53300 2.32600 43.36300
H  3.15100 3.13900 41.79200
H  2.33400 3.49300 44.42700
H  2.91500 4.64400 43.23200
H  4.09900 3.99900 44.26500
H  4.81900 1.84500 40.61100
H  5.76900 0.59300 41.35900
H  7.59500 2.17300 41.51600
H  6.52100 3.53800 41.61000
H  -3.11500 2.53700 41.87500
H  -1.47100 2.66700 41.41200
H  -1.76000 3.32000 42.87000
H  -5.64700 -1.33400 43.23100
H  -4.45200 -1.52500 44.50800
H  -4.11500 -2.28700 42.99500
H  -1.24800 -5.18600 43.81300
H  0.44800 -5.54000 46.30400
H  -2.62100 -4.12700 45.90600
H  -2.00400 -5.48200 46.66000
H  -2.86000 -5.78500 45.17100
H  1.52600 -6.53500 43.78400
H  0.00400 -7.34900 44.00600
H  0.77300 -8.26100 46.03200
H  2.48800 -7.39600 45.91100
H  2.02800 -8.70900 44.89100
H  7.00500 -4.71200 45.49600
H  5.74400 -5.85300 44.99700
H  5.51200 -5.14600 46.56400
H  7.05700 -0.51300 42.91700
H  7.66400 3.09500 45.13300
H  8.82500 3.27900 43.99600
H  9.35600 2.43500 45.35000
Mg 43.87000 3.87200 46.83300
C  41.45000 6.51600 46.66000
C  41.22400 1.71900 46.42600
C  46.15500 1.56200 46.17900
C  46.39700 6.44200 46.84000
N  41.52000 4.09800 46.61500
C  40.84700 5.29600 46.56500
C  39.30200 5.03200 46.44700
C  39.22200 3.41900 46.66300
C  40.70800 3.00300 46.44700
C  38.66200 2.94100 47.99300
C  38.65200 5.57800 45.15400
C  39.36800 5.33300 43.83100
H  39.52600 6.51500 42.96000
N  43.70300 1.84100 46.46100
C  42.52200 1.18200 46.33000
C  42.84200 -0.16700 45.94600
C  44.21000 -0.23400 45.67400
C  44.75900 1.07900 46.11600
C  41.80200 -1.25100 45.69600
C  45.05300 -1.41000 44.98300
O  44.47500 -2.44100 44.61300
C  46.49000 -1.32600 44.75300
N  45.98000 4.00300 46.58600
C  46.69000 2.90000 46.41700
C  48.24200 3.16000 46.49100
C  48.26400 4.66200 46.90100
C  46.79800 5.06000 46.76300
C  49.00000 2.27100 47.43300
C  49.25700 5.43700 46.02300
C  50.16700 6.36100 46.86500
N  44.00200 6.05600 46.72300
C  45.06300 6.91800 46.76700
C  44.59100 8.27600 46.81200
C  43.15500 8.19100 46.78400
C  42.87300 6.76200 46.72300
C  45.54400 9.49800 46.89000
C  41.90300 8.92500 46.73800
O  41.63800 10.11900 46.60900
C  40.79500 7.84000 46.79000
C  39.99800 7.91000 48.04000
O  40.36100 7.73800 49.17100
O  38.79700 8.35600 47.74400
C  37.67700 8.12500 48.71400
H  40.35100 1.06900 46.34400
H  46.86900 0.75400 46.01100
H  47.25000 7.09700 47.03200
H  38.83900 5.59000 47.26100
H  38.63500 3.09300 45.80500
H  37.82900 3.62300 48.16700
H  39.42500 3.03400 48.76600
H  38.35100 1.89700 47.94700
H  38.43800 6.64300 45.23800
H  37.64600 5.17000 45.06500
H  38.76800 4.59000 43.30600
H  40.32000 4.86500 44.08100
H  41.85900 -1.69800 44.70400
H  40.75700 -0.95700 45.79300
H  42.01000 -2.11400 46.32900
H  46.99700 -1.26600 45.71600
H  46.72600 -0.45800 44.13700
H  46.76700 -2.29400 44.33500
H  48.67900 2.95600 45.51400
H  48.47100 4.69000 47.97100
H  49.96100 2.69300 47.72900
H  49.24500 1.33700 46.92700
H  48.42400 2.01500 48.32100
H  48.63600 6.07000 45.39000
H  49.83000 4.77000 45.37700
H  51.17300 5.98900 46.67300
H  50.04900 6.48300 47.94200
H  50.03600 7.29800 46.32400
H  46.05300 9.38000 47.84600
H  45.02300 10.45300 46.81700
H  46.25600 9.42300 46.06800
H  40.07900 7.93500 45.97300
H  37.75500 8.69300 49.64100
H  37.58100 7.07400 48.98300
H  36.73700 8.36000 48.21400

