158

Mg 9.36700 47.99800 26.17600
C  7.11400 48.69100 28.69000
C  11.86600 49.49400 28.07300
C  11.53700 47.89500 23.49800
C  6.79900 47.21000 24.09500
N  9.43400 48.92500 28.19800
C  8.40100 49.06000 29.06200
C  8.97600 49.50800 30.43200
C  10.36600 50.13600 30.10500
C  10.55600 49.49300 28.71800
C  10.50500 51.73300 30.05200
C  8.93500 48.38300 31.45200
C  8.23500 48.93300 32.75700
H  8.16000 47.95500 34.04600
N  11.40000 48.50300 25.91000
C  12.23900 49.01700 26.79300
C  13.62100 48.82900 26.25700
C  13.53100 48.47200 24.91400
C  12.09700 48.22900 24.72600
C  14.87400 49.09400 27.10200
C  14.66500 48.33500 23.87700
O  14.49500 47.98900 22.71500
C  16.10300 48.47300 24.23300
N  9.18700 47.70000 24.06600
C  10.19400 47.67800 23.18100
C  9.79400 47.17600 21.76700
C  8.25200 46.85500 21.99700
C  8.06100 47.25800 23.47200
C  9.98400 48.15700 20.67300
C  7.89600 45.28700 21.68500
C  6.62400 45.01300 20.91100
N  7.37200 47.90100 26.38000
C  6.43100 47.50300 25.43400
C  5.15100 47.63000 26.04500
C  5.39900 48.06300 27.34800
C  6.73900 48.32700 27.44700
C  3.86900 47.46600 25.40000
C  4.75000 48.43300 28.59300
O  3.54300 48.34900 28.84800
C  5.85300 48.78000 29.58000
C  5.87000 47.66000 30.50700
O  6.42100 46.57200 30.40200
O  5.05100 47.94400 31.59700
C  4.64500 46.86700 32.53400
H  12.70600 49.89200 28.64500
H  12.17000 47.60400 22.65700
H  5.93600 46.89600 23.50500
H  8.34500 50.31400 30.80700
H  11.08400 49.67100 30.78000
H  10.89200 52.02600 29.07600
H  11.40600 51.94500 30.62700
H  9.55200 52.21200 30.27800
H  9.91300 48.07500 31.82300
H  8.48600 47.49900 30.99900
H  7.16000 49.04200 32.61700
H  8.66400 49.88600 33.06700
H  14.61900 49.09200 28.16200
H  15.07700 50.13400 26.84400
H  15.64100 48.36900 26.83400
H  16.44500 47.58600 24.76600
H  16.21600 49.35800 24.85900
H  16.59600 48.64000 23.27500
H  10.32900 46.23000 21.68100
H  7.56800 47.45500 21.39700
H  9.32200 48.04200 19.81500
H  10.86700 47.89600 20.08900
H  10.18200 49.17200 21.02000
H  7.82400 44.75300 22.63200
H  8.72800 44.90600 21.09400
H  6.91300 44.73900 19.89600
H  5.95900 45.87600 20.87300
H  6.07000 44.24500 21.45300
H  3.99800 46.77100 24.57100
H  3.42600 48.40800 25.07700
H  3.25200 46.99500 26.16600
H  5.78000 49.72200 30.12500
H  4.82300 47.26700 33.53300
H  5.31300 46.01200 32.43300
H  3.58500 46.66100 32.38600
Mg -11.51900 38.62300 41.97400
C  -9.38200 35.95600 40.89500
C  -9.51400 40.71100 40.20900
C  -13.75000 41.03100 42.40600
C  -13.74300 36.16800 42.96100
N  -9.74300 38.30500 40.61300
C  -8.96900 37.20300 40.48500
C  -7.70100 37.57500 39.64600
C  -7.66600 39.08900 39.57700
C  -9.01300 39.45300 40.18600
C  -6.48200 39.85400 40.29600
C  -7.67600 36.89500 38.22400
C  -6.45000 35.97600 37.93900
H  -5.48400 36.61100 36.94500
N  -11.57700 40.67400 41.54000
C  -10.62300 41.32300 40.76200
C  -11.06400 42.71000 40.60200
C  -12.24300 42.90800 41.38100
C  -12.58200 41.55000 41.88500
C  -10.37500 43.75200 39.78700
C  -12.95500 44.20900 41.47800
O  -12.54300 45.29900 41.02300
C  -14.16600 44.25100 42.37100
N  -13.63800 38.49700 42.38400
C  -14.20800 39.71800 42.71300
C  -15.60500 39.46300 43.30300
C  -15.63000 37.89600 43.40800
C  -14.26100 37.46000 42.89300
C  -15.93800 40.30100 44.60300
C  -16.81300 37.21400 42.61600
C  -17.97100 36.72200 43.52300
N  -11.56500 36.45300 41.94800
C  -12.51600 35.67200 42.55800
C  -12.02300 34.24000 42.63500
C  -10.83300 34.37500 41.90100
C  -10.61700 35.65900 41.52300
C  -12.58100 33.09300 43.41900
C  -9.64800 33.63200 41.43300
O  -9.39500 32.42100 41.56900
C  -8.70700 34.63700 40.71200
C  -7.45700 34.44800 41.42900
O  -7.28800 34.72300 42.63800
O  -6.43200 33.91700 40.75200
C  -5.08600 33.68900 41.30200
H  -8.94800 41.39600 39.57400
H  -14.58800 41.73100 42.38900
H  -14.33200 35.47300 43.56200
H  -6.88400 37.18400 40.25300
H  -7.58700 39.46900 38.55800
H  -5.61400 39.19400 40.30200
H  -6.77500 39.97800 41.33800
H  -6.17500 40.82500 39.90800
H  -7.83400 37.67400 37.47800
H  -8.47700 36.16000 38.14600
H  -6.75300 34.97200 37.64200
H  -5.71600 35.82500 38.73100
H  -11.12200 44.37100 39.29000
H  -9.80500 43.17600 39.05800
H  -9.82600 44.39700 40.47300
H  -14.99300 43.68500 41.94300
H  -14.62400 45.24000 42.35300
H  -13.96100 43.91800 43.38800
H  -16.40900 39.78900 42.64300
H  -15.73000 37.65300 44.46600
H  -15.05800 40.32600 45.24500
H  -16.69100 39.75000 45.16600
H  -16.04400 41.35500 44.34600
H  -16.51300 36.36200 42.00500
H  -17.29000 37.90500 41.92100
H  -18.73500 37.45500 43.78200
H  -17.58800 36.31100 44.45700
H  -18.54900 35.90800 43.08500
H  -13.64500 33.24700 43.59800
H  -12.06400 32.75800 44.31800
H  -12.53800 32.27500 42.69900
H  -8.69200 34.22700 39.70200
H  -4.78800 34.41800 42.05600
H  -4.35300 33.63400 40.49700
H  -5.02900 32.72200 41.80300

