158

Mg 9.72600 47.47100 26.37700
C  7.97700 47.57800 29.34600
C  12.42500 48.51200 28.06200
C  11.38900 47.50900 23.46900
C  6.72500 46.82300 24.55700
N  10.08300 48.18800 28.43200
C  9.23300 48.13600 29.51500
C  10.01100 48.46200 30.87500
C  11.16200 49.34200 30.21200
C  11.25600 48.65400 28.78000
C  10.86200 50.98800 30.18400
C  10.47500 47.29200 31.73300
C  10.03100 47.38600 33.24400
H  10.02700 46.21200 34.19700
N  11.64100 47.76100 25.90600
C  12.66000 48.00500 26.77800
C  13.90100 47.93200 26.06700
C  13.64500 47.63600 24.69800
C  12.14200 47.64800 24.60900
C  15.22700 48.02100 26.70200
C  14.58700 47.49300 23.53000
O  14.26400 47.49600 22.35900
C  16.02100 47.56800 23.74800
N  9.13500 47.14500 24.29600
C  10.00400 47.45800 23.30500
C  9.32700 47.29600 21.86200
C  7.86400 46.80900 22.30100
C  7.85000 46.99400 23.81800
C  9.29000 48.55900 21.01400
C  7.43200 45.40500 21.85400
C  8.31600 44.11900 22.16400
N  7.68400 47.38700 26.76700
C  6.60200 47.06600 25.97300
C  5.46200 46.94200 26.77800
C  6.00200 47.00200 28.11800
C  7.33900 47.34400 28.07700
C  4.10700 46.55200 26.36100
C  5.62400 46.88400 29.54000
O  4.56200 46.63500 30.05100
C  6.94700 47.17400 30.34800
C  7.29700 45.90700 31.01100
O  8.03600 45.02900 30.54500
O  6.65300 45.85600 32.17900
C  6.98400 44.66400 33.03600
H  13.28100 48.86400 28.64300
H  11.94100 47.37600 22.53600
H  5.76500 46.64300 24.06800
H  9.29500 49.07000 31.42800
H  12.09000 49.22600 30.77200
H  10.04300 51.21500 30.86700
H  10.72400 51.25800 29.13700
H  11.77100 51.46500 30.54900
H  11.56200 47.21900 31.77100
H  10.13100 46.35200 31.30100
H  9.03400 47.82400 33.21700
H  10.73800 48.07100 33.71100
H  15.21100 48.10900 27.78900
H  15.73000 48.91900 26.34300
H  15.82100 47.13700 26.47100
H  16.17100 48.62400 23.97400
H  16.57400 47.39300 22.82500
H  16.18000 46.79200 24.49700
H  9.77500 46.46600 21.31500
H  7.07700 47.50000 21.99900
H  10.05200 48.41400 20.24800
H  9.50500 49.46200 21.58600
H  8.31800 48.62100 20.52500
H  7.33800 45.42200 20.76800
H  6.38600 45.22800 22.10600
H  9.20000 44.40600 22.73500
H  8.57000 43.61000 21.23400
H  7.85000 43.41100 22.85000
H  3.52900 46.51100 27.28400
H  4.12700 45.66800 25.72400
H  3.72900 47.36100 25.73700
H  6.63000 47.85100 31.14200
H  7.87800 44.98600 33.57100
H  7.14600 43.69100 32.57200
H  6.19400 44.54200 33.77700
Mg -2.39000 34.18300 26.70800
C  -3.95300 32.73900 29.42100
C  -0.81300 36.40300 28.79700
C  -1.16800 35.98600 24.07200
C  -4.52500 32.50800 24.60500
N  -2.49400 34.65800 28.85600
C  -3.05900 33.78900 29.80300
C  -2.51900 34.03200 31.20800
C  -1.66800 35.30600 30.92600
C  -1.73800 35.57700 29.42100
C  -2.07900 36.59000 31.72400
C  -1.75100 32.81000 31.79500
C  -2.38100 32.27900 33.20300
H  -1.42500 32.35300 34.36400
N  -1.12800 35.92900 26.46600
C  -0.55400 36.64300 27.46800
C  0.52000 37.53000 26.93400
C  0.39100 37.33500 25.52200
C  -0.73300 36.40200 25.30800
C  1.25600 38.54000 27.75800
C  1.20700 37.89700 24.44600
O  1.10500 37.71200 23.24700
C  2.43200 38.60700 24.88400
N  -3.02100 34.50000 24.62800
C  -2.23500 35.17000 23.77600
C  -2.55300 34.67000 22.35300
C  -3.35600 33.41300 22.55900
C  -3.68800 33.50000 23.98700
C  -3.40900 35.69200 21.61000
C  -2.59300 32.04400 22.14700
C  -3.20700 31.08200 21.10300
N  -3.92800 32.87000 26.90000
C  -4.70400 32.27100 25.96200
C  -5.46200 31.20100 26.60900
C  -5.17600 31.31900 27.93900
C  -4.28400 32.41900 28.06500
C  -6.33900 30.09800 25.93500
C  -5.43500 30.81800 29.21800
O  -6.21100 29.93600 29.55900
C  -4.65400 31.66000 30.25600
C  -5.59700 32.23600 31.24600
O  -6.28000 33.19900 31.14100
O  -5.66400 31.42600 32.38500
C  -6.62200 31.91000 33.35600
H  -0.17500 36.95400 29.49100
H  -0.74800 36.27600 23.10600
H  -5.00800 31.81200 23.91600
H  -3.40500 34.25000 31.80500
H  -0.63500 34.99300 31.08100
H  -1.21400 36.88700 32.31700
H  -3.01700 36.43400 32.25700
H  -2.18800 37.43800 31.04800
H  -0.71900 33.08700 32.01300
H  -1.75300 32.02900 31.03500
H  -2.80700 31.27600 33.24600
H  -3.18900 32.90100 33.58900
H  0.63800 38.79700 28.61800
H  1.41800 39.49200 27.25100
H  2.20100 38.15000 28.13600
H  3.06900 38.71700 24.00600
H  3.03900 38.02400 25.57700
H  2.21700 39.62400 25.21300
H  -1.65500 34.35500 21.82200
H  -4.29300 33.41500 22.00100
H  -2.97300 36.65200 21.88800
H  -4.47900 35.57800 21.78500
H  -3.27400 35.57300 20.53500
H  -2.45300 31.42300 23.03100
H  -1.58700 32.24600 21.77700
H  -3.34200 30.06700 21.47800
H  -2.50000 30.86400 20.30300
H  -4.05500 31.54200 20.59600
H  -6.04200 29.06100 26.08800
H  -6.43000 30.25000 24.85900
H  -7.32500 30.20500 26.38800
H  -3.93100 30.97200 30.69300
H  -7.56500 31.98300 32.81500
H  -6.19100 32.86300 33.66400
H  -6.56700 31.20400 34.18500

