158

Mg 1.36100 8.74200 26.76300
C  1.67400 11.08900 29.47800
C  1.85900 6.20200 28.97000
C  1.56100 6.63300 24.12200
C  1.86500 11.51100 24.56300
N  1.82500 8.66500 28.93300
C  1.61400 9.73300 29.85200
C  1.42000 9.24200 31.33900
C  1.85500 7.73300 31.08300
C  1.88100 7.48200 29.59300
C  3.12100 7.21200 31.82200
C  -0.00700 9.49700 31.98800
C  -0.08700 9.32000 33.42000
H  1.10900 8.75600 34.17300
N  1.52700 6.68900 26.57300
C  1.84900 5.82900 27.58300
C  1.83800 4.47100 27.07000
C  1.57100 4.53400 25.69000
C  1.58700 6.02000 25.39900
C  1.87600 3.23900 28.01500
C  1.38500 3.49800 24.70400
O  1.11200 3.74200 23.54600
C  1.49700 2.06800 25.02200
N  1.70200 8.98000 24.63600
C  1.58400 7.98300 23.69500
C  1.68200 8.54900 22.26000
C  1.75300 10.06900 22.52800
C  1.77400 10.19400 24.01700
C  2.87700 7.91700 21.52000
C  0.59400 10.93200 21.87100
C  -0.84900 10.79100 22.49300
N  1.54700 10.93800 26.89600
C  1.80900 11.91800 25.95200
C  1.88200 13.16700 26.64100
C  1.88300 12.92100 27.92700
C  1.64100 11.49700 28.10600
C  1.98500 14.52000 25.89100
C  1.92400 13.54500 29.20400
O  2.09900 14.72100 29.49800
C  1.73200 12.36400 30.23700
C  2.90200 12.34400 31.17800
O  4.07800 12.33500 30.88300
O  2.45300 12.40600 32.47100
C  3.48000 12.31600 33.59100
H  1.97500 5.39600 29.69800
H  1.58100 6.02500 23.21500
H  2.15000 12.26800 23.83000
H  2.18000 9.90400 31.75300
H  1.03800 7.10900 31.44400
H  3.53500 7.81600 32.63000
H  3.92900 7.07200 31.10500
H  2.84200 6.29100 32.33400
H  -0.78800 8.96300 31.44800
H  -0.20900 10.52900 31.70200
H  -0.93200 8.68000 33.67700
H  -0.29400 10.27200 33.90700
H  2.39600 3.51300 28.93400
H  2.45200 2.46800 27.50400
H  0.84600 2.91700 28.16600
H  0.72400 1.86800 25.76400
H  2.49600 1.82100 25.38400
H  1.38800 1.43100 24.14400
H  0.76700 8.31100 21.71800
H  2.69800 10.43300 22.12500
H  3.52400 7.24800 22.08800
H  3.56800 8.64400 21.09400
H  2.55200 7.23500 20.73400
H  0.66500 10.52200 20.86400
H  0.91400 11.96800 21.98800
H  -1.15900 11.64200 23.10000
H  -0.96000 9.85000 23.03000
H  -1.53700 10.68900 21.65400
H  1.18300 14.41000 25.16100
H  2.96800 14.63400 25.43400
H  1.87700 15.44000 26.46500
H  0.73900 12.44500 30.67900
H  3.88500 13.32600 33.66300
H  4.25100 11.59000 33.33400
H  3.03500 12.01200 34.53800
Mg 55.84300 24.69900 44.64200
C  52.93300 26.44600 43.48400
C  54.41800 21.92100 43.30700
C  58.94300 23.28100 44.78700
C  57.09600 27.68500 45.68600
N  54.03400 24.32700 43.28800
C  53.01600 25.17100 42.96200
C  51.99800 24.49700 42.04400
C  52.23000 23.05600 42.57100
C  53.67600 23.05500 43.07400
C  51.15700 22.48900 43.52000
C  52.43000 24.67500 40.48400
C  51.37600 25.21200 39.44500
H  51.12600 24.33600 38.25100
N  56.53300 22.86400 44.25700
C  55.80900 21.81500 43.84800
C  56.59100 20.62500 43.81900
C  57.93100 20.94300 44.33900
C  57.84100 22.41500 44.40800
C  56.03800 19.30100 43.44400
C  59.11400 19.96500 44.67200
O  58.89700 18.80600 44.42200
C  60.47600 20.33400 45.09200
N  57.76600 25.39100 45.10700
C  58.95000 24.65100 45.01700
C  60.19200 25.55700 45.21200
C  59.53200 26.91500 45.68700
C  58.05700 26.69900 45.49900
C  61.32400 24.97300 46.15200
C  60.04100 28.16500 44.96300
C  60.28600 29.44800 45.81700
N  55.19900 26.60300 44.71100
C  55.75000 27.68100 45.38300
C  54.81900 28.78000 45.42600
C  53.71600 28.37600 44.68400
C  54.00600 27.03100 44.28000
C  55.07600 30.09900 46.13500
C  52.36900 28.66200 44.22500
O  51.67800 29.62400 44.48400
C  51.85700 27.42100 43.42800
C  51.62000 27.86000 42.04700
O  52.51500 28.21500 41.24700
O  50.30900 27.70400 41.81400
C  49.87600 28.25500 40.59000
H  53.90900 20.96700 43.15700
H  59.93200 22.82400 44.70600
H  57.45900 28.64600 46.05700
H  50.97500 24.81400 42.24700
H  52.30100 22.42200 41.68800
H  51.67200 22.42400 44.47900
H  50.88200 21.49200 43.17500
H  50.25900 23.10700 43.51900
H  52.97600 23.80100 40.12900
H  53.21500 25.43200 40.47000
H  51.73500 26.21100 39.19500
H  50.44200 25.16400 40.00400
H  56.04300 19.16000 42.36300
H  55.00500 19.40000 43.77600
H  56.54900 18.51900 44.00600
H  61.07700 19.46700 45.36600
H  60.42800 21.04500 45.91700
H  61.00900 20.88200 44.31500
H  60.57100 25.66200 44.19600
H  59.64800 26.98700 46.76800
H  61.68500 25.69500 46.88400
H  62.13200 24.57600 45.53700
H  60.83300 24.18500 46.72200
H  59.35100 28.47700 44.17900
H  60.98400 27.80100 44.55600
H  59.58000 29.65800 46.61900
H  60.39400 30.38800 45.27500
H  61.20600 29.22100 46.35600
H  55.32000 30.80000 45.33600
H  55.93700 29.97700 46.79200
H  54.20600 30.35500 46.74000
H  50.88200 27.18500 43.85400
H  48.84200 27.92800 40.48900
H  50.38500 27.96000 39.67200
H  49.75100 29.33000 40.71800

