158

Mg 1.86900 -0.97600 43.40200
C  5.26000 -0.51500 43.05500
C  1.27900 1.88900 41.64400
C  -1.45500 -1.78700 43.41700
C  2.54600 -4.21200 44.71500
N  3.12400 0.49500 42.49100
C  4.51800 0.48100 42.42900
C  5.03500 1.47400 41.47600
C  3.75700 2.34400 41.08100
C  2.63900 1.50900 41.78100
C  3.79800 3.90600 41.39400
C  5.66700 0.86200 40.21300
C  7.08900 1.36200 39.86400
H  7.27700 2.42700 38.75400
N  0.15200 -0.00100 42.79800
C  0.13500 1.14200 42.04600
C  -1.19100 1.57600 41.86400
C  -1.97200 0.48500 42.31900
C  -1.07900 -0.50000 42.89900
C  -1.47100 2.81600 41.13100
C  -3.49800 0.38500 42.25200
O  -4.19500 1.25200 41.83100
C  -4.42100 -0.80800 42.77000
N  0.68900 -2.80100 43.88900
C  -0.62600 -2.83600 43.80900
C  -1.22600 -4.15000 44.25700
C  0.02700 -4.90400 44.82600
C  1.20800 -3.91300 44.44200
C  -2.46100 -4.18900 45.22300
C  0.29800 -6.41600 44.39000
C  0.70000 -7.35800 45.53500
N  3.57400 -2.08200 44.03900
C  3.66300 -3.34600 44.48900
C  5.04100 -3.69300 44.73800
C  5.79900 -2.58200 44.13400
C  4.79400 -1.64800 43.71700
C  5.52000 -4.94600 45.40100
C  7.12400 -2.06500 43.66200
O  8.25300 -2.48900 43.82900
C  6.74800 -0.68500 42.98700
C  7.38400 0.27600 43.74600
O  7.02000 0.69100 44.86000
O  8.43400 0.86600 42.98600
C  8.93700 1.99900 43.69300
H  1.13600 2.85200 41.14900
H  -2.49400 -2.08300 43.26100
H  2.77300 -5.20300 45.11100
H  5.72200 2.15200 41.98300
H  3.52900 2.29100 40.01700
H  3.44800 4.44600 40.51400
H  4.85200 4.16100 41.50400
H  3.27300 4.29300 42.26700
H  5.03100 1.00500 39.34000
H  5.73400 -0.21600 40.36100
H  7.71600 0.50100 39.63300
H  7.45200 1.85600 40.76500
H  -1.02300 2.88300 40.13900
H  -0.99200 3.60100 41.71500
H  -2.54800 2.95100 41.03700
H  -5.46800 -0.50300 42.75500
H  -4.12800 -1.03500 43.79400
H  -4.32500 -1.69100 42.13700
H  -1.62500 -4.79400 43.47300
H  -0.01500 -4.90800 45.91500
H  -2.34400 -4.57400 46.23600
H  -3.23300 -4.77800 44.72800
H  -2.86500 -3.18400 45.34900
H  0.93600 -6.34800 43.50900
H  -0.57000 -6.83500 43.88100
H  0.41600 -6.89700 46.48100
H  1.75900 -7.61100 45.56400
H  0.13700 -8.29100 45.49100
H  4.81000 -5.65700 45.82400
H  6.19600 -4.65600 46.20400
H  6.07800 -5.51200 44.65500
H  7.22500 -0.69000 42.00700
H  9.47200 1.77100 44.61500
H  8.10800 2.67400 43.90500
H  9.75900 2.36600 43.07700
Mg 26.20600 -0.60900 29.57000
C  28.16000 -0.52600 32.53700
C  23.49700 -0.08400 31.49000
C  24.43300 -0.99200 26.79200
C  29.19200 -1.14900 27.84200
N  25.93300 -0.42700 31.82700
C  26.87800 -0.27900 32.79600
C  26.14400 0.02400 34.18700
C  24.60300 -0.00200 33.82800
C  24.61900 -0.15900 32.28800
C  23.70900 -0.94100 34.72800
C  26.65600 1.34400 34.89000
C  27.03000 1.10300 36.37100
H  26.53200 2.13000 37.33300
N  24.21400 -0.56600 29.15800
C  23.23600 -0.27900 30.10900
C  21.93800 -0.40800 29.45500
C  22.23700 -0.47800 28.03900
C  23.66800 -0.74600 27.99300
C  20.71900 -0.32100 30.22800
C  21.27600 -0.54700 26.94500
O  21.68700 -0.60100 25.79100
C  19.87700 -0.37700 27.15700
N  26.69200 -1.16400 27.59300
C  25.80200 -1.20400 26.63700
C  26.40500 -1.25800 25.17300
C  27.92900 -1.17700 25.53100
C  27.99500 -1.11100 27.05700
C  25.90700 -2.43100 24.26100
C  28.67200 0.08400 24.87400
C  28.65400 1.44700 25.60400
N  28.22000 -0.86900 30.03300
C  29.29800 -1.18700 29.24100
C  30.55700 -1.20100 30.01700
C  30.10900 -1.03600 31.31700
C  28.68000 -0.81500 31.28000
C  31.98700 -1.33700 29.49600
C  30.59600 -0.85800 32.70300
O  31.71800 -0.91500 33.13100
C  29.29600 -0.41100 33.51800
C  29.28100 -1.46700 34.66000
O  29.08300 -2.64600 34.52500
O  29.57900 -0.82200 35.82600
C  29.52200 -1.64000 37.07700
H  22.59500 0.11100 32.07500
H  23.97400 -1.17900 25.81900
H  30.10400 -1.22600 27.24700
H  26.45700 -0.81900 34.80200
H  24.14700 0.94700 34.10900
H  23.13700 -1.68000 34.16700
H  22.91600 -0.45700 35.29700
H  24.28100 -1.35600 35.55800
H  25.86700 2.08900 34.78900
H  27.60300 1.69900 34.48300
H  28.05900 1.23300 36.70800
H  26.73100 0.10700 36.69900
H  20.17100 0.57200 29.92800
H  20.89500 -0.19100 31.29600
H  20.10600 -1.21400 30.10500
H  19.36200 -0.24600 26.20500
H  19.61100 0.48000 27.77600
H  19.49100 -1.34000 27.49000
H  26.06100 -0.36400 24.65100
H  28.52600 -2.05200 25.27300
H  25.17100 -3.02300 24.80500
H  26.67700 -3.14300 23.96300
H  25.49300 -2.02600 23.33800
H  28.29500 0.17400 23.85500
H  29.67800 -0.21000 24.57400
H  29.55900 2.04300 25.48800
H  28.52200 1.45000 26.68600
H  27.89900 2.09700 25.16200
H  32.13300 -2.40500 29.66000
H  32.63600 -0.62500 30.00500
H  31.96600 -1.09100 28.43400
H  29.54600 0.60700 33.81500
H  30.40800 -1.34000 37.63700
H  29.46000 -2.72000 36.94000
H  28.61500 -1.31100 37.58300

