158

Mg 53.35000 23.99500 45.50700
C  50.56700 26.21900 44.65600
C  51.24900 21.30200 44.78100
C  55.99200 22.05200 45.65100
C  55.28100 26.86400 45.92500
N  51.29000 23.85500 44.59900
C  50.28500 24.86000 44.51900
C  48.85900 24.21400 44.43200
C  49.11900 22.76900 44.87600
C  50.65800 22.59900 44.72100
C  48.73700 22.55200 46.41700
C  48.16400 24.40800 43.07400
C  49.02700 24.28900 41.79900
H  48.33500 23.62900 40.49000
N  53.55100 21.90500 45.28700
C  52.62500 21.00200 44.90400
C  53.29400 19.69500 44.85700
C  54.69000 19.89100 44.86300
C  54.81400 21.33400 45.29200
C  52.53600 18.42700 44.52800
C  55.74300 18.81200 44.61900
O  55.49800 17.80800 43.94500
C  57.19600 18.98200 44.98600
N  55.37300 24.44900 45.55100
C  56.26700 23.40200 45.76800
C  57.74200 24.04300 45.91600
C  57.48800 25.61000 45.96500
C  55.99500 25.70800 45.79800
C  58.70800 23.40400 46.91500
C  58.31500 26.43600 44.94900
C  57.51300 26.92900 43.74500
N  53.06000 26.06800 45.37400
C  53.91200 27.10800 45.60400
C  53.31900 28.43600 45.40900
C  51.92100 28.07000 45.11800
C  51.86400 26.65800 44.95800
C  53.99700 29.77100 45.62800
C  50.62800 28.62800 44.94600
O  50.26800 29.80500 44.86300
C  49.76600 27.50600 44.62200
C  49.25900 27.85800 43.28600
O  49.94600 27.83400 42.23700
O  47.93300 28.17900 43.33100
C  47.37200 28.81000 42.17300
H  50.66000 20.38300 44.74600
H  56.89900 21.44600 45.72000
H  55.90300 27.70300 46.24400
H  48.15300 24.73300 45.08000
H  48.56900 22.10600 44.20800
H  48.20300 23.39500 46.85500
H  49.60900 22.46900 47.06500
H  48.20600 21.60100 46.45100
H  47.67600 25.37800 42.97500
H  47.31800 23.72700 42.98900
H  49.89400 23.67200 42.03800
H  49.41700 25.27500 41.54700
H  53.07000 17.51700 44.80000
H  52.27000 18.18900 43.49900
H  51.65400 18.31100 45.15800
H  57.89600 18.16900 44.79000
H  57.11300 19.32800 46.01600
H  57.55600 19.79800 44.36000
H  58.20200 23.82100 44.95300
H  57.74600 25.89700 46.98400
H  59.13200 24.16600 47.56900
H  59.50700 22.97100 46.31400
H  58.27200 22.56700 47.46000
H  59.20100 25.93500 44.55600
H  58.55400 27.35600 45.48200
H  58.23300 26.96700 42.92700
H  57.07800 27.92800 43.77300
H  56.75800 26.19900 43.45400
H  54.22600 29.96700 46.67500
H  53.43700 30.65300 45.31600
H  54.89400 29.69800 45.01200
H  49.00100 27.35300 45.38400
H  46.43900 29.28100 42.48400
H  47.14700 28.10700 41.37200
H  48.00100 29.63300 41.83400
Mg 46.90500 45.44000 43.86400
C  43.67300 45.17900 43.14300
C  47.42200 42.14900 42.87300
C  50.27100 46.06200 43.92800
C  46.48800 48.99900 44.26600
N  45.76800 43.87800 43.11500
C  44.44600 44.03600 42.81200
C  43.92500 42.85200 42.05000
C  44.97300 41.74400 42.47700
C  46.16400 42.66800 42.66300
C  44.59200 40.91600 43.76300
C  43.67900 43.10000 40.49900
C  42.63000 42.12500 39.89700
H  42.94700 41.48100 38.49300
N  48.65300 44.22500 43.52200
C  48.64100 42.85100 43.18300
C  49.94600 42.29800 43.36200
C  50.72900 43.46500 43.57400
C  49.89200 44.66900 43.74600
C  50.32100 40.89700 43.08500
C  52.28300 43.47800 43.50300
O  52.90700 42.45500 43.45500
C  53.11100 44.76000 43.55800
N  48.21700 47.41900 43.86000
C  49.56500 47.24700 43.92100
C  50.29800 48.58000 44.24300
C  49.08100 49.52300 44.33000
C  47.87400 48.61800 44.14600
C  51.11300 48.43700 45.59000
C  49.18200 50.86200 43.53000
C  49.42700 52.12400 44.30200
N  45.40400 46.86000 43.91000
C  45.30500 48.20900 44.08500
C  43.92600 48.66600 43.91900
C  43.23000 47.46700 43.58800
C  44.15900 46.45000 43.61200
C  43.43000 50.06200 43.85300
C  41.97600 46.88400 43.20200
O  40.88000 47.42200 42.96100
C  42.16100 45.42500 42.98400
C  41.35000 44.54700 43.92100
O  40.35700 43.90600 43.53800
O  41.99500 44.39300 45.16300
C  41.17300 43.66900 46.16700
H  47.55800 41.11600 42.54800
H  51.24900 46.19300 44.39500
H  46.29400 50.05500 44.46200
H  42.96300 42.64100 42.51900
H  45.22400 41.08500 41.64600
H  45.11100 41.23600 44.66600
H  44.90100 39.88100 43.62200
H  43.52700 41.03900 43.96000
H  44.64500 43.12400 39.99400
H  43.30300 44.12100 40.42600
H  41.72100 42.70500 39.73800
H  42.36700 41.36100 40.62800
H  51.31900 40.63500 43.43600
H  50.22100 40.66700 42.02400
H  49.59900 40.25200 43.58500
H  53.21000 45.16400 44.56500
H  52.72200 45.57000 42.94100
H  54.11300 44.51400 43.20600
H  51.08700 48.81700 43.52800
H  49.01300 49.85400 45.36700
H  50.84300 49.23200 46.28500
H  52.17500 48.40100 45.34600
H  50.85700 47.49700 46.07900
H  48.28400 50.87100 42.91300
H  50.05700 50.79300 42.88400
H  50.07000 51.93900 45.16200
H  48.51200 52.62900 44.61300
H  49.98000 52.86100 43.71900
H  42.34700 50.06100 43.72900
H  43.93300 50.66400 43.09600
H  43.53200 50.58300 44.80500
H  41.80100 45.23200 41.97300
H  41.61200 43.81900 47.15300
H  41.23900 42.64200 45.80700
H  40.11900 43.93600 46.09000

