158

Mg 53.27900 23.57400 44.51900
C  50.55600 25.65600 43.72500
C  51.86600 21.04300 42.86500
C  56.30100 22.17900 44.46200
C  54.80300 26.70900 45.55600
N  51.54800 23.47500 43.23300
C  50.52800 24.36900 43.12500
C  49.44300 23.86600 42.17000
C  49.68200 22.23400 42.29900
C  51.14600 22.24200 42.77100
C  48.69900 21.41100 43.17500
C  49.63700 24.42300 40.72500
C  48.37400 24.79600 39.95300
H  47.88300 23.72600 38.88600
N  53.95900 21.77600 43.88900
C  53.18900 20.88400 43.26000
C  54.02200 19.70300 43.07500
C  55.31400 19.97000 43.44000
C  55.28400 21.38200 43.90700
C  53.46600 18.39300 42.53000
C  56.56800 19.03900 43.42700
O  56.56200 17.89500 43.00500
C  57.85600 19.42100 43.96800
N  55.25000 24.34400 44.84700
C  56.29500 23.45400 44.95700
C  57.59600 24.11100 45.70300
C  57.11100 25.57700 45.85500
C  55.63600 25.56400 45.41500
C  57.96200 23.46600 47.08000
C  57.88000 26.70500 45.06100
C  58.54700 27.80200 45.82400
N  52.81300 25.74300 44.71900
C  53.49100 26.83000 45.28100
C  52.56800 27.89800 45.50400
C  51.42800 27.50600 44.87900
C  51.63400 26.20900 44.38500
C  53.01000 29.12600 46.31400
C  50.07100 27.84200 44.64800
O  49.47900 28.85400 44.99500
C  49.44600 26.71800 43.80400
C  49.04100 27.31000 42.47700
O  49.70200 27.59800 41.53000
O  47.66000 27.46200 42.53500
C  47.12200 27.89800 41.31700
H  51.37000 20.12800 42.53600
H  57.26400 21.74400 44.73700
H  55.24200 27.61100 45.98900
H  48.46100 24.08100 42.59300
H  49.70600 21.71500 41.34100
H  48.69900 21.55400 44.25500
H  48.77200 20.34500 42.96000
H  47.66300 21.54800 42.86400
H  50.26100 23.77200 40.11200
H  50.29800 25.27700 40.87200
H  48.60900 25.73400 39.44900
H  47.59500 25.00700 40.68600
H  53.92000 17.55200 43.05600
H  53.60300 18.42700 41.45000
H  52.39100 18.32000 42.69500
H  58.34700 20.10000 43.27100
H  58.55800 18.58900 44.00800
H  57.76500 19.81000 44.98200
H  58.41300 24.09200 44.98000
H  57.13400 25.75400 46.93000
H  58.09800 24.12000 47.94200
H  58.97700 23.08400 46.97300
H  57.37900 22.57100 47.29300
H  57.19400 27.20100 44.37400
H  58.67800 26.24000 44.48200
H  58.18000 28.68700 45.30300
H  59.62500 27.63900 45.84300
H  58.18200 27.80100 46.85100
H  52.14100 29.76400 46.47100
H  53.65300 29.71100 45.65700
H  53.61200 28.93800 47.20300
H  48.53600 26.32400 44.25500
H  47.49500 28.88500 41.04200
H  46.06000 27.78300 41.52900
H  47.37400 27.24300 40.48200
Mg -1.28400 34.19700 27.38800
C  -3.02800 32.90900 30.07100
C  0.37300 36.34600 29.40100
C  -0.34800 36.10400 24.64900
C  -3.32700 32.39800 25.16000
N  -1.31700 34.51500 29.51700
C  -2.04100 33.80500 30.50300
C  -1.65500 34.21300 31.92000
C  -0.63800 35.39100 31.68600
C  -0.41700 35.35300 30.11200
C  -1.25000 36.76400 32.23500
C  -1.01900 33.03000 32.71500
C  -1.71000 32.54600 34.03500
H  -0.78000 32.08600 35.15100
N  -0.07700 35.99900 27.06100
C  0.50300 36.65500 28.04000
C  1.38400 37.72100 27.48600
C  1.08100 37.78600 26.11500
C  0.17200 36.60100 25.87600
C  2.42900 38.41800 28.29700
C  1.53100 38.72600 25.08700
O  1.24300 38.70100 23.92400
C  2.43800 39.85600 25.47600
N  -1.71000 34.11800 25.24300
C  -1.17900 35.01700 24.33300
C  -1.71700 34.68800 22.93300
C  -2.17300 33.26900 23.00100
C  -2.37900 33.21100 24.60600
C  -2.65400 35.73900 22.24300
C  -1.31100 32.09600 22.42700
C  -0.30500 31.51300 23.35100
N  -2.84700 32.97100 27.58800
C  -3.62600 32.32500 26.56500
C  -4.55000 31.40600 27.21800
C  -4.36400 31.58500 28.57200
C  -3.35800 32.62900 28.76200
C  -5.38700 30.39900 26.51500
C  -4.74700 31.06400 29.84900
O  -5.47600 30.19000 30.22700
C  -3.91100 31.94600 30.85200
C  -4.84300 32.71900 31.66200
O  -5.25300 33.83500 31.29700
O  -5.13400 32.18200 32.84800
C  -6.01900 32.96900 33.66700
H  1.06100 36.95500 29.99200
H  0.01500 36.72100 23.82400
H  -3.86100 31.81100 24.40900
H  -2.59000 34.58400 32.34000
H  0.35700 35.15400 32.06400
H  -2.10800 36.52300 32.86200
H  -1.49500 37.33600 31.34100
H  -0.40900 37.23000 32.75000
H  0.04900 33.18800 32.86100
H  -1.08700 32.25100 31.95600
H  -2.26100 31.63500 33.79900
H  -2.52400 33.21400 34.31800
H  3.33600 38.72800 27.77900
H  2.78800 37.81200 29.12900
H  1.96800 39.29100 28.76000
H  3.43300 39.50600 25.75200
H  2.01800 40.39000 26.32900
H  2.57800 40.62100 24.71300
H  -0.76700 34.62000 22.40300
H  -3.17700 33.12200 22.60200
H  -2.31800 36.19400 21.31200
H  -2.80800 36.61800 22.86800
H  -3.60100 35.22100 22.08600
H  -0.74900 32.53600 21.60200
H  -2.00100 31.39700 21.95500
H  0.67200 31.98400 23.24500
H  -0.26700 30.43900 23.16700
H  -0.70600 31.47600 24.36400
H  -4.75400 29.64900 26.04100
H  -6.00200 30.84300 25.73300
H  -6.06600 30.06200 27.29800
H  -3.35400 31.34600 31.57200
H  -6.48100 32.23000 34.32200
H  -6.68900 33.71900 33.24600
H  -5.37100 33.65000 34.21900

