158

Mg 36.50400 49.29500 26.21500
C  37.23100 47.31600 29.15900
C  35.22800 51.70300 28.28700
C  35.70800 51.02500 23.52400
C  37.35500 46.47900 24.22600
N  36.30100 49.41500 28.52200
C  36.78200 48.59300 29.46600
C  36.65600 49.18700 30.83200
C  35.86900 50.56100 30.55800
C  35.71600 50.58600 29.02900
C  34.54000 50.86400 31.30000
C  38.09100 49.51600 31.56300
C  38.29500 49.33800 33.15700
H  36.95000 49.39400 33.94000
N  35.54400 51.10900 25.95000
C  35.14000 51.98200 26.93200
C  34.58200 53.22900 26.27300
C  34.65500 52.99800 24.85400
C  35.34500 51.68700 24.68600
C  33.91700 54.31700 27.00500
C  34.27100 53.83500 23.69400
O  34.46000 53.55900 22.54100
C  33.46300 55.02400 23.94500
N  36.59200 48.83000 24.15000
C  36.26200 49.74300 23.23200
C  36.56900 49.28000 21.79600
C  37.04800 47.79700 22.01900
C  37.06100 47.66000 23.54500
C  35.36400 49.40900 20.78200
C  38.39300 47.44200 21.37100
C  38.41200 47.22100 19.80600
N  37.10300 47.31200 26.53600
C  37.43900 46.32400 25.63400
C  37.91400 45.18600 26.30400
C  37.89800 45.52400 27.69900
C  37.35600 46.77500 27.82900
C  38.19500 43.84100 25.70200
C  38.22100 45.00600 29.01300
O  38.66400 43.88300 29.34700
C  37.78000 46.18700 29.98200
C  36.84500 45.65100 30.94900
O  35.85200 45.00800 30.63500
O  37.30300 45.89600 32.20000
C  36.89500 45.01700 33.31300
H  34.77800 52.43000 28.96600
H  35.61500 51.57900 22.58800
H  37.78300 45.61800 23.70800
H  36.00300 48.52600 31.40400
H  36.52700 51.41900 30.69300
H  33.73300 51.11000 30.61000
H  34.66400 51.71600 31.96800
H  34.19200 49.97000 31.81900
H  38.51800 50.49400 31.33900
H  38.81500 48.77000 31.23300
H  38.76100 50.28300 33.43800
H  38.85800 48.45000 33.44400
H  33.91100 55.24900 26.43900
H  34.39400 54.49700 27.96800
H  32.87000 54.08200 27.19500
H  32.65900 54.75100 24.62800
H  33.00800 55.38800 23.02400
H  34.09700 55.82000 24.33600
H  37.45900 49.85900 21.55300
H  36.28600 47.09100 21.68700
H  34.47400 49.81500 21.26200
H  35.11300 48.45700 20.31300
H  35.76900 50.00600 19.96500
H  38.84700 46.57100 21.84600
H  39.03400 48.31400 21.49500
H  37.46600 46.73700 19.56400
H  39.29800 46.63800 19.55400
H  38.45800 48.21500 19.36100
H  39.18500 43.54300 26.04800
H  38.15400 43.74300 24.61700
H  37.41900 43.24400 26.18000
H  38.65500 46.38300 30.60200
H  37.75800 44.49200 33.72200
H  36.25100 44.23200 32.91600
H  36.39600 45.44600 34.18200
Mg 7.30600 54.10100 41.69300
C  6.73800 50.66800 40.99600
C  10.46900 53.81700 40.19700
C  7.52000 57.46700 41.41700
C  3.99600 54.28100 42.70800
N  8.34600 52.48400 40.47900
C  7.90100 51.18900 40.45500
C  8.96800 50.41200 39.69400
C  10.29300 51.24200 39.88400
C  9.70400 52.62500 40.18900
C  11.28900 50.72200 40.94900
C  8.51200 50.17900 38.20200
C  8.71300 48.76000 37.56600
H  7.98200 48.36500 36.28500
N  8.81800 55.48300 41.00600
C  10.12000 55.15000 40.55200
C  10.86200 56.31500 40.24700
C  10.03800 57.43400 40.67100
C  8.68900 56.85700 41.01900
C  12.27000 56.31000 39.58000
C  10.40800 58.90500 40.72000
O  11.54400 59.19800 40.38200
C  9.55300 59.99900 41.29200
N  5.94000 55.60800 41.87400
C  6.26400 56.95200 41.77700
C  5.24700 57.86000 42.49800
C  4.01100 56.84100 42.67400
C  4.65800 55.49400 42.38600
C  5.80200 58.41000 43.82000
C  2.91800 57.23300 41.66500
C  2.15100 58.50300 42.11300
N  5.74800 52.77000 41.96300
C  4.47400 53.02200 42.47500
C  3.75200 51.79500 42.71000
C  4.62000 50.83200 42.14000
C  5.70100 51.49000 41.61000
C  2.37000 51.76500 43.40600
C  4.70900 49.41300 41.88700
O  3.96300 48.43100 42.15600
C  6.06200 49.27100 40.97200
C  5.68200 48.58600 39.71600
O  5.31300 49.17700 38.70700
O  5.74800 47.22900 39.86700
C  5.37700 46.29900 38.81400
H  11.52300 53.68000 39.94400
H  7.67100 58.54800 41.38300
H  3.04500 54.56700 43.16200
H  9.08200 49.42400 40.14200
H  10.92000 51.24000 38.99300
H  10.87000 49.84300 41.43700
H  11.54000 51.52100 41.64700
H  12.23300 50.49600 40.45200
H  9.02500 50.98300 37.67300
H  7.47000 50.45900 38.05100
H  8.43300 47.96500 38.25600
H  9.73200 48.63300 37.19900
H  12.88600 57.18100 39.80200
H  12.22600 56.09000 38.51300
H  12.80100 55.54600 40.14800
H  9.24400 59.76600 42.31100
H  8.66600 60.14200 40.67500
H  10.17200 60.89300 41.36400
H  4.95700 58.72000 41.89500
H  3.57600 56.91500 43.67100
H  5.10300 58.42800 44.65600
H  5.94100 59.47500 43.63400
H  6.79300 57.97300 43.93900
H  2.35100 56.39400 41.26000
H  3.43100 57.48700 40.73800
H  2.32200 59.37500 41.48200
H  2.42600 58.75900 43.13600
H  1.06300 58.43100 42.08900
H  2.52100 52.30600 44.34000
H  2.14800 50.72500 43.64900
H  1.57300 52.15900 42.77600
H  6.77600 48.59000 41.43500
H  5.83400 45.33800 39.05300
H  5.77300 46.57200 37.83600
H  4.30300 46.11700 38.77400

