158

Mg 26.33900 0.14800 29.02200
C  27.92700 0.01200 32.24600
C  23.24300 0.14200 30.74100
C  24.69500 0.11300 26.14800
C  29.34200 -0.66000 27.63500
N  25.71200 -0.01700 31.21500
C  26.50500 0.19100 32.30200
C  25.72700 0.61700 33.54900
C  24.29900 0.50400 33.05900
C  24.41700 0.11900 31.58900
C  23.47200 -0.57800 33.79400
C  26.10500 2.00000 34.16100
C  25.40300 2.40000 35.50500
H  26.32300 2.62800 36.67900
N  24.27500 0.29600 28.52800
C  23.19500 0.21400 29.36900
C  21.95900 0.23200 28.60200
C  22.31600 0.40000 27.25200
C  23.80500 0.31000 27.22400
C  20.62700 0.09600 29.28200
C  21.53000 0.64400 26.00100
O  22.00700 0.75600 24.84400
C  20.09500 0.64300 26.03300
N  26.99200 -0.22400 27.24200
C  26.09800 -0.16400 26.17600
C  26.88900 -0.31900 24.86100
C  28.38000 -0.38500 25.34400
C  28.25800 -0.37300 26.85300
C  26.56600 -1.43300 23.80900
C  29.28200 0.77500 24.87300
C  29.98100 0.54600 23.53000
N  28.25400 -0.18500 29.69200
C  29.36500 -0.50500 28.98200
C  30.55400 -0.47600 29.80200
C  29.97900 -0.25600 31.13800
C  28.66300 -0.10400 31.00600
C  31.93300 -0.79700 29.48400
C  30.36500 -0.06600 32.52500
O  31.47600 -0.29600 33.07500
C  28.99600 0.19200 33.23100
C  28.96500 -0.66000 34.35700
O  28.97200 -1.87600 34.34400
O  28.89400 0.07700 35.52400
C  28.63700 -0.69800 36.75200
H  22.35100 0.10600 31.37000
H  24.31700 0.23900 25.13100
H  30.27900 -0.97100 27.16900
H  25.92000 -0.18100 34.26500
H  23.74600 1.43700 33.16700
H  22.70400 -0.06500 34.37100
H  24.02700 -1.08600 34.58300
H  23.04800 -1.23400 33.03400
H  25.87200 2.73700 33.39200
H  27.17200 1.98100 34.38300
H  24.64800 1.68400 35.83100
H  24.83400 3.30400 35.28400
H  20.25500 1.12000 29.24100
H  20.70900 -0.22400 30.32100
H  19.90600 -0.58700 28.83300
H  19.85700 1.30900 26.86200
H  19.70900 -0.33200 26.33100
H  19.53800 0.93400 25.14300
H  26.69600 0.57900 24.27400
H  28.84600 -1.35700 25.18400
H  27.40800 -2.08500 23.57600
H  26.16300 -0.89000 22.95500
H  25.73700 -2.04400 24.16500
H  29.96000 0.94600 25.70900
H  28.69600 1.68800 24.77100
H  30.90500 -0.02000 23.65400
H  30.12200 1.49400 23.01200
H  29.45300 -0.19700 22.93200
H  32.40500 -0.00200 28.90800
H  31.88200 -1.74100 28.94200
H  32.49000 -0.90500 30.41500
H  29.12500 1.25200 33.45200
H  27.77300 -1.36400 36.76400
H  28.52200 -0.03200 37.60700
H  29.51400 -1.32300 36.92200
Mg -1.42600 34.90300 26.05400
C  -3.00300 32.98900 28.45500
C  -0.15400 36.85200 28.45600
C  -0.30700 36.82500 23.57200
C  -2.84100 32.70700 23.52600
N  -1.59500 34.89100 28.26100
C  -2.17600 33.97600 29.03400
C  -2.06800 34.29400 30.52700
C  -1.34100 35.67900 30.51300
C  -1.02200 35.84700 28.97200
C  -1.97800 36.91300 31.05900
C  -1.20900 33.22100 31.30600
C  -2.02300 32.42900 32.38200
H  -1.36100 32.22200 33.71100
N  -0.34700 36.59300 26.00300
C  0.13400 37.26700 27.11000
C  0.95400 38.36300 26.69200
C  0.79800 38.45000 25.29600
C  -0.07200 37.32200 24.88500
C  1.69900 39.30400 27.74200
C  1.42900 39.49100 24.40400
O  1.28100 39.54300 23.20400
C  2.30100 40.54400 24.97600
N  -1.51900 34.79000 23.89900
C  -0.95600 35.71000 23.12700
C  -1.09100 35.35900 21.67100
C  -1.67700 33.94200 21.70700
C  -2.06800 33.82000 23.12700
C  -1.89700 36.43700 20.98100
C  -0.63500 32.88800 21.22500
C  0.35200 32.27700 22.20500
N  -2.73700 33.24300 25.92100
C  -3.14800 32.39400 24.87300
C  -4.05600 31.34900 25.37100
C  -4.07400 31.59200 26.80900
C  -3.20300 32.68200 27.03600
C  -4.83400 30.43500 24.53200
C  -4.71800 31.18500 28.11000
O  -5.64200 30.44900 28.33200
C  -3.80500 31.92500 29.17200
C  -4.77700 32.48100 30.12800
O  -5.37500 33.53700 29.97300
O  -4.94600 31.66700 31.21600
C  -5.65200 32.24100 32.37500
H  0.17600 37.63800 29.13800
H  0.19700 37.45700 22.83900
H  -3.26400 32.04100 22.77200
H  -3.07100 34.47500 30.91400
H  -0.46400 35.52600 31.14300
H  -3.04200 36.68300 31.00800
H  -1.81200 37.71700 30.34200
H  -1.71900 37.25400 32.06100
H  -0.32400 33.58300 31.82900
H  -0.88300 32.49200 30.56300
H  -2.26000 31.45600 31.95100
H  -2.93100 32.99700 32.57900
H  2.00900 38.73900 28.62200
H  0.93800 40.02300 28.04700
H  2.58400 39.84900 27.41600
H  1.82500 41.19900 25.70600
H  2.54100 41.10600 24.07400
H  3.24500 40.22700 25.41800
H  -0.08600 35.36400 21.24700
H  -2.52700 33.81200 21.03700
H  -2.17800 37.18700 21.72100
H  -2.80800 36.00800 20.56500
H  -1.21400 36.87800 20.25500
H  -0.12800 33.49100 20.47100
H  -1.26600 32.07400 20.86700
H  0.09300 32.50700 23.23900
H  1.41300 32.43900 22.01400
H  0.18300 31.20200 22.27000
H  -4.22100 30.00500 23.73900
H  -5.68500 30.96000 24.09900
H  -5.27900 29.62700 25.11400
H  -3.31800 31.10800 29.70400
H  -6.57800 32.69400 32.02200
H  -4.97400 32.94100 32.86200
H  -5.88500 31.45800 33.09600

