158

Mg 45.44300 3.78000 46.98900
C  43.37400 6.48700 46.62900
C  42.65800 1.60200 46.58100
C  47.40400 1.01800 47.07200
C  48.23200 5.88500 46.82600
N  43.31200 4.02600 46.43400
C  42.65400 5.25300 46.42700
C  41.16500 5.11500 46.31000
C  40.94200 3.58200 46.41800
C  42.43900 3.01000 46.44700
C  40.16600 3.22100 47.67900
C  40.72600 5.63500 44.93800
C  39.69400 6.74700 44.87000
H  39.92500 7.83200 43.80700
N  45.05000 1.52200 46.94300
C  43.86000 0.91500 46.76500
C  44.07200 -0.52000 46.89500
C  45.47500 -0.78300 46.93700
C  46.04200 0.58400 46.98900
C  42.92900 -1.45500 46.66000
C  46.19400 -2.09400 46.82500
O  45.54500 -3.09600 46.84500
C  47.68900 -2.18000 46.89000
N  47.53400 3.47400 46.62400
C  48.08000 2.24900 46.99900
C  49.59800 2.41400 47.28300
C  49.83500 3.96700 47.00000
C  48.44300 4.51500 46.76800
C  50.08200 1.85200 48.60900
C  50.63900 4.25800 45.66100
C  51.71200 5.40100 45.66400
N  45.82400 5.81300 46.79800
C  47.01800 6.53300 46.81800
C  46.63600 7.98700 46.91900
C  45.22400 8.03500 46.77900
C  44.75300 6.67400 46.76500
C  47.57100 9.14600 47.09400
C  44.08700 8.87200 46.75000
O  44.00900 10.11700 46.81800
C  42.86800 7.93400 46.61600
C  41.89400 8.28400 47.61300
O  41.93200 7.90000 48.74600
O  40.82800 9.01300 47.03100
C  39.73200 9.29100 48.00200
H  41.75000 1.00100 46.49800
H  48.18300 0.32100 47.38700
H  49.19100 6.34500 47.07300
H  40.58900 5.69000 47.03500
H  40.48500 3.09900 45.55500
H  39.23200 2.74400 47.38300
H  39.75300 4.07600 48.21300
H  40.67100 2.50200 48.32400
H  40.33700 4.88300 44.25100
H  41.58500 5.96100 44.35100
H  39.71800 7.30000 45.81000
H  38.67200 6.42600 44.66800
H  42.29800 -1.66500 47.52300
H  43.21500 -2.47100 46.38900
H  42.22600 -0.97100 45.98100
H  47.97200 -3.20000 46.63100
H  48.06600 -1.92900 47.88100
H  48.10300 -1.57700 46.08200
H  50.01300 1.91300 46.40900
H  50.38500 4.33500 47.86600
H  50.79600 1.04800 48.43400
H  49.26000 1.60200 49.27900
H  50.71800 2.54500 49.16000
H  49.91100 4.48500 44.88200
H  51.21300 3.37400 45.38400
H  51.51200 6.18900 44.93800
H  52.70800 4.98400 45.51200
H  51.75700 5.76700 46.69000
H  47.04400 10.09600 47.00200
H  48.25100 9.05700 46.24600
H  48.10300 8.98900 48.03300
H  42.41200 8.12300 45.64400
H  39.95600 10.10400 48.69200
H  39.31900 8.41500 48.50200
H  38.93400 9.77300 47.43800
Mg 48.38500 34.74100 26.71000
C  46.21800 33.54500 29.23300
C  48.79000 37.74900 28.61400
C  49.74500 36.32200 24.08300
C  47.36800 31.99800 24.80200
N  47.65800 35.47800 28.65400
C  46.93600 34.69400 29.55100
C  47.03200 35.34300 30.97500
C  47.45300 36.82600 30.68100
C  47.99300 36.72700 29.22400
C  46.37200 37.89000 30.94700
C  47.99800 34.61500 31.90100
C  47.92300 34.89100 33.35400
H  46.82400 35.83500 33.87600
N  49.26300 36.73700 26.38200
C  49.31800 37.82000 27.33300
C  50.15200 38.81900 26.74800
C  50.36500 38.42100 25.42400
C  49.79100 37.12000 25.25100
C  50.49000 40.07300 27.57900
C  51.06000 39.14000 24.28400
O  51.16100 38.64400 23.12900
C  51.67100 40.54100 24.46500
N  48.60100 34.14300 24.78000
C  49.23900 35.02800 23.92900
C  49.35100 34.27500 22.50500
C  48.78300 32.80000 22.77100
C  48.23300 32.97200 24.15900
C  48.69900 34.97500 21.29100
C  49.72800 31.57000 22.75500
C  50.19600 31.20100 21.39200
N  47.05300 33.06700 26.86400
C  46.76400 32.01400 26.05500
C  45.86100 31.09100 26.67600
C  45.56200 31.68000 27.89200
C  46.30300 32.90900 27.97400
C  45.47800 29.77800 26.06600
C  44.82600 31.43600 29.13300
O  44.14100 30.51100 29.52200
C  45.20100 32.69700 30.09800
C  45.61200 32.26900 31.46800
O  46.55500 31.57900 31.73200
O  44.71900 32.72000 32.40300
C  44.71900 31.99100 33.68400
H  48.95700 38.67000 29.17600
H  49.99200 36.78900 23.12700
H  47.11300 31.11500 24.21100
H  46.01300 35.33200 31.36000
H  48.31200 37.19100 31.24300
H  46.50700 38.65800 31.70800
H  45.46300 37.30200 31.08000
H  46.26500 38.43400 30.00800
H  48.94800 34.96200 31.49500
H  47.93500 33.53700 31.75400
H  48.89700 35.28600 33.64200
H  47.70900 33.95300 33.86500
H  51.54900 40.27800 27.73700
H  50.08700 40.06100 28.59100
H  49.91300 40.88700 27.13900
H  50.80000 41.05800 24.86800
H  51.95000 41.06100 23.54900
H  52.47400 40.62500 25.19600
H  50.42500 34.28600 22.32200
H  47.91100 32.61600 22.14400
H  48.03900 35.75900 21.66300
H  48.12400 34.24400 20.72200
H  49.41700 35.60600 20.76700
H  49.19900 30.75500 23.24800
H  50.56100 31.86600 23.39200
H  51.28000 31.12800 21.47600
H  49.79700 31.76200 20.54700
H  50.03800 30.13300 21.24500
H  44.74100 29.72500 25.26400
H  45.24000 29.12000 26.90200
H  46.37800 29.45700 25.54200
H  44.22300 33.15800 30.23500
H  45.75600 31.80800 33.96600
H  44.07200 31.11400 33.69800
H  44.17900 32.58500 34.42100

