158

Mg 49.38600 35.27800 27.53900
C  46.98500 34.36000 30.04900
C  49.76000 38.24800 29.26600
C  51.51400 36.21700 25.12200
C  48.13500 32.78100 25.53600
N  48.37600 36.21500 29.39200
C  47.57300 35.60300 30.29800
C  47.30800 36.53800 31.48400
C  47.93300 37.91000 31.02200
C  48.67900 37.47600 29.76300
C  46.91000 39.06400 30.77000
C  47.92600 36.06300 32.81700
C  46.97000 35.86900 33.98600
H  46.43400 37.15000 34.67400
N  50.65500 36.93900 27.33800
C  50.69900 38.02400 28.19500
C  51.90300 38.79100 27.72700
C  52.31600 38.25500 26.47200
C  51.48800 37.07700 26.25500
C  52.44900 40.03600 28.48800
C  53.51500 38.68900 25.63100
O  53.92200 38.05200 24.64200
C  54.20000 39.99100 25.98300
N  49.83900 34.55000 25.67600
C  50.74000 35.12000 24.80600
C  50.81800 34.38700 23.39800
C  49.74800 33.19000 23.63200
C  49.17500 33.54800 25.01800
C  50.42900 35.36000 22.23400
C  50.32200 31.71800 23.57700
C  49.41500 30.70500 22.85800
N  47.97300 33.74100 27.74600
C  47.58100 32.74400 26.85300
C  46.60500 31.85800 27.45600
C  46.32800 32.47100 28.68700
C  47.16500 33.61800 28.84100
C  45.91600 30.62000 26.86300
C  45.46900 32.42600 29.86900
O  44.49200 31.71400 30.19800
C  45.92600 33.51600 30.77000
C  46.46900 32.92300 32.04900
O  47.65500 32.76200 32.26600
O  45.45100 32.65700 32.95000
C  45.91600 32.07600 34.19900
H  49.99400 39.19900 29.74800
H  52.27600 36.45200 24.37600
H  47.68300 32.01200 24.90600
H  46.23400 36.71600 31.54400
H  48.63900 38.22000 31.79200
H  47.25500 39.93400 31.32900
H  45.94400 38.70300 31.12100
H  46.77200 39.20700 29.69800
H  48.75900 36.65200 33.19900
H  48.36300 35.07900 32.65200
H  47.54000 35.25500 34.68200
H  46.00700 35.49300 33.64100
H  53.53400 40.01500 28.59000
H  51.88300 40.14100 29.41400
H  52.20500 40.93300 27.91900
H  54.82800 40.24300 25.12800
H  54.91000 39.84900 26.79700
H  53.46600 40.79600 26.01300
H  51.79500 33.95700 23.17900
H  48.90700 33.19000 22.93800
H  51.36000 35.74000 21.81300
H  49.80500 36.08700 22.75400
H  49.91600 34.91500 21.38200
H  50.42700 31.41600 24.61900
H  51.34800 31.70100 23.20900
H  49.28100 30.04800 23.71700
H  49.90200 30.19400 22.02700
H  48.51200 31.16400 22.45400
H  45.44700 30.11500 27.70800
H  46.69400 30.02800 26.38100
H  45.16600 30.99700 26.16800
H  45.09300 34.15700 31.05500
H  45.00000 31.86300 34.75000
H  46.48200 32.75700 34.83400
H  46.47600 31.14200 34.14700
Mg 9.61400 47.94500 26.77300
C  8.12100 48.40700 29.78100
C  12.60400 49.16700 28.22600
C  11.10700 47.84000 23.72700
C  6.63000 47.31700 25.34300
N  10.28100 48.70200 28.78400
C  9.46100 48.71700 29.84300
C  10.33400 49.09500 31.10500
C  11.67000 49.62100 30.49200
C  11.49200 49.09500 29.05600
C  11.82100 51.14200 30.59700
C  10.41900 47.97100 32.21000
C  9.85000 48.28300 33.61400
H  9.80900 47.17400 34.73200
N  11.59700 48.33300 26.11100
C  12.68900 48.82900 26.84200
C  13.88700 48.72700 26.00800
C  13.46800 48.40000 24.66900
C  11.97000 48.17300 24.79700
C  15.34200 48.89200 26.67100
C  14.30800 48.26300 23.44400
O  13.81000 48.06300 22.31700
C  15.87200 48.46600 23.44400
N  8.96600 47.56300 24.84300
C  9.69700 47.64700 23.70600
C  8.92700 47.33400 22.40200
C  7.54400 46.88600 22.97200
C  7.67200 47.30700 24.48700
C  8.86400 48.55200 21.50800
C  7.11200 45.40400 22.65800
C  8.13000 44.37900 23.09400
N  7.73800 47.95600 27.36500
C  6.58000 47.57000 26.74800
C  5.45800 47.57400 27.66200
C  6.07800 47.86100 28.85300
C  7.45000 48.09600 28.62400
C  4.07100 47.07400 27.40000
C  5.74200 47.98800 30.23700
O  4.67200 47.85200 30.83000
C  7.09000 48.20800 30.96100
C  7.17900 46.89900 31.64800
O  7.92100 45.97900 31.29000
O  6.53300 46.92600 32.81600
C  6.49600 45.70300 33.67500
H  13.45000 49.58100 28.77700
H  11.61700 47.76400 22.76400
H  5.63000 47.08600 24.97100
H  9.90700 49.87400 31.73800
H  12.54500 49.16700 30.95700
H  11.74800 51.66900 29.64500
H  12.72800 51.43100 31.12800
H  10.97300 51.37900 31.24000
H  11.47100 47.71700 32.33900
H  9.86200 47.10900 31.84300
H  8.83400 48.56600 33.34000
H  10.48300 49.11000 33.93500
H  15.23900 48.89500 27.75600
H  15.75000 49.85900 26.37800
H  15.98300 48.04000 26.44600
H  16.28400 48.72300 22.46800
H  16.05900 47.42200 23.69700
H  16.32500 49.14300 24.16700
H  9.35200 46.51200 21.82700
H  6.80000 47.58300 22.58500
H  9.53700 49.31800 21.89100
H  7.92400 49.10000 21.56500
H  9.14900 48.26200 20.49700
H  7.01900 45.22900 21.58600
H  6.09600 45.21200 23.00200
H  8.56500 44.11700 22.12900
H  7.86700 43.41600 23.53300
H  8.87100 44.81800 23.76100
H  3.87400 46.24000 28.07300
H  3.90600 46.88700 26.33900
H  3.24100 47.72900 27.66500
H  6.87800 48.99400 31.68600
H  6.14400 44.76500 33.24500
H  5.86400 45.91900 34.53700
H  7.54200 45.49500 33.89800

