158

Mg 47.73400 44.88300 42.71200
C  44.36200 45.61300 41.63800
C  47.45400 41.86500 41.16000
C  51.05200 44.73500 42.66600
C  47.77400 48.12100 43.86000
N  46.13700 43.94800 41.32300
C  44.88000 44.44300 41.10200
C  44.14200 43.39600 40.26600
C  44.96000 42.03500 40.57700
C  46.27100 42.64500 41.06000
C  44.28300 40.99300 41.62800
C  44.07300 43.86600 38.79500
C  42.87000 43.46000 37.95900
H  43.30100 42.59700 36.80100
N  49.08600 43.42600 42.01000
C  48.76600 42.20300 41.54200
C  49.96000 41.42000 41.57300
C  51.06800 42.28500 41.86600
C  50.43500 43.56600 42.12700
C  50.01500 40.01100 41.22700
C  52.51900 41.83300 41.90700
O  52.83800 40.70400 41.63100
C  53.74600 42.72800 42.31800
N  49.20900 46.34100 42.97600
C  50.50900 45.95000 43.09000
C  51.35100 47.16300 43.53900
C  50.33400 48.12100 44.20900
C  49.03600 47.46400 43.72100
C  52.54200 46.75000 44.55900
C  50.47600 49.60200 43.82000
C  50.21300 50.49600 45.05700
N  46.29800 46.46400 42.99300
C  46.49200 47.75100 43.55100
C  45.18400 48.38500 43.65000
C  44.30500 47.61100 42.88400
C  45.05500 46.45900 42.46500
C  44.93800 49.66700 44.34000
C  42.97400 47.51600 42.43700
O  41.96300 48.11800 42.67800
C  42.98200 46.23100 41.50500
C  42.00100 45.22600 42.04500
O  40.95700 44.88200 41.42700
O  42.32200 44.81700 43.32000
C  41.25200 44.03000 43.99700
H  47.24700 40.85500 40.80100
H  52.14000 44.79700 42.73300
H  47.86000 49.07700 44.38000
H  43.13400 43.34200 40.67700
H  45.15100 41.49400 39.65100
H  43.20700 41.16500 41.58500
H  44.57300 41.41500 42.59100
H  44.63500 39.96300 41.59200
H  44.95500 43.45300 38.30600
H  44.22400 44.94400 38.73400
H  42.47100 44.36700 37.50600
H  42.20200 42.90800 38.62000
H  50.38100 39.47500 42.10300
H  50.55800 39.74600 40.32000
H  48.98200 39.68000 41.12100
H  53.78600 43.12500 43.33200
H  53.82800 43.55900 41.61800
H  54.53200 41.99700 42.12800
H  51.78600 47.52400 42.60700
H  50.25900 47.99100 45.28800
H  53.40700 46.51000 43.94100
H  52.11900 45.89300 45.08400
H  52.77700 47.50500 45.30900
H  49.88900 49.83400 42.93100
H  51.43000 49.92900 43.40600
H  50.23600 49.87600 45.95400
H  49.30500 51.09700 45.02100
H  51.02500 51.21900 44.98300
H  43.92600 49.91200 44.01600
H  45.64600 50.44700 44.06300
H  45.10700 49.52200 45.40700
H  42.62000 46.43300 40.49700
H  41.71700 43.14000 44.42200
H  40.53000 43.56800 43.32400
H  40.60000 44.48800 44.74100
Mg 10.32800 48.09800 25.83700
C  8.11500 48.38100 28.49200
C  12.51600 49.94500 27.63000
C  12.53600 47.99000 23.24900
C  7.74500 47.32200 23.72500
N  10.28900 48.96800 27.81900
C  9.34400 48.92400 28.75600
C  9.74500 49.56200 30.09700
C  10.94400 50.43400 29.59000
C  11.28200 49.79300 28.23700
C  10.68100 51.91600 29.41200
C  10.20200 48.53900 31.12400
C  9.55800 48.73700 32.56900
H  9.70600 47.54400 33.52600
N  12.28800 48.68900 25.55100
C  13.02100 49.43500 26.40000
C  14.42900 49.60200 25.93900
C  14.39800 49.07600 24.62500
C  13.06500 48.52300 24.45900
C  15.45700 50.24000 26.77000
C  15.45800 49.09600 23.60100
O  15.30000 48.59300 22.47200
C  16.73900 49.86400 23.87800
N  10.26400 47.61400 23.81500
C  11.27300 47.62000 22.90300
C  10.82600 47.19400 21.48400
C  9.28600 46.92700 21.72800
C  9.04700 47.42000 23.20500
C  11.15600 48.32600 20.36200
C  8.84900 45.43500 21.50800
C  9.55300 44.30100 22.30900
N  8.36200 47.77000 26.02900
C  7.45000 47.49000 25.09700
C  6.13000 47.27600 25.66900
C  6.33700 47.59900 27.05700
C  7.72000 47.92900 27.16200
C  4.86700 46.88700 24.87200
C  5.73500 47.75800 28.30600
O  4.56600 47.73400 28.61900
C  6.80100 48.23100 29.30800
C  7.00700 47.19200 30.36900
O  7.85700 46.33000 30.22700
O  6.06600 47.23400 31.42400
C  6.34000 46.41800 32.60400
H  13.21500 50.59500 28.15900
H  13.12200 47.63400 22.39900
H  6.93400 47.03000 23.05400
H  8.94200 50.17400 30.50700
H  11.89500 50.43500 30.12300
H  9.69000 52.16900 29.78700
H  10.75800 52.20200 28.36300
H  11.41700 52.55600 29.89900
H  11.24800 48.59000 31.42600
H  9.87900 47.54700 30.80600
H  8.50400 48.58400 32.33400
H  9.81300 49.70600 32.99800
H  15.83500 51.14400 26.29400
H  16.23500 49.47800 26.72000
H  15.24400 50.52200 27.80100
H  17.39000 49.90300 23.00400
H  17.19600 49.39100 24.74700
H  16.62600 50.90500 24.17900
H  11.23400 46.20100 21.29300
H  8.64400 47.51600 21.07300
H  11.94600 47.99800 19.68600
H  11.55300 49.16600 20.93000
H  10.25500 48.62900 19.82800
H  9.01400 45.10100 20.48300
H  7.80700 45.31900 21.80500
H  8.86400 43.73300 22.93500
H  10.30400 44.60400 23.03800
H  10.05600 43.69900 21.55300
H  5.02500 46.31700 23.95600
H  4.20700 47.70200 24.57700
H  4.11600 46.39100 25.48700
H  6.43600 49.15700 29.75300
H  6.86900 45.47600 32.46000
H  5.33800 46.07300 32.85800
H  6.74200 47.11900 33.33700

