158

Mg 46.50300 35.44100 28.69400
C  44.55300 33.62100 30.96700
C  46.56200 38.15100 30.82000
C  47.63100 37.37000 26.05000
C  45.84500 32.91400 26.30600
N  45.65300 35.77600 30.55700
C  45.12400 34.79800 31.38700
C  45.45200 35.20800 32.81900
C  45.57700 36.74700 32.67900
C  45.98400 36.95400 31.25200
C  44.34500 37.45300 33.18800
C  46.75300 34.49700 33.31600
C  47.11500 34.79500 34.78200
H  46.08300 35.39300 35.72600
N  47.13300 37.41400 28.52500
C  47.13400 38.30100 29.54200
C  47.81200 39.50900 29.01700
C  48.22700 39.28800 27.66900
C  47.65300 37.95200 27.31900
C  47.99500 40.73000 30.01000
C  49.05700 40.16400 26.65300
O  49.39400 39.72200 25.54100
C  49.45500 41.53900 27.06500
N  46.66200 35.26800 26.46600
C  47.16000 36.20000 25.67900
C  47.28600 35.75900 24.23900
C  46.43900 34.44100 24.25400
C  46.31400 34.09100 25.70500
C  46.82700 36.69800 23.09400
C  47.25300 33.19600 23.67600
C  46.35300 32.18600 22.94700
N  45.61000 33.61000 28.63700
C  45.49800 32.65500 27.68400
C  44.74900 31.53800 28.11000
C  44.36500 31.91000 29.42400
C  44.86300 33.17100 29.64600
C  44.65000 30.26900 27.40500
C  43.65800 31.38700 30.57500
O  43.12800 30.30400 30.82000
C  43.65600 32.55200 31.58500
C  44.10600 31.94200 32.93000
O  44.99900 31.16500 33.07400
O  43.29500 32.40900 33.96500
C  43.77100 31.97800 35.29400
H  46.59100 38.96600 31.54700
H  48.19600 37.85600 25.25100
H  45.69700 32.13500 25.55500
H  44.62100 34.86900 33.43700
H  46.41800 37.07500 33.28900
H  44.62600 38.39200 33.66500
H  43.85000 36.75400 33.86200
H  43.62900 37.74800 32.42100
H  47.63700 34.85900 32.79000
H  46.73600 33.42600 33.11200
H  48.05400 35.34200 34.86000
H  47.20400 33.77700 35.16400
H  47.03700 40.94900 30.48200
H  48.47000 41.62100 29.59800
H  48.61800 40.42700 30.85100
H  50.16500 41.57600 27.89100
H  48.62800 42.19900 27.32900
H  49.93900 41.99800 26.20300
H  48.33900 35.52700 24.07700
H  45.42800 34.51000 23.85400
H  47.65100 37.32700 22.75600
H  46.13500 37.45500 23.46600
H  46.47200 36.22500 22.17800
H  47.86100 32.70600 24.43700
H  48.01100 33.59300 23.00100
H  46.53000 31.21400 23.40900
H  46.38600 32.14600 21.85800
H  45.28600 32.36900 23.07900
H  44.68800 29.40000 28.06200
H  45.50000 30.11800 26.73900
H  43.77100 30.33400 26.76400
H  42.66500 32.98100 31.73700
H  43.28700 31.04100 35.56900
H  43.43500 32.61800 36.11100
H  44.84600 31.80100 35.31900
Mg 0.17700 43.47400 25.51700
C  2.37400 43.05500 28.22600
C  -2.51400 42.91100 27.70300
C  -2.01600 43.36100 22.98800
C  2.81900 43.92900 23.40300
N  0.03500 43.09300 27.64400
C  0.98500 43.10000 28.56900
C  0.43700 42.97700 30.00700
C  -0.99500 42.54900 29.76700
C  -1.19100 42.94000 28.30900
C  -1.31800 41.02800 30.01300
C  0.44600 44.29500 30.87500
C  -0.14100 44.22800 32.32000
H  -0.14500 42.74900 32.93300
N  -1.98300 43.07800 25.35700
C  -2.88400 42.87600 26.37900
C  -4.25500 42.78600 25.86300
C  -4.12900 42.87000 24.44600
C  -2.69300 43.09600 24.18400
C  -5.43200 42.47900 26.72100
C  -5.22100 42.75600 23.43800
O  -5.00400 43.00600 22.26600
C  -6.63500 42.41600 23.86000
N  0.37500 43.54500 23.50300
C  -0.70000 43.52200 22.66400
C  -0.12500 43.55600 21.26400
C  1.31300 43.97500 21.38200
C  1.53800 43.73500 22.83900
C  -0.36400 42.12100 20.64800
C  1.63100 45.42000 20.93900
C  1.01800 46.58800 21.71700
N  2.21300 43.44800 25.72900
C  3.20400 43.70200 24.78200
C  4.55700 43.46200 25.40300
C  4.21800 43.29400 26.76300
C  2.79300 43.36100 26.90200
C  5.89900 43.31400 24.79200
C  4.76400 42.99300 28.02800
O  5.94100 42.71300 28.37700
C  3.66100 43.04300 29.05200
C  3.65600 41.86900 29.89300
O  3.59600 40.71200 29.51900
O  3.93300 42.34500 31.15700
C  4.23700 41.27400 32.09900
H  -3.26700 42.74900 28.47700
H  -2.61800 43.23400 22.08600
H  3.64900 44.13200 22.72300
H  0.97000 42.20200 30.55800
H  -1.71600 43.20300 30.25800
H  -1.53600 40.50500 29.08200
H  -2.14700 40.89700 30.70800
H  -0.38300 40.59700 30.37200
H  -0.03100 45.10700 30.32600
H  1.44400 44.72300 30.96200
H  -1.09800 44.74400 32.39700
H  0.42500 44.85500 33.00900
H  -5.92400 43.35000 27.15400
H  -4.97200 41.90700 27.52600
H  -6.03600 41.67100 26.30700
H  -7.04400 43.01900 24.67100
H  -6.60600 41.38200 24.20500
H  -7.30000 42.52200 23.00300
H  -0.73500 44.27100 20.71300
H  1.99800 43.28000 20.89700
H  0.57500 41.57200 20.57700
H  -0.82000 42.24100 19.66500
H  -0.97800 41.59100 21.37600
H  1.27500 45.39700 19.90900
H  2.71400 45.53300 20.98800
H  1.83200 47.30900 21.78300
H  0.50900 46.39700 22.66200
H  0.35300 47.12800 21.04400
H  5.80800 42.81100 23.82900
H  6.56600 42.81800 25.49700
H  6.28200 44.31800 24.61000
H  3.70100 44.00300 29.56600
H  4.64200 41.73000 33.00200
H  4.94600 40.61200 31.60300
H  3.31000 40.74200 32.31500

