158

Mg 1.54800 -0.88400 44.44100
C  4.72200 0.46400 43.75400
C  0.11900 1.85200 43.09200
C  -1.36600 -2.67900 44.24600
C  3.16700 -3.90000 45.31800
N  2.37000 0.89800 43.37600
C  3.69500 1.27300 43.27500
C  3.89700 2.58500 42.50800
C  2.39900 3.18200 42.71200
C  1.54700 1.91900 43.10000
C  2.25800 4.26300 43.76600
C  4.28300 2.38600 40.96500
C  5.22200 3.52600 40.48600
H  4.81100 4.33800 39.19800
N  -0.31800 -0.46100 43.81900
C  -0.71400 0.75400 43.28200
C  -2.10900 0.77600 43.01700
C  -2.58700 -0.50300 43.36500
C  -1.40700 -1.30200 43.87000
C  -2.84000 1.97900 42.42700
C  -4.07700 -0.84600 43.41400
O  -4.93700 0.01000 43.23100
C  -4.53000 -2.20700 43.72300
N  0.96600 -3.09000 44.84900
C  -0.27100 -3.43800 44.78700
C  -0.46300 -4.83200 45.28500
C  0.96200 -5.23300 45.70100
C  1.79000 -4.04500 45.24600
C  -1.52300 -4.92200 46.46400
C  1.46700 -6.61800 45.00000
C  2.38800 -7.46800 45.85600
N  3.51000 -1.55900 44.70200
C  3.99200 -2.82700 44.96200
C  5.48000 -2.82000 44.94500
C  5.78800 -1.49200 44.55900
C  4.54800 -0.79100 44.35300
C  6.38100 -4.01800 45.43800
C  6.86100 -0.59900 44.24600
O  8.05300 -0.79600 44.34100
C  6.20800 0.74100 43.60300
C  6.70400 1.93600 44.29200
O  6.26500 2.44500 45.32000
O  7.72000 2.50500 43.62000
C  8.16700 3.83200 44.08500
H  -0.51300 2.63200 42.66100
H  -2.31400 -3.22100 44.25800
H  3.67000 -4.77900 45.72700
H  4.56600 3.28700 43.00600
H  1.97400 3.54700 41.77700
H  3.05300 5.00300 43.67200
H  2.08400 3.80000 44.73800
H  1.29300 4.73300 43.57700
H  3.42300 2.57200 40.32200
H  4.74300 1.40800 40.82500
H  6.23000 3.11700 40.41800
H  5.45000 4.16700 41.33800
H  -2.76800 1.99500 41.34000
H  -2.50300 2.92600 42.84700
H  -3.86900 2.08600 42.77200
H  -5.59200 -2.21100 43.47800
H  -4.29300 -2.52800 44.73700
H  -3.95100 -2.74800 42.97400
H  -0.72100 -5.31300 44.34200
H  1.00900 -5.44400 46.76900
H  -2.25500 -5.61500 46.05200
H  -1.92200 -3.92600 46.65600
H  -1.02700 -5.24300 47.38000
H  2.01000 -6.27500 44.11900
H  0.60500 -7.22000 44.71500
H  3.44100 -7.47100 45.57700
H  2.15000 -8.53200 45.84600
H  2.35700 -7.27300 46.92800
H  6.89200 -4.50800 44.61000
H  5.78100 -4.70500 46.03600
H  7.14100 -3.65100 46.12800
H  6.57000 0.90800 42.58900
H  9.15700 4.07500 43.69900
H  8.39100 3.65500 45.13700
H  7.42700 4.58200 43.80600
Mg -5.95100 25.54300 26.18800
C  -5.06600 27.05800 29.13800
C  -7.59100 23.08600 28.03400
C  -6.33500 23.72900 23.39500
C  -3.96300 27.89400 24.42000
N  -6.20200 25.09400 28.33700
C  -5.81900 25.90600 29.34600
C  -6.37300 25.38900 30.72000
C  -6.94600 23.98100 30.31800
C  -6.91400 24.08600 28.78700
C  -6.19500 22.61100 30.85700
C  -7.47800 26.28100 31.30800
C  -7.54700 26.35300 32.85600
H  -6.84300 25.28000 33.65500
N  -6.98100 23.73200 25.74700
C  -7.66400 22.95800 26.58400
C  -8.29900 21.93100 25.87900
C  -7.82200 22.03200 24.51600
C  -6.99000 23.18600 24.50900
C  -9.19600 20.93400 26.51300
C  -8.06800 21.08600 23.34900
O  -7.66100 21.25300 22.17500
C  -8.97900 19.90700 23.47200
N  -5.45100 25.90000 24.15300
C  -5.61000 24.89400 23.20100
C  -4.88300 25.27900 21.86700
C  -4.19200 26.68700 22.17800
C  -4.50700 26.79800 23.70100
C  -3.91000 24.22500 21.19400
C  -4.78900 27.85400 21.26200
C  -3.66500 28.57400 20.40500
N  -4.76500 27.18400 26.65500
C  -4.05000 28.09300 25.79700
C  -3.29400 28.97000 26.71200
C  -3.72300 28.67600 27.99400
C  -4.57400 27.57500 27.92400
C  -2.21400 29.96000 26.20000
C  -3.69900 29.07300 29.36900
O  -3.12500 30.04300 29.89100
C  -4.48600 27.97800 30.21200
C  -3.50700 27.32800 31.18000
O  -2.70600 26.44200 30.76600
O  -3.68300 27.77400 32.46400
C  -2.69600 27.20400 33.37300
H  -8.26200 22.50100 28.66700
H  -6.38400 23.18400 22.44900
H  -3.23500 28.56200 23.95500
H  -5.51200 25.27700 31.38000
H  -7.98800 23.85100 30.60800
H  -5.74400 22.16400 29.97000
H  -6.83000 21.78900 31.18600
H  -5.45500 22.71800 31.65000
H  -8.45300 26.06500 30.87200
H  -7.32900 27.24300 30.81900
H  -8.60500 26.41700 33.11100
H  -7.11500 27.33000 33.07100
H  -8.94300 20.81500 27.56700
H  -9.15800 20.00400 25.94500
H  -10.22600 21.28100 26.43900
H  -9.30700 19.62600 22.47100
H  -9.92500 20.10700 23.97700
H  -8.46100 19.11800 24.01900
H  -5.74400 25.29200 21.19900
H  -3.11800 26.50900 22.11800
H  -2.88400 24.55700 21.03300
H  -4.23500 24.08600 20.16400
H  -4.02600 23.25900 21.68400
H  -5.25300 28.67900 21.80300
H  -5.42000 27.39500 20.50100
H  -2.67200 28.25200 20.71700
H  -3.74500 29.63800 20.62700
H  -3.86400 28.49200 19.33600
H  -1.51900 29.46600 25.52100
H  -1.64200 30.25600 27.08000
H  -2.73100 30.71500 25.60700
H  -5.14700 28.47300 30.92400
H  -1.74300 27.71200 33.22200
H  -2.46200 26.15200 33.21100
H  -3.01000 27.33700 34.40800

