158

Mg 41.01400 8.64600 31.48200
C  43.14600 9.89200 33.88000
C  38.69900 8.13300 33.85000
C  39.12300 7.40400 29.03200
C  43.68300 8.96200 29.08800
N  40.91500 9.09000 33.60500
C  41.91700 9.59800 34.42200
C  41.33000 9.76900 35.85000
C  39.94500 9.11000 35.78000
C  39.85600 8.70700 34.34000
C  39.64900 7.99500 36.83900
C  41.27200 11.26700 36.23800
C  40.25800 11.71700 37.30700
H  40.79300 12.73900 38.25400
N  39.25900 7.82300 31.45800
C  38.41100 7.68000 32.49200
C  37.13600 6.99400 32.11000
C  37.21900 6.85400 30.69800
C  38.55800 7.43000 30.30300
C  36.02600 6.47900 33.06100
C  36.20300 6.21300 29.74000
O  36.38600 6.04300 28.55500
C  34.79500 5.79800 30.23300
N  41.41300 8.04600 29.36500
C  40.39300 7.69700 28.60100
C  40.78500 7.43700 27.20000
C  42.25800 7.90700 27.16800
C  42.57900 8.17300 28.63000
C  40.72100 5.88700 26.63900
C  42.48400 9.18400 26.22000
C  41.74800 10.44900 26.67000
N  43.01700 9.27700 31.46100
C  43.88500 9.48300 30.41600
C  45.05300 10.13900 30.90400
C  44.76100 10.38300 32.26400
C  43.56400 9.82100 32.55700
C  46.35200 10.51200 30.25000
C  45.37400 10.77900 33.52400
O  46.48500 11.20600 33.74300
C  44.34400 10.51300 34.69100
C  44.92300 9.59800 35.62300
O  44.75300 8.36900 35.52600
O  45.53800 10.20000 36.66400
C  45.85000 9.42500 37.84000
H  37.99800 7.85200 34.63900
H  38.36500 7.15800 28.28500
H  44.45300 9.13500 28.33300
H  41.89700 9.20000 36.58700
H  39.15900 9.85700 35.88500
H  38.76800 8.17000 37.45600
H  40.41600 7.90100 37.60700
H  39.53100 7.04900 36.31000
H  40.98900 11.79900 35.33000
H  42.27200 11.58000 36.53700
H  39.72000 10.94200 37.85200
H  39.62200 12.42400 36.77300
H  35.20500 7.18500 32.93400
H  36.31300 6.59000 34.10600
H  35.80400 5.43400 32.84400
H  34.37600 6.74500 30.57400
H  34.94100 5.02600 30.98800
H  34.01400 5.47500 29.54500
H  40.18100 7.93100 26.44000
H  42.99800 7.12800 26.98700
H  40.36900 5.14200 27.35300
H  41.72100 5.53300 26.38900
H  40.03600 5.85600 25.79100
H  41.91800 8.90100 25.33200
H  43.51800 9.46600 26.02200
H  42.38400 11.28300 26.37500
H  41.63700 10.51300 27.75300
H  40.75400 10.46600 26.22300
H  46.78900 9.84000 29.51200
H  47.10400 10.71000 31.01300
H  46.20500 11.47000 29.75000
H  44.09700 11.45800 35.17600
H  46.92200 9.51000 38.02000
H  45.65300 8.36700 37.66100
H  45.26400 9.73300 38.70600
Mg 47.89100 15.43300 29.10100
C  45.92200 15.46300 31.99700
C  50.36200 17.03200 30.71800
C  49.55800 15.67500 26.08000
C  45.23300 13.86400 27.36600
N  48.08800 16.11800 31.16000
C  47.20900 15.96800 32.18500
C  47.88100 16.41100 33.46500
C  49.15700 17.21400 32.98200
C  49.25900 16.75800 31.51900
C  49.14500 18.79400 33.10400
C  48.12500 15.16500 34.47400
C  47.52000 15.26700 35.89000
H  47.78800 16.47700 36.68700
N  49.66900 16.28700 28.44300
C  50.56800 16.81900 29.31900
C  51.76800 17.06700 28.65000
C  51.61800 16.65300 27.28000
C  50.23600 16.20000 27.20800
C  53.04900 17.48100 29.35000
C  52.66000 16.62500 26.20800
O  52.40300 16.06200 25.12600
C  54.13300 17.03100 26.51500
N  47.47200 14.73400 27.04200
C  48.32600 15.02200 26.03200
C  47.73000 14.45500 24.69300
C  46.39200 13.73200 25.14800
C  46.33200 14.16100 26.64000
C  47.56000 15.40800 23.49900
C  46.42500 12.14400 25.13300
C  45.48200 11.37200 24.21500
N  45.87800 14.84800 29.49500
C  44.95400 14.10900 28.75100
C  43.75200 13.89000 29.52100
C  44.02800 14.44100 30.81400
C  45.33500 14.98300 30.72900
C  42.49500 13.11700 29.09400
C  43.55800 14.63300 32.17100
O  42.50600 14.39300 32.82700
C  44.75800 15.25700 32.96900
C  44.38100 16.43800 33.79300
O  44.49500 17.64500 33.42200
O  43.85700 16.13400 34.98400
C  43.35900 17.19600 35.84900
H  51.19100 17.42500 31.31000
H  50.09300 15.66400 25.12800
H  44.43600 13.46500 26.73500
H  47.19100 17.02300 34.04600
H  50.01800 16.77700 33.48700
H  48.29300 19.28700 33.57400
H  49.16400 19.16900 32.08100
H  50.01700 19.08000 33.69300
H  49.18700 14.94700 34.58000
H  47.68100 14.34200 33.91400
H  47.68600 14.34800 36.45200
H  46.43800 15.22800 35.76400
H  53.69400 16.60200 29.37800
H  52.82200 17.66700 30.40000
H  53.40000 18.40100 28.88200
H  54.57000 16.26100 27.15100
H  54.21100 17.99200 27.02400
H  54.67600 17.09400 25.57300
H  48.35800 13.68100 24.25100
H  45.55100 14.18200 24.62100
H  48.18700 16.29900 23.54200
H  46.54200 15.79200 23.44300
H  47.79400 14.76300 22.65200
H  46.18500 11.82200 26.14600
H  47.40700 11.86000 24.75300
H  46.10500 10.68600 23.64200
H  45.01400 12.09800 23.55000
H  44.78900 10.74000 24.77000
H  42.22600 12.45100 29.91400
H  42.89600 12.54200 28.26000
H  41.67200 13.76100 28.78300
H  45.19100 14.49700 33.61900
H  44.14000 17.65400 36.45500
H  42.71600 16.61400 36.50900
H  42.77800 17.89200 35.24400

