158

Mg 23.78700 -5.26900 45.95200
C  26.05800 -2.93900 44.45500
C  21.48400 -4.26800 43.65000
C  21.96100 -7.88300 46.89100
C  26.63700 -6.66900 47.64300
N  23.80100 -3.74300 44.36000
C  24.79800 -2.88500 43.84700
C  24.31100 -2.19600 42.54100
C  22.80800 -2.43800 42.54300
C  22.65800 -3.56800 43.62500
C  21.96800 -1.15800 42.86400
C  25.04600 -2.74200 41.26000
C  25.89900 -1.88000 40.33500
H  25.62700 -1.81200 38.82000
N  21.88000 -5.96400 45.34800
C  21.06800 -5.32100 44.46500
C  19.77900 -6.01400 44.49500
C  19.91200 -7.08000 45.50200
C  21.28000 -7.04300 45.98200
C  18.57400 -5.61200 43.76300
C  18.73000 -8.00800 45.90200
O  17.60600 -7.97400 45.36900
C  18.86100 -9.02300 46.98700
N  24.15500 -6.92400 47.18400
C  23.20500 -7.88900 47.40100
C  23.77500 -9.01900 48.32700
C  25.28300 -8.58400 48.57200
C  25.33200 -7.27700 47.81700
C  22.90200 -9.32500 49.60000
C  26.37400 -9.66700 48.20100
C  27.59600 -9.46400 49.06200
N  25.84500 -4.83500 46.20600
C  26.83300 -5.47700 46.96800
C  28.08700 -4.80900 46.73400
C  27.87000 -3.83100 45.80500
C  26.49300 -3.84300 45.47200
C  29.31100 -5.21600 47.39600
C  28.46000 -2.81900 45.02300
O  29.60100 -2.32900 45.03300
C  27.33600 -2.21100 44.08200
C  27.27300 -0.74400 44.09200
O  26.80400 -0.09100 45.01600
O  27.76900 -0.24000 42.90600
C  27.78800 1.24000 42.80500
H  20.69500 -3.87100 43.00800
H  21.29400 -8.69200 47.19500
H  27.53500 -7.09100 48.09800
H  24.52200 -1.13500 42.67500
H  22.41700 -2.78400 41.58600
H  21.61800 -1.36900 43.87500
H  21.23300 -1.10800 42.06100
H  22.54700 -0.27000 43.12000
H  24.32900 -3.43200 40.81600
H  25.76700 -3.46900 41.63500
H  26.89600 -2.31800 40.36300
H  25.82800 -0.85300 40.69500
H  17.77400 -5.26100 44.41400
H  18.16200 -6.47300 43.23600
H  18.85800 -4.82100 43.06900
H  19.30500 -8.57500 47.87600
H  19.38600 -9.91300 46.63900
H  17.87500 -9.34600 47.32000
H  23.66000 -9.95000 47.77200
H  25.37800 -8.22400 49.59600
H  21.95400 -8.83300 49.37900
H  23.33000 -8.96800 50.53700
H  22.73200 -10.40100 49.62300
H  26.68700 -9.65300 47.15700
H  25.99000 -10.63700 48.51600
H  27.63100 -10.14500 49.91200
H  27.58300 -8.49600 49.56200
H  28.52800 -9.60900 48.51500
H  29.17400 -5.37200 48.46600
H  30.09900 -4.46300 47.36100
H  29.59500 -6.13000 46.87500
H  27.70900 -2.50200 43.10100
H  28.66600 1.62800 42.28900
H  27.75900 1.67900 43.80200
H  26.98700 1.57900 42.14700
Mg 55.87700 25.16100 45.31200
C  52.84400 26.55000 44.14100
C  54.50700 22.02000 44.62900
C  58.88300 23.88000 45.82600
C  57.00000 28.31400 46.18600
N  53.96500 24.49800 44.35500
C  52.86700 25.15500 44.06400
C  51.73700 24.25800 43.63900
C  52.13500 22.88700 44.29600
C  53.61800 23.12400 44.51900
C  51.30500 22.56200 45.66900
C  51.37100 24.26400 42.18700
C  49.84700 24.11400 42.00500
H  49.45100 22.95600 41.07400
N  56.63900 23.16100 45.15200
C  55.91300 22.03300 44.91300
C  56.71400 20.88100 45.06800
C  58.00600 21.40200 45.37500
C  57.89500 22.89900 45.53300
C  56.25000 19.53100 45.00600
C  59.24000 20.54800 45.58200
O  59.16700 19.34200 45.44800
C  60.61800 21.06200 45.88900
N  57.74000 26.03700 45.61500
C  58.80100 25.26000 45.84500
C  59.91000 26.07300 46.60800
C  59.30000 27.46600 46.55200
C  57.92400 27.29400 46.09500
C  60.24000 25.52300 48.04400
C  60.16300 28.52600 45.76800
C  59.65300 29.14900 44.39000
N  55.16100 27.17500 45.12000
C  55.68300 28.28900 45.71800
C  54.64700 29.36000 45.65100
C  53.53200 28.75200 44.95900
C  53.87200 27.41200 44.63300
C  54.85100 30.67100 46.34800
C  52.13300 28.86100 44.47700
O  51.43700 29.85500 44.50700
C  51.66700 27.49000 43.77100
C  51.40600 27.82800 42.32900
O  52.26400 27.89500 41.45500
O  50.03600 27.93400 42.09900
C  49.71000 28.11000 40.73300
H  54.05200 21.03600 44.49400
H  59.90100 23.50900 45.96700
H  57.32700 29.25600 46.63100
H  50.90300 24.63100 44.23300
H  51.96300 22.03100 43.64300
H  50.88000 23.48300 46.06800
H  52.12300 22.41400 46.37500
H  50.62900 21.71100 45.59200
H  51.74800 23.37300 41.68700
H  51.73000 25.13700 41.64100
H  49.30800 25.03900 41.80200
H  49.42300 23.72900 42.93300
H  55.17500 19.35300 44.96200
H  56.53800 19.08200 45.95700
H  56.83200 19.16000 44.16200
H  60.73700 21.86000 45.15600
H  61.33100 20.24400 45.78500
H  60.62000 21.43400 46.91300
H  60.80700 25.94200 46.00500
H  59.23200 27.80400 47.58600
H  61.21700 25.06300 48.19100
H  59.47800 24.77300 48.25600
H  60.23200 26.24200 48.86400
H  61.16500 28.16700 45.53100
H  60.31900 29.34700 46.46800
H  60.50600 28.82000 43.79700
H  59.41800 30.21400 44.38800
H  58.79400 28.61400 43.98600
H  54.89300 30.41600 47.40700
H  54.00200 31.34800 46.25200
H  55.70000 31.16000 45.87200
H  50.74900 27.29200 44.32400
H  50.43500 28.52900 40.03500
H  48.77500 28.67100 40.71200
H  49.35400 27.19800 40.25400

