158

Mg 8.83900 3.72500 27.84500
C  10.00500 1.99600 30.73100
C  6.89900 5.56000 29.83900
C  7.63900 5.15500 25.04300
C  10.56000 1.39700 25.83400
N  8.53800 3.70600 30.08400
C  9.16000 3.08200 30.98500
C  8.66100 3.46200 32.38400
C  7.69000 4.63500 32.14900
C  7.70600 4.62400 30.60300
C  6.25100 4.57700 32.90600
C  9.81000 3.87400 33.37200
C  9.64200 5.10200 34.32400
H  10.29900 5.26900 35.68300
N  7.51400 5.14500 27.46700
C  6.85600 5.85300 28.44200
C  6.09100 6.92900 27.81200
C  6.33000 6.80600 26.42700
C  7.18000 5.65100 26.27600
C  5.18000 7.84400 28.61200
C  5.92400 7.72100 25.36700
O  6.10500 7.49000 24.17000
C  5.17200 8.96000 25.75400
N  9.10200 3.34100 25.78300
C  8.43900 4.07300 24.79600
C  8.83700 3.65300 23.38800
C  9.77900 2.45900 23.63800
C  9.87500 2.39300 25.17100
C  7.62700 3.35700 22.47600
C  11.14300 2.47900 22.89200
C  11.22700 1.28300 21.82300
N  10.02200 2.00900 28.13800
C  10.63300 1.18500 27.23900
C  11.27900 0.13600 27.99100
C  11.05800 0.37800 29.30700
C  10.29300 1.51200 29.40000
C  12.17400 -0.91800 27.30600
C  11.47500 -0.03300 30.70700
O  12.14600 -0.93000 31.12000
C  10.72300 1.05800 31.70100
C  9.87400 0.29900 32.74100
O  8.83300 -0.23500 32.51900
O  10.53100 0.37200 33.98000
C  9.97700 -0.18800 35.26100
H  6.33100 6.24400 30.47200
H  7.42100 5.67300 24.10700
H  11.16300 0.82200 25.12800
H  8.08000 2.61800 32.75800
H  8.07800 5.64900 32.24100
H  5.49600 4.21600 32.20800
H  6.04000 5.59200 33.24100
H  6.26000 3.91200 33.76900
H  10.72700 4.11000 32.83300
H  10.07200 3.01600 33.99100
H  8.61300 5.43900 34.45400
H  10.21500 5.88000 33.82000
H  4.26200 8.14300 28.10500
H  5.71000 8.72900 28.96400
H  4.73800 7.34500 29.47400
H  5.80500 9.57200 26.39600
H  4.16500 8.69600 26.08000
H  5.08500 9.45700 24.78800
H  9.35100 4.39800 22.78100
H  9.26600 1.52500 23.41000
H  7.70300 2.31700 22.15800
H  7.43500 4.01800 21.63100
H  6.80100 3.44900 23.18100
H  11.99500 2.37500 23.56400
H  11.26500 3.38900 22.30400
H  10.29800 0.74100 21.64400
H  12.05900 0.60100 22.00000
H  11.36100 1.70400 20.82600
H  13.19000 -0.52500 27.30600
H  11.76100 -1.22900 26.34600
H  12.05400 -1.79300 27.94400
H  11.57800 1.60000 32.10500
H  9.74500 0.55900 36.02000
H  10.72400 -0.83100 35.72600
H  9.08700 -0.75500 34.98800
Mg 24.55600 -5.48700 45.71300
C  26.64700 -3.11200 44.22300
C  21.99000 -4.41100 43.52900
C  22.69900 -8.10400 46.68800
C  27.34500 -6.88800 47.29900
N  24.36800 -3.99400 44.14200
C  25.37600 -3.10100 43.68000
C  24.94400 -2.37200 42.44200
C  23.39000 -2.48900 42.50200
C  23.20500 -3.73500 43.43300
C  22.63900 -1.23000 42.92400
C  25.79300 -2.98700 41.19400
C  26.67300 -2.11600 40.38200
H  26.26500 -1.98300 38.89700
N  22.57300 -6.10400 45.26100
C  21.70100 -5.50300 44.37200
C  20.43300 -6.19000 44.46300
C  20.61200 -7.36500 45.30000
C  22.01600 -7.19600 45.83800
C  19.24000 -5.74400 43.64000
C  19.52300 -8.48800 45.52800
O  18.41600 -8.33300 45.23600
C  19.90000 -9.84000 46.20400
N  25.02500 -7.15200 46.91600
C  24.06200 -8.06100 47.19400
C  24.68600 -9.27600 47.88900
C  26.13900 -8.86100 48.28800
C  26.18500 -7.58000 47.41200
C  23.87300 -9.87800 48.99500
C  27.20800 -9.95300 47.83500
C  28.33100 -10.14300 48.92000
N  26.57500 -4.98800 45.96100
C  27.57800 -5.66100 46.62700
C  28.81300 -4.84800 46.44100
C  28.45000 -3.87600 45.49500
C  27.11000 -3.95700 45.32400
C  30.10200 -5.20700 47.05100
C  29.00800 -2.77000 44.73400
O  30.16100 -2.33900 44.59700
C  27.80100 -2.27200 43.81100
C  27.62900 -0.84800 44.08000
O  26.80100 -0.27300 44.78100
O  28.53600 -0.18600 43.27500
C  28.43200 1.24700 43.34800
H  21.22100 -4.12000 42.81000
H  22.18900 -9.03400 46.95000
H  28.24500 -7.33500 47.72800
H  25.17700 -1.31500 42.57600
H  23.06000 -2.85000 41.52800
H  23.07700 -0.31900 42.51500
H  22.76200 -1.23400 44.00700
H  21.55600 -1.26300 42.81100
H  25.05100 -3.32300 40.47000
H  26.35500 -3.86800 41.50500
H  27.68300 -2.49900 40.23900
H  26.72500 -1.08800 40.74100
H  19.18900 -6.17000 42.63800
H  19.22000 -4.68300 43.39100
H  18.34300 -6.04900 44.18000
H  19.05100 -10.52100 46.15500
H  20.19500 -9.60800 47.22700
H  20.69200 -10.29100 45.60600
H  24.59600 -9.98500 47.06600
H  26.28100 -8.49200 49.30400
H  22.92400 -9.36800 49.16100
H  24.43000 -9.88000 49.93100
H  23.65500 -10.88100 48.62700
H  27.65400 -9.71200 46.87000
H  26.74200 -10.93300 47.73000
H  29.31400 -9.78200 48.61700
H  28.36100 -11.18500 49.23800
H  28.10100 -9.56400 49.81400
H  30.43300 -6.16100 46.64100
H  29.98200 -5.34200 48.12500
H  30.87300 -4.45400 46.88600
H  28.05600 -2.36000 42.75500
H  29.32000 1.69700 42.90400
H  28.38700 1.63500 44.36600
H  27.55500 1.47100 42.74100

