158

Mg 40.60200 8.18800 29.05400
C  42.55800 9.47200 31.74800
C  38.33600 7.11500 31.33700
C  39.02600 6.70000 26.51900
C  43.27000 9.07100 26.86800
N  40.58800 8.27500 31.27000
C  41.31100 8.99400 32.18900
C  40.69600 8.99500 33.60700
C  39.35000 8.27300 33.37800
C  39.42900 7.88400 31.90700
C  38.99700 7.21200 34.43200
C  40.45400 10.46800 34.09100
C  39.69000 10.70600 35.37400
H  40.34400 11.64700 36.35000
N  38.86900 7.00400 28.95500
C  38.06100 6.65500 30.06400
C  36.98400 5.87200 29.52800
C  37.02300 5.88900 28.05200
C  38.34100 6.56000 27.77500
C  35.91500 5.17000 30.50500
C  35.99900 5.30100 27.14000
O  36.20300 5.36100 25.93900
C  34.63300 4.82200 27.67800
N  41.18200 7.62200 27.10000
C  40.30900 7.20600 26.17200
C  40.85700 7.15600 24.77000
C  42.24000 7.89700 24.94800
C  42.22400 8.28200 26.45800
C  41.12700 5.76800 24.09800
C  42.41800 9.24600 24.08700
C  41.30600 10.30500 24.15100
N  42.59700 9.01900 29.21200
C  43.47000 9.39300 28.25800
C  44.62300 9.93700 28.95000
C  44.25400 10.00500 30.26400
C  43.08200 9.39200 30.44000
C  45.93100 10.34400 28.18700
C  44.76600 10.49100 31.53200
O  45.79200 10.98200 31.86200
C  43.67100 10.15500 32.54500
C  44.23500 9.29900 33.60700
O  44.63200 8.19500 33.44900
O  44.06700 9.85800 34.84000
C  44.49200 9.15700 36.06800
H  37.45800 6.97300 31.97100
H  38.36500 6.42900 25.69300
H  44.09000 9.31600 26.18900
H  41.30600 8.50500 34.36600
H  38.51000 8.96100 33.47200
H  37.97900 7.40600 34.77100
H  39.74000 7.19900 35.23000
H  39.05100 6.19200 34.05100
H  39.95800 10.94600 33.24600
H  41.40900 10.97300 34.23600
H  39.34700 9.77900 35.83400
H  38.80600 11.24200 35.03000
H  36.47700 4.99500 31.42300
H  35.61900 4.19700 30.11200
H  35.06600 5.83900 30.64100
H  34.75300 3.98400 28.36600
H  34.00200 4.63700 26.80900
H  34.26300 5.64500 28.28900
H  40.15100 7.65300 24.10500
H  43.06600 7.22300 24.72000
H  40.68400 5.90300 23.11100
H  40.55200 4.97200 24.57100
H  42.17100 5.52400 23.90000
H  42.24100 8.79900 23.10900
H  43.44900 9.59700 24.13000
H  40.98800 10.42100 25.18700
H  40.45900 10.11000 23.49300
H  41.86600 11.20200 23.88500
H  45.77300 11.39400 27.93600
H  46.17400 9.62500 27.40400
H  46.65400 10.29600 29.00100
H  43.31700 11.09400 32.97000
H  45.35500 9.71400 36.43300
H  44.73100 8.09400 36.05800
H  43.69700 9.20800 36.81200
Mg 16.77100 51.83100 24.64200
C  18.55100 50.90100 27.41000
C  13.99000 52.31200 26.62900
C  14.78200 52.13100 21.80700
C  19.45100 51.09100 22.53100
N  16.41500 51.87200 26.86500
C  17.27600 51.40300 27.82800
C  16.68000 51.55500 29.23200
C  15.16000 51.90100 28.91000
C  15.17500 51.98300 27.36300
C  14.09100 51.03800 29.55400
C  17.39500 52.73200 30.00900
C  17.91200 52.47900 31.46800
H  17.11500 51.64500 32.53900
N  14.73000 52.28700 24.31100
C  13.80400 52.50900 25.23100
C  12.54100 52.93600 24.62500
C  12.76300 52.88900 23.14900
C  14.14000 52.38500 23.05900
C  11.33400 53.31400 25.40800
C  11.85500 53.27100 22.00900
O  12.05900 53.18000 20.77300
C  10.60100 53.96000 22.33700
N  17.11000 51.55000 22.36500
C  16.09800 51.79200 21.45300
C  16.67200 51.90800 20.07000
C  18.29100 51.68100 20.35100
C  18.35200 51.50700 21.80900
C  16.05300 50.91200 19.00900
C  19.21900 52.81200 19.80800
C  19.06400 53.13600 18.24400
N  18.57800 51.11700 24.83100
C  19.59900 50.81400 23.92500
C  20.68000 50.15900 24.60600
C  20.28400 50.23800 25.98500
C  19.06100 50.87100 26.11400
C  21.95500 49.58300 23.99000
C  20.73100 49.83200 27.31400
O  21.68600 49.24600 27.72000
C  19.69800 50.34700 28.23000
C  19.32000 49.23200 29.19500
O  18.65000 48.29200 28.90700
O  19.79200 49.63400 30.41400
C  19.56400 48.74800 31.53400
H  13.23600 52.57600 27.37400
H  14.12600 52.06200 20.93600
H  20.30900 50.92500 21.87600
H  16.82100 50.68200 29.86900
H  14.86300 52.90500 29.21400
H  14.56900 50.31400 30.21400
H  13.51100 50.57700 28.75500
H  13.39200 51.64100 30.13500
H  16.65600 53.52800 30.10100
H  18.22700 53.13200 29.42900
H  17.88900 53.48300 31.89300
H  18.98000 52.25800 31.48100
H  11.42600 53.04400 26.46000
H  10.50400 52.68500 25.08700
H  11.17400 54.38300 25.26300
H  9.95500 54.12300 21.47500
H  10.83100 54.91400 22.81300
H  10.03500 53.29000 22.98400
H  16.51700 52.93400 19.73900
H  18.71700 50.77500 19.92100
H  15.60300 51.40500 18.14700
H  15.26700 50.35300 19.51800
H  16.80700 50.20900 18.65600
H  20.25500 52.47800 19.85600
H  19.16300 53.78200 20.30300
H  18.74600 54.16300 18.06500
H  18.50500 52.36100 17.72000
H  20.00600 53.29100 17.71700
H  22.51400 50.36700 23.47900
H  21.55600 48.86800 23.27000
H  22.71900 49.15400 24.63900
H  20.24400 51.09400 28.80500
H  19.77200 49.23900 32.48500
H  20.22600 47.88200 31.52600
H  18.50700 48.49000 31.46100

