158

Mg 53.84500 24.12200 44.81500
C  51.17500 26.25100 43.84300
C  51.90000 21.36000 43.77600
C  56.56400 22.28700 44.83000
C  55.78600 27.05300 45.08100
N  51.83500 23.85000 43.82400
C  50.95200 24.87500 43.64700
C  49.60500 24.34800 43.13300
C  49.73400 22.80700 43.51700
C  51.23400 22.62500 43.77900
C  48.88000 22.41100 44.76100
C  49.37600 24.55800 41.68500
C  47.92100 24.64700 41.22700
H  47.43100 24.05600 39.92500
N  54.21300 22.01100 44.36600
C  53.26400 21.11400 44.06000
C  53.95800 19.83200 44.03400
C  55.26500 20.04500 44.42400
C  55.44500 21.52700 44.49000
C  53.30800 18.56700 43.61200
C  56.27300 18.90500 44.72500
O  55.86600 17.73700 44.53600
C  57.68200 19.15400 45.28800
N  55.83900 24.54300 44.79900
C  56.70900 23.61700 44.97200
C  58.06700 24.26600 45.19200
C  57.86300 25.74800 45.29500
C  56.40900 25.77500 44.99100
C  58.74100 23.72600 46.47800
C  58.76500 26.63300 44.36300
C  58.74600 26.45500 42.83900
N  53.56100 26.28300 44.60900
C  54.41700 27.32900 44.87700
C  53.75200 28.57700 44.84300
C  52.42900 28.20600 44.53000
C  52.38500 26.77700 44.24800
C  54.37300 29.91000 45.03500
C  51.13800 28.67200 44.25300
O  50.69400 29.82600 44.24500
C  50.24200 27.40100 43.72900
C  49.73800 27.89300 42.43600
O  50.35600 28.07200 41.36500
O  48.40000 28.02200 42.53200
C  47.71400 28.63200 41.36100
H  51.24100 20.51200 43.57900
H  57.45900 21.66300 44.77700
H  56.49600 27.87700 45.18400
H  48.78600 24.78800 43.70200
H  49.38400 22.18600 42.69200
H  48.12600 21.63100 44.66000
H  48.35200 23.27900 45.15500
H  49.56700 22.04700 45.52500
H  50.01000 23.87300 41.12200
H  49.79500 25.53500 41.44600
H  47.55600 25.67200 41.15900
H  47.29500 24.22100 42.01200
H  53.95900 17.83000 43.14300
H  52.58500 18.85200 42.84700
H  52.73100 18.08400 44.40200
H  57.77600 18.22400 45.84900
H  57.79300 19.92500 46.05100
H  58.49500 19.17600 44.56300
H  58.62700 24.14500 44.26500
H  58.01900 26.01600 46.34000
H  59.58800 23.10100 46.19700
H  58.06800 23.10700 47.07100
H  59.12500 24.42800 47.21900
H  59.76300 26.51500 44.78500
H  58.54300 27.65600 44.66600
H  58.11600 25.65100 42.45700
H  59.73100 26.26200 42.41500
H  58.41400 27.33100 42.28100
H  53.73300 30.63600 44.53200
H  55.30900 30.17100 44.54100
H  54.49700 30.11800 46.09800
H  49.39100 27.36800 44.40800
H  46.63900 28.76200 41.48600
H  47.95500 28.15600 40.41000
H  48.08400 29.65700 41.33100
Mg 9.77800 48.19500 25.98700
C  8.02300 48.24400 28.97200
C  12.54400 49.24700 27.73300
C  11.45400 48.19200 23.07200
C  6.79700 47.57700 24.21900
N  10.15500 48.71200 28.06400
C  9.44400 48.47800 29.15200
C  10.14000 48.74800 30.40700
C  11.29600 49.61500 29.92200
C  11.41500 49.15100 28.46700
C  11.30200 51.13800 30.14300
C  10.60000 47.56700 31.38100
C  10.35600 47.67100 32.84500
H  10.15700 46.38500 33.70700
N  11.72600 48.62900 25.45400
C  12.75900 49.00000 26.35300
C  14.03000 48.93900 25.66600
C  13.68100 48.62200 24.27600
C  12.28600 48.39700 24.18500
C  15.47800 49.24600 26.16400
C  14.61600 48.63400 23.01100
O  14.14300 48.50300 21.90000
C  16.06100 48.84100 23.15100
N  9.13900 48.01900 23.94100
C  10.05400 48.05700 22.95300
C  9.42900 47.74300 21.59200
C  7.99400 47.30400 21.93700
C  7.93100 47.68500 23.40800
C  9.51300 49.01100 20.62300
C  7.67200 45.78000 21.72200
C  8.12700 44.78600 22.82800
N  7.78700 48.07800 26.39500
C  6.67300 47.82100 25.61000
C  5.55400 47.65400 26.48700
C  6.01600 47.75200 27.80300
C  7.40600 48.07800 27.70400
C  4.13700 47.51700 26.01900
C  5.63800 47.75500 29.18400
O  4.53300 47.62100 29.73400
C  6.94500 47.92600 29.99500
C  7.24400 46.74400 30.79000
O  7.76800 45.72500 30.43600
O  6.90300 46.97600 32.06700
C  6.85200 45.84600 33.01800
H  13.45900 49.67500 28.14700
H  11.88400 48.19000 22.06800
H  5.83100 47.33500 23.77100
H  9.53000 49.39000 31.04300
H  12.16600 49.31400 30.50500
H  10.72600 51.41000 31.02800
H  11.00900 51.60900 29.20500
H  12.25700 51.61300 30.36500
H  11.68500 47.53000 31.28900
H  10.26200 46.61100 30.98100
H  9.40000 48.18700 32.93800
H  11.08400 48.26300 33.39900
H  15.36200 49.40400 27.23700
H  15.98700 50.13400 25.79000
H  16.07600 48.33500 26.14800
H  16.39000 49.72600 23.69600
H  16.30500 48.85900 22.08900
H  16.50100 47.96900 23.63400
H  10.06100 46.94000 21.21300
H  7.12100 47.78300 21.49300
H  10.20700 49.76300 20.99900
H  8.54100 49.46000 20.41800
H  9.87500 48.68600 19.64800
H  7.98800 45.51600 20.71300
H  6.58600 45.68900 21.71600
H  7.26900 44.16000 23.07400
H  8.61300 45.33600 23.63300
H  8.83900 44.11200 22.35200
H  3.86000 46.47200 25.87700
H  3.95400 48.10900 25.12300
H  3.36000 47.89500 26.68400
H  7.01000 48.82800 30.60300
H  7.02600 46.31000 33.98900
H  7.44100 44.93700 32.90200
H  5.78700 45.61900 33.05400

