158

Mg 29.81900 58.65000 39.04000
C  27.02900 56.70100 38.14800
C  31.85600 56.01500 38.50900
C  32.38300 60.81100 39.13500
C  27.61700 61.35000 39.30200
N  29.46200 56.66000 38.02300
C  28.18700 56.03800 37.92000
C  28.40800 54.57500 37.51500
C  29.83100 54.25500 38.20400
C  30.46300 55.72700 38.25000
C  29.77300 53.57800 39.59100
C  28.41700 54.44700 35.96000
C  27.23300 53.67100 35.30200
H  26.21700 54.48700 34.43700
N  31.97000 58.40600 39.01700
C  32.59600 57.25900 38.73100
C  34.01500 57.46200 38.75700
C  34.26200 58.82400 39.05700
C  32.86800 59.42000 39.01900
C  34.96500 56.34700 38.67700
C  35.51000 59.52600 39.17500
O  36.59500 59.01800 38.99900
C  35.56000 60.92000 39.51100
N  30.02300 60.76300 39.45200
C  31.18200 61.43700 39.29300
C  30.95700 62.96400 39.45200
C  29.48000 63.11600 39.61400
C  29.01400 61.64300 39.45600
C  31.83700 63.58900 40.61200
C  28.75100 64.08000 38.64600
C  28.15300 65.29000 39.18800
N  27.73900 59.05700 38.82400
C  26.98800 60.15100 38.98600
C  25.64700 59.86200 38.85200
C  25.55000 58.56700 38.51900
C  26.87900 58.07300 38.51800
C  24.50900 60.74700 39.22100
C  24.69300 57.47200 38.28000
O  23.47200 57.41900 38.19300
C  25.58300 56.21300 38.01500
C  25.17400 55.10900 38.94400
O  25.32000 55.10700 40.15400
O  24.57700 54.12200 38.19100
C  23.89100 52.95100 38.78400
H  32.44600 55.09700 38.46400
H  33.17100 61.55100 39.28900
H  26.93600 62.16000 39.57400
H  27.57500 53.93100 37.79900
H  30.45000 53.53600 37.66800
H  30.47200 52.74500 39.66800
H  28.78500 53.11900 39.57100
H  29.90000 54.23200 40.45400
H  29.28500 53.84300 35.69700
H  28.55300 55.45500 35.56800
H  26.66300 53.11200 36.04500
H  27.66700 52.88100 34.68800
H  35.92100 56.65500 39.10000
H  35.16300 56.16400 37.62100
H  34.53800 55.47800 39.17800
H  36.57500 61.22700 39.76500
H  34.85800 61.27200 40.26700
H  35.38700 61.48000 38.59200
H  31.26400 63.40200 38.50300
H  29.18900 63.32200 40.64400
H  31.94100 64.66900 40.50300
H  32.82100 63.14000 40.48200
H  31.27300 63.34100 41.51100
H  27.94800 63.61900 38.07100
H  29.51400 64.40800 37.94000
H  28.64200 66.09000 38.63300
H  28.51800 65.42500 40.20700
H  27.07200 65.31900 39.05300
H  24.88700 61.44300 39.97000
H  23.61300 60.17900 39.47200
H  24.24400 61.45900 38.43900
H  25.47900 55.90900 36.97400
H  23.15500 52.46500 38.14300
H  23.31900 53.12500 39.69500
H  24.66500 52.23400 39.06100
Mg -10.35300 39.51400 43.14700
C  -8.98900 36.53600 41.74300
C  -7.83100 41.21000 41.35100
C  -11.92500 42.36000 43.33200
C  -13.07100 37.70000 44.34400
N  -8.71700 38.92100 41.53700
C  -8.25000 37.64400 41.29500
C  -6.92600 37.56500 40.56800
C  -6.46600 39.10700 40.67700
C  -7.77700 39.80900 41.18300
C  -5.23500 39.50100 41.46000
C  -6.97600 37.03600 39.08200
C  -5.85300 35.95500 38.77200
H  -4.91800 36.21600 37.49500
N  -9.86400 41.60000 42.68200
C  -8.84100 42.04600 41.93200
C  -8.76900 43.47500 42.01000
C  -9.90500 43.84500 42.78400
C  -10.64500 42.60200 42.92800
C  -7.70400 44.37200 41.41200
C  -10.35100 45.29800 43.23700
O  -9.66300 46.27000 42.89600
C  -11.57500 45.54200 44.11100
N  -12.31900 39.92300 43.66200
C  -12.66100 41.17900 43.73000
C  -14.01000 41.27400 44.49000
C  -14.46700 39.79900 44.80100
C  -13.24900 39.04700 44.17900
C  -14.12300 42.25200 45.67200
C  -15.76800 39.41900 44.03700
C  -16.62100 38.39300 44.81500
N  -10.91700 37.47900 43.10600
C  -12.02400 36.90900 43.75800
C  -11.88100 35.41400 43.56700
C  -10.69600 35.22700 42.79500
C  -10.20700 36.53200 42.48400
C  -12.88400 34.35100 43.96100
C  -9.77600 34.25700 42.25300
O  -9.87600 33.01700 42.31800
C  -8.69700 35.07200 41.49500
C  -7.37400 34.58100 42.08900
O  -6.85500 34.97100 43.10600
O  -6.97300 33.52700 41.33900
C  -5.78000 32.77300 41.76700
H  -6.96300 41.76800 40.99200
H  -12.61000 43.20300 43.44700
H  -13.83500 37.08800 44.82800
H  -6.24100 36.97000 41.17100
H  -6.27600 39.53400 39.69300
H  -4.87500 38.69200 42.09600
H  -5.58900 40.31100 42.09800
H  -4.39700 39.82200 40.84200
H  -6.85400 37.85600 38.37400
H  -7.95600 36.63500 38.82300
H  -6.16700 34.91200 38.73800
H  -5.06100 35.92800 39.52000
H  -8.26300 44.95300 40.67900
H  -6.85900 43.91100 40.90200
H  -7.29900 45.06700 42.14700
H  -12.44900 45.41300 43.47300
H  -11.61600 46.51900 44.59200
H  -11.69300 44.72000 44.81700
H  -14.70900 41.67500 43.75500
H  -14.38500 39.47900 45.84000
H  -14.41700 41.79200 46.61600
H  -15.02300 42.85900 45.57500
H  -13.22500 42.83000 45.89200
H  -15.43600 38.91200 43.13100
H  -16.32400 40.33800 43.85700
H  -16.07800 38.02600 45.68600
H  -16.72800 37.54400 44.14000
H  -17.57500 38.81800 45.12800
H  -13.61500 34.13800 43.18100
H  -13.32600 34.68900 44.89800
H  -12.34700 33.44000 44.22200
H  -8.77900 34.89200 40.42300
H  -5.75800 31.84800 41.18900
H  -5.78200 32.57800 42.83900
H  -4.92100 33.37700 41.47600

