158

Mg 48.98600 35.18800 26.91500
C  46.85200 33.83900 29.52800
C  49.08500 38.10200 28.51100
C  50.34900 36.49100 24.10800
C  47.95600 32.34400 25.00500
N  48.23600 35.76400 28.85600
C  47.48900 35.13700 29.83900
C  47.65400 35.85900 31.18700
C  47.96000 37.29600 30.71800
C  48.41800 37.07100 29.28400
C  46.64900 38.23100 30.73200
C  48.84300 35.26900 32.08000
C  48.57700 35.26800 33.59100
H  47.61000 36.22300 34.18300
N  49.88100 36.98800 26.46500
C  49.73100 38.08200 27.24700
C  50.43500 39.17600 26.51900
C  50.77600 38.71500 25.18800
C  50.27900 37.33100 25.20200
C  50.71300 40.49800 27.19400
C  51.47700 39.38100 24.09200
O  51.57000 38.88500 22.96400
C  52.09800 40.77900 24.36200
N  49.16800 34.49100 24.82100
C  49.85800 35.17800 23.86000
C  49.76800 34.47800 22.50000
C  49.24800 33.08700 22.88400
C  48.81700 33.30800 24.35300
C  48.84900 35.14300 21.45200
C  50.23800 31.82600 22.73600
C  49.50000 30.59900 22.12800
N  47.72800 33.51800 27.15700
C  47.45800 32.44800 26.28900
C  46.55100 31.57200 26.92100
C  46.35700 32.04100 28.22600
C  46.99400 33.25900 28.27600
C  46.11200 30.23700 26.37200
C  45.67000 31.74100 29.50300
O  45.01000 30.80300 29.84900
C  45.91200 32.96900 30.31800
C  46.32700 32.62200 31.63900
O  47.42400 32.19300 31.98300
O  45.20500 32.64300 32.46300
C  45.58900 32.26000 33.86200
H  49.20300 39.03800 29.06100
H  50.68600 36.81100 23.12000
H  47.62900 31.52100 24.36600
H  46.67000 35.76700 31.64700
H  48.69300 37.75200 31.38400
H  45.71900 37.70100 30.93600
H  46.52800 38.68100 29.74700
H  46.71200 39.08300 31.40900
H  49.68200 35.96400 32.03800
H  49.17000 34.30700 31.68800
H  49.47000 35.50900 34.16600
H  48.25000 34.24000 33.74400
H  51.64700 40.37400 27.74300
H  50.07400 40.64000 28.06500
H  50.55200 41.42400 26.64300
H  51.23600 41.40600 24.58600
H  52.63700 41.12600 23.48000
H  52.76000 40.85000 25.22500
H  50.72900 34.35100 22.00300
H  48.27300 32.92400 22.42600
H  48.69900 36.20100 21.66800
H  47.84800 34.72300 21.35300
H  49.42600 35.06800 20.53100
H  50.69700 31.52400 23.67800
H  50.96900 32.17700 22.00800
H  50.08700 30.21500 21.29400
H  48.46400 30.79000 21.84700
H  49.51000 29.85900 22.92900
H  46.95400 29.76100 25.87000
H  45.30200 30.49300 25.68900
H  45.73200 29.58800 27.16100
H  44.98800 33.54100 30.39200
H  45.81700 31.19500 33.89700
H  44.78300 32.46700 34.56700
H  46.43000 32.83400 34.25300
Mg 17.22700 52.41700 26.60700
C  19.14500 50.42800 28.88500
C  15.12900 53.25100 29.15700
C  15.39600 53.68700 24.39800
C  19.33700 50.90200 24.00100
N  17.08900 51.74300 28.73000
C  18.10000 51.19000 29.48300
C  17.83700 51.41200 31.00400
C  16.41000 51.95500 31.03900
C  16.18500 52.37600 29.54900
C  15.38900 50.84700 31.46700
C  18.89400 52.39000 31.62900
C  19.30200 52.00600 33.05600
H  18.20500 51.43200 33.97600
N  15.51200 53.46600 26.77900
C  14.77500 53.71700 27.89900
C  13.76300 54.65800 27.52400
C  13.83900 54.93500 26.14800
C  14.92000 54.01500 25.71500
C  12.80000 55.20300 28.54900
C  13.09400 55.89300 25.32700
O  13.21300 56.00900 24.07200
C  12.29300 56.96900 26.13400
N  17.33200 52.20400 24.54000
C  16.43800 52.93400 23.86800
C  16.79000 52.99300 22.36800
C  18.00600 52.06500 22.23100
C  18.27600 51.67700 23.67200
C  15.53200 52.84600 21.44600
C  19.24400 52.66900 21.47800
C  20.21200 53.62200 22.16200
N  18.96200 51.04200 26.42800
C  19.66900 50.51200 25.32900
C  20.67000 49.54900 25.77700
C  20.52000 49.59600 27.12800
C  19.46800 50.46500 27.49700
C  21.64600 48.81800 24.88100
C  21.08700 49.04300 28.32400
O  21.96700 48.19300 28.47000
C  20.30500 49.68100 29.50900
C  19.89300 48.62000 30.47100
O  19.03700 47.77300 30.33900
O  20.49200 48.92100 31.68500
C  20.27300 48.09800 32.93200
H  14.45500 53.45500 29.99200
H  14.68300 54.19500 23.74600
H  19.90100 50.44700 23.18400
H  17.78300 50.45700 31.52700
H  16.28400 52.78200 31.73800
H  14.93300 50.40800 30.57900
H  14.55300 51.26400 32.02900
H  15.91000 50.10800 32.07500
H  18.54500 53.42300 31.64200
H  19.77700 52.37500 30.99000
H  19.75400 52.81700 33.62800
H  20.03500 51.20000 33.02600
H  11.76200 54.93400 28.35200
H  12.81400 56.29300 28.56100
H  13.01700 54.89700 29.57200
H  13.10700 57.37100 26.73700
H  11.40100 56.51500 26.56400
H  11.93900 57.76900 25.48400
H  17.13400 53.97400 22.03900
H  17.66600 51.22200 21.62900
H  14.75500 52.35700 22.03400
H  15.75600 52.11000 20.67400
H  15.16600 53.79800 21.06100
H  18.87500 53.09500 20.54400
H  19.83300 51.82800 21.11300
H  21.10500 52.99800 22.16400
H  19.75400 53.90100 23.11100
H  20.23500 54.42400 21.42500
H  22.55000 49.36900 24.62400
H  21.11100 48.57000 23.96500
H  21.93500 47.89100 25.37700
H  20.93500 50.43200 29.98400
H  20.92900 48.30500 33.77700
H  20.31900 47.03000 32.71700
H  19.23700 48.29100 33.21000

