158

Mg 48.14400 34.45900 26.49900
C  46.35500 33.05300 29.29700
C  48.27400 37.39800 28.16300
C  48.97300 35.71200 23.51300
C  47.01400 31.40900 24.62900
N  47.53600 35.08800 28.58100
C  46.96800 34.36900 29.53100
C  46.93300 35.15800 30.82900
C  47.06200 36.61400 30.31200
C  47.59700 36.44700 28.90200
C  45.74500 37.43200 30.34300
C  48.07200 34.65400 31.79600
C  47.82000 34.56200 33.26500
H  46.82900 35.61000 33.83000
N  48.84900 36.27500 25.99800
C  48.79300 37.33300 26.79900
C  49.33900 38.53400 25.96000
C  49.58600 38.01400 24.59800
C  49.08700 36.62300 24.64700
C  49.55600 39.88800 26.63100
C  50.10200 38.72000 23.34600
O  50.20800 38.16300 22.19400
C  50.48800 40.16400 23.53100
N  48.12500 33.59200 24.40300
C  48.62500 34.36100 23.40200
C  48.43700 33.70300 22.03600
C  48.12800 32.17500 22.38800
C  47.76600 32.34200 23.89600
C  47.37400 34.48600 21.15300
C  49.27300 31.14700 22.11800
C  50.57000 31.28800 22.98800
N  46.93700 32.61900 26.85600
C  46.57800 31.53800 26.05000
C  45.76800 30.59400 26.76800
C  45.67600 31.16400 28.02300
C  46.30200 32.39900 28.04200
C  45.17800 29.37800 26.12600
C  45.11600 30.94500 29.36900
O  44.41400 30.05600 29.73400
C  45.33700 32.27200 30.13100
C  45.59600 31.90200 31.55500
O  46.60600 31.45600 32.10400
O  44.44700 32.19500 32.21200
C  44.29500 31.63400 33.57100
H  48.18100 38.36600 28.66100
H  49.14300 36.12700 22.51700
H  46.67800 30.49200 24.14200
H  45.94100 35.03600 31.26300
H  47.88700 37.09600 30.83700
H  44.94000 36.89900 30.84900
H  45.62300 37.76000 29.31100
H  45.95900 38.30800 30.95600
H  48.96300 35.26700 31.66000
H  48.31800 33.60600 31.62700
H  48.74600 34.76900 33.80100
H  47.49900 33.54800 33.50300
H  50.60500 39.88500 26.92900
H  49.05800 39.92100 27.60000
H  49.31100 40.72200 25.97400
H  49.68400 40.75300 23.97300
H  50.83700 40.51200 22.55900
H  51.26300 40.28200 24.28800
H  49.35300 33.80400 21.45400
H  47.32400 31.86100 21.72300
H  47.93200 35.02700 20.38800
H  46.84500 35.28200 21.67700
H  46.73000 33.75700 20.66200
H  49.54800 31.23100 21.06700
H  48.85100 30.20300 22.46300
H  51.40200 30.94500 22.37400
H  50.49700 30.54900 23.78500
H  50.78000 32.22000 23.51200
H  45.84500 28.93800 25.38400
H  44.24900 29.73700 25.68500
H  44.98900 28.58800 26.85200
H  44.36700 32.76200 30.04200
H  44.52100 30.57300 33.67200
H  43.28900 31.87900 33.91400
H  45.09700 32.12800 34.12100
Mg -0.30100 43.88900 26.13100
C  1.81800 43.77100 28.81000
C  -2.91400 43.14000 28.41700
C  -2.41600 43.23600 23.61400
C  2.44900 44.42400 23.93200
N  -0.40500 43.27700 28.40600
C  0.51900 43.55200 29.27000
C  0.03400 43.50000 30.71600
C  -1.46100 43.15400 30.55200
C  -1.60800 43.17300 29.04800
C  -1.86300 41.85000 31.14900
C  0.31200 44.84400 31.47200
C  0.77900 44.77300 32.96700
H  0.51200 43.55600 33.82200
N  -2.37000 43.30900 26.02300
C  -3.28000 43.08700 27.06000
C  -4.51600 42.68500 26.50700
C  -4.35700 42.56300 25.10900
C  -3.01800 43.04200 24.83200
C  -5.73500 42.34500 27.38200
C  -5.33000 41.93600 24.14000
O  -5.07900 41.98900 22.94800
C  -6.64100 41.38700 24.48500
N  -0.01200 43.93500 24.10100
C  -1.07000 43.63700 23.27200
C  -0.54000 43.57600 21.86300
C  0.94300 44.05700 21.95100
C  1.15000 44.10900 23.41900
C  -0.69700 42.13600 21.16200
C  1.21800 45.38000 21.14100
C  1.10600 46.79900 21.77900
N  1.75600 44.18400 26.24300
C  2.70100 44.45600 25.32400
C  3.98100 44.54700 25.97300
C  3.67800 44.21000 27.35200
C  2.33000 44.02600 27.45900
C  5.34300 44.79600 25.25600
C  4.27300 43.92000 28.64200
O  5.41700 43.80800 29.08000
C  3.03300 43.80900 29.63900
C  3.18500 42.63400 30.44700
O  3.18400 41.53900 29.95000
O  3.52400 42.87400 31.78300
C  4.13700 41.78400 32.54600
H  -3.77400 42.90900 29.04900
H  -3.04000 42.96800 22.75900
H  3.25300 44.56400 23.20700
H  0.53500 42.63600 31.15400
H  -2.06200 43.95600 30.98200
H  -0.93800 41.47100 31.58200
H  -2.38100 41.22600 30.42100
H  -2.55200 41.92100 31.99100
H  -0.59300 45.45100 31.47100
H  1.06800 45.35900 30.87900
H  0.10300 45.50400 33.41100
H  1.81900 45.09100 33.03800
H  -6.67300 42.35000 26.82600
H  -5.88900 42.77800 28.37100
H  -5.45500 41.33200 27.67200
H  -6.62600 40.55000 25.18300
H  -6.97700 40.95800 23.54100
H  -7.52800 41.96800 24.73600
H  -1.08200 44.27900 21.23000
H  1.54300 43.21500 21.60500
H  0.25100 41.64600 20.94200
H  -1.31700 42.24600 20.27200
H  -1.32200 41.50800 21.79700
H  0.44400 45.29100 20.37800
H  2.17900 45.41300 20.62700
H  0.25600 47.30200 21.31700
H  1.98800 47.35000 21.45100
H  0.91500 46.85800 22.85100
H  5.38600 44.60900 24.18300
H  6.05500 44.17700 25.80300
H  5.61000 45.84400 25.39000
H  3.06800 44.78200 30.12800
H  4.45600 42.28200 33.46100
H  5.05600 41.41800 32.08600
H  3.40000 41.00800 32.75000

