158

Mg 17.57800 51.05600 26.00700
C  19.35200 49.89900 28.95500
C  15.21400 52.26600 28.04400
C  16.12300 51.91200 23.20200
C  20.21400 49.36400 24.08400
N  17.30000 50.99200 28.27400
C  18.16300 50.53300 29.24100
C  17.63900 50.97600 30.55700
C  16.18500 51.43400 30.36300
C  16.17700 51.59200 28.85100
C  15.07200 50.54000 30.82600
C  18.58300 52.03000 31.23900
C  18.55300 52.12300 32.75100
H  17.57600 51.27000 33.53900
N  15.89900 52.04900 25.62000
C  14.99900 52.51800 26.61900
C  13.95700 53.26300 25.96500
C  14.14300 53.13000 24.54500
C  15.44100 52.34800 24.35300
C  12.92200 53.92800 26.73600
C  13.38000 53.82300 23.41800
O  13.86000 53.89200 22.31800
C  12.11200 54.54500 23.63600
N  18.05800 50.67600 23.99500
C  17.27800 51.17000 23.03300
C  17.69400 50.72900 21.62700
C  19.08300 50.09700 21.86600
C  19.15200 50.06700 23.40000
C  16.62100 49.90500 20.79000
C  20.26200 50.82700 21.05400
C  20.50300 52.34800 21.44600
N  19.46300 49.86000 26.36300
C  20.39700 49.31400 25.52400
C  21.48500 48.77300 26.31300
C  21.11300 49.03200 27.62100
C  19.93600 49.70800 27.64200
C  22.56100 47.97000 25.86000
C  21.44500 48.64000 29.01100
O  22.39400 48.00000 29.49700
C  20.37900 49.26400 29.91600
C  19.74700 48.22000 30.75300
O  18.77600 47.52800 30.42700
O  20.39000 48.26300 31.97900
C  19.76900 47.44800 33.05300
H  14.45300 52.71800 28.68400
H  15.51000 52.05300 22.31000
H  21.04900 48.99200 23.48700
H  17.65700 50.07100 31.16500
H  16.00800 52.40600 30.82300
H  15.39500 49.81200 31.57100
H  14.57800 50.05700 29.98300
H  14.29600 51.17700 31.25100
H  18.43000 53.03600 30.84800
H  19.60400 51.80100 30.93300
H  18.37800 53.16800 33.00600
H  19.52500 51.86300 33.16900
H  12.00200 53.34800 26.67000
H  12.64000 54.90700 26.35000
H  13.16400 54.24200 27.75200
H  11.53600 53.94900 24.34400
H  11.63000 54.51900 22.65900
H  12.36300 55.59700 23.77100
H  17.74400 51.72300 21.18400
H  19.16500 49.08600 21.46800
H  15.96000 49.33000 21.43800
H  17.15100 49.25200 20.09600
H  15.90600 50.58400 20.32700
H  20.11600 50.89500 19.97600
H  21.19100 50.29400 21.25600
H  20.28500 53.01900 20.61600
H  21.50800 52.48100 21.84500
H  19.82200 52.60800 22.25600
H  22.98100 48.57600 25.05700
H  22.08000 47.19200 25.26800
H  23.28000 47.74100 26.64600
H  20.94500 49.95200 30.54400
H  20.11400 46.41500 33.05700
H  18.68900 47.37200 32.92300
H  20.10500 47.83300 34.01600
Mg -6.52100 25.23200 26.68200
C  -5.26500 26.58600 29.44500
C  -8.32900 22.89100 28.54400
C  -7.62400 23.85000 23.83000
C  -4.30300 27.15500 24.72700
N  -6.71400 24.72300 28.68100
C  -6.12900 25.47500 29.67300
C  -6.79900 25.19200 31.05600
C  -7.57700 23.85900 30.75800
C  -7.53800 23.77000 29.26700
C  -7.16100 22.63200 31.64400
C  -7.82300 26.32800 31.57000
C  -7.90800 26.51300 33.11500
H  -7.27600 25.40900 34.03800
N  -7.76400 23.57700 26.20900
C  -8.46500 22.81300 27.11100
C  -9.27300 21.83400 26.37000
C  -9.16900 22.17500 25.00200
C  -8.22100 23.28000 24.97500
C  -10.05500 20.81000 27.02800
C  -9.92800 21.52400 23.84200
O  -9.63000 21.83600 22.68500
C  -10.97700 20.43500 24.04400
N  -6.03600 25.52500 24.48700
C  -6.63900 24.76400 23.54100
C  -5.99500 25.02000 22.20500
C  -5.00300 26.22200 22.43500
C  -5.13900 26.37700 23.98700
C  -5.56400 23.74900 21.46000
C  -5.41200 27.50000 21.66000
C  -4.91400 27.34400 20.23700
N  -5.29800 26.75200 26.98700
C  -4.39700 27.36400 26.16200
C  -3.50600 28.23000 26.86000
C  -3.86300 27.95500 28.17000
C  -4.89900 27.05600 28.21700
C  -2.37400 29.06000 26.31000
C  -3.44600 28.16700 29.51600
O  -2.49300 28.87700 29.82400
C  -4.39400 27.31500 30.47400
C  -3.50700 26.46800 31.25600
O  -2.87600 25.43700 30.85200
O  -3.49100 27.04200 32.50100
C  -2.71600 26.32400 33.51900
H  -8.70600 22.16200 29.26400
H  -8.10100 23.36800 22.97400
H  -3.58100 27.79800 24.22000
H  -6.00400 24.98100 31.77200
H  -8.63600 23.92500 31.00700
H  -6.20500 22.70400 32.16100
H  -7.20700 21.73400 31.02900
H  -7.98900 22.37600 32.30500
H  -8.80600 26.09800 31.15900
H  -7.44900 27.24900 31.12200
H  -8.93700 26.75300 33.38300
H  -7.20900 27.32200 33.32600
H  -9.69800 19.79300 26.86400
H  -11.11600 21.01000 26.87700
H  -10.00900 20.94200 28.10900
H  -11.56800 20.37300 23.13000
H  -11.79400 20.65100 24.73200
H  -10.60800 19.43600 24.27600
H  -6.79900 25.35600 21.55000
H  -3.94200 25.98400 22.35700
H  -4.48600 23.75400 21.29900
H  -5.88100 23.82400 20.42000
H  -5.88500 22.82200 21.93600
H  -4.97200 28.40800 22.07100
H  -6.48100 27.68000 21.55100
H  -5.44800 26.52800 19.75100
H  -3.84600 27.34500 20.01900
H  -5.25400 28.27600 19.78500
H  -2.69700 29.81100 25.58800
H  -1.68300 28.36700 25.83100
H  -1.82600 29.43300 27.17500
H  -4.94600 27.98900 31.12800
H  -2.03500 27.08700 33.89500
H  -2.13900 25.41700 33.33800
H  -3.45500 26.10300 34.28900

