158

Mg 0.75600 7.09000 25.22500
C  1.55400 9.17500 28.02500
C  0.89100 4.41300 27.19800
C  0.19800 5.30600 22.48500
C  1.28500 9.90600 23.17900
N  1.20300 6.85500 27.36000
C  1.36200 7.80300 28.36700
C  1.33700 7.19600 29.69000
C  1.11800 5.66600 29.40900
C  1.15200 5.60500 27.88200
C  2.18800 4.71400 30.07500
C  0.17000 7.74700 30.54200
C  0.41400 7.97300 32.08100
H  1.64000 7.47900 32.81000
N  0.58500 5.11200 24.89200
C  0.68500 4.15200 25.83400
C  0.45200 2.89100 25.24300
C  0.21400 3.05400 23.85400
C  0.27500 4.54300 23.65700
C  0.51700 1.56900 26.05800
C  -0.01700 2.07400 22.73800
O  -0.37000 2.44900 21.61400
C  -0.00600 0.59500 22.94300
N  0.83100 7.52200 23.17100
C  0.32600 6.62400 22.30200
C  0.13600 7.23900 20.83600
C  0.33000 8.69700 21.15800
C  0.82600 8.75700 22.62900
C  1.29600 6.64100 19.90200
C  -0.94800 9.58500 21.10300
C  -1.18600 10.38600 19.81200
N  1.35700 9.06400 25.47500
C  1.56600 10.08400 24.53400
C  1.93900 11.35500 25.16400
C  1.87500 10.97200 26.58000
C  1.55600 9.63200 26.66000
C  2.13000 12.64300 24.53700
C  2.06300 11.58500 27.91400
O  2.30900 12.70200 28.28000
C  1.64300 10.42200 28.95100
C  2.65900 10.36200 29.98700
O  3.72900 9.74000 29.78700
O  2.35000 11.24900 30.98800
C  3.37200 11.37900 32.06000
H  0.81900 3.55700 27.87200
H  -0.28000 4.84000 21.62000
H  1.29100 10.79400 22.54300
H  2.26100 7.44600 30.21100
H  0.08000 5.40600 29.61700
H  3.03000 4.38500 29.46600
H  1.61600 3.87800 30.47700
H  2.66200 5.21800 30.91700
H  -0.75500 7.17300 30.49400
H  -0.18900 8.68200 30.11300
H  -0.45500 7.46000 32.49200
H  0.42600 9.03200 32.33900
H  -0.23900 0.87000 25.69900
H  0.18700 1.73100 27.08400
H  1.54000 1.21700 26.19000
H  -0.85400 0.22500 23.51900
H  0.89300 0.37200 23.51700
H  0.02600 -0.01300 22.03800
H  -0.86000 6.94100 20.50700
H  1.08500 9.16500 20.52700
H  1.88800 5.87000 20.39500
H  1.82400 7.35600 19.27100
H  0.73400 5.98200 19.23900
H  -0.97400 10.25800 21.96000
H  -1.77900 8.90900 21.30300
H  -2.04800 10.13600 19.19300
H  -0.34700 10.28300 19.12400
H  -1.18800 11.43900 20.09100
H  3.02100 12.70800 23.91300
H  2.35200 13.32100 25.36100
H  1.22900 12.88100 23.97000
H  0.70000 10.65000 29.44800
H  4.03700 12.22700 31.89100
H  4.06500 10.53800 32.04200
H  2.91900 11.33000 33.05000
Mg 7.23800 54.11600 40.64400
C  6.67900 50.55400 40.52400
C  10.42100 53.55700 39.72500
C  7.34900 57.20400 39.79000
C  3.55300 54.49800 41.28900
N  8.39100 52.28200 40.31000
C  8.00900 50.96200 40.33900
C  9.20300 49.99400 40.02900
C  10.40800 51.01700 40.04200
C  9.72100 52.37700 40.07100
C  11.44000 50.87200 41.20600
C  9.20100 49.11200 38.76700
C  9.02500 49.92900 37.51100
H  7.65000 50.01900 36.76200
N  8.68800 55.20300 39.86600
C  9.92200 54.80300 39.61600
C  10.67100 55.95400 39.11400
C  9.88100 57.09700 39.13500
C  8.56100 56.51900 39.61500
C  12.08700 55.83600 38.69900
C  10.17800 58.63000 38.82300
O  11.23900 58.89800 38.34700
C  9.16900 59.76100 38.81800
N  5.57300 55.66200 40.46500
C  6.03000 56.85700 40.25300
C  4.90500 57.93600 40.52500
C  3.62600 57.04300 40.84700
C  4.32100 55.63900 40.95400
C  5.34000 58.97300 41.57300
C  2.52100 57.03100 39.75300
C  2.04400 58.34200 39.23700
N  5.49100 52.90500 40.93700
C  4.08000 53.20400 41.19900
C  3.43800 51.91400 41.55300
C  4.39600 50.97400 41.17000
C  5.63200 51.55600 40.88700
C  2.04000 51.64700 41.86300
C  4.56200 49.55900 41.08000
O  3.75100 48.70000 41.28400
C  6.04400 49.17000 40.68500
C  6.00300 48.27800 39.41600
O  5.54300 48.63000 38.33600
O  6.50400 47.03300 39.69800
C  6.44600 46.02200 38.66600
H  11.45300 53.43300 39.39100
H  7.31600 58.29500 39.75700
H  2.49500 54.58300 41.54500
H  9.26000 49.31400 40.87900
H  10.90700 50.83500 39.09000
H  11.63700 51.82800 41.69200
H  12.32100 50.44700 40.72500
H  10.96800 50.26900 41.98200
H  8.42600 48.34900 38.83500
H  10.12300 48.53000 38.75900
H  9.82500 49.59500 36.85000
H  9.13100 50.99700 37.69900
H  12.35800 54.93700 38.14600
H  12.70200 55.87000 39.59900
H  12.38900 56.61700 38.00200
H  8.43700 59.44200 38.07700
H  9.42100 60.76100 38.46500
H  8.65100 60.00500 39.74600
H  4.76800 58.37500 39.53700
H  3.33500 57.33000 41.85700
H  5.68400 59.88000 41.07500
H  6.17100 58.61000 42.17600
H  4.50900 59.21800 42.23400
H  1.65400 56.42400 40.01100
H  3.13000 56.47400 39.04100
H  2.55300 59.20600 39.66600
H  0.96400 58.48800 39.27200
H  2.26500 58.32700 38.17000
H  1.56400 51.39700 40.91500
H  1.49500 52.47900 42.31000
H  1.95000 50.74100 42.46200
H  6.53700 48.66500 41.51500
H  6.94500 45.14600 39.07900
H  7.00300 46.25500 37.75900
H  5.39200 45.83300 38.46300

