158

Mg 35.45900 3.12500 29.50700
C  33.43300 4.20900 32.18300
C  38.20700 3.03800 31.60500
C  37.58300 2.73200 26.87600
C  32.77900 3.36400 27.38500
N  35.77100 3.47100 31.69300
C  34.78300 3.86300 32.55200
C  35.32500 3.80700 33.93800
C  36.84600 3.79300 33.74000
C  37.01000 3.47300 32.27900
C  37.61400 5.03400 34.25000
C  34.59300 2.63400 34.74600
C  34.25200 2.92600 36.23400
H  35.25300 3.84000 37.05500
N  37.51200 2.76400 29.26200
C  38.46500 2.70700 30.25300
C  39.66000 2.09500 29.68500
C  39.62300 2.13000 28.30900
C  38.20000 2.67100 28.04200
C  40.89400 1.66500 30.56500
C  40.71300 1.82400 27.23100
O  40.59100 1.83700 26.01000
C  42.08400 1.41900 27.74500
N  35.24000 3.13300 27.48300
C  36.19100 2.88200 26.56500
C  35.72000 2.93700 25.10500
C  34.17200 2.85300 25.34000
C  34.02400 3.16400 26.84200
C  36.19400 4.16800 24.25400
C  33.60300 1.40900 25.03400
C  32.51800 1.39000 23.95700
N  33.44800 3.60600 29.70500
C  32.47300 3.68600 28.76200
C  31.16200 4.03600 29.34900
C  31.44800 4.26000 30.72400
C  32.91900 4.11400 30.82600
C  29.80100 4.06500 28.56200
C  30.97100 4.65700 32.04200
O  29.83800 4.84900 32.52800
C  32.19000 4.60800 32.99400
C  32.31500 5.90200 33.71900
O  32.31600 7.02700 33.26500
O  32.23300 5.68000 35.04500
C  32.35700 6.85500 35.90900
H  39.04400 2.90100 32.29400
H  38.12700 2.42400 25.98100
H  31.87000 3.42900 26.78400
H  35.06200 4.78700 34.33500
H  37.25800 3.02300 34.39300
H  36.90800 5.85900 34.35000
H  38.46400 5.22700 33.59600
H  38.03300 4.78300 35.22400
H  35.28800 1.79500 34.78300
H  33.66200 2.41000 34.22600
H  34.31300 1.97100 36.75700
H  33.24100 3.31600 36.34400
H  41.16900 0.67300 30.20800
H  40.55700 1.66900 31.60100
H  41.71400 2.37800 30.65600
H  42.66800 2.08000 28.38600
H  42.62300 1.03600 26.87800
H  41.98300 0.49800 28.31900
H  36.14700 2.01800 24.70400
H  33.76800 3.66700 24.73800
H  37.16000 4.35100 24.72400
H  35.55900 5.04900 24.16400
H  36.52700 3.92400 23.24600
H  33.13400 1.10400 25.96900
H  34.40700 0.72100 24.77400
H  32.20500 2.43400 23.92600
H  31.63800 0.79400 24.20200
H  32.95500 0.99900 23.03900
H  29.70200 3.14300 27.98900
H  29.95400 4.88100 27.85500
H  28.97800 4.08400 29.27700
H  32.01900 3.81900 33.72600
H  33.39700 7.17000 35.83200
H  32.13300 6.56800 36.93700
H  31.66200 7.67900 35.74400
Mg 41.08500 9.57800 29.49400
C  43.27600 10.88500 32.03400
C  38.97100 8.40600 31.95500
C  39.25500 8.49400 27.04800
C  43.59900 10.44500 27.17600
N  41.24000 9.51500 31.78600
C  42.10500 10.20700 32.58300
C  41.64800 10.29800 34.02100
C  40.39200 9.32300 34.05300
C  40.21900 8.91300 32.50800
C  40.53900 8.04000 34.83700
C  41.40000 11.74400 34.50400
C  40.41000 12.05500 35.59500
H  40.85700 12.79400 36.91500
N  39.40000 8.59500 29.49600
C  38.62300 8.24500 30.59200
C  37.43800 7.59500 30.12600
C  37.39800 7.67900 28.68700
C  38.73100 8.31100 28.33900
C  36.50200 6.94100 31.08000
C  36.34400 7.20400 27.68100
O  36.39300 7.24400 26.48000
C  35.06700 6.56700 28.31200
N  41.50800 9.18900 27.38800
C  40.44100 8.93500 26.54700
C  40.73800 9.16400 25.10000
C  42.25600 9.76300 25.15200
C  42.49800 9.73900 26.68600
C  40.52800 7.94400 24.23800
C  42.63400 11.08700 24.45000
C  42.01200 12.30600 25.16600
N  43.08600 10.37300 29.55300
C  43.90700 10.70000 28.51200
C  45.14800 11.27600 29.07900
C  44.90800 11.39900 30.45100
C  43.67600 10.84300 30.68000
C  46.27900 11.91000 28.28000
C  45.50100 11.86500 31.69100
O  46.60300 12.25000 32.07300
C  44.39600 11.69600 32.75000
C  44.95200 11.03000 33.91700
O  45.04900 9.85800 34.06900
O  45.35200 12.04900 34.86300
C  45.41000 11.68600 36.32200
H  38.15300 8.20500 32.65000
H  38.63900 8.19200 26.19800
H  44.26500 10.74900 26.36600
H  42.48300 9.94200 34.62400
H  39.47800 9.79900 34.40900
H  41.49800 7.94900 35.34900
H  40.26500 7.12200 34.31700
H  39.76800 8.02400 35.60700
H  41.08600 12.33400 33.64300
H  42.36700 12.14900 34.80200
H  39.88500 11.15300 35.90700
H  39.61100 12.69600 35.22400
H  35.68200 7.61600 31.32200
H  36.82800 6.69500 32.09100
H  36.05600 6.06100 30.61600
H  35.42300 5.62100 28.71800
H  34.38700 6.33000 27.49400
H  34.61600 7.21000 29.06700
H  40.16000 10.00800 24.72300
H  42.82900 8.95300 24.70000
H  40.48500 7.15100 24.98500
H  41.40400 7.74700 23.61900
H  39.52200 8.02500 23.82700
H  42.27500 11.15600 23.42300
H  43.71800 11.19400 24.42800
H  42.90900 12.88000 25.39600
H  41.26700 12.03500 25.91500
H  41.53100 12.87500 24.37100
H  45.89900 12.24100 27.31400
H  47.07600 11.17800 28.14700
H  46.68200 12.72500 28.88100
H  44.11300 12.72100 32.99100
H  44.41800 11.53400 36.74800
H  45.89600 12.50200 36.85600
H  45.93300 10.73600 36.43700

