158

Mg 8.81900 3.73000 27.52100
C  10.13800 2.23100 30.37800
C  6.72600 5.53700 29.55200
C  7.32300 5.07100 24.69400
C  10.53600 1.47400 25.50600
N  8.39500 3.68700 29.69300
C  9.14600 3.20400 30.67500
C  8.62800 3.67500 32.09200
C  7.45600 4.63100 31.76500
C  7.50100 4.58400 30.23900
C  5.99000 4.29600 32.24400
C  9.74600 4.19800 33.06300
C  9.18800 5.00000 34.29900
H  9.85900 4.70200 35.63300
N  7.21200 5.09700 27.10200
C  6.52200 5.78900 28.08000
C  5.73300 6.83900 27.46500
C  6.01800 6.81300 26.07500
C  6.88100 5.61800 25.90800
C  4.86800 7.76100 28.25100
C  5.51700 7.66100 25.02200
O  5.83200 7.44300 23.87500
C  4.69400 8.87300 25.29500
N  8.87100 3.29500 25.40600
C  8.16800 3.96900 24.46700
C  8.41600 3.47700 22.99100
C  9.47800 2.37200 23.25800
C  9.73900 2.41400 24.76000
C  6.96900 3.10100 22.43700
C  10.85200 2.62000 22.46800
C  11.39900 1.39100 21.77000
N  9.97800 2.16800 27.80200
C  10.60200 1.27200 26.90700
C  11.43900 0.34500 27.65500
C  11.31900 0.71900 28.98800
C  10.42000 1.83000 29.07500
C  12.15300 -0.84900 27.09600
C  11.81000 0.43400 30.33500
O  12.53400 -0.40000 30.71200
C  11.06000 1.45000 31.28100
C  10.21300 0.65700 32.24100
O  9.33300 -0.15800 31.91600
O  10.71900 0.85500 33.54600
C  9.76000 0.42500 34.59400
H  6.10300 6.21300 30.14000
H  6.91500 5.46200 23.75900
H  11.17100 0.80900 24.91600
H  8.16900 2.89200 32.69500
H  7.66800 5.65400 32.07700
H  5.81900 3.30700 31.82000
H  5.33600 5.08300 31.86900
H  5.80300 4.32800 33.31700
H  10.34100 4.68000 32.28700
H  10.32000 3.38800 33.51400
H  8.10600 4.90600 34.39400
H  9.39800 6.05800 34.14300
H  3.80600 7.53700 28.15100
H  5.03400 8.79700 27.95400
H  5.10100 7.69800 29.31400
H  3.89700 8.59600 25.98400
H  4.38500 9.26600 24.32600
H  5.46300 9.48700 25.76500
H  8.87400 4.29300 22.43100
H  9.05900 1.45800 22.83700
H  6.77900 2.03400 22.32300
H  6.70100 3.69800 21.56600
H  6.20800 3.35700 23.17400
H  11.63200 2.98300 23.13800
H  10.75300 3.47200 21.79600
H  11.22900 1.53500 20.70300
H  11.04100 0.46500 22.22000
H  12.46900 1.46700 21.95900
H  12.28500 -1.53500 27.93300
H  13.09200 -0.65900 26.57700
H  11.58300 -1.34200 26.30900
H  11.67600 2.09700 31.90600
H  8.77100 0.13600 34.24000
H  9.63800 1.20300 35.34700
H  10.15400 -0.41300 35.16900
Mg -11.56200 16.23500 41.24100
C  -8.48100 14.65800 40.76100
C  -10.12800 19.13500 39.74500
C  -14.62500 17.58000 41.04100
C  -13.00900 13.05600 41.59300
N  -9.47500 16.79100 40.15600
C  -8.33000 16.00200 40.32000
C  -7.12400 16.69500 39.73800
C  -7.65200 18.15600 39.52300
C  -9.20700 18.05200 39.89100
C  -6.82100 19.21100 40.38700
C  -6.63700 16.00100 38.43600
C  -5.10400 16.31200 37.99800
H  -5.11900 17.03400 36.57000
N  -12.22700 18.10200 40.72300
C  -11.50000 19.16300 40.17900
C  -12.34900 20.35800 40.19900
C  -13.69200 19.96100 40.58000
C  -13.56500 18.48900 40.88300
C  -11.89400 21.79100 39.76000
C  -14.89500 20.84300 40.49500
O  -14.79300 22.03000 40.25500
C  -16.16600 20.38100 41.11600
N  -13.55400 15.38600 41.36800
C  -14.57800 16.17300 41.18200
C  -15.88200 15.33900 41.34500
C  -15.35700 13.92300 41.28400
C  -13.87000 14.09300 41.42900
C  -16.65200 15.79100 42.61600
C  -15.60900 13.17700 39.92900
C  -16.53300 11.88000 39.91900
N  -10.90000 14.30000 41.38900
C  -11.59500 13.11400 41.52700
C  -10.60400 12.03700 41.78900
C  -9.35700 12.60300 41.48100
C  -9.65100 13.98400 41.18700
C  -10.90000 10.54300 41.99400
C  -8.02200 12.32200 41.30800
O  -7.46300 11.25000 41.45100
C  -7.36800 13.63300 40.96700
C  -6.46800 14.06400 42.07300
O  -6.76900 14.44900 43.17800
O  -5.14100 13.75100 41.66600
C  -4.13900 13.75800 42.73600
H  -9.66100 20.10900 39.58500
H  -15.63100 18.00400 41.07600
H  -13.46500 12.07800 41.75700
H  -6.36600 16.65200 40.52000
H  -7.63600 18.42600 38.46700
H  -6.46600 19.95300 39.67200
H  -6.15100 18.68700 41.06800
H  -7.53100 19.67600 41.07200
H  -7.27800 16.38800 37.64400
H  -6.90400 14.94500 38.40200
H  -4.53700 15.39300 37.84800
H  -4.73000 16.99800 38.75800
H  -12.56900 21.91500 38.91400
H  -10.82600 21.79800 39.54100
H  -12.14300 22.57500 40.47600
H  -16.75200 21.26300 41.37300
H  -16.02100 19.89600 42.08200
H  -16.79800 19.80400 40.44200
H  -16.43700 15.61900 40.44900
H  -15.72700 13.43300 42.18400
H  -16.71200 16.87700 42.67700
H  -16.06600 15.42500 43.46000
H  -17.64100 15.33400 42.64700
H  -14.69300 12.80000 39.47500
H  -16.19900 13.81900 39.27400
H  -15.96100 10.97300 39.72800
H  -17.36100 11.89300 39.21000
H  -16.95200 11.73100 40.91400
H  -11.40300 10.11500 41.12700
H  -11.57800 10.39500 42.83400
H  -9.93100 10.06800 42.14600
H  -6.71900 13.50400 40.10000
H  -4.39000 12.95700 43.43100
H  -4.08800 14.67200 43.32900
H  -3.11300 13.62100 42.39300

