158

Mg 53.38400 25.47800 44.79300
C  50.96100 27.71700 43.54300
C  51.41500 22.86300 43.81800
C  56.10700 23.27700 45.06600
C  55.51200 28.14800 45.36700
N  51.54000 25.41600 43.58900
C  50.67400 26.35600 43.23400
C  49.53300 25.84700 42.41900
C  49.41000 24.36800 43.07800
C  50.90000 24.18200 43.55100
C  48.43200 24.19900 44.28200
C  49.70100 25.68000 40.84500
C  48.70300 26.26300 39.89800
H  49.21300 26.61100 38.49700
N  53.77500 23.30000 44.44200
C  52.77200 22.47400 44.10300
C  53.31000 21.17000 44.20100
C  54.63500 21.21700 44.57500
C  54.94000 22.59500 44.67000
C  52.38600 19.92500 43.98600
C  55.50700 19.97100 44.87300
O  55.03000 18.86200 44.87000
C  57.01800 20.01100 45.17800
N  55.57400 25.62600 45.08300
C  56.42700 24.56900 45.23900
C  57.80400 25.11700 45.74100
C  57.62900 26.67300 45.74900
C  56.17000 26.87200 45.32700
C  58.32400 24.38100 47.01700
C  58.58100 27.41600 44.75500
C  59.70100 28.15300 45.46700
N  53.21600 27.50500 44.72000
C  54.20000 28.48100 45.03800
C  53.46700 29.74800 45.05100
C  52.22200 29.47600 44.35600
C  52.16100 28.12700 44.16600
C  53.98900 31.01700 45.61600
C  51.00800 30.09300 43.80900
O  50.77500 31.30300 43.69300
C  50.06000 28.91400 43.24900
C  49.67700 29.14400 41.89600
O  50.45200 29.08700 40.93300
O  48.35100 29.44900 41.86600
C  47.81000 29.85800 40.55600
H  50.61700 22.12700 43.69700
H  56.95100 22.63500 45.32600
H  56.12000 28.97800 45.73400
H  48.69900 26.50000 42.67500
H  49.28100 23.61900 42.29700
H  47.83700 23.31000 44.07200
H  47.72500 25.02700 44.34000
H  48.98100 24.09200 45.21800
H  49.89700 24.65300 40.53900
H  50.52600 26.34200 40.58300
H  48.28700 27.16800 40.34100
H  47.87200 25.56000 39.85000
H  52.88900 19.00400 43.69100
H  51.59300 20.21100 43.29600
H  51.86700 19.71800 44.92200
H  57.31600 18.98900 45.40900
H  57.29100 20.69600 45.98100
H  57.53400 20.46500 44.33300
H  58.56800 24.90200 44.99400
H  57.71900 27.04600 46.76900
H  58.91200 25.03900 47.65800
H  58.92200 23.47800 46.89600
H  57.44300 24.10200 47.59500
H  58.03800 28.12000 44.12400
H  59.15300 26.69700 44.16800
H  60.58400 27.52800 45.33800
H  59.52200 28.19900 46.54200
H  59.87000 29.14900 45.05600
H  54.99400 30.85600 46.00600
H  53.39000 31.34800 46.46500
H  54.00800 31.76300 44.82300
H  49.25400 28.69900 43.95100
H  47.32900 29.02000 40.05300
H  48.61700 30.32700 39.99200
H  46.96700 30.53100 40.71600
Mg 42.18300 41.27600 26.36900
C  41.32700 43.69200 28.67200
C  43.43800 39.33800 28.81000
C  43.08200 39.14500 23.94400
C  41.44700 43.67300 23.73400
N  42.17100 41.50600 28.55800
C  41.79400 42.52400 29.35700
C  41.89500 42.26500 30.89700
C  42.68100 40.92300 30.79300
C  42.86100 40.57900 29.27800
C  43.98600 40.66800 31.63700
C  40.53400 42.20500 31.63000
C  40.28900 43.03900 32.86900
H  39.41600 42.52700 33.93400
N  43.02600 39.47800 26.39800
C  43.53600 38.87100 27.49000
C  44.04200 37.62500 27.09600
C  43.60000 37.41000 25.74300
C  43.21700 38.72500 25.32200
C  44.76600 36.73800 28.09300
C  43.65200 36.10000 24.99000
O  43.24500 36.04300 23.82400
C  44.08600 34.83800 25.63800
N  42.36100 41.46000 24.05700
C  42.71500 40.34700 23.31600
C  42.64800 40.62800 21.85400
C  42.24300 42.10400 21.80800
C  41.86700 42.41400 23.33300
C  43.88700 40.12300 21.00800
C  41.04900 42.47100 20.88600
C  41.08800 43.84700 20.05000
N  41.58400 43.18700 26.16000
C  41.30000 44.03600 25.07600
C  40.78200 45.28400 25.53400
C  40.79700 45.25300 26.90300
C  41.31000 43.91100 27.27000
C  40.41700 46.38700 24.54800
C  40.53800 45.98400 28.13000
O  40.19200 47.15400 28.30800
C  40.77100 44.90800 29.25900
C  41.54700 45.51600 30.41900
O  42.78300 45.64500 30.56500
O  40.58800 45.80000 31.32900
C  41.09100 46.34600 32.65600
H  43.65200 38.61200 29.59800
H  43.39800 38.38300 23.22800
H  41.25000 44.45000 22.99300
H  42.43400 42.99900 31.49600
H  42.02500 40.11900 31.12500
H  44.00000 39.89300 32.40400
H  44.29700 41.65600 31.97700
H  44.79100 40.29900 31.00000
H  40.26800 41.19700 31.94900
H  39.73600 42.49300 30.94500
H  39.74100 43.90400 32.49400
H  41.27800 43.34400 33.21000
H  45.07400 37.46100 28.84800
H  45.61900 36.23000 27.64400
H  44.16800 35.93100 28.51700
H  45.15600 34.85900 25.84400
H  43.72400 33.94300 25.13100
H  43.57700 34.79100 26.60100
H  41.84200 39.98700 21.49600
H  43.06700 42.76400 21.53700
H  44.45200 40.97300 20.62400
H  43.57200 39.45600 20.20600
H  44.55200 39.59000 21.68700
H  40.18000 42.50900 21.54400
H  40.96800 41.69500 20.12500
H  40.25500 44.47600 20.36500
H  41.03300 43.62200 18.98500
H  42.01700 44.39700 20.20000
H  39.77200 45.98600 23.76600
H  41.38800 46.73900 24.19900
H  39.83000 47.18800 24.99600
H  39.79000 44.52700 29.54500
H  41.55500 47.32700 32.56100
H  41.82600 45.79000 33.23700
H  40.25300 46.39900 33.35100

