158

Mg 25.61600 1.58800 29.57100
C  27.40800 1.46500 32.56800
C  22.69800 1.67000 31.52200
C  23.89700 1.76900 26.88300
C  28.55200 0.94300 27.87500
N  25.08900 1.45500 31.79400
C  26.03000 1.64400 32.79100
C  25.33000 1.73500 34.17600
C  23.80900 1.44200 33.84100
C  23.83800 1.49100 32.32100
C  23.05900 0.12700 34.28900
C  25.62600 3.09500 34.93100
C  26.11000 2.91300 36.41000
H  25.86200 3.97300 37.43200
N  23.59200 1.72300 29.24400
C  22.59500 1.81500 30.13900
C  21.34300 1.96200 29.41600
C  21.69700 1.89600 28.05700
C  23.11200 1.85100 28.00400
C  19.96800 2.12100 30.00500
C  20.77700 1.81800 26.87600
O  21.18000 1.79100 25.70800
C  19.25800 1.68700 27.02700
N  26.20700 1.45100 27.65700
C  25.27400 1.71600 26.66800
C  25.91800 1.73800 25.25400
C  27.49400 1.64700 25.62000
C  27.42700 1.34200 27.14900
C  25.47100 0.49800 24.40100
C  28.29200 2.88600 25.25000
C  27.96800 4.21000 25.96800
N  27.56500 1.17100 30.05900
C  28.66700 0.82300 29.28800
C  29.82000 0.46500 30.10200
C  29.39700 0.81900 31.38000
C  28.01700 1.19700 31.31900
C  31.09300 -0.07900 29.56200
C  29.77500 0.93100 32.79100
O  30.84400 0.66500 33.30300
C  28.51900 1.43800 33.56700
C  28.39600 0.48800 34.65700
O  27.92700 -0.64000 34.59500
O  29.11100 0.98900 35.72800
C  28.93000 0.13100 36.90900
H  21.72600 1.84500 31.98700
H  23.51300 1.88000 25.86700
H  29.45600 0.71600 27.30400
H  25.55900 0.84800 34.76800
H  23.24500 2.30700 34.19100
H  22.05400 0.38200 34.62500
H  23.57000 -0.26100 35.17000
H  22.99300 -0.68100 33.56100
H  24.81400 3.82000 34.98200
H  26.44100 3.55300 34.37000
H  27.11000 2.50000 36.28500
H  25.62400 2.04400 36.85400
H  19.25500 2.81900 29.56600
H  20.08300 2.38500 31.05700
H  19.51200 1.13200 30.03600
H  18.80400 1.40600 26.07600
H  18.96000 2.69300 27.32300
H  19.00500 1.01100 27.84400
H  25.69500 2.64700 24.69500
H  27.88300 0.77300 25.09800
H  24.38500 0.43300 24.33200
H  25.64900 -0.35300 25.05900
H  25.94100 0.49200 23.41800
H  28.03800 3.08800 24.20900
H  29.35500 2.69600 25.40100
H  27.37800 4.88600 25.34900
H  28.74700 4.84500 26.39100
H  27.28800 3.94700 26.77800
H  31.73500 0.60800 29.01100
H  30.84700 -1.01900 29.06800
H  31.48600 -0.37200 30.53600
H  28.71200 2.47300 33.85000
H  29.05300 -0.93700 36.73100
H  28.06100 0.44200 37.48800
H  29.75000 0.37100 37.58600
Mg 41.22300 9.51000 30.20400
C  43.39700 10.73200 32.70400
C  38.99100 8.55600 32.49700
C  39.56400 8.03200 27.76400
C  43.98300 9.94900 27.91100
N  41.28900 9.62100 32.36300
C  42.15600 10.26300 33.18900
C  41.62400 10.34100 34.61300
C  40.31500 9.50900 34.52000
C  40.13300 9.25200 33.00100
C  40.19400 8.22900 35.37700
C  41.43600 11.84800 34.97900
C  40.53800 12.08800 36.18100
H  41.12000 12.93400 37.34500
N  39.38400 8.51300 30.18500
C  38.59500 8.20200 31.21300
C  37.41200 7.52700 30.71000
C  37.46700 7.51600 29.28000
C  38.86000 7.95900 29.00000
C  36.36500 7.02500 31.56900
C  36.52300 7.01300 28.25300
O  36.76300 7.04000 27.07900
C  35.20400 6.58600 28.67100
N  41.70600 9.08600 28.17500
C  40.81900 8.41100 27.37400
C  41.30100 8.32700 25.91300
C  42.81800 8.74600 26.03800
C  42.85000 9.25400 27.49900
C  41.12800 6.91100 25.24000
C  43.21100 9.82400 24.90800
C  42.83800 11.29500 25.14300
N  43.22200 10.26800 30.22100
C  44.27800 10.30100 29.27700
C  45.42300 10.86500 29.86900
C  45.08200 11.13300 31.17600
C  43.78700 10.68500 31.37800
C  46.80200 11.12800 29.27300
C  45.58300 11.76600 32.39100
O  46.59800 12.38000 32.58900
C  44.48700 11.50400 33.46300
C  44.98800 10.71000 34.62200
O  45.07300 9.50300 34.59700
O  45.36300 11.58700 35.63900
C  45.71100 10.87400 36.80800
H  38.23800 8.47300 33.28300
H  38.98700 7.56100 26.96500
H  44.71300 9.97800 27.10000
H  42.41300 9.83800 35.17200
H  39.44700 10.11000 34.79200
H  40.76100 8.46400 36.27700
H  40.57400 7.36100 34.83800
H  39.17800 8.17700 35.76800
H  40.98300 12.37600 34.14000
H  42.38400 12.35900 35.15000
H  40.37900 11.10200 36.61700
H  39.58200 12.45100 35.80500
H  35.46700 7.64300 31.55500
H  36.67200 7.00300 32.61400
H  36.13800 5.99200 31.30800
H  34.85700 7.28900 29.42800
H  35.19300 5.58400 29.10000
H  34.45000 6.64400 27.88600
H  40.79500 9.00600 25.22600
H  43.37400 7.81000 25.97100
H  40.19700 6.47500 25.60300
H  41.94900 6.24900 25.51600
H  41.10000 7.04700 24.15900
H  42.65100 9.37900 24.08600
H  44.29900 9.76500 24.86900
H  42.13200 11.26900 25.97300
H  42.39600 11.85900 24.32200
H  43.68600 11.85900 25.53200
H  46.85000 10.55500 28.34700
H  47.57000 10.89400 30.01000
H  46.88700 12.19200 29.05400
H  44.05200 12.42800 33.84400
H  44.82600 10.78300 37.43900
H  46.37400 11.57000 37.32100
H  46.28400 9.96000 36.64900

