158

Mg 10.13000 48.06100 25.89800
C  7.96100 48.42100 28.73800
C  12.59000 49.62500 27.80700
C  11.87600 48.25500 23.18200
C  7.19300 47.25100 24.02100
N  10.22700 48.87900 28.00400
C  9.29600 48.72900 29.06500
C  9.94500 49.09900 30.40600
C  11.28600 49.80700 29.96700
C  11.46400 49.30300 28.50700
C  11.34200 51.33700 30.21800
C  9.97600 47.99100 31.50400
C  9.55300 48.44400 32.89000
H  9.44700 47.28000 33.91700
N  12.09100 48.50400 25.59100
C  12.91100 49.31700 26.47800
C  14.22400 49.43400 25.84300
C  14.07600 48.95100 24.50100
C  12.64100 48.55600 24.36600
C  15.54200 49.88100 26.59900
C  15.10000 48.68200 23.43500
O  14.88800 48.22900 22.37100
C  16.57500 49.04300 23.70900
N  9.56800 47.96900 23.81300
C  10.57500 47.95700 22.87900
C  10.02500 47.59800 21.44700
C  8.52000 47.09900 21.74800
C  8.40200 47.40900 23.30900
C  10.06700 48.75700 20.40000
C  8.43600 45.57000 21.46100
C  9.00300 44.63100 22.57300
N  8.03900 47.75400 26.23900
C  7.01800 47.48600 25.34600
C  5.76100 47.38000 26.08400
C  6.09300 47.76900 27.40900
C  7.44400 48.06400 27.44400
C  4.32900 47.09000 25.47900
C  5.54900 48.04100 28.69200
O  4.37500 47.93900 29.08800
C  6.73500 48.46200 29.56800
C  6.76400 47.41700 30.63600
O  7.07200 46.27600 30.43600
O  6.22700 47.89400 31.75400
C  5.96500 46.94300 32.84200
H  13.37800 50.07700 28.41400
H  12.51000 48.17300 22.29600
H  6.30300 46.91000 23.48800
H  9.28600 49.86700 30.81200
H  12.01100 49.26900 30.57900
H  12.13900 51.73500 29.59000
H  11.53300 51.44200 31.28600
H  10.37700 51.82200 30.07100
H  11.03800 47.77500 31.62000
H  9.44300 47.08400 31.22000
H  8.67700 49.08700 32.80000
H  10.40500 49.03700 33.22200
H  16.33400 49.17200 26.35800
H  15.35100 50.04200 27.66000
H  15.82400 50.86900 26.23600
H  17.19700 48.95700 22.81900
H  16.90000 48.35500 24.49000
H  16.71700 50.01800 24.17600
H  10.56100 46.73300 21.05600
H  7.80400 47.64300 21.13200
H  10.80200 49.48600 20.74000
H  9.16500 49.36800 20.38500
H  10.31200 48.40700 19.39600
H  8.85400 45.30900 20.48900
H  7.37400 45.36000 21.33200
H  8.15100 44.48700 23.23700
H  9.74000 45.15800 23.17900
H  9.38600 43.69300 22.17000
H  4.54000 46.30600 24.75200
H  3.96300 47.95700 24.92900
H  3.69900 46.74100 26.29700
H  6.61700 49.48600 29.92400
H  4.91600 46.64800 32.84200
H  6.15400 47.46700 33.77900
H  6.62300 46.07700 32.76400
Mg -10.39200 17.49200 40.96000
C  -6.69400 17.52700 40.62800
C  -10.17700 20.80600 40.25500
C  -13.64400 17.35200 40.21600
C  -10.21800 13.97400 41.07600
N  -8.56200 18.97100 40.59200
C  -7.22900 18.81200 40.49600
C  -6.51300 20.14100 40.13100
C  -7.57800 21.19500 40.50000
C  -8.87400 20.27000 40.47400
C  -7.39700 21.85700 41.86600
C  -5.98300 20.18200 38.62100
C  -4.55700 19.88500 38.37400
H  -4.33300 18.90600 37.29300
N  -11.76100 18.87600 40.42600
C  -11.50700 20.21600 40.17800
C  -12.72600 20.87500 39.88400
C  -13.76600 19.89300 39.87100
C  -13.06700 18.61200 40.12000
C  -12.66100 22.36800 39.44300
C  -15.26800 20.18700 39.61500
O  -15.69200 21.30200 39.55800
C  -16.28300 19.07500 39.60600
N  -11.78300 15.82500 40.73500
C  -13.06000 16.08700 40.52600
C  -13.84600 14.74800 40.43100
C  -12.72800 13.70800 40.82500
C  -11.45600 14.52700 40.83000
C  -15.09000 14.71300 41.28000
C  -12.52900 12.58800 39.74700
C  -13.74000 11.66800 39.51200
N  -8.82800 16.03500 40.99300
C  -9.00100 14.63100 41.07000
C  -7.67600 13.98000 41.10100
C  -6.73600 15.06900 41.05000
C  -7.52100 16.30000 40.87300
C  -7.30800 12.47400 41.15500
C  -5.31200 15.52000 41.17800
O  -4.34500 14.90700 41.53000
C  -5.23900 17.08100 40.85400
C  -4.50900 17.86200 41.81700
O  -3.45300 18.45100 41.60700
O  -5.18800 17.80500 43.02100
C  -4.59000 18.50100 44.21100
H  -10.11900 21.89000 40.38100
H  -14.70500 17.31100 39.96200
H  -10.14200 12.88500 41.10500
H  -5.64400 20.25300 40.77900
H  -7.75500 21.96400 39.74800
H  -6.43200 21.61900 42.31400
H  -8.27800 21.68200 42.48300
H  -7.28300 22.93400 41.74600
H  -6.10200 21.23300 38.35900
H  -6.65700 19.55300 38.04000
H  -3.99400 19.39700 39.17000
H  -3.98500 20.75100 38.04100
H  -13.63200 22.77100 39.15500
H  -12.01300 22.61000 38.60000
H  -12.26200 22.95100 40.27200
H  -16.02700 18.54500 38.68800
H  -17.23700 19.58900 39.49200
H  -16.14800 18.49700 40.51900
H  -14.11000 14.72700 39.37300
H  -12.92400 13.26500 41.80100
H  -15.96700 14.72400 40.63300
H  -15.04100 15.58700 41.93000
H  -15.17300 13.75100 41.78700
H  -11.71600 11.91600 40.02200
H  -12.29000 13.06900 38.79900
H  -13.98400 11.63000 38.45000
H  -14.62600 11.89900 40.10300
H  -13.60900 10.63300 39.82900
H  -6.89700 12.04300 40.24200
H  -8.17100 11.86900 41.43500
H  -6.55300 12.29500 41.92000
H  -4.79300 17.16000 39.86300
H  -5.41500 18.51700 44.92300
H  -4.05200 19.41300 43.95600
H  -3.77500 17.91900 44.64300

