158

Mg 48.90000 45.14800 42.91600
C  45.45200 45.49000 41.91400
C  48.62300 41.82800 42.07600
C  52.12000 45.11400 42.81900
C  48.71300 48.59200 43.56500
N  47.31300 43.95500 41.83300
C  46.00900 44.25400 41.62500
C  45.20900 43.07500 41.21000
C  46.06300 41.95800 41.83400
C  47.43900 42.58100 41.93300
C  45.51000 41.41000 43.13100
C  44.93500 42.95300 39.68400
C  45.60500 43.97800 38.74600
H  45.21300 43.91400 37.29800
N  50.24600 43.59900 42.58700
C  49.94200 42.29500 42.29000
C  51.11800 41.56000 42.53900
C  52.16900 42.46100 42.63700
C  51.55700 43.79400 42.67000
C  51.22900 40.06900 42.45200
C  53.63500 42.03000 42.85400
O  54.01300 40.90200 42.65600
C  54.71200 43.07200 43.22400
N  50.21500 46.68100 42.95600
C  51.56000 46.39200 43.04800
C  52.36900 47.77000 43.22800
C  51.23600 48.73200 43.63900
C  49.96500 47.96900 43.41500
C  53.45200 47.59000 44.31600
C  51.22800 50.18400 42.99400
C  51.45700 51.30800 43.92100
N  47.35700 46.71300 42.98200
C  47.51300 48.08100 43.25000
C  46.19500 48.72800 43.15600
C  45.40300 47.73500 42.61100
C  46.11900 46.55300 42.49400
C  45.92400 50.22400 43.21800
C  44.06500 47.49500 42.07700
O  43.13700 48.25200 41.93500
C  44.11800 46.03800 41.51800
C  42.94100 45.33400 42.12600
O  42.13000 44.78100 41.38300
O  42.74400 45.50300 43.46300
C  41.46300 44.88700 43.88500
H  48.41500 40.76300 41.95400
H  53.20600 45.21800 42.87500
H  48.66600 49.59900 43.98400
H  44.22700 43.01200 41.68000
H  46.13300 41.09800 41.16800
H  45.22900 40.36700 42.98700
H  44.66200 41.93900 43.56700
H  46.29300 41.47600 43.88700
H  43.87900 43.17500 39.53400
H  45.14000 41.92900 39.37000
H  46.69400 44.01600 38.74800
H  45.33100 44.95600 39.14200
H  51.80100 39.81300 41.56000
H  50.26900 39.60000 42.23700
H  51.68200 39.77200 43.39900
H  55.58500 42.49900 43.53700
H  54.17300 43.60700 44.00600
H  54.94700 43.73200 42.38900
H  52.68500 47.99700 42.21000
H  51.30400 48.88500 44.71600
H  53.73400 48.51200 44.82500
H  54.40300 47.26300 43.89500
H  53.15600 46.81400 45.02100
H  50.21700 50.26700 42.59700
H  51.81900 50.17700 42.07900
H  51.70700 52.19500 43.34000
H  52.28200 51.08000 44.59700
H  50.63700 51.54500 44.59800
H  46.54900 50.85500 42.58500
H  45.91800 50.53800 44.26200
H  44.90300 50.40900 42.88400
H  43.98400 45.96200 40.43900
H  40.66800 45.20600 43.21100
H  41.17300 45.22600 44.87900
H  41.63500 43.81100 43.90300
Mg -2.55000 34.62300 26.45800
C  -4.23400 32.90600 28.81400
C  -0.97000 36.51500 28.78500
C  -0.98900 36.38000 23.89300
C  -4.34800 32.72000 23.97100
N  -2.83000 34.88600 28.56800
C  -3.39100 33.89600 29.33800
C  -3.13000 34.16500 30.84100
C  -2.36100 35.47500 30.75400
C  -1.98500 35.62200 29.29300
C  -3.01300 36.80300 31.26100
C  -2.26200 32.91700 31.36500
C  -2.60500 32.39600 32.79400
H  -1.52600 32.44000 33.96300
N  -1.12500 36.30400 26.34200
C  -0.58500 36.89500 27.47700
C  0.35800 37.87400 26.98600
C  0.32600 37.86400 25.61200
C  -0.59800 36.79000 25.22000
C  1.23500 38.75100 27.93900
C  1.11100 38.71000 24.58900
O  0.88700 38.72100 23.37900
C  2.21300 39.62400 25.18600
N  -2.59700 34.54800 24.35700
C  -1.82500 35.28100 23.50300
C  -2.11600 35.00300 22.00200
C  -2.91400 33.73000 22.11200
C  -3.36100 33.66300 23.59800
C  -2.75300 36.15100 21.32900
C  -2.27800 32.42400 21.46000
C  -1.22100 31.66300 22.26100
N  -4.11200 33.23100 26.37300
C  -4.62900 32.40500 25.35400
C  -5.62900 31.44100 25.92400
C  -5.46000 31.55000 27.29900
C  -4.53400 32.70200 27.47700
C  -6.47000 30.46200 25.17300
C  -5.87200 31.06800 28.57300
O  -6.67100 30.12800 28.82900
C  -5.09200 31.89500 29.64000
C  -6.02400 32.48400 30.66400
O  -6.74100 33.47300 30.41800
O  -6.08600 31.78600 31.82100
C  -7.01300 32.31700 32.90500
H  -0.53000 37.22500 29.48800
H  -0.54300 36.90300 23.04500
H  -4.79600 32.03400 23.25000
H  -4.04700 34.36900 31.39500
H  -1.41000 35.38300 31.27800
H  -3.55700 37.29300 30.45400
H  -2.21600 37.46500 31.59900
H  -3.69700 36.69600 32.10300
H  -1.21800 33.17800 31.53900
H  -2.26800 32.10800 30.63500
H  -3.00600 31.38600 32.71700
H  -3.48100 32.98500 33.06400
H  1.16000 38.38500 28.96300
H  0.92400 39.79000 27.83500
H  2.26900 38.62200 27.61900
H  1.76700 40.28700 25.92800
H  2.69600 40.27600 24.45800
H  2.91400 38.92800 25.64600
H  -1.15100 34.73900 21.57100
H  -3.82200 33.94500 21.54800
H  -1.85700 36.54900 20.85300
H  -3.03200 36.95800 22.00600
H  -3.59500 35.91300 20.67900
H  -1.79400 32.75800 20.54300
H  -3.13000 31.77800 21.24700
H  -1.61800 30.64800 22.26900
H  -1.12500 32.01300 23.28900
H  -0.22900 31.88100 21.86500
H  -7.31500 30.26200 25.83200
H  -5.85800 29.57000 25.30700
H  -6.77100 30.93000 24.23600
H  -4.44100 31.17900 30.14100
H  -7.72000 31.57000 33.26600
H  -7.54400 33.20300 32.55700
H  -6.44500 32.61900 33.78500

