158

Mg 7.77700 2.93200 26.89700
C  9.21700 1.68800 29.99500
C  5.55800 4.59700 28.86600
C  6.33500 3.91100 24.06300
C  9.60700 0.48900 25.22800
N  7.54600 3.21500 29.16300
C  8.20300 2.62200 30.23100
C  7.63300 3.04700 31.57100
C  6.29900 3.84400 31.18400
C  6.42900 3.83500 29.61300
C  4.96300 3.08700 31.64600
C  8.62400 3.80700 32.38700
C  8.54200 3.51500 33.92100
H  9.37800 4.45000 34.85400
N  6.36500 4.32500 26.51900
C  5.55300 4.86400 27.45200
C  4.68700 5.85100 26.81500
C  4.94100 5.72800 25.39100
C  5.92100 4.62400 25.21400
C  3.65700 6.72700 27.50300
C  4.49700 6.64700 24.17600
O  4.75300 6.35200 23.02000
C  3.66400 7.91600 24.54400
N  8.00300 2.30400 24.94000
C  7.20000 2.80600 23.91100
C  7.49100 2.09600 22.57600
C  8.68600 1.13100 22.95700
C  8.82200 1.32900 24.45200
C  6.26100 1.32300 22.14300
C  10.06100 1.51700 22.21200
C  10.71100 0.23000 21.66300
N  9.18700 1.49600 27.42000
C  9.78700 0.57000 26.61500
C  10.69600 -0.20600 27.39100
C  10.53400 0.21600 28.74100
C  9.58900 1.26200 28.67100
C  11.62300 -1.32000 26.90200
C  11.02200 0.01300 30.07600
O  11.92600 -0.68200 30.60600
C  10.03900 0.93200 30.95200
C  9.32400 0.01200 31.96300
O  8.23800 -0.55700 31.69500
O  9.98800 -0.02500 33.22100
C  9.16300 -0.67400 34.27800
H  4.93700 5.25200 29.48200
H  5.96400 4.32200 23.12100
H  10.19400 -0.28500 24.73000
H  7.43000 2.13900 32.13800
H  6.32100 4.86600 31.56200
H  5.16100 2.21000 32.26200
H  4.32200 2.85700 30.79500
H  4.37900 3.71200 32.32200
H  8.59100 4.89000 32.26500
H  9.64200 3.54700 32.09600
H  9.01200 2.54000 34.04800
H  7.51800 3.46800 34.29200
H  2.70300 6.44700 27.05600
H  3.68600 7.81500 27.44900
H  3.48100 6.43400 28.53800
H  4.32500 8.65300 24.99800
H  2.80800 7.73400 25.19400
H  3.16500 8.21200 23.62100
H  7.64900 2.89600 21.85200
H  8.43800 0.08700 22.76900
H  5.38800 1.50900 22.77000
H  6.34200 0.25600 21.93500
H  5.90800 1.55800 21.13900
H  10.68900 2.08300 22.90000
H  9.80600 2.20700 21.40900
H  11.41100 0.60500 20.91500
H  10.02400 -0.47200 21.19100
H  11.18700 -0.41600 22.40100
H  11.10500 -1.67400 26.01000
H  11.53100 -2.15900 27.59200
H  12.60500 -0.93100 26.63300
H  10.64900 1.56900 31.59300
H  8.51300 0.11900 34.64700
H  9.85000 -0.87400 35.10100
H  8.57600 -1.56600 34.06000
Mg 47.89100 24.93900 29.56000
C  49.08100 27.11400 32.08000
C  46.96400 22.72100 32.16000
C  47.30300 22.59300 27.29000
C  49.37400 26.90500 27.17200
N  47.94700 25.03400 31.71400
C  48.42400 26.05600 32.55900
C  48.19800 25.73400 34.02900
C  47.78600 24.21000 34.08800
C  47.53300 23.96100 32.56700
C  48.72600 23.17100 34.78800
C  47.22200 26.73500 34.80800
C  47.82300 27.27300 36.18700
H  46.82400 27.65500 37.30100
N  46.99600 22.97400 29.68500
C  46.74500 22.23700 30.89800
C  46.08200 20.96000 30.44500
C  46.22900 20.88900 29.03400
C  46.81500 22.19600 28.59700
C  45.57200 19.93800 31.42200
C  45.67200 19.85200 28.02800
O  45.84000 19.91400 26.82200
C  44.87300 18.74600 28.48000
N  48.26500 24.78300 27.48300
C  47.98200 23.68500 26.81700
C  48.58500 23.79800 25.39900
C  49.00100 25.21000 25.35700
C  48.86300 25.65100 26.72400
C  49.80300 22.78100 25.21300
C  48.26900 26.08300 24.37100
C  46.74200 26.13100 24.47600
N  48.87900 26.74900 29.55800
C  49.47900 27.42000 28.46700
C  49.92800 28.74200 29.01200
C  49.82500 28.66600 30.38800
C  49.18800 27.45400 30.71300
C  50.51400 29.92100 28.21900
C  50.20800 29.27600 31.65100
O  50.75300 30.35300 31.87500
C  49.78600 28.25100 32.77200
C  50.97000 27.90000 33.61400
O  51.89700 27.18100 33.33700
O  50.88300 28.62200 34.79200
C  51.91400 28.39600 35.74800
H  46.53600 22.11600 32.96200
H  47.10100 21.88800 26.48000
H  49.83000 27.46200 26.35100
H  49.16700 25.94900 34.47900
H  46.83100 24.16200 34.61100
H  49.38700 23.68800 35.48300
H  49.31700 22.51800 34.14600
H  48.09600 22.58700 35.45900
H  46.27200 26.30600 35.12500
H  47.09500 27.49000 34.03200
H  48.33800 28.13500 35.76400
H  48.56700 26.56300 36.55100
H  45.85800 18.89800 31.26800
H  44.49700 19.96100 31.24600
H  45.81300 20.23100 32.44400
H  45.37700 17.95200 29.03100
H  44.26800 18.25600 27.71700
H  44.08200 19.07300 29.15400
H  47.86400 23.43500 24.66700
H  50.05500 25.25300 25.08300
H  50.77400 23.25300 25.06600
H  49.60500 22.44300 24.19600
H  49.88300 21.94700 25.91000
H  48.51300 25.72800 23.37000
H  48.64600 27.10200 24.45600
H  46.28600 25.77900 23.55000
H  46.55000 27.20400 24.46400
H  46.37000 25.59100 25.34800
H  50.45600 29.61300 27.17600
H  51.55300 30.13800 28.46900
H  49.97500 30.86500 28.30000
H  49.18700 28.83100 33.47400
H  51.44300 27.72200 36.46400
H  52.07200 29.28600 36.35600
H  52.86700 28.03700 35.36100

