158

Mg 17.18200 -1.65700 27.84000
C  16.22300 0.57200 30.34900
C  19.07900 -3.25500 30.01600
C  18.63800 -3.21500 25.19800
C  15.61400 0.55900 25.53500
N  17.73900 -1.19600 29.93800
C  17.08200 -0.41600 30.79000
C  17.40800 -0.70900 32.23900
C  18.56300 -1.74300 32.15100
C  18.42200 -2.19500 30.61600
C  20.00200 -1.09700 32.37800
C  16.10500 -1.24600 32.87200
C  15.97400 -0.89600 34.39300
H  17.15900 -0.30200 35.17600
N  18.57900 -3.14600 27.66100
C  19.16700 -3.74000 28.65600
C  19.89100 -4.89400 28.12000
C  19.68500 -4.90700 26.73200
C  18.87500 -3.71200 26.48000
C  20.31400 -5.97200 29.05800
C  20.16200 -5.91100 25.71200
O  19.92100 -5.73700 24.52100
C  20.88100 -7.14400 26.08100
N  17.09300 -1.40100 25.64500
C  17.84700 -2.18200 24.77200
C  17.64200 -1.72400 23.33000
C  16.47900 -0.62600 23.44200
C  16.33200 -0.49400 24.99000
C  18.97100 -1.47200 22.59100
C  15.14400 -0.89600 22.67900
C  13.86300 -1.39000 23.51600
N  15.98200 0.10400 27.93800
C  15.40300 0.85400 26.94700
C  14.63400 1.91500 27.49700
C  14.93800 1.85700 28.86100
C  15.86500 0.83900 29.02600
C  13.78800 2.91400 26.77200
C  14.59100 2.38000 30.14200
O  13.86300 3.30400 30.46800
C  15.43800 1.56900 31.20500
C  16.28800 2.56700 31.89500
O  17.50100 2.76200 31.77700
O  15.54600 3.07000 32.86500
C  16.15500 3.98800 33.85300
H  19.58000 -3.77400 30.83700
H  19.14800 -3.62900 24.32500
H  15.02500 1.18900 24.86500
H  17.70900 0.24900 32.66400
H  18.35800 -2.66200 32.70000
H  19.88100 -0.09600 32.79200
H  20.53100 -0.96500 31.43500
H  20.59300 -1.65900 33.10200
H  16.12300 -2.30400 32.60800
H  15.24100 -0.77700 32.40300
H  15.63800 -1.78900 34.92100
H  15.20300 -0.13400 34.50400
H  21.37700 -6.15600 28.90400
H  19.70500 -6.85500 28.86100
H  20.35200 -5.68000 30.10800
H  21.77700 -6.93600 26.66500
H  21.20200 -7.52400 25.11100
H  20.18600 -7.89900 26.44900
H  17.14400 -2.55300 22.82700
H  16.89400 0.32400 23.10500
H  18.80300 -0.48100 22.16700
H  19.34900 -2.28600 21.97300
H  19.73800 -1.45000 23.36500
H  15.32300 -1.68500 21.94800
H  14.88800 0.02800 22.16100
H  13.28500 -1.97800 22.80400
H  13.22600 -0.53500 23.74400
H  14.17500 -1.94100 24.40300
H  14.25300 3.36100 25.89300
H  13.57400 3.69900 27.49700
H  12.84700 2.47900 26.43300
H  14.72200 1.11200 31.88800
H  17.09700 4.41300 33.50600
H  16.20600 3.51800 34.83500
H  15.55700 4.89600 33.94200
Mg 47.48700 15.78000 28.91200
C  45.73900 15.23300 31.81600
C  50.02500 17.16900 30.58400
C  48.82300 16.78800 25.83000
C  44.88600 14.20300 27.06400
N  47.72400 16.34000 30.97600
C  46.89000 16.02400 31.99100
C  47.47400 16.47800 33.36800
C  48.92800 16.92900 32.94000
C  48.90400 16.82700 31.40000
C  49.32000 18.34700 33.42800
C  47.23300 15.58800 34.63500
C  48.29500 15.53400 35.73700
H  48.15000 16.66800 36.74900
N  49.24300 16.77000 28.27900
C  50.14200 17.24100 29.16500
C  51.30200 17.58500 28.40600
C  51.00600 17.49100 27.04100
C  49.64800 17.00800 26.94300
C  52.63800 17.99200 29.12600
C  51.82200 17.78900 25.85300
O  51.31400 17.65400 24.73100
C  53.29000 18.02800 26.05800
N  46.96800 15.53600 26.78300
C  47.63300 16.11200 25.73800
C  46.97200 15.79100 24.36700
C  45.90900 14.74000 24.71000
C  45.90200 14.77500 26.26700
C  46.61900 17.07400 23.57700
C  46.16700 13.28400 24.08900
C  46.61300 12.10300 25.08600
N  45.82500 14.71600 29.24400
C  44.80800 14.17900 28.43800
C  43.71600 13.69100 29.28400
C  44.09100 14.01100 30.58600
C  45.37700 14.60600 30.54600
C  42.37600 13.14100 28.78600
C  43.57500 13.93400 31.96500
O  42.56400 13.39300 32.44200
C  44.68700 14.71600 32.78300
C  44.08300 15.78600 33.57000
O  43.97700 16.96200 33.26100
O  43.74700 15.29100 34.79900
C  42.91800 16.22800 35.60400
H  50.95400 17.56300 31.00100
H  49.07900 17.23800 24.86900
H  44.11000 13.65000 26.53100
H  46.97300 17.41700 33.60500
H  49.76400 16.25600 33.13100
H  49.37500 19.01100 32.56500
H  50.25800 18.23200 33.97100
H  48.56200 18.78600 34.07600
H  47.08700 14.55000 34.33500
H  46.36000 15.97100 35.16500
H  49.27300 15.70500 35.28700
H  48.22400 14.61000 36.31200
H  53.53000 17.64000 28.60900
H  52.76900 17.46100 30.06900
H  52.66800 19.07000 29.28100
H  53.70800 18.33200 25.09900
H  53.70800 17.09300 26.43000
H  53.33200 18.88100 26.73600
H  47.63800 15.29000 23.66400
H  44.98700 15.14400 24.29200
H  47.09200 17.92100 24.07200
H  45.57000 17.35500 23.67300
H  46.78400 16.98300 22.50300
H  46.99700 13.34700 23.38500
H  45.30200 12.99800 23.49200
H  46.91400 12.50700 26.05300
H  47.49800 11.66800 24.62100
H  45.79900 11.39100 25.22000
H  41.55100 13.59600 29.33500
H  42.35600 12.05200 28.78200
H  42.20800 13.44200 27.75200
H  45.17000 13.98800 33.43300
H  43.18300 17.26800 35.41400
H  43.30400 16.03900 36.60600
H  41.84200 16.05600 35.58200

