158

Mg 8.79400 3.73100 27.13800
C  10.24100 2.34000 29.96100
C  7.01500 5.77900 29.23200
C  7.27800 4.87400 24.40500
C  9.96300 1.01800 25.30100
N  8.63100 4.02700 29.30500
C  9.46300 3.39100 30.23100
C  9.21600 4.00700 31.61200
C  8.10900 5.02400 31.42300
C  7.88800 4.95800 29.87700
C  6.76200 4.85300 32.25700
C  10.51000 4.47900 32.29300
C  10.39100 5.35800 33.56200
H  11.10600 4.83500 34.82900
N  7.38700 5.20200 26.87200
C  6.79500 5.94600 27.86000
C  5.85800 6.87500 27.17100
C  6.09500 6.80800 25.77500
C  6.87500 5.50300 25.63800
C  5.12400 7.89700 28.00000
C  5.60200 7.69200 24.60000
O  5.75500 7.47800 23.40900
C  5.02600 8.97600 25.00200
N  8.51800 2.96300 25.15500
C  7.95000 3.71400 24.19100
C  8.23700 3.13000 22.82000
C  9.14700 1.94200 23.07600
C  9.24900 1.99600 24.61800
C  6.99000 2.83100 22.02700
C  10.51100 1.99900 22.27800
C  10.95000 0.63100 21.70100
N  9.97500 2.10500 27.49800
C  10.37000 1.07500 26.65200
C  11.26300 0.23600 27.32200
C  11.27900 0.74600 28.65900
C  10.45800 1.87000 28.69600
C  12.00200 -0.87500 26.67300
C  11.94000 0.52000 29.91500
O  12.72900 -0.28300 30.36300
C  11.21500 1.56600 30.81000
C  10.61100 0.73700 31.99200
O  9.45900 0.35100 32.13200
O  11.59500 0.75800 32.95600
C  11.08900 0.49100 34.28700
H  6.39000 6.29300 29.96500
H  7.15200 5.48300 23.50700
H  10.36200 0.24100 24.64500
H  8.82900 3.15500 32.17000
H  8.47000 6.01300 31.70700
H  5.93800 4.55900 31.60700
H  6.54600 5.81200 32.72800
H  6.89500 4.20100 33.12000
H  11.10700 4.92700 31.49900
H  11.05900 3.57500 32.55700
H  9.35200 5.49100 33.86400
H  10.83500 6.33000 33.34900
H  4.23100 8.36100 27.58200
H  5.74500 8.77500 28.17700
H  4.80900 7.53100 28.97700
H  5.52400 9.36600 25.88900
H  3.99800 8.69800 25.23700
H  5.25600 9.67700 24.20000
H  8.85600 3.85500 22.29200
H  8.62900 0.99900 22.90100
H  6.19000 3.35400 22.55200
H  6.81700 1.81000 21.68700
H  6.92500 3.33700 21.06300
H  11.26800 2.42000 22.93900
H  10.51000 2.68600 21.43100
H  10.06800 -0.00900 21.71700
H  11.73500 0.25500 22.35600
H  11.12400 0.68800 20.62700
H  12.16900 -0.62900 25.62500
H  11.34000 -1.74000 26.65300
H  13.00200 -1.11600 27.03500
H  12.07600 2.14300 31.14600
H  11.91300 0.19900 34.93700
H  10.40600 -0.35800 34.25300
H  10.56700 1.34400 34.72100
Mg 35.81700 1.10000 29.63000
C  33.91700 3.04600 31.96900
C  38.38500 1.25400 31.83600
C  37.71500 -0.20800 27.20000
C  33.23600 1.54800 27.31700
N  36.09400 2.07300 31.65100
C  35.11000 2.64100 32.50100
C  35.61200 2.71800 33.92600
C  37.10600 2.33100 33.79400
C  37.16800 1.72300 32.37400
C  38.09900 3.46900 33.91100
C  34.64300 1.76800 34.74600
C  34.22800 2.12200 36.17900
H  34.68300 3.45300 36.91500
N  37.79600 0.51000 29.54900
C  38.67800 0.80800 30.55100
C  39.97600 0.33600 30.17400
C  39.86700 -0.07500 28.80000
C  38.43200 0.03700 28.42400
C  41.28100 0.49200 30.97400
C  41.00400 -0.45700 27.80500
O  40.66700 -0.72400 26.67700
C  42.48400 -0.58400 28.20600
N  35.55000 0.77800 27.58900
C  36.45900 0.13300 26.78200
C  35.98100 -0.00700 25.30800
C  34.47800 0.24400 25.56100
C  34.42100 0.91900 26.89900
C  36.60900 1.08300 24.38300
C  33.57700 -1.02100 25.46900
C  32.65800 -1.03000 24.23500
N  33.92400 2.04600 29.59600
C  32.99200 2.16100 28.59200
C  31.77200 2.75900 29.13500
C  32.12000 3.16200 30.40800
C  33.42100 2.70000 30.68700
C  30.43700 3.03000 28.41400
C  31.65000 3.94700 31.52500
O  30.53500 4.46200 31.65500
C  32.71900 3.76100 32.64800
C  33.13300 5.05400 33.18800
O  33.78000 5.88700 32.58900
O  32.51300 5.19400 34.34200
C  32.77100 6.52500 34.95000
H  39.14800 1.16300 32.61100
H  38.31900 -0.44200 26.32000
H  32.40800 1.49800 26.60700
H  35.52300 3.71900 34.34700
H  37.35300 1.54800 34.51100
H  37.69000 4.30100 34.48400
H  38.55400 3.65800 32.93900
H  38.91400 3.09100 34.52800
H  35.19000 0.83100 34.85300
H  33.75800 1.50600 34.16500
H  34.51800 1.29200 36.82500
H  33.13900 2.08200 36.15900
H  41.04900 0.82700 31.98500
H  41.71000 1.35300 30.46100
H  41.97300 -0.35000 30.97800
H  42.98400 -1.14300 27.41500
H  42.55800 -1.12600 29.14900
H  42.94300 0.40000 28.29400
H  36.25100 -0.98600 24.91300
H  34.24800 1.01700 24.82800
H  37.65800 0.83700 24.21800
H  36.58900 1.96900 25.01800
H  36.14000 1.24600 23.41300
H  32.85500 -1.09200 26.28300
H  34.15600 -1.93800 25.57200
H  32.52600 0.02100 23.97900
H  31.67900 -1.45000 24.46500
H  33.12700 -1.56200 23.40700
H  30.57100 3.80900 27.66300
H  29.68100 3.25500 29.16600
H  30.19500 2.03400 28.04400
H  32.25200 3.19100 33.45200
H  31.95200 7.20800 34.72300
H  33.69700 7.09500 34.87700
H  32.65200 6.40000 36.02700

