158

Mg -2.32000 17.01800 25.71000
C  -2.62700 14.64100 28.27300
C  -3.18500 19.51900 27.84900
C  -2.49700 19.19700 23.13600
C  -2.11200 14.41300 23.35800
N  -3.04000 17.03300 27.81100
C  -2.95800 16.00500 28.74100
C  -3.40300 16.53300 30.19700
C  -3.72300 18.06100 29.97000
C  -3.34800 18.26000 28.41000
C  -5.23800 18.33000 30.18600
C  -2.35400 16.14600 31.26500
C  -2.68700 16.79300 32.63300
H  -2.63000 16.08000 33.91900
N  -2.55900 19.07600 25.53800
C  -2.83400 19.86100 26.52900
C  -2.74700 21.28800 26.03200
C  -2.44300 21.25300 24.65900
C  -2.54500 19.80600 24.40300
C  -2.90300 22.51900 26.94000
C  -2.17900 22.36900 23.67700
O  -1.72900 22.14700 22.58500
C  -2.00600 23.78400 24.06300
N  -2.30100 16.86400 23.62100
C  -2.40700 17.86600 22.79100
C  -2.22300 17.55200 21.28200
C  -1.98600 16.06700 21.43300
C  -2.13900 15.70900 22.90600
C  -3.26900 18.04300 20.28800
C  -0.60000 15.58600 20.86900
C  0.64600 15.65800 21.76100
N  -2.35500 15.00000 25.75700
C  -2.32600 14.07200 24.73500
C  -2.29000 12.71400 25.36600
C  -2.32000 12.94900 26.71000
C  -2.35800 14.28200 26.93500
C  -2.21900 11.41900 24.51600
C  -2.40000 12.23400 27.96200
O  -2.29200 11.01700 28.25700
C  -2.65900 13.33800 29.04900
C  -1.42200 13.20300 29.94800
O  -0.36000 13.80600 29.84300
O  -1.63100 12.37700 30.97200
C  -0.64200 12.10400 31.98300
H  -3.56600 20.36900 28.42000
H  -2.48100 19.92500 22.32200
H  -2.04300 13.56800 22.67000
H  -4.29700 15.98400 30.49400
H  -3.02900 18.52700 30.66900
H  -5.47400 19.34200 29.85600
H  -5.45500 18.30900 31.25400
H  -5.82500 17.64200 29.57800
H  -1.36500 16.46400 30.93600
H  -2.36800 15.08800 31.52700
H  -3.69100 17.21500 32.60700
H  -1.98500 17.62600 32.58400
H  -3.71700 23.09000 26.49300
H  -2.01400 23.13500 26.80600
H  -3.07900 22.31400 27.99600
H  -1.89400 24.33700 23.13000
H  -1.11000 23.91000 24.67000
H  -2.82300 24.23200 24.62900
H  -1.30600 18.10100 21.06800
H  -2.82500 15.54800 20.96800
H  -3.98900 18.68700 20.79300
H  -3.84300 17.21100 19.87900
H  -2.80600 18.68200 19.53600
H  -0.51100 16.28200 20.03500
H  -0.66600 14.57900 20.45700
H  1.28400 16.49400 21.47500
H  1.24900 14.76000 21.62800
H  0.21400 15.87400 22.73900
H  -1.40500 11.49400 23.79500
H  -3.16600 11.28500 23.99400
H  -2.05900 10.67300 25.29400
H  -3.60400 13.13000 29.55300
H  -0.03100 11.23600 31.73500
H  -1.21500 11.91400 32.89100
H  0.04500 12.92700 32.18100
Mg 45.61900 24.62700 29.54300
C  46.37600 27.13700 31.89000
C  44.98500 22.50000 31.91600
C  45.76200 22.20700 27.11700
C  46.88000 26.93700 26.99900
N  45.53300 24.82700 31.62900
C  45.85300 25.94200 32.43800
C  45.54000 25.64200 33.89400
C  45.30500 24.14800 33.91900
C  45.24800 23.79400 32.36800
C  46.38600 23.30800 34.60200
C  44.35900 26.51900 34.41500
C  44.68800 27.14600 35.79400
H  43.54000 27.09100 36.91100
N  45.20800 22.74200 29.48400
C  44.89700 22.01700 30.61200
C  44.44600 20.66400 30.20700
C  44.74700 20.59600 28.79000
C  45.27300 21.91200 28.40500
C  43.90100 19.53200 31.18300
C  44.64400 19.37600 27.88700
O  44.78200 19.49000 26.65400
C  44.35600 17.99200 28.45900
N  46.31400 24.56500 27.44100
C  46.23500 23.45100 26.67100
C  46.43800 23.68700 25.18000
C  46.70400 25.25400 25.12300
C  46.57900 25.57900 26.63400
C  47.74800 23.03600 24.64200
C  45.79500 26.12800 24.22500
C  44.24600 26.06400 24.45500
N  46.35600 26.67700 29.37400
C  46.83200 27.40100 28.28400
C  47.22800 28.74200 28.79100
C  47.05300 28.73300 30.19600
C  46.58500 27.43000 30.51900
C  47.90600 29.86900 28.02800
C  47.34900 29.43600 31.53300
O  47.80800 30.52900 31.78400
C  46.91800 28.35500 32.63700
C  48.08500 28.16800 33.56900
O  49.23900 27.87200 33.20800
O  47.64100 28.36900 34.85300
C  48.64900 27.96700 35.92500
H  44.51700 21.86700 32.67200
H  45.83300 21.43400 26.35000
H  47.25100 27.73500 26.35200
H  46.52200 25.84200 34.32300
H  44.30600 24.04100 34.34300
H  47.39600 23.66100 34.39500
H  46.30900 22.25600 34.33000
H  46.24500 23.47200 35.67100
H  43.44200 25.94000 34.51600
H  44.24800 27.31300 33.67600
H  45.09600 28.15500 35.73700
H  45.49200 26.53200 36.20100
H  43.01300 19.02000 30.81200
H  43.68400 19.96800 32.15700
H  44.64600 18.73800 31.24500
H  43.32100 18.05800 28.79500
H  45.07500 17.73900 29.23700
H  44.34100 17.32700 27.59500
H  45.48900 23.40500 24.72400
H  47.73900 25.54300 24.93900
H  47.41800 22.54200 23.72900
H  48.07800 22.27100 25.34500
H  48.52100 23.78100 24.45100
H  45.92200 26.00000 23.15000
H  45.96200 27.20300 24.29400
H  44.04800 26.89200 25.13600
H  44.09600 25.11800 24.97700
H  43.75900 26.15300 23.48400
H  48.60200 29.48300 27.28300
H  48.40000 30.58100 28.69000
H  47.26300 30.41800 27.34000
H  46.10600 28.83200 33.18600
H  49.34100 27.19400 35.59100
H  48.11000 27.77700 36.85300
H  49.18900 28.83700 36.29900

