158

Mg 48.02200 15.98200 28.51700
C  46.06800 15.53300 31.48300
C  49.94200 18.10900 30.43800
C  49.47200 16.85100 25.77600
C  45.34600 14.47000 26.75100
N  47.92600 16.73800 30.67100
C  47.07700 16.44800 31.67600
C  47.58100 16.89300 33.07500
C  48.70400 17.85400 32.65500
C  48.85800 17.55400 31.15600
C  48.44000 19.36900 33.06200
C  48.05600 15.66900 33.91900
C  48.17000 15.85300 35.44200
H  47.58400 17.11900 36.11500
N  49.58700 17.13800 28.18900
C  50.26500 17.95000 29.06700
C  51.41300 18.56900 28.41200
C  51.36200 18.11500 27.08200
C  50.08800 17.35900 26.96600
C  52.38300 19.44100 29.09800
C  52.37800 18.27700 25.93600
O  52.32700 17.55800 24.99200
C  53.58800 19.11100 26.18800
N  47.42600 15.76300 26.48500
C  48.26000 16.21200 25.52700
C  47.83400 15.79900 24.15300
C  46.53600 14.92300 24.47400
C  46.36400 15.10700 25.96200
C  47.67700 17.04500 23.17300
C  46.43000 13.44800 24.02900
C  47.00700 12.31600 24.93000
N  46.14600 15.06300 28.99000
C  45.20800 14.53300 28.19400
C  44.12800 13.98700 28.94500
C  44.49700 14.31100 30.26900
C  45.72300 15.01300 30.26500
C  42.83300 13.31000 28.52100
C  44.14600 14.10000 31.58000
O  43.24400 13.41900 32.11500
C  45.07000 14.96700 32.45100
C  44.35000 16.03700 33.17500
O  43.92400 17.09500 32.71400
O  44.16100 15.64400 34.44700
C  43.33600 16.48600 35.32400
H  50.50800 18.80800 31.05700
H  49.99600 17.32600 24.94400
H  44.48700 13.94300 26.32900
H  46.76800 17.31400 33.66700
H  49.58500 17.53400 33.21200
H  48.35800 20.01100 32.18500
H  49.35300 19.65700 33.58300
H  47.58100 19.46700 33.72500
H  49.07800 15.43900 33.61500
H  47.51500 14.77300 33.61400
H  49.22200 15.95900 35.70700
H  47.88400 14.93000 35.94700
H  52.75000 20.20700 28.41500
H  53.19900 18.87000 29.54000
H  52.03900 20.07500 29.91600
H  53.96400 18.81500 27.16800
H  53.28400 20.15500 26.25900
H  54.33400 18.95000 25.41000
H  48.58600 15.10800 23.77100
H  45.67400 15.39300 24.00000
H  46.64300 17.15700 22.84700
H  48.44800 16.72800 22.47000
H  48.05200 17.92000 23.70300
H  46.84100 13.23400 23.04200
H  45.34800 13.32300 23.99200
H  47.73100 12.56700 25.70500
H  47.57300 11.63100 24.29900
H  46.13600 11.89600 25.43400
H  42.05700 13.31400 29.28600
H  42.97100 12.26700 28.23500
H  42.42200 13.81000 27.64400
H  45.63700 14.38500 33.17800
H  42.69900 15.89500 35.98200
H  42.56800 17.09400 34.84600
H  43.99200 17.08700 35.95400
Mg -1.80100 35.16400 26.27600
C  -3.86500 33.75100 28.91200
C  -0.93100 37.66000 28.59800
C  -0.30500 36.96800 23.81300
C  -3.33500 33.05700 24.05000
N  -2.43000 35.66000 28.53100
C  -3.16500 34.82900 29.40200
C  -3.24200 35.45200 30.73400
C  -2.34100 36.72800 30.71100
C  -1.94400 36.76300 29.16000
C  -3.00200 37.97200 31.31500
C  -3.05700 34.40000 31.90400
C  -2.55300 34.99800 33.23400
H  -3.24800 34.44700 34.51000
N  -0.64900 36.98700 26.20000
C  -0.32300 37.76800 27.29400
C  0.59200 38.83400 26.79600
C  0.75300 38.63500 25.41200
C  -0.07900 37.50100 25.08300
C  1.13200 39.88200 27.77600
C  1.75800 39.34200 24.35300
O  1.66600 39.12500 23.16400
C  2.81000 40.33200 24.82500
N  -1.95400 35.07800 24.18100
C  -1.15500 35.82800 23.41700
C  -1.12400 35.28300 21.98100
C  -1.96000 34.04300 21.96700
C  -2.43400 33.98500 23.48700
C  -1.23500 36.34300 20.84700
C  -1.13200 32.83400 21.53000
C  -1.99200 31.60100 21.13800
N  -3.23600 33.60700 26.41500
C  -3.74600 32.82100 25.38300
C  -4.71400 31.88800 25.94900
C  -4.77700 32.23000 27.34600
C  -3.82200 33.20800 27.58000
C  -5.39600 30.73500 25.28100
C  -5.37300 31.85200 28.55200
O  -6.23400 30.99300 28.77800
C  -4.73900 32.76600 29.63200
C  -5.92100 33.44700 30.28600
O  -6.56300 34.36500 29.83000
O  -6.14800 32.84300 31.54600
C  -7.27400 33.27900 32.36800
H  -0.53000 38.30400 29.38300
H  0.19700 37.34200 22.91900
H  -3.68200 32.27800 23.36700
H  -4.29600 35.72700 30.76100
H  -1.37400 36.54000 31.17800
H  -2.26000 38.46100 31.94600
H  -3.84900 37.73500 31.96000
H  -3.35500 38.66600 30.55200
H  -2.31000 33.66900 31.59400
H  -3.98500 33.88800 32.15900
H  -2.77800 36.06300 33.28100
H  -1.48100 34.80000 33.21400
H  0.82200 40.85400 27.39000
H  2.22000 39.87500 27.71900
H  0.84600 39.93400 28.82600
H  3.48600 40.50800 23.98800
H  3.41600 39.90600 25.62400
H  2.38900 41.31400 25.04000
H  -0.05400 35.09700 21.89600
H  -2.93800 34.04000 21.48500
H  -1.82900 35.93600 20.02900
H  -0.27500 36.71500 20.49000
H  -1.78400 37.19700 21.24300
H  -0.58500 32.43200 22.38300
H  -0.43900 33.09700 20.73000
H  -1.55700 31.19400 20.22500
H  -3.03200 31.91100 21.03600
H  -1.95200 30.85400 21.93100
H  -4.53300 30.39600 24.70700
H  -6.18700 30.98300 24.57200
H  -5.62000 29.97000 26.02400
H  -4.17700 32.18200 30.36100
H  -8.05800 33.57300 31.67100
H  -6.91700 34.14100 32.93200
H  -7.58400 32.43300 32.98100

