158

Mg 0.51000 -1.62700 43.16200
C  3.75600 -0.97000 42.22500
C  -0.42900 1.27400 41.45700
C  -2.74700 -2.54900 43.31900
C  1.51400 -4.74800 44.36700
N  1.54600 -0.00500 41.94600
C  2.92600 0.00800 41.75600
C  3.30900 1.20900 40.93600
C  2.01900 2.01200 40.87100
C  0.95500 1.09600 41.52600
C  2.14100 3.44100 41.44100
C  3.91600 0.75500 39.56100
C  5.17700 1.42400 39.11800
H  5.70400 1.21300 37.69700
N  -1.32800 -0.73900 42.55000
C  -1.50600 0.44100 41.86600
C  -2.91500 0.74100 41.74900
C  -3.62600 -0.30600 42.35600
C  -2.57400 -1.32900 42.69300
C  -3.38800 2.10000 41.23400
C  -5.17200 -0.33300 42.55800
O  -5.87900 0.58800 42.21300
C  -5.87400 -1.43800 43.23800
N  -0.40300 -3.39000 43.51600
C  -1.72700 -3.52900 43.65900
C  -2.19900 -4.88200 44.05200
C  -0.87600 -5.59200 44.40600
C  0.17900 -4.50300 44.10100
C  -3.29700 -5.05900 45.22900
C  -0.66900 -6.94900 43.72800
C  0.04000 -8.06300 44.60100
N  2.31600 -2.58500 43.43700
C  2.59000 -3.88600 43.97600
C  4.06200 -4.11300 43.90000
C  4.57600 -2.96300 43.22500
C  3.41200 -2.10800 42.94700
C  4.86600 -5.30400 44.28800
C  5.71700 -2.34600 42.76300
O  6.91300 -2.67000 42.81500
C  5.26400 -1.05400 42.08700
C  6.15100 -0.02400 42.67400
O  7.24300 0.29200 42.25900
O  5.52200 0.60600 43.71600
C  6.25300 1.57000 44.48400
H  -0.67800 2.19400 40.92600
H  -3.75600 -2.89400 43.55000
H  1.78700 -5.75600 44.68500
H  4.10400 1.73400 41.46600
H  1.81500 2.24000 39.82500
H  1.45200 3.36300 42.28100
H  1.67800 4.15700 40.76100
H  3.16400 3.68500 41.72600
H  3.20700 1.08300 38.80000
H  3.83700 -0.32500 39.43800
H  5.91900 1.21300 39.88800
H  4.95800 2.48300 39.25400
H  -4.46500 2.20500 41.10800
H  -2.94300 2.39200 40.28200
H  -3.15800 2.82000 42.02000
H  -6.92600 -1.24500 43.44400
H  -5.38000 -1.60000 44.19700
H  -5.91400 -2.40500 42.73700
H  -2.63700 -5.46500 43.24200
H  -0.85400 -5.74200 45.48500
H  -4.12500 -5.70200 44.93000
H  -3.49900 -4.04600 45.57600
H  -2.95500 -5.58000 46.12400
H  -0.18400 -6.79600 42.76400
H  -1.65800 -7.40000 43.64200
H  0.96200 -8.41400 44.13800
H  -0.61100 -8.85700 44.96700
H  0.45800 -7.54800 45.46500
H  5.05300 -5.95000 43.42900
H  4.18600 -5.88000 44.91600
H  5.73000 -5.01400 44.88600
H  5.61500 -1.20000 41.06500
H  6.86100 1.13400 45.27700
H  5.48200 2.18000 44.95600
H  6.69900 2.40000 43.93600
Mg -5.41800 26.20600 26.01500
C  -3.89600 27.51000 28.91200
C  -7.07000 24.02800 27.92800
C  -6.54900 24.65300 23.26100
C  -3.32500 28.28200 24.08400
N  -5.34400 25.75700 28.14700
C  -4.75100 26.46900 29.14800
C  -5.24100 26.03200 30.57200
C  -6.05500 24.75100 30.20700
C  -6.19700 24.83700 28.67200
C  -5.31600 23.48800 30.82800
C  -6.11500 27.12500 31.29600
C  -6.16500 26.99400 32.82700
H  -5.54100 25.79700 33.46500
N  -6.80600 24.71700 25.59200
C  -7.39400 23.95500 26.50700
C  -8.28000 22.92000 25.90300
C  -8.08200 23.07800 24.52100
C  -7.13000 24.15100 24.40500
C  -9.14700 22.00600 26.72200
C  -8.66600 22.35700 23.31900
O  -8.29900 22.45800 22.15900
C  -9.78500 21.40200 23.65500
N  -4.95300 26.39100 23.97300
C  -5.57200 25.64000 23.07100
C  -5.13800 26.10300 21.66900
C  -4.12000 27.27200 21.87100
C  -4.17000 27.42800 23.38300
C  -4.72000 25.06500 20.63500
C  -4.49600 28.54700 21.14500
C  -4.21100 28.59700 19.65600
N  -3.93900 27.58300 26.33500
C  -3.13100 28.26000 25.43100
C  -2.19700 29.16800 26.22300
C  -2.46300 28.86300 27.59100
C  -3.54000 27.90800 27.60100
C  -1.33000 30.22400 25.66400
C  -2.12800 29.16300 28.95100
O  -1.26300 29.87200 29.43300
C  -3.03500 28.26800 29.88600
C  -2.17000 27.38800 30.79700
O  -1.86600 26.22500 30.58000
O  -1.96500 27.93400 31.98900
C  -1.28400 27.16700 33.02300
H  -7.44300 23.25100 28.59900
H  -6.98200 24.31200 22.31900
H  -2.75700 29.03200 23.52900
H  -4.39200 25.78100 31.20700
H  -7.05300 24.73000 30.64400
H  -4.33200 23.75600 31.21300
H  -5.08700 22.78200 30.02900
H  -5.95300 22.99500 31.56200
H  -7.14800 26.83500 31.10200
H  -5.88000 28.10600 30.88500
H  -7.22000 27.09900 33.08000
H  -5.68500 27.89700 33.20400
H  -10.10400 21.96900 26.20200
H  -9.29400 22.39900 27.72800
H  -8.75000 20.99300 26.65900
H  -10.57000 21.96600 24.16000
H  -9.45600 20.54300 24.23900
H  -10.14800 20.95100 22.73100
H  -6.01600 26.58600 21.23900
H  -3.16700 26.84000 21.56400
H  -3.66200 25.13100 20.38100
H  -5.24300 25.10200 19.67900
H  -4.92500 24.08000 21.05400
H  -3.84400 29.29700 21.59400
H  -5.56300 28.72600 21.28000
H  -5.03700 28.60200 18.94500
H  -3.62100 27.74200 19.32400
H  -3.65800 29.53500 19.60200
H  -2.04500 31.04200 25.74600
H  -0.99100 29.93100 24.67000
H  -0.35800 30.43700 26.11000
H  -3.68300 28.87200 30.52200
H  -0.21500 27.11200 32.82000
H  -1.77000 26.21600 33.23900
H  -1.39600 27.82500 33.88500

