158

Mg 2.63000 -1.50900 44.06200
C  5.98700 -0.77600 43.69100
C  1.91000 1.57400 42.54500
C  -0.65500 -2.42300 43.77100
C  3.39400 -4.65000 45.29200
N  3.77500 0.18500 43.24700
C  5.11100 0.25800 43.20500
C  5.72500 1.40900 42.41600
C  4.43800 2.33200 42.30400
C  3.28200 1.31800 42.72000
C  4.58900 3.55300 43.32000
C  6.45300 1.12500 41.08000
C  7.58900 2.13700 40.76700
H  7.33300 3.09400 39.59600
N  0.85700 -0.54000 43.37100
C  0.80000 0.73900 42.76300
C  -0.52400 1.07700 42.55700
C  -1.39000 -0.02800 42.92000
C  -0.42100 -1.09000 43.40000
C  -0.94400 2.47200 42.13500
C  -2.97900 -0.04100 42.82400
O  -3.56700 0.91100 42.32300
C  -3.73300 -1.22400 43.17700
N  1.45100 -3.28900 44.56400
C  0.19500 -3.48800 44.20600
C  -0.26900 -4.92100 44.39700
C  1.07100 -5.59600 44.91600
C  2.05500 -4.43800 44.98600
C  -1.49400 -5.18200 45.32000
C  1.46200 -6.70600 43.76100
C  0.60700 -7.95200 43.86300
N  4.37200 -2.57500 44.44400
C  4.52600 -3.82800 44.97700
C  5.99900 -4.07900 45.09600
C  6.60300 -2.89500 44.61800
C  5.59000 -2.03200 44.24200
C  6.62000 -5.22300 45.69700
C  7.87700 -2.25000 44.44400
O  9.02800 -2.60900 44.68200
C  7.48600 -0.83900 43.75700
C  8.05900 0.17100 44.68800
O  7.96600 0.21300 45.88700
O  8.66100 1.16000 43.94600
C  9.02400 2.45800 44.60600
H  1.60700 2.56300 42.19600
H  -1.66800 -2.75900 43.53800
H  3.66700 -5.64700 45.64500
H  6.42800 1.91400 43.07900
H  4.05100 2.67200 41.34300
H  3.62600 3.98000 43.60200
H  5.15000 4.39200 42.91100
H  5.05100 3.21300 44.24700
H  5.69600 1.17900 40.29800
H  6.89400 0.13600 40.95100
H  8.44900 1.52100 40.50500
H  7.80500 2.77300 41.62600
H  -1.97200 2.69700 42.41900
H  -0.80200 2.56700 41.05900
H  -0.38900 3.24100 42.67200
H  -4.81800 -1.15800 43.10200
H  -3.32600 -1.77100 44.02700
H  -3.49800 -1.92500 42.37500
H  -0.56900 -5.30400 43.42200
H  0.99800 -5.92200 45.95300
H  -2.13400 -5.98800 44.96200
H  -1.98400 -4.21000 45.25600
H  -1.22500 -5.43700 46.34500
H  2.38500 -7.16800 44.11000
H  1.46700 -6.32000 42.74100
H  0.41800 -8.19900 42.81800
H  -0.35000 -7.74500 44.34300
H  1.17800 -8.75700 44.32600
H  7.07800 -5.88600 44.96300
H  5.98800 -5.86000 46.31600
H  7.51100 -4.90200 46.23600
H  7.94000 -0.84500 42.76700
H  8.89300 2.50400 45.68700
H  8.39400 3.21000 44.13100
H  10.01100 2.59400 44.16300
Mg 17.07800 -1.24600 27.04500
C  16.33300 0.84400 29.80600
C  18.75300 -3.31600 29.31200
C  18.71100 -2.73400 24.41200
C  15.91000 1.09200 24.99100
N  17.45100 -1.22200 29.36700
C  16.94300 -0.34300 30.28100
C  17.34900 -0.72300 31.74900
C  18.27200 -1.97000 31.47500
C  18.17000 -2.21700 29.95000
C  19.70100 -1.79100 31.92800
C  16.11400 -0.92600 32.72400
C  16.09400 -0.09600 34.02800
H  17.35800 0.33000 34.79200
N  18.35600 -2.98900 26.87500
C  18.93200 -3.65300 27.92100
C  19.79200 -4.71000 27.39700
C  19.73900 -4.62000 25.99100
C  18.98400 -3.40100 25.70200
C  20.61700 -5.62400 28.23600
C  20.41800 -5.47100 24.86500
O  20.31900 -5.34500 23.65500
C  21.20700 -6.65100 25.28200
N  17.40600 -0.72100 25.05900
C  17.92400 -1.61200 24.16900
C  17.83900 -1.05300 22.72200
C  16.89000 0.09600 22.94900
C  16.65000 0.18800 24.39000
C  19.21600 -0.70600 22.15800
C  15.56900 0.11200 22.04500
C  15.26000 1.29600 21.14200
N  16.21700 0.52700 27.27500
C  15.71700 1.34100 26.36500
C  15.01800 2.43200 27.03200
C  15.22200 2.34500 28.35300
C  15.95500 1.19200 28.46000
C  14.13700 3.36200 26.36900
C  15.00400 2.99600 29.67900
O  14.57200 4.10000 29.98700
C  15.68200 1.92500 30.62300
C  16.54400 2.63300 31.55200
O  17.79700 2.77300 31.52900
O  15.65600 3.13700 32.51000
C  16.17900 3.95800 33.52100
H  19.33700 -3.98900 29.94200
H  19.07800 -3.26300 23.52900
H  15.43300 1.85800 24.37700
H  17.88100 0.17300 32.06800
H  17.90200 -2.92100 31.85900
H  20.20200 -1.40000 31.04200
H  20.17200 -2.74600 32.16200
H  19.70700 -1.02500 32.70500
H  15.96700 -1.98300 32.94900
H  15.25200 -0.55600 32.16900
H  15.76500 -0.89800 34.68900
H  15.36100 0.70600 34.11000
H  20.41400 -5.74200 29.30000
H  21.65100 -5.29800 28.12000
H  20.54800 -6.65400 27.88500
H  22.14700 -6.44500 25.79500
H  21.52800 -7.15700 24.37200
H  20.57900 -7.31000 25.88100
H  17.36100 -1.76700 22.05100
H  17.49800 0.96100 22.68400
H  19.71900 -0.10600 22.91700
H  19.27400 -0.11900 21.24200
H  19.80600 -1.61500 22.04600
H  14.65400 0.08000 22.63600
H  15.55900 -0.80500 21.45500
H  14.30300 1.72100 21.44300
H  15.40500 0.95400 20.11700
H  15.99300 2.06700 21.37800
H  14.61400 4.26100 25.98000
H  13.36600 3.70100 27.06200
H  13.58500 2.90600 25.54700
H  14.98400 1.35700 31.23700
H  17.14700 3.62700 33.89400
H  15.39300 4.08700 34.26600
H  16.24200 4.96800 33.11400

