158

Mg 41.06600 8.31400 29.93200
C  43.06200 9.24500 32.66100
C  38.65000 7.19700 31.99400
C  39.53400 7.02600 27.23200
C  43.72600 9.21200 27.89300
N  41.00100 8.05900 32.02400
C  41.84900 8.64400 33.00200
C  41.24300 8.48900 34.44400
C  39.86600 7.64300 34.20100
C  39.83800 7.52700 32.66300
C  39.54200 6.40700 35.01900
C  40.98300 9.97300 35.06800
C  40.24700 9.94800 36.39100
H  40.81200 10.73600 37.49500
N  39.34200 7.25600 29.63000
C  38.48500 7.00400 30.61100
C  37.37900 6.15200 30.08200
C  37.49300 6.07800 28.67100
C  38.80200 6.88500 28.39700
C  36.28500 5.49300 30.95600
C  36.64200 5.42100 27.59900
O  36.76200 5.62000 26.38200
C  35.49700 4.64700 28.02700
N  41.51000 8.18000 27.80100
C  40.70500 7.61200 26.91300
C  41.26000 7.64800 25.45800
C  42.57600 8.54800 25.72200
C  42.59100 8.69500 27.22900
C  41.63600 6.29900 24.85700
C  42.67200 9.88400 25.04100
C  41.80700 11.06900 25.55400
N  43.03900 9.12200 30.18900
C  44.00500 9.48300 29.28400
C  45.22800 9.92800 29.94800
C  44.83800 10.01300 31.28900
C  43.55200 9.42900 31.37300
C  46.45400 10.35400 29.23500
C  45.28100 10.46000 32.59600
O  46.28800 11.04000 32.98100
C  44.19100 9.87100 33.56800
C  44.91400 8.89200 34.40700
O  45.00000 7.71800 34.18400
O  45.50100 9.53000 35.45600
C  46.35800 8.80100 36.36700
H  37.84100 6.92800 32.67600
H  39.00600 6.56400 26.39600
H  44.59900 9.46300 27.28800
H  42.01700 7.98200 35.02000
H  39.06700 8.36000 34.39000
H  38.51600 6.13200 35.26100
H  40.13400 6.35900 35.93400
H  39.93600 5.52900 34.50700
H  40.34700 10.52400 34.37500
H  41.95300 10.39200 35.33500
H  40.22700 8.89500 36.67100
H  39.25500 10.36600 36.22100
H  35.30200 5.74800 30.56000
H  36.31900 5.66300 32.03200
H  36.24900 4.40700 30.87200
H  34.79700 5.34900 28.48000
H  35.83300 3.84100 28.67900
H  35.09100 4.36200 27.05700
H  40.57000 8.14100 24.77300
H  43.42800 7.94100 25.41500
H  42.63000 6.41800 24.42700
H  40.93100 6.01600 24.07600
H  41.62700 5.69000 25.76100
H  42.44400 9.57300 24.02200
H  43.73400 10.12400 25.07900
H  42.40800 11.93300 25.83800
H  41.07200 10.81000 26.31600
H  41.17600 11.37900 24.72100
H  46.80000 9.66400 28.46500
H  47.18700 10.20500 30.02800
H  46.47900 11.32400 28.73800
H  43.79200 10.56900 34.30400
H  46.64800 7.84000 35.94300
H  45.84500 8.67800 37.32100
H  47.27800 9.38100 36.43800
Mg 9.54000 47.77800 26.73900
C  7.70200 47.72200 29.67800
C  12.30500 48.90200 28.45300
C  11.21600 47.60300 23.93700
C  6.54900 47.10200 24.91600
N  9.94900 48.13400 28.93100
C  9.01700 48.15300 29.89100
C  9.61200 48.70100 31.22100
C  10.92800 49.39100 30.62200
C  11.09500 48.85100 29.19500
C  10.85200 50.96400 30.56900
C  9.96200 47.65100 32.27700
C  9.42900 47.80000 33.73100
H  9.47400 46.51200 34.65400
N  11.49500 48.07400 26.35500
C  12.49600 48.55400 27.16300
C  13.74800 48.34500 26.49300
C  13.48000 47.97600 25.11900
C  11.96700 47.83800 25.07200
C  15.05400 48.65900 27.20600
C  14.50100 47.74800 24.05600
O  14.15800 47.29400 22.97600
C  15.91400 47.80400 24.34900
N  8.92900 47.73300 24.69500
C  9.80700 47.46200 23.72900
C  9.20800 47.13800 22.38100
C  7.69800 47.09700 22.67200
C  7.70500 47.27100 24.18500
C  9.62900 48.09700 21.19500
C  7.06600 45.81300 22.12500
C  5.53000 45.98800 21.73900
N  7.43200 47.59300 27.18400
C  6.39100 47.19600 26.38800
C  5.23100 46.98800 27.16700
C  5.67700 47.16900 28.48600
C  7.06400 47.54500 28.43900
C  3.82400 46.60700 26.74800
C  5.31700 47.18000 29.82100
O  4.20500 46.95400 30.28000
C  6.59600 47.62300 30.65000
C  6.82600 46.56100 31.57400
O  7.09500 45.41900 31.23400
O  6.39500 46.92100 32.80500
C  6.29700 45.83300 33.72500
H  13.12000 49.38600 28.99600
H  11.67900 47.52300 22.95100
H  5.66000 46.87000 24.32600
H  8.93800 49.42400 31.68200
H  11.82500 49.17700 31.20400
H  11.70700 51.42400 31.06500
H  10.02000 51.42000 31.10600
H  10.79900 51.43500 29.58700
H  11.04000 47.49400 32.30000
H  9.60500 46.65400 32.02300
H  8.38200 48.09900 33.68400
H  10.02900 48.58700 34.18800
H  14.81300 48.66900 28.26900
H  15.30600 49.66600 26.87400
H  15.88500 47.97000 27.05400
H  16.59800 47.77100 23.50200
H  16.18100 46.88500 24.87000
H  16.16900 48.70200 24.91300
H  9.68900 46.18500 22.16000
H  7.26600 47.99300 22.22600
H  9.94100 47.56500 20.29600
H  10.31100 48.81800 21.64500
H  8.77800 48.74800 20.99300
H  7.17200 44.98500 22.82600
H  7.64900 45.46600 21.27200
H  5.39200 45.66700 20.70700
H  5.29100 47.04800 21.82300
H  4.91100 45.43400 22.44400
H  3.88900 46.01500 25.83600
H  3.20700 47.50300 26.67500
H  3.36800 46.01900 27.54500
H  6.39600 48.53200 31.21700
H  7.09400 45.13700 33.46200
H  5.25400 45.52200 33.67700
H  6.50600 46.24500 34.71200

