158

Mg -0.77800 7.81900 27.04500
C  0.74500 9.85100 29.54200
C  -0.92300 5.28800 29.33600
C  -1.70800 5.71000 24.56900
C  0.12600 10.16400 24.67000
N  0.19500 7.47000 29.20100
C  0.43800 8.58600 30.04400
C  0.26600 8.16100 31.55000
C  -0.03700 6.59700 31.42500
C  -0.34200 6.43500 29.90400
C  1.26400 5.69900 31.85500
C  -1.01300 8.91000 32.10000
C  -1.14700 8.89900 33.60900
H  -0.00400 8.50400 34.53900
N  -1.32000 5.79800 26.95800
C  -1.38200 4.95600 28.05700
C  -1.95400 3.66600 27.67100
C  -2.19000 3.79700 26.22600
C  -1.72300 5.11400 25.84800
C  -2.27500 2.61000 28.67000
C  -2.69000 2.72000 25.27000
O  -2.75700 2.89000 24.05700
C  -3.11200 1.45600 25.97300
N  -0.76200 7.94100 24.90300
C  -1.29000 6.96700 24.12800
C  -1.47500 7.44600 22.61500
C  -0.90000 8.88400 22.68500
C  -0.50500 9.00200 24.18900
C  -0.76700 6.50800 21.62200
C  -1.87300 9.88500 22.03500
C  -1.27200 11.01100 21.22900
N  0.11200 9.65500 27.09100
C  0.50200 10.46600 26.02100
C  1.21700 11.63500 26.52800
C  1.16300 11.44900 27.90600
C  0.60900 10.22700 28.18200
C  1.57000 12.95000 25.80300
C  1.47900 12.06300 29.09400
O  2.02900 13.13000 29.23100
C  1.21800 11.07100 30.28300
C  2.43100 10.93800 31.09400
O  3.52900 10.34300 30.86600
O  2.28400 11.82400 32.14400
C  3.17500 11.62900 33.29400
H  -1.11800 4.58800 30.15100
H  -2.07200 5.04200 23.78600
H  0.33200 10.98800 23.98300
H  1.14200 8.31400 32.17900
H  -0.96100 6.26000 31.89500
H  1.07700 5.00400 32.67300
H  2.12700 6.32100 32.09400
H  1.54500 5.15600 30.95300
H  -1.91100 8.36600 31.80800
H  -1.18000 9.91800 31.72000
H  -2.05800 8.39100 33.92500
H  -1.31100 9.89300 34.02600
H  -1.79700 1.64600 28.49400
H  -3.33100 2.38500 28.52100
H  -2.16200 2.80600 29.73600
H  -2.31700 0.86000 26.42000
H  -3.52600 0.78500 25.22000
H  -3.86100 1.85600 26.65600
H  -2.54900 7.35100 22.45400
H  0.09200 8.97400 22.24200
H  0.04500 7.00000 21.08600
H  -1.54800 6.30400 20.88900
H  -0.31900 5.65900 22.13800
H  -2.57300 10.17800 22.81800
H  -2.52800 9.34100 21.35400
H  -1.89600 11.84800 21.54000
H  -1.42500 10.77200 20.17700
H  -0.22200 11.21800 21.43500
H  0.71600 13.51200 25.42300
H  2.18600 12.79400 24.91700
H  2.07000 13.64000 26.48200
H  0.35100 11.58400 30.70000
H  2.69800 11.46800 34.26100
H  3.68400 12.59200 33.32900
H  3.85500 10.80900 33.06200
Mg 35.93600 48.45400 26.33900
C  36.24200 46.35600 29.08300
C  34.15900 50.73900 28.41400
C  35.16500 50.50000 23.59100
C  37.06300 45.99700 24.34200
N  35.09500 48.46600 28.52500
C  35.65600 47.58000 29.40800
C  35.48400 48.22600 30.85000
C  34.46100 49.35800 30.64200
C  34.63400 49.61100 29.13700
C  32.93600 48.97800 30.88600
C  36.78900 48.79900 31.43700
C  37.22100 48.38700 32.87500
H  36.97500 49.52400 33.88600
N  34.89900 50.38700 26.16300
C  34.39300 51.18300 27.11100
C  33.89000 52.43800 26.56100
C  34.22200 52.41800 25.22500
C  34.78800 51.00200 24.89100
C  33.19900 53.44400 27.48600
C  34.23900 53.53600 24.15100
O  34.67500 53.40400 23.02100
C  33.90800 54.89100 24.49400
N  35.93600 48.14800 24.24100
C  35.69500 49.18300 23.39400
C  36.15200 48.79700 21.98700
C  36.96500 47.44800 22.22300
C  36.64200 47.18100 23.69700
C  34.93900 48.68400 21.08100
C  38.48900 47.43200 21.85900
C  38.96200 46.40300 20.77600
N  36.49500 46.53000 26.56100
C  36.98300 45.64400 25.66400
C  37.36300 44.36200 26.34600
C  37.11800 44.64000 27.72800
C  36.54400 45.95300 27.77500
C  37.91700 43.13100 25.70300
C  37.23700 44.15300 29.10400
O  37.54000 43.08200 29.47100
C  36.77400 45.28700 30.02500
C  35.71900 44.74800 30.92300
O  34.69500 44.31200 30.46100
O  36.10600 44.81300 32.24800
C  35.07900 44.53200 33.17000
H  33.69500 51.49600 29.04900
H  34.88600 51.09600 22.72000
H  37.55100 45.24800 23.71500
H  35.09200 47.45200 31.51000
H  34.60800 50.28500 31.19500
H  32.46100 49.50000 31.71600
H  32.82200 47.90600 31.04800
H  32.31400 49.28500 30.04500
H  36.88700 49.88500 31.41000
H  37.57700 48.33700 30.84300
H  38.29300 48.21600 32.78400
H  36.66200 47.53700 33.26700
H  32.99800 54.38900 26.98300
H  33.83100 53.53700 28.37000
H  32.19800 53.09100 27.73000
H  32.95700 54.74300 25.00600
H  33.77800 55.55700 23.64100
H  34.79200 55.13400 25.08300
H  36.86700 49.52200 21.59700
H  36.42700 46.68600 21.66000
H  34.02400 48.79300 21.66200
H  34.82000 47.78900 20.46900
H  34.87300 49.50400 20.36600
H  39.00000 47.14400 22.77800
H  38.77500 48.45600 21.61800
H  38.14300 45.84700 20.32000
H  39.54700 45.69600 21.36400
H  39.61800 46.88700 20.05300
H  38.77900 43.42300 25.10200
H  37.15600 42.75900 25.01600
H  38.19100 42.33900 26.40100
H  37.51800 45.65100 30.73400
H  34.58400 45.46600 33.43600
H  35.65200 44.14400 34.01200
H  34.35100 43.76700 32.89900

