158

Mg 24.43300 -5.37400 46.06000
C  26.42100 -2.83700 44.61000
C  21.92800 -4.31500 43.99900
C  22.94800 -8.22700 46.65500
C  27.34000 -6.37500 47.75300
N  24.37400 -3.77900 44.51300
C  25.20000 -2.79800 44.08700
C  24.51800 -1.90200 43.03900
C  23.02900 -2.14900 43.43100
C  23.09200 -3.51200 43.97800
C  22.33500 -1.19200 44.42000
C  24.80700 -2.36600 41.54800
C  25.51700 -1.40600 40.66500
H  26.27900 -2.06400 39.45400
N  22.74400 -6.18800 45.44300
C  21.80400 -5.55700 44.63900
C  20.60800 -6.39800 44.61700
C  20.83300 -7.60300 45.37000
C  22.20900 -7.39300 45.87600
C  19.40800 -6.15000 43.67800
C  19.86500 -8.75100 45.46300
O  18.75800 -8.78800 44.90800
C  20.34200 -10.05900 46.11500
N  25.07100 -7.08600 47.15100
C  24.23700 -8.15600 47.15900
C  24.99300 -9.39100 47.66800
C  26.34300 -8.75400 48.24600
C  26.25300 -7.30700 47.73900
C  24.17500 -10.32800 48.68400
C  27.55300 -9.60100 47.96100
C  28.45400 -9.94100 49.21400
N  26.45100 -4.69400 46.35100
C  27.46100 -5.16300 47.10600
C  28.66000 -4.30200 46.91700
C  28.24400 -3.38300 45.96300
C  26.88900 -3.64900 45.60200
C  30.02700 -4.40800 47.68600
C  28.71400 -2.31600 45.16600
O  29.81500 -1.88700 45.06200
C  27.57900 -1.92400 44.24500
C  27.31600 -0.50700 44.33200
O  27.76600 0.27100 43.55200
O  26.59100 -0.21000 45.46200
C  26.47000 1.18900 45.79300
H  21.06800 -4.06600 43.37500
H  22.51200 -9.22700 46.70400
H  28.22600 -6.55500 48.36700
H  24.84700 -0.89700 43.30200
H  22.42200 -2.12200 42.52600
H  22.28300 -1.59000 45.43300
H  21.35900 -1.00300 43.97200
H  22.92100 -0.27900 44.52500
H  23.83400 -2.58200 41.10800
H  25.27200 -3.34800 41.62900
H  26.29400 -0.93200 41.26500
H  24.70800 -0.83000 40.21600
H  19.52900 -6.76200 42.78400
H  19.30800 -5.09800 43.41100
H  18.48200 -6.35800 44.21400
H  21.11100 -10.37200 45.41000
H  19.52600 -10.78000 46.05500
H  20.67300 -9.92100 47.14400
H  25.10400 -10.06400 46.81700
H  26.30200 -8.52900 49.31200
H  23.24700 -10.47500 48.13100
H  23.88900 -9.91100 49.64900
H  24.83300 -11.19700 48.71200
H  28.17500 -9.00400 47.29400
H  27.34000 -10.50700 47.39400
H  29.50900 -10.12900 49.01800
H  28.09000 -10.73800 49.86200
H  28.40300 -8.97200 49.71000
H  30.18000 -5.47000 47.88000
H  29.92300 -3.85800 48.62100
H  30.88900 -3.96300 47.18900
H  27.88000 -2.12200 43.21600
H  26.19400 1.31000 46.84100
H  25.64000 1.65900 45.26600
H  27.38600 1.75900 45.63500
Mg 30.39300 58.21900 40.10200
C  27.58300 56.21200 39.34300
C  32.37900 55.52100 39.58700
C  33.00700 60.32300 40.11000
C  28.24400 60.88400 40.72100
N  29.98500 56.10200 39.52600
C  28.81100 55.50900 39.23600
C  29.08700 54.05700 38.75900
C  30.49900 53.78000 39.36200
C  30.99100 55.23700 39.55800
C  30.50500 52.96300 40.65400
C  29.05300 53.98600 37.20600
C  27.88700 53.09100 36.72400
H  27.00800 53.67700 35.59000
N  32.45600 57.94300 39.86000
C  33.07400 56.75600 39.65800
C  34.52500 56.99200 39.72700
C  34.70900 58.36400 39.77800
C  33.37300 58.97900 39.95900
C  35.59600 55.93800 39.58100
C  36.04900 58.99800 39.85300
O  37.14200 58.38400 39.74800
C  36.17600 60.46100 40.26200
N  30.58900 60.37900 40.27400
C  31.78400 60.95400 40.29800
C  31.59100 62.47600 40.53700
C  30.09400 62.59200 40.83100
C  29.56400 61.18400 40.61800
C  32.40000 63.17200 41.64400
C  29.26300 63.66500 40.04000
C  28.37400 64.50500 40.88200
N  28.32000 58.52500 40.10700
C  27.63300 59.67100 40.45100
C  26.26300 59.33800 40.37800
C  26.20100 58.03100 39.92600
C  27.47600 57.55500 39.75500
C  25.11500 60.23100 40.85500
C  25.34200 57.01200 39.61600
O  24.12300 57.04800 39.44800
C  26.10200 55.77600 39.24800
C  25.71600 54.73400 40.26800
O  26.29400 54.54600 41.38900
O  24.67600 54.01300 39.83100
C  24.21000 53.00500 40.77300
H  33.05000 54.66000 39.61200
H  33.79200 61.08200 40.12000
H  27.52900 61.69700 40.86100
H  28.41700 53.35600 39.25700
H  31.05600 53.27200 38.57500
H  29.54500 52.49700 40.87600
H  30.74500 53.42000 41.61300
H  31.19300 52.12900 40.51300
H  29.98700 53.59500 36.80200
H  28.84700 54.99300 36.84200
H  27.21600 52.80300 37.53300
H  28.28500 52.11400 36.45200
H  36.02600 56.06000 38.58700
H  35.08400 54.97900 39.66200
H  36.33200 56.04700 40.37700
H  35.80800 61.07700 39.44200
H  37.22800 60.70600 40.41400
H  35.58400 60.70900 41.14300
H  31.84000 63.01400 39.62200
H  30.01600 62.82500 41.89300
H  33.08200 62.46700 42.11900
H  31.80200 63.64200 42.42500
H  32.99800 64.01100 41.28900
H  28.61600 63.15800 39.32500
H  29.88200 64.25600 39.36500
H  27.43700 64.77600 40.39600
H  28.92100 65.41100 41.14300
H  28.08100 63.98500 41.79400
H  24.25100 60.03500 40.22000
H  25.31100 61.30300 40.87300
H  24.80700 59.99100 41.87300
H  25.75600 55.40700 38.28300
H  24.48200 52.01600 40.40600
H  23.15600 53.28100 40.72000
H  24.50900 53.09400 41.81700

