158

Mg 46.09100 4.54500 47.86200
C  43.78800 7.34900 47.46600
C  43.37100 2.51600 46.81600
C  48.26000 2.01800 47.38000
C  48.60900 6.82400 48.17700
N  43.83700 4.91300 47.27300
C  43.19900 6.09500 47.16200
C  41.70800 5.94300 46.77900
C  41.59700 4.35100 46.61400
C  42.97100 3.86700 46.94500
C  40.49000 3.74200 47.47500
C  41.26700 6.79600 45.52700
C  42.25500 6.92200 44.31200
H  41.55800 6.94100 42.94800
N  45.83300 2.52600 47.38000
C  44.62200 1.90600 47.03100
C  44.94600 0.51600 46.75100
C  46.32600 0.31200 47.02200
C  46.88300 1.61700 47.34000
C  43.94700 -0.51400 46.21400
C  47.01200 -0.98000 46.75000
O  46.42900 -1.98000 46.43800
C  48.51400 -1.01300 46.70900
N  48.11300 4.35900 47.80300
C  48.83000 3.22500 47.76000
C  50.32200 3.50600 47.80400
C  50.38300 5.03500 47.99000
C  48.95300 5.48200 48.01600
C  50.95900 2.60700 48.96200
C  51.03900 5.86500 46.83500
C  52.09800 6.82100 47.37300
N  46.22100 6.62600 47.82300
C  47.32500 7.40000 48.01000
C  46.96400 8.80500 48.00800
C  45.58900 8.86000 47.81600
C  45.20000 7.47400 47.71800
C  47.90900 9.86200 48.28300
C  44.49700 9.73500 47.74500
O  44.38400 10.98000 47.76000
C  43.27500 8.76400 47.48900
C  42.26300 9.05800 48.47900
O  42.08200 8.22900 49.41100
O  41.54800 10.19000 48.25900
C  40.52100 10.46500 49.26000
H  42.59300 1.85400 46.43200
H  49.02500 1.26100 47.19400
H  49.40300 7.57300 48.17800
H  41.12300 6.43200 47.55800
H  41.49600 4.12100 45.55400
H  39.70200 4.46000 47.70100
H  40.89000 3.22700 48.34800
H  40.06100 2.96900 46.83700
H  40.84300 7.75600 45.82100
H  40.32900 6.38500 45.15300
H  42.94700 6.08200 44.36700
H  42.88100 7.81100 44.22400
H  44.16700 -0.72600 45.16800
H  42.90700 -0.18900 46.23200
H  44.03000 -1.44600 46.77300
H  48.92400 -0.79900 47.69600
H  48.95400 -0.27900 46.03500
H  48.97700 -1.94700 46.39000
H  50.79800 3.26100 46.85400
H  50.79800 5.36500 48.94200
H  51.58200 3.30800 49.51800
H  51.76700 2.05500 48.48200
H  50.34300 1.94700 49.57400
H  50.35500 6.40900 46.18400
H  51.65600 5.12000 46.33200
H  53.09900 6.66500 46.97100
H  52.23400 6.90100 48.45100
H  51.92300 7.84600 47.04600
H  48.36800 9.74700 49.26500
H  47.50700 10.86000 48.11100
H  48.72500 9.94100 47.56600
H  42.85200 9.05000 46.52600
H  40.47500 11.53500 49.45800
H  40.65600 10.02800 50.25000
H  39.54800 10.11900 48.91100
Mg -2.20800 35.30100 26.79800
C  -4.08600 33.39400 29.08900
C  -1.25300 37.30300 29.43300
C  -0.85500 37.24400 24.68100
C  -3.53200 33.29300 24.19000
N  -2.73300 35.35800 29.01500
C  -3.36800 34.44200 29.75700
C  -3.08500 34.57300 31.29100
C  -2.47000 36.00300 31.39300
C  -2.08700 36.21900 29.84300
C  -3.35500 37.10500 32.01000
C  -2.35000 33.28900 31.90600
C  -2.81900 32.71800 33.22200
H  -3.22100 33.72000 34.38300
N  -1.18500 36.98100 27.06400
C  -0.80100 37.66900 28.20100
C  0.01100 38.78000 27.94800
C  0.11900 38.80000 26.51700
C  -0.63100 37.64200 26.02400
C  0.72400 39.63200 28.95700
C  0.96700 39.72100 25.69400
O  1.03700 39.55700 24.47900
C  1.66100 40.96900 26.27700
N  -2.22200 35.30100 24.72400
C  -1.55400 36.21300 24.06500
C  -1.43600 35.97800 22.58600
C  -2.05700 34.53000 22.43900
C  -2.66000 34.33800 23.85500
C  -2.04700 37.04600 21.63200
C  -1.13100 33.38000 22.04200
C  -1.10800 33.30700 20.49500
N  -3.53400 33.57200 26.60300
C  -4.01900 32.95500 25.43900
C  -4.74500 31.81300 25.87400
C  -4.81400 31.88100 27.28000
C  -4.10700 33.05300 27.69900
C  -5.30500 30.80400 24.89600
C  -5.39200 31.26600 28.47500
O  -5.99300 30.22900 28.63500
C  -4.95500 32.22900 29.70400
C  -6.15700 32.68500 30.47700
O  -7.15400 33.22100 29.95700
O  -5.88500 32.45800 31.81000
C  -6.90200 32.68700 32.86000
H  -0.90800 37.97300 30.22400
H  -0.27800 37.79000 23.93200
H  -3.73400 32.52400 23.44200
H  -3.98400 34.50700 31.90400
H  -1.53800 35.93600 31.95400
H  -4.37900 36.80300 32.23100
H  -3.34900 37.94800 31.31800
H  -2.84200 37.29900 32.95200
H  -1.31700 33.58800 32.08200
H  -2.19800 32.49400 31.17600
H  -1.97900 32.10000 33.53900
H  -3.60800 31.97400 33.10800
H  1.80500 39.61600 28.81500
H  0.51800 39.36300 29.99300
H  0.37400 40.65900 28.85900
H  0.97100 41.51100 26.92300
H  2.15300 41.43700 25.42500
H  2.52400 40.58600 26.82200
H  -0.37900 36.00800 22.32100
H  -2.80700 34.58200 21.65000
H  -2.67800 37.76300 22.15800
H  -2.63900 36.52900 20.87700
H  -1.25800 37.68600 21.23500
H  -1.46200 32.43000 22.46000
H  -0.20300 33.67700 22.53100
H  -1.74800 32.44400 20.30600
H  -0.16600 32.93700 20.09200
H  -1.47300 34.13200 19.88400
H  -6.11000 31.25700 24.31700
H  -5.72100 29.96400 25.45200
H  -4.59000 30.28100 24.26200
H  -4.35200 31.57000 30.32900
H  -6.78600 33.66800 33.32300
H  -6.79400 31.95500 33.66000
H  -7.91900 32.66600 32.46600

