158

Mg 48.26900 15.78400 27.88400
C  46.31900 15.01300 30.78400
C  50.38700 17.38200 29.93700
C  49.82200 16.70100 25.18900
C  45.72900 14.17000 26.00500
N  48.25900 16.26300 30.00200
C  47.41200 15.84800 31.03500
C  47.92100 16.22300 32.42100
C  49.01000 17.28700 32.10900
C  49.28100 16.90200 30.62200
C  48.58100 18.81100 32.30100
C  48.26700 14.98300 33.23800
C  47.97600 15.05500 34.74100
H  47.36100 16.31400 35.30300
N  49.98300 16.81000 27.59100
C  50.74500 17.39700 28.53300
C  51.97600 17.91100 27.90900
C  51.75700 17.77000 26.46700
C  50.43600 17.15800 26.36000
C  53.05300 18.56800 28.83800
C  52.64900 18.23800 25.36200
O  52.24900 18.16900 24.18400
C  53.97000 18.88300 25.66200
N  47.85400 15.45000 25.87900
C  48.60100 16.04100 24.87700
C  48.12600 15.54500 23.46700
C  46.86700 14.72500 23.75300
C  46.74300 14.83100 25.28600
C  47.76600 16.80300 22.53100
C  46.88300 13.23900 23.26400
C  47.42100 12.17100 24.27900
N  46.43000 14.77400 28.21400
C  45.54800 14.17000 27.36200
C  44.49700 13.56600 28.10300
C  44.72500 13.80600 29.45500
C  45.94500 14.55200 29.48400
C  43.35200 12.67700 27.48000
C  44.29600 13.67800 30.77800
O  43.32100 13.14500 31.28700
C  45.23600 14.50600 31.69200
C  44.41800 15.57700 32.25500
O  44.35400 16.73100 31.84500
O  43.90000 15.17100 33.48400
C  43.09100 16.12700 34.25800
H  51.06000 17.82500 30.67300
H  50.28500 16.97300 24.23800
H  44.87600 13.72600 25.48800
H  47.00900 16.75000 32.70100
H  49.91200 17.05900 32.67600
H  47.55800 18.95700 32.64500
H  48.73000 19.38400 31.38600
H  49.24500 19.20200 33.07200
H  49.34400 14.82400 33.18000
H  47.88200 14.11600 32.70100
H  48.95900 14.88500 35.18100
H  47.28600 14.23500 34.93800
H  54.00000 18.76500 28.33600
H  53.22200 18.02800 29.77000
H  52.64500 19.48700 29.25900
H  53.77700 19.90900 25.97800
H  54.54700 19.01500 24.74700
H  54.53700 18.22100 26.31500
H  48.89900 14.91600 23.02700
H  45.94700 15.14300 23.34500
H  48.53200 16.98700 21.77800
H  47.82500 17.68700 23.16600
H  46.77200 16.79400 22.08300
H  47.49300 13.16900 22.36400
H  45.92600 12.82600 22.94600
H  47.72900 12.57800 25.24200
H  48.27100 11.64700 23.84300
H  46.56500 11.56300 24.57300
H  43.80300 11.71000 27.25700
H  42.97500 13.23700 26.62500
H  42.48800 12.61600 28.14300
H  45.60900 13.96500 32.56200
H  43.08200 17.09500 33.75600
H  43.64600 16.30600 35.17900
H  42.07400 15.79500 34.46900
Mg 42.03300 40.83600 26.78900
C  41.19000 43.01900 29.44900
C  42.79900 38.51800 29.07500
C  42.79600 38.96700 24.19500
C  41.21100 43.54900 24.60300
N  41.95700 40.82800 29.01700
C  41.55700 41.77000 29.91100
C  41.55000 41.27200 31.39700
C  42.06400 39.78100 31.23200
C  42.29700 39.68200 29.71300
C  43.21800 39.30100 32.06600
C  40.06700 41.43200 31.97400
C  39.63600 40.65100 33.24300
H  39.33800 41.44000 34.44100
N  42.76300 39.01700 26.68500
C  42.95000 38.17800 27.72900
C  43.33400 36.86700 27.25500
C  43.51700 37.01400 25.77700
C  42.90500 38.37800 25.49400
C  43.63100 35.72700 28.11000
C  43.98400 35.95400 24.71400
O  43.97200 36.20800 23.50600
C  44.42500 34.60600 25.10200
N  42.03700 41.28600 24.71600
C  42.32400 40.26600 23.88400
C  42.21800 40.77600 22.36800
C  41.46700 42.09800 22.46500
C  41.63800 42.37800 24.00300
C  43.60800 40.77800 21.62500
C  39.99800 41.92200 22.07500
C  39.03100 40.97500 22.93600
N  41.41600 42.93000 26.91400
C  41.09000 43.88500 25.95100
C  40.69100 45.10400 26.60400
C  40.74600 44.81800 27.96700
C  41.18000 43.48500 28.10000
C  40.22600 46.29100 25.93000
C  40.54100 45.34600 29.23800
O  40.15500 46.44400 29.65400
C  40.70600 44.19200 30.24300
C  41.65300 44.67500 31.27500
O  42.86000 44.74500 31.15700
O  40.88000 45.03200 32.38200
C  41.58800 45.68800 33.47900
H  42.88100 37.62800 29.70200
H  43.16900 38.39700 23.34200
H  40.88600 44.31600 23.89600
H  42.25300 41.96500 31.85700
H  41.15000 39.20100 31.36200
H  43.34000 39.91600 32.95700
H  44.14200 39.10200 31.52500
H  42.93600 38.34400 32.50600
H  39.26800 41.38200 31.23400
H  39.96100 42.48500 32.23500
H  40.43600 39.92800 33.40400
H  38.75900 40.02500 33.08200
H  43.13000 34.91300 27.58600
H  43.20700 35.72200 29.11400
H  44.67900 35.43800 28.19300
H  45.16000 34.62200 25.90700
H  44.92800 34.10000 24.27800
H  43.65200 33.88200 25.35900
H  41.61700 40.14200 21.71500
H  41.90800 42.91300 21.89200
H  44.44900 40.92800 22.30100
H  43.82700 41.56200 20.90000
H  43.74400 39.82200 21.11900
H  40.01300 41.56700 21.04400
H  39.67900 42.96300 22.02000
H  39.40400 40.19400 23.59900
H  38.37500 40.50000 22.20600
H  38.39000 41.65400 23.49800
H  41.07000 46.74700 25.41400
H  40.08400 46.96300 26.77600
H  39.22900 46.24800 25.49200
H  39.72000 43.98600 30.65800
H  42.58000 46.01000 33.16300
H  41.62000 44.95200 34.28300
H  40.99100 46.54200 33.80000

