158

Mg -1.62300 17.76900 25.99600
C  -1.74200 15.54000 28.87200
C  -2.55800 20.21900 27.97100
C  -1.65400 19.64100 23.29200
C  -1.46900 14.78000 23.96500
N  -2.25000 17.75500 28.13300
C  -2.05300 16.84600 29.17500
C  -2.58400 17.39700 30.52400
C  -2.93100 18.85400 30.07800
C  -2.58000 18.97000 28.61200
C  -4.25600 19.44300 30.59400
C  -1.57000 17.07600 31.66400
C  -1.36200 18.13400 32.65800
H  -0.79300 17.63200 33.98600
N  -1.77800 19.68800 25.75900
C  -2.25100 20.58700 26.68300
C  -2.21500 21.97000 26.09900
C  -1.70500 21.79800 24.79500
C  -1.62800 20.33500 24.58000
C  -2.70800 23.08000 26.82200
C  -1.34100 22.83300 23.71800
O  -1.11500 22.45800 22.57300
C  -1.15300 24.25000 24.17200
N  -1.82900 17.32800 23.96100
C  -1.72400 18.30900 22.99000
C  -2.05600 17.80800 21.57700
C  -1.58600 16.33400 21.80800
C  -1.61200 16.12100 23.32700
C  -3.53800 18.04400 21.18200
C  -0.19900 15.94600 21.12500
C  1.03700 16.32000 21.91800
N  -1.34800 15.58700 26.32600
C  -1.42000 14.55200 25.39700
C  -1.45400 13.24600 26.06900
C  -1.50300 13.59200 27.44900
C  -1.50700 15.05800 27.54200
C  -1.57000 11.91100 25.50900
C  -1.60100 13.00900 28.79200
O  -1.73600 11.83900 29.13400
C  -1.68100 14.25300 29.81800
C  -0.51300 14.13400 30.64900
O  0.63200 14.57100 30.40200
O  -0.94000 13.61800 31.84100
C  0.02000 13.36200 32.92300
H  -2.73800 21.00000 28.71300
H  -1.58700 20.22600 22.37300
H  -1.58200 13.85800 23.39000
H  -3.54200 16.89000 30.63700
H  -2.15700 19.49200 30.50400
H  -4.81600 18.63500 31.06500
H  -4.78800 20.00100 29.82300
H  -4.01500 20.15500 31.38400
H  -0.61000 16.96200 31.16100
H  -1.75700 16.12600 32.16500
H  -2.23400 18.76900 32.81700
H  -0.65300 18.87500 32.29100
H  -3.48700 22.94500 27.57100
H  -3.06900 23.85400 26.14500
H  -1.83400 23.43900 27.36600
H  -0.30500 24.21900 24.85600
H  -2.07800 24.63500 24.60200
H  -0.95000 24.73700 23.21800
H  -1.36500 18.23800 20.85100
H  -2.40200 15.69400 21.47300
H  -4.12000 17.97900 22.10200
H  -3.91300 17.28800 20.49200
H  -3.80100 19.03100 20.79900
H  -0.08300 16.64600 20.29700
H  -0.19000 14.95300 20.67700
H  0.80500 17.01400 22.72600
H  1.79900 16.90300 21.40000
H  1.44000 15.37800 22.29000
H  -1.03800 11.89500 24.55800
H  -2.59100 11.55200 25.38100
H  -1.02700 11.22800 26.16300
H  -2.50600 14.15300 30.52300
H  1.05100 13.47700 32.58800
H  -0.16100 12.33600 33.24600
H  -0.09600 13.96700 33.82200
Mg 24.68900 -7.87000 45.87700
C  27.12600 -5.52000 45.00700
C  22.39600 -6.38600 43.96100
C  22.61400 -10.45000 46.64800
C  27.30500 -9.59300 47.73500
N  24.76900 -6.18100 44.62900
C  25.92000 -5.35800 44.40000
C  25.52900 -4.21400 43.32400
C  23.93500 -4.35000 43.20800
C  23.68900 -5.72200 43.92600
C  23.20200 -3.16300 43.84200
C  26.29600 -4.45500 42.00200
C  25.68600 -3.61000 40.85000
H  24.90200 -4.22700 39.69600
N  22.81300 -8.37900 45.33900
C  21.97300 -7.55500 44.65400
C  20.65300 -8.19700 44.55000
C  20.68100 -9.34600 45.33600
C  22.11300 -9.46500 45.81300
C  19.47100 -7.61500 43.67300
C  19.39600 -10.22600 45.68500
O  18.30400 -9.97500 45.16200
C  19.48400 -11.50000 46.41200
N  24.94300 -9.72800 46.92700
C  23.92600 -10.52500 47.14000
C  24.25100 -11.75600 48.05100
C  25.83900 -11.66800 48.19200
C  26.07500 -10.25600 47.53200
C  23.58800 -11.70200 49.45000
C  26.72900 -12.72800 47.45500
C  28.00000 -13.25900 48.25400
N  26.82800 -7.57900 46.36600
C  27.66900 -8.30800 47.14200
C  28.91400 -7.61600 47.24700
C  28.74500 -6.50300 46.42100
C  27.47300 -6.52100 45.86600
C  30.13600 -8.10000 48.05100
C  29.38100 -5.37500 45.85300
O  30.54200 -4.97400 46.06600
C  28.42300 -4.67100 44.81500
C  28.30200 -3.25200 45.09600
O  28.82800 -2.44900 44.32000
O  27.44800 -2.92600 46.13600
C  27.00500 -1.50400 46.17100
H  21.64600 -5.86900 43.35900
H  21.88900 -11.23300 46.88000
H  28.05600 -10.18500 48.26200
H  25.94900 -3.33900 43.82100
H  23.64300 -4.49900 42.16800
H  22.74200 -2.66000 42.99200
H  23.66600 -2.47900 44.55100
H  22.36300 -3.51900 44.44000
H  26.11400 -5.51100 41.80300
H  27.28900 -4.04100 42.17500
H  26.54500 -3.00200 40.56600
H  24.92500 -2.93000 41.23400
H  19.56400 -6.53700 43.53800
H  18.50000 -7.75400 44.14800
H  19.51700 -8.22300 42.76900
H  19.95100 -11.23700 47.36100
H  20.15600 -12.14800 45.84900
H  18.52300 -11.99900 46.53300
H  24.06400 -12.64400 47.44800
H  26.16800 -11.71500 49.23100
H  23.14900 -12.69800 49.52100
H  22.80700 -10.95100 49.57300
H  24.19600 -11.75600 50.35300
H  26.94800 -12.31600 46.47000
H  26.10500 -13.59500 47.23400
H  28.23900 -12.71500 49.16800
H  28.86600 -13.18400 47.59600
H  27.80400 -14.32600 48.36600
H  30.50700 -9.00900 47.57700
H  29.88500 -8.20000 49.10700
H  30.85500 -7.28700 47.94800
H  28.90100 -4.74500 43.83900
H  26.45000 -1.28500 45.25900
H  27.81200 -0.79400 45.99100
H  26.36200 -1.29800 47.02700

