158

Mg 35.09100 2.34100 29.12900
C  32.84000 3.52500 31.48000
C  37.41400 2.13700 31.56600
C  37.29900 1.51700 26.75300
C  32.71800 2.98200 26.56600
N  35.16800 2.99200 31.32400
C  34.05500 3.26000 32.03400
C  34.36300 3.21400 33.52300
C  35.95500 2.99600 33.59000
C  36.23000 2.70600 32.05800
C  36.86000 4.26900 34.03000
C  33.45200 2.18400 34.32800
C  33.82700 1.84400 35.80800
H  34.44200 2.97800 36.69000
N  37.11500 1.81800 29.23000
C  37.89100 1.77200 30.30300
C  39.26300 1.47200 29.97400
C  39.21800 1.10900 28.56600
C  37.84700 1.49100 28.08100
C  40.39300 1.43800 31.00000
C  40.26800 0.45300 27.63600
O  39.98900 0.04800 26.53000
C  41.62000 0.26100 28.11700
N  34.94500 2.11400 27.06200
C  36.02500 1.72100 26.28600
C  35.69700 1.77900 24.78800
C  34.12500 1.94300 24.85700
C  33.87100 2.32700 26.24200
C  36.37400 3.00000 24.01800
C  33.26300 0.76400 24.30800
C  32.52500 1.04000 23.01700
N  33.10600 3.03700 29.00700
C  32.28500 3.27300 27.93000
C  30.97200 3.70800 28.35700
C  31.14500 3.73700 29.82100
C  32.48900 3.40400 30.13200
C  29.65200 3.91100 27.64100
C  30.51500 4.03700 31.06100
O  29.40300 4.42700 31.37500
C  31.51400 3.82600 32.17500
C  31.47600 5.03600 33.13600
O  31.57100 6.20100 32.77800
O  31.22000 4.57000 34.37500
C  31.55000 5.67800 35.36700
H  38.19800 2.08100 32.32400
H  37.97400 1.32800 25.91500
H  31.96200 3.01300 25.77800
H  34.14300 4.18800 33.96100
H  36.09800 2.18900 34.30800
H  37.57500 4.11700 34.83900
H  36.24500 5.11900 34.32600
H  37.47300 4.46300 33.15000
H  33.67800 1.31600 33.70800
H  32.38500 2.40600 34.32000
H  34.41500 0.92700 35.84800
H  32.94800 1.55000 36.38200
H  40.27400 2.34200 31.59700
H  41.36100 1.52800 30.50800
H  40.42300 0.52900 31.60000
H  41.89900 1.29200 28.33400
H  42.23300 -0.07600 27.28100
H  41.74900 -0.38900 28.98300
H  36.02100 0.86100 24.29800
H  33.85000 2.80800 24.25300
H  37.25200 3.18500 24.63800
H  35.80500 3.92900 24.02400
H  36.78700 2.74500 23.04200
H  32.55300 0.49600 25.09100
H  33.86400 -0.13200 24.15200
H  32.20400 2.07900 22.93700
H  31.58600 0.49800 22.90700
H  33.32900 0.79800 22.32200
H  29.70200 3.61600 26.59300
H  29.32800 4.94700 27.74900
H  28.97900 3.28800 28.23000
H  31.23300 2.92300 32.71700
H  30.74900 6.40300 35.51700
H  32.45400 6.22800 35.10300
H  31.78300 5.16100 36.29800
Mg 46.67900 16.73900 28.55100
C  44.93200 16.20400 31.40000
C  49.08200 18.31400 30.34100
C  48.17800 17.61500 25.58000
C  44.08000 15.21400 26.61100
N  46.89400 17.37500 30.60600
C  46.04000 16.94600 31.66400
C  46.54900 17.44200 33.01500
C  47.78100 18.34800 32.50400
C  47.95500 18.02400 31.02200
C  47.73000 19.91300 32.59200
C  47.13800 16.31400 33.92200
C  47.65600 16.85600 35.30500
H  47.27700 18.29400 35.70900
N  48.34000 17.91000 28.09500
C  49.25500 18.39500 28.94000
C  50.35000 18.96800 28.17700
C  50.10300 18.80800 26.76300
C  48.81700 18.10000 26.76100
C  51.62100 19.52700 28.96400
C  50.90200 19.24700 25.55400
O  50.38400 19.24000 24.46200
C  52.29900 19.79100 25.71000
N  46.24000 16.48900 26.36500
C  47.01800 16.88400 25.40000
C  46.34700 16.72000 24.06800
C  45.04200 15.91600 24.40300
C  45.14700 15.76000 25.88600
C  46.07400 18.06900 23.27700
C  44.97000 14.49100 23.73800
C  45.71600 13.35900 24.47700
N  44.88200 15.87900 28.86900
C  43.95000 15.28900 28.01300
C  42.88200 14.72800 28.81400
C  43.21900 15.05000 30.13500
C  44.45400 15.76400 30.09500
C  41.74000 13.90500 28.34600
C  42.80100 14.99500 31.53800
O  41.68600 14.74300 32.05800
C  43.96800 15.67800 32.40700
C  43.43200 16.92200 33.18700
O  43.19600 17.99300 32.73800
O  43.15000 16.55500 34.51400
C  42.79600 17.57700 35.44600
H  49.95000 18.73800 30.85000
H  48.68000 17.71800 24.61600
H  43.30900 14.68200 26.05000
H  45.72400 17.98900 33.47200
H  48.75000 18.12100 32.94900
H  46.92100 20.24000 33.24600
H  47.46600 20.29700 31.60700
H  48.74100 20.22000 32.85800
H  48.03100 15.92100 33.43400
H  46.38100 15.55900 34.13400
H  48.72800 16.65900 35.27300
H  47.21800 16.16400 36.02400
H  51.72500 18.92500 29.86600
H  51.56900 20.57700 29.25400
H  52.58300 19.40800 28.46500
H  52.24000 20.69600 26.31400
H  52.75200 20.12700 24.77800
H  52.89800 18.98300 26.13100
H  46.99000 16.08800 23.45500
H  44.21600 16.58500 24.15900
H  45.03200 18.10000 22.96000
H  46.62800 18.03600 22.33800
H  46.39100 18.92300 23.87600
H  45.50400 14.56300 22.79100
H  43.93200 14.22700 23.53800
H  46.33900 12.80000 23.77900
H  44.89200 12.82700 24.95200
H  46.39300 13.78500 25.21800
H  42.21000 13.40600 27.49800
H  40.93200 14.54700 27.99500
H  41.59700 13.11600 29.08400
H  44.33800 14.85200 33.01500
H  41.73300 17.65200 35.67400
H  43.08200 18.55500 35.05800
H  43.35200 17.37900 36.36200

