158

Mg 35.79200 2.66300 30.66300
C  33.20700 3.70300 32.67100
C  37.91100 2.65000 33.46600
C  38.39200 1.68200 28.66800
C  33.68000 2.55900 28.04400
N  35.51900 3.10700 32.79300
C  34.41800 3.59600 33.37100
C  34.74100 3.61700 34.95600
C  36.26400 3.74600 35.03200
C  36.62700 3.07300 33.66300
C  36.74200 5.20700 35.16300
C  34.00100 2.36800 35.53100
C  33.95100 2.27600 37.09400
H  34.07400 3.55400 37.86000
N  37.89200 2.21400 31.03400
C  38.53600 2.24800 32.22300
C  39.92500 1.80700 32.06300
C  40.08500 1.62800 30.64800
C  38.78600 1.79800 30.04300
C  40.89800 1.64400 33.20000
C  41.32400 1.24800 29.87600
O  41.33100 1.16100 28.64200
C  42.68800 1.03700 30.50500
N  36.10000 2.41200 28.63100
C  37.20100 1.91400 28.01400
C  36.92100 1.69800 26.46800
C  35.38900 1.67300 26.39000
C  35.00000 2.24500 27.79200
C  37.56400 2.86900 25.66300
C  34.62900 0.31700 26.03700
C  33.53900 0.54200 24.94000
N  33.80900 3.22200 30.32100
C  33.10700 3.13100 29.18900
C  31.68600 3.51600 29.39800
C  31.64300 3.72100 30.79300
C  32.97000 3.50200 31.27900
C  30.66100 3.62700 28.29400
C  30.83400 4.03400 31.94400
O  29.68000 4.27100 32.08200
C  31.85700 3.96800 33.20500
C  31.76600 5.22200 33.98100
O  31.90800 6.35400 33.54000
O  31.53000 4.93700 35.35700
C  31.33400 6.19200 36.13200
H  38.43500 2.67600 34.42400
H  39.05600 1.22500 27.93200
H  33.03400 2.70600 27.17600
H  34.24500 4.48400 35.39300
H  36.65400 3.20100 35.89200
H  37.32000 5.41800 34.26300
H  37.37100 5.27400 36.05000
H  35.96600 5.96900 35.24600
H  34.64300 1.52200 35.28700
H  33.00900 2.26600 35.09200
H  34.58300 1.55900 37.61800
H  32.96100 1.88200 37.32400
H  41.49600 0.73300 33.15800
H  40.40800 1.64800 34.17400
H  41.58500 2.48800 33.13000
H  43.47200 1.15300 29.75600
H  42.62100 0.00800 30.85800
H  42.81400 1.73700 31.33100
H  37.41400 0.78400 26.13600
H  35.06700 2.48800 25.74200
H  36.92000 3.22100 24.85700
H  38.50900 2.47700 25.28600
H  37.92200 3.61800 26.36900
H  34.16300 -0.14800 26.90500
H  35.34400 -0.41400 25.65800
H  33.76500 0.03400 24.00200
H  33.37100 1.59600 24.71800
H  32.61900 0.08100 25.29900
H  29.88400 2.89100 28.49900
H  31.12100 3.66200 27.30600
H  30.07600 4.54700 28.30200
H  31.60500 3.14500 33.87400
H  32.23200 6.79100 36.28200
H  30.93600 5.85900 37.09100
H  30.53700 6.83100 35.75300
Mg -10.01500 16.81500 40.98400
C  -6.49300 16.65200 40.94900
C  -9.83100 20.12300 40.66100
C  -13.21500 16.74000 39.87900
C  -9.89400 13.22400 40.78100
N  -8.35300 18.24700 40.78200
C  -6.97300 17.97200 40.69300
C  -6.12800 19.23800 40.60700
C  -7.28100 20.24000 41.00100
C  -8.59400 19.52500 40.80400
C  -7.15000 21.02400 42.33800
C  -5.45300 19.42300 39.20900
C  -3.95100 19.01100 39.09100
H  -3.52300 18.19900 37.83900
N  -11.46300 18.23600 40.57700
C  -11.12800 19.58600 40.51400
C  -12.29200 20.33400 40.24600
C  -13.34600 19.40600 39.96300
C  -12.77000 18.06300 40.14200
C  -12.25200 21.75300 39.93700
C  -14.69900 19.73000 39.60900
O  -15.05600 20.92600 39.61200
C  -15.79100 18.66300 39.37300
N  -11.37200 15.21400 40.57800
C  -12.61600 15.47600 40.05200
C  -13.36500 14.16400 39.62800
C  -12.30500 13.12500 39.92900
C  -11.09300 13.87900 40.42000
C  -14.76500 14.03100 40.29600
C  -12.04200 11.99800 38.80700
C  -13.29900 11.46000 38.08000
N  -8.55600 15.24000 41.02600
C  -8.71200 13.86900 41.01400
C  -7.36400 13.23500 41.23600
C  -6.48800 14.29200 41.20800
C  -7.24100 15.47500 41.06300
C  -7.00100 11.89200 41.44000
C  -5.11700 14.69700 41.26300
O  -4.12600 14.00500 41.46700
C  -5.02000 16.22000 41.04500
C  -4.30500 16.69100 42.27000
O  -3.10300 16.80300 42.43200
O  -5.18700 17.23200 43.16400
C  -4.66800 17.72300 44.42000
H  -9.68400 21.20400 40.60800
H  -14.21600 16.64000 39.45400
H  -9.93400 12.13400 40.72100
H  -5.38500 19.13900 41.39900
H  -7.21000 20.94800 40.17500
H  -8.07100 20.89500 42.90700
H  -7.07100 22.09700 42.16500
H  -6.36400 20.62300 42.97800
H  -5.42500 20.45900 38.87200
H  -5.93800 18.73700 38.51500
H  -3.77900 18.56500 40.07000
H  -3.31100 19.89300 39.08600
H  -12.36200 21.91600 38.86500
H  -11.34200 22.33700 40.07600
H  -13.06200 22.26200 40.45900
H  -16.75800 19.16300 39.30500
H  -15.65900 18.04700 40.26200
H  -15.67900 18.02600 38.49600
H  -13.73500 14.19900 38.60300
H  -12.53800 12.49900 40.79100
H  -14.71500 13.16900 40.96000
H  -15.62900 13.83400 39.66100
H  -14.96800 14.87200 40.95900
H  -11.63800 11.15400 39.36500
H  -11.39900 12.52500 38.10200
H  -13.31500 11.60900 37.00000
H  -14.11200 12.07900 38.45800
H  -13.57800 10.46600 38.43000
H  -6.98900 11.68100 42.50900
H  -5.94800 11.82500 41.16600
H  -7.64600 11.20200 40.89700
H  -4.41700 16.44900 40.16600
H  -4.07900 18.62200 44.23400
H  -4.14200 16.99500 45.03700
H  -5.54200 17.95500 45.02900

