158

Mg 53.68100 22.59700 45.12400
C  51.49400 25.12400 43.98800
C  51.52500 20.32200 43.52700
C  56.03500 20.28600 45.53000
C  55.85700 25.06100 46.15900
N  51.76900 22.68600 44.06300
C  51.15500 23.84000 43.63600
C  49.95800 23.54200 42.76900
C  49.61700 22.07700 43.22300
C  51.03400 21.60500 43.61000
C  48.61700 21.99900 44.41400
C  50.23700 23.65800 41.23900
C  49.04900 24.15100 40.38800
H  48.49700 23.14100 39.32600
N  53.87600 20.69200 44.42600
C  52.85600 19.94400 43.93400
C  53.29300 18.52100 43.87600
C  54.60500 18.48800 44.41800
C  54.92000 19.84800 44.78800
C  52.36700 17.44500 43.35000
C  55.49900 17.21900 44.53200
O  55.01300 16.09400 44.24000
C  56.96700 17.39700 44.62400
N  55.76400 22.71200 45.72000
C  56.51400 21.56300 45.85400
C  57.84800 21.86800 46.41400
C  57.73800 23.34400 46.80000
C  56.41700 23.77500 46.11000
C  58.32100 20.95400 47.69200
C  58.91900 24.26200 46.25900
C  59.71000 25.13100 47.24700
N  53.70600 24.68100 45.18700
C  54.62000 25.51100 45.66900
C  54.22700 26.86800 45.73900
C  52.97500 26.80800 45.01400
C  52.71800 25.48000 44.67300
C  54.87900 28.08400 46.33400
C  51.82400 27.56800 44.57700
O  51.61300 28.78100 44.71100
C  50.83000 26.53600 43.84100
C  50.39500 26.90800 42.44800
O  51.17900 27.06600 41.54600
O  49.00100 27.00200 42.41200
C  48.59400 27.38100 41.04900
H  50.71000 19.71900 43.12100
H  56.71100 19.48500 45.83600
H  56.65900 25.74000 46.45600
H  49.13000 24.18600 43.06500
H  49.15600 21.46100 42.45100
H  47.76300 21.39800 44.10200
H  48.14900 22.96000 44.62700
H  49.01300 21.64800 45.36600
H  50.45900 22.64700 40.89700
H  51.09100 24.30300 41.03400
H  49.44600 24.98700 39.81300
H  48.23000 24.48300 41.02700
H  52.55400 16.38400 43.51400
H  52.37700 17.52000 42.26200
H  51.32700 17.68900 43.56900
H  57.39600 18.25100 44.09900
H  57.47200 16.53500 44.18800
H  57.18900 17.48700 45.68700
H  58.48600 21.71400 45.54400
H  57.57200 23.46000 47.87100
H  59.01900 20.20500 47.31700
H  57.41500 20.52100 48.11400
H  58.78500 21.57600 48.45800
H  58.68400 24.96300 45.45800
H  59.72300 23.59300 45.95300
H  60.79300 25.25700 47.21400
H  59.48200 24.75000 48.24300
H  59.42400 26.18200 47.23100
H  55.80300 27.86300 46.86800
H  54.18900 28.56000 47.03100
H  55.07000 28.81000 45.54400
H  49.93800 26.56600 44.46700
H  49.18800 26.91600 40.26300
H  48.51800 28.46900 41.02800
H  47.64200 26.86600 40.92200
Mg -0.64500 44.11800 26.80900
C  1.63000 44.11700 29.43900
C  -3.09100 42.92500 28.98100
C  -2.82500 43.74700 24.18300
C  1.86400 44.82000 24.61800
N  -0.68900 43.59500 28.98900
C  0.30000 43.88600 29.87600
C  -0.17900 43.57900 31.25400
C  -1.56400 42.89500 31.02400
C  -1.86100 43.12000 29.56900
C  -1.64400 41.33000 31.40200
C  -0.28300 44.90100 32.14000
C  0.00200 44.78300 33.60000
H  0.15700 43.47500 34.24700
N  -2.70100 43.52800 26.65000
C  -3.46800 43.02500 27.59500
C  -4.71600 42.57300 27.04100
C  -4.73400 42.92700 25.64300
C  -3.36300 43.44600 25.42500
C  -5.73100 41.78700 27.93800
C  -5.80700 42.68500 24.57500
O  -5.67700 42.93200 23.39900
C  -7.09900 42.16200 25.06000
N  -0.51500 44.36200 24.68200
C  -1.51100 44.24800 23.84300
C  -1.11700 44.54800 22.36600
C  0.23500 45.24400 22.62900
C  0.57200 44.78300 24.05900
C  -1.15500 43.21900 21.44600
C  0.19200 46.76800 22.67500
C  1.34700 47.41900 21.92600
N  1.47000 44.45300 26.96300
C  2.29600 44.68900 25.96200
C  3.64400 44.74000 26.54400
C  3.47900 44.57100 27.93400
C  2.12100 44.38200 28.08500
C  4.95800 44.86400 25.83800
C  4.12800 44.44200 29.22300
O  5.29600 44.56400 29.58900
C  2.95900 44.09200 30.23900
C  3.19800 42.73400 30.74800
O  3.16200 41.72100 30.06400
O  3.56400 42.75400 32.05800
C  3.76100 41.40400 32.63800
H  -3.80600 42.52600 29.70300
H  -3.50500 43.56100 23.35000
H  2.67200 45.03400 23.91500
H  0.54500 42.87200 31.66000
H  -2.30400 43.46100 31.59000
H  -0.83700 41.01600 32.06500
H  -1.57000 40.67400 30.53500
H  -2.49900 41.18900 32.06400
H  -1.28300 45.31500 32.01400
H  0.39500 45.67400 31.77900
H  -0.80000 45.37800 34.03700
H  0.94600 45.30900 33.74400
H  -6.78600 41.98300 27.74500
H  -5.64500 42.15600 28.96000
H  -5.60800 40.71000 28.04300
H  -7.63400 41.89100 24.15000
H  -7.62700 42.93000 25.62500
H  -7.02300 41.28300 25.70000
H  -1.71200 45.34000 21.91100
H  0.89500 44.75300 21.91400
H  -0.19000 42.92600 21.03300
H  -1.91600 43.45200 20.70100
H  -1.55300 42.37700 22.01200
H  0.16800 47.08700 23.71700
H  -0.72700 47.15500 22.23500
H  2.08500 46.66000 21.66800
H  1.85200 48.20100 22.49300
H  0.83700 47.89600 21.08800
H  5.00400 43.97700 25.20600
H  5.84300 44.87200 26.47600
H  4.90200 45.74700 25.20200
H  2.90500 44.78100 31.08200
H  2.92300 41.01000 33.21200
H  4.56100 41.32000 33.37300
H  4.12400 40.68700 31.90200

