158

Mg 41.29000 8.98300 29.58700
C  43.20900 9.86100 32.46900
C  39.01600 7.54000 31.70000
C  39.52900 7.85900 26.83900
C  43.86300 9.98000 27.64500
N  41.26300 8.61400 31.84300
C  42.16500 9.06400 32.80600
C  41.61800 8.75500 34.21700
C  40.30200 7.85900 33.90700
C  40.16800 8.07200 32.36700
C  40.35400 6.37400 34.28100
C  41.29900 10.03400 35.12600
C  40.74900 9.66100 36.47500
H  41.58500 10.10600 37.76000
N  39.50300 7.85300 29.30100
C  38.73100 7.34300 30.32700
C  37.62800 6.55800 29.71600
C  37.64300 6.78600 28.30800
C  38.91400 7.50100 28.06000
C  36.49300 5.93000 30.52200
C  36.59200 6.46100 27.19600
O  36.73600 6.72900 26.00900
C  35.25100 5.89600 27.57300
N  41.76300 8.71700 27.55800
C  40.78900 8.37400 26.60800
C  41.35600 8.67800 25.18400
C  42.73800 9.39600 25.46400
C  42.74200 9.47500 26.97100
C  41.46900 7.41800 24.17800
C  42.89600 10.69300 24.65900
C  41.75700 11.62300 24.70600
N  43.14400 9.75300 29.89400
C  44.08700 10.09600 29.03300
C  45.21600 10.68900 29.76700
C  44.80300 10.68300 31.05000
C  43.54100 10.10600 31.12000
C  46.45800 11.18000 29.06200
C  45.28600 11.07000 32.36400
O  46.31100 11.66900 32.71600
C  44.22600 10.54500 33.38500
C  44.79800 9.56500 34.37000
O  44.84600 8.31400 34.37000
O  45.34500 10.29700 35.38100
C  45.97900 9.66800 36.47000
H  38.21700 7.23900 32.38200
H  38.93300 7.69800 25.93800
H  44.70500 10.36800 27.06800
H  42.33900 8.09600 34.70100
H  39.45200 8.22800 34.48100
H  41.29700 6.06700 34.73300
H  40.15300 5.71900 33.43300
H  39.55200 6.13800 34.98100
H  40.56000 10.62600 34.58600
H  42.14000 10.69700 35.33100
H  40.55300 8.59000 36.41800
H  39.78300 10.14600 36.61800
H  36.60800 5.93700 31.60600
H  36.18300 4.91100 30.28800
H  35.56000 6.45400 30.31600
H  35.51600 4.95000 28.04600
H  34.48400 5.80100 26.80400
H  34.78600 6.53700 28.32100
H  40.71900 9.25900 24.51800
H  43.58700 8.75600 25.22100
H  40.93500 6.58900 24.64200
H  42.50200 7.15000 23.95900
H  40.83100 7.69200 23.33800
H  43.00700 10.43500 23.60600
H  43.84900 11.19500 24.82900
H  41.30600 11.73300 23.72000
H  42.09900 12.64000 24.89800
H  40.99900 11.40500 25.45800
H  46.27500 12.13400 28.56800
H  46.80000 10.40700 28.37400
H  47.20200 11.33300 29.84500
H  43.77600 11.46800 33.75200
H  46.65100 8.82600 36.30500
H  45.13700 9.33600 37.07700
H  46.55400 10.33600 37.11100
Mg -9.92700 39.77300 39.75100
C  -8.61100 36.60400 38.98600
C  -6.91400 41.16100 38.94000
C  -11.44300 42.91600 39.61700
C  -13.01500 38.33900 39.90800
N  -8.00900 38.90700 39.04500
C  -7.67900 37.60100 38.86900
C  -6.20200 37.50200 38.49300
C  -5.61700 38.92200 38.70800
C  -6.92000 39.74800 38.84800
C  -4.56100 39.12400 39.84800
C  -6.02500 36.98400 37.02200
C  -6.69700 37.79700 35.79700
H  -7.45400 37.05500 34.71300
N  -9.19500 41.80700 39.38400
C  -7.94400 42.13600 39.06200
C  -7.86900 43.55700 38.87700
C  -9.11400 44.09500 39.14000
C  -10.01700 42.93500 39.39600
C  -6.65300 44.26000 38.23700
C  -9.45600 45.65400 38.99700
O  -8.63100 46.52100 38.72600
C  -10.90700 46.15700 39.24000
N  -11.89800 40.52800 39.85800
C  -12.31000 41.82500 39.85500
C  -13.85300 42.00900 40.01500
C  -14.31400 40.54200 39.99300
C  -12.99100 39.74600 39.90000
C  -14.34400 42.80100 41.23600
C  -15.28500 40.25800 38.76700
C  -16.34600 39.12100 38.93700
N  -10.70600 37.78700 39.78700
C  -12.02500 37.39500 39.72000
C  -12.04400 35.94700 39.70200
C  -10.74800 35.57900 39.38400
C  -9.98300 36.77300 39.41700
C  -13.32900 35.11500 39.82500
C  -9.88800 34.45200 39.05500
O  -10.13200 33.27400 38.92200
C  -8.47400 35.10200 38.85700
C  -7.42000 34.50500 39.82200
O  -7.55600 34.35400 41.01900
O  -6.42300 34.01500 39.04200
C  -5.42900 33.06700 39.70100
H  -5.88500 41.51700 38.85700
H  -12.09300 43.79300 39.63700
H  -14.00600 37.89000 39.99600
H  -5.77200 36.71300 39.11000
H  -5.13900 39.26000 37.78900
H  -4.71500 40.16000 40.14900
H  -3.54000 38.94600 39.51000
H  -4.80900 38.41900 40.64100
H  -6.35300 35.96700 36.80400
H  -4.95000 37.03100 36.84900
H  -5.86800 38.22300 35.23100
H  -7.31300 38.64900 36.08400
H  -6.69400 44.51000 37.17700
H  -5.72900 43.68500 38.28600
H  -6.54400 45.13900 38.87200
H  -11.33200 45.72400 40.14600
H  -11.53600 45.74000 38.45300
H  -11.09800 47.22600 39.14700
H  -14.11600 42.62800 39.15800
H  -14.82000 40.31500 40.93100
H  -14.87000 42.25100 42.01600
H  -14.96400 43.68200 41.07100
H  -13.46800 43.27100 41.68400
H  -14.69000 40.11400 37.86600
H  -15.86000 41.16600 38.58400
H  -17.32500 39.59900 38.91600
H  -16.21500 38.62400 39.89800
H  -16.32800 38.36500 38.15200
H  -14.05900 35.60700 39.18200
H  -13.68200 35.02300 40.85200
H  -13.25300 34.05400 39.58700
H  -8.14000 34.79100 37.86700
H  -5.80200 32.09800 39.36700
H  -5.30200 32.94700 40.77700
H  -4.52600 33.07000 39.09000

