158

Mg 41.12800 7.91600 28.75700
C  42.93900 9.20300 31.44300
C  38.74500 6.75100 31.02200
C  39.52000 6.39800 26.19300
C  43.75900 8.84700 26.68000
N  40.94800 7.86300 31.02200
C  41.78500 8.57100 31.92200
C  41.26200 8.50600 33.32000
C  39.94500 7.67600 33.21000
C  39.90900 7.33600 31.68400
C  39.82800 6.43200 34.16500
C  41.24500 9.89900 34.03400
C  40.45400 10.04300 35.32800
H  41.36400 10.00000 36.63900
N  39.31400 6.84100 28.59100
C  38.46600 6.49700 29.66500
C  37.35400 5.77800 29.09000
C  37.47500 5.72700 27.64900
C  38.86200 6.25200 27.40800
C  36.24300 5.20900 29.85900
C  36.46200 5.42200 26.55700
O  36.64000 5.61600 25.40600
C  35.03800 5.03600 26.93800
N  41.58100 7.66400 26.74300
C  40.81600 6.93500 25.89800
C  41.37200 6.95200 24.43800
C  42.58600 7.96800 24.60400
C  42.61200 8.28600 26.08300
C  41.69700 5.55600 23.91200
C  42.38200 9.29700 23.80700
C  40.99900 10.00200 23.80200
N  43.01300 8.77800 28.94000
C  43.94200 9.12900 28.05100
C  45.02700 9.77600 28.64100
C  44.60300 9.88800 29.94900
C  43.42800 9.23700 30.10800
C  46.10700 10.47800 27.81000
C  44.91500 10.54300 31.18200
O  45.78700 11.43600 31.33400
C  43.83200 10.07000 32.22100
C  44.52700 9.24300 33.31800
O  44.73400 8.04500 33.44100
O  44.87900 10.14700 34.33800
C  45.72900 9.61000 35.38400
H  37.99200 6.52300 31.77900
H  38.98100 6.01300 25.32500
H  44.42500 9.35100 25.97600
H  42.04900 7.87200 33.72700
H  39.13000 8.38300 33.36400
H  39.61600 5.50800 33.62800
H  38.87300 6.61100 34.65900
H  40.57800 6.36900 34.95400
H  41.04200 10.71200 33.33700
H  42.29100 10.00600 34.32400
H  39.87000 9.13800 35.49400
H  39.83900 10.94300 35.32100
H  36.29600 5.29300 30.94500
H  36.07800 4.18700 29.51800
H  35.32600 5.67900 29.50600
H  34.98700 4.30400 27.74400
H  34.49500 4.74500 26.03800
H  34.46000 5.83300 27.40500
H  40.50000 7.32800 23.90300
H  43.54200 7.53600 24.31100
H  41.75900 4.94900 24.81500
H  42.70600 5.62600 23.50500
H  40.84700 5.28000 23.28900
H  42.59100 9.06700 22.76300
H  43.11900 9.97300 24.24200
H  41.25900 10.97800 24.21000
H  40.26600 9.57600 24.48700
H  40.55000 10.13300 22.81700
H  46.88600 10.90200 28.44500
H  45.49200 11.27500 27.39300
H  46.61900 10.02700 26.96000
H  43.40600 10.94300 32.71500
H  45.05200 9.52700 36.23400
H  46.56100 10.22900 35.72000
H  46.14400 8.60800 35.28200
Mg 34.90900 49.67200 25.78900
C  35.03500 47.86700 28.87900
C  33.94300 52.31900 27.38700
C  34.59100 50.95000 22.75200
C  35.39400 46.47700 24.22000
N  34.51000 50.01400 27.92800
C  34.69000 49.22700 28.98700
C  34.18000 49.92600 30.28400
C  33.77000 51.26600 29.72000
C  34.08600 51.26700 28.26200
C  32.28100 51.60800 29.88900
C  35.31200 50.05500 31.34200
C  35.04300 49.71200 32.86300
H  33.53000 49.69900 33.19900
N  34.49100 51.44900 25.13700
C  34.08900 52.41500 25.94000
C  33.86400 53.56300 25.13300
C  34.05500 53.14100 23.77100
C  34.42300 51.77900 23.83000
C  33.45000 54.83700 25.75700
C  33.83800 53.98100 22.48600
O  33.99300 53.59000 21.34700
C  33.39700 55.43900 22.55200
N  35.05600 48.81500 23.67900
C  34.88700 49.58900 22.64000
C  35.03200 48.81400 21.28300
C  35.26400 47.34200 21.75700
C  35.27300 47.52300 23.31800
C  33.69500 48.91200 20.46600
C  36.57700 46.75900 21.17300
C  37.88500 46.95200 21.88300
N  35.26900 47.65300 26.33900
C  35.43700 46.53600 25.60500
C  35.71300 45.38400 26.40700
C  35.52700 45.86700 27.69500
C  35.21200 47.22900 27.63600
C  36.01200 43.96000 26.01000
C  35.44300 45.47900 29.06000
O  35.64500 44.39700 29.56300
C  35.13700 46.73700 29.94200
C  33.90600 46.42200 30.74800
O  32.77000 46.55400 30.44800
O  34.27500 45.72100 31.90700
C  33.14200 45.14100 32.66700
H  33.55000 53.21600 27.87100
H  34.41800 51.33600 21.74500
H  35.65000 45.57600 23.65900
H  33.31800 49.30100 30.51500
H  34.35300 52.03500 30.22700
H  31.76100 51.41000 28.95200
H  32.19100 52.65700 30.17100
H  31.84800 51.08400 30.74100
H  35.79400 51.02500 31.22600
H  36.13700 49.37200 31.13900
H  35.59200 50.41600 33.48800
H  35.42600 48.70400 33.02500
H  33.60200 54.95500 26.83000
H  32.41600 54.93700 25.42900
H  34.02700 55.64200 25.30200
H  34.26600 56.04700 22.80600
H  32.68500 55.57500 23.36500
H  32.84000 55.81700 21.69500
H  35.91800 49.25100 20.82400
H  34.43900 46.65200 21.57600
H  32.96400 49.57000 20.93600
H  33.20400 47.97200 20.21100
H  33.93700 49.51900 19.59400
H  36.58200 47.30200 20.22800
H  36.37700 45.72600 20.89100
H  38.02200 45.96300 22.32100
H  37.88000 47.57300 22.77900
H  38.60500 47.36000 21.17400
H  35.13500 43.41300 25.66400
H  36.37800 43.35300 26.83800
H  36.76300 43.94800 25.22000
H  36.01600 46.95600 30.54900
H  32.66800 44.35500 32.07800
H  32.38600 45.87400 32.94800
H  33.63600 44.71100 33.53900

