158

Mg 36.29100 49.16000 25.38800
C  36.27700 47.15000 28.35200
C  35.07400 51.77100 27.36200
C  35.65800 50.85100 22.67100
C  36.98600 46.25700 23.60800
N  35.71300 49.45100 27.55700
C  35.91300 48.49400 28.55400
C  35.63800 49.05400 29.96600
C  35.10800 50.44600 29.63400
C  35.25500 50.59100 28.11000
C  33.60400 50.79000 30.05300
C  36.92000 49.10300 30.84100
C  36.77600 48.66300 32.27700
H  35.47500 49.00000 32.99000
N  35.44300 51.06700 25.01500
C  35.07600 52.00600 25.92500
C  34.94500 53.31600 25.30800
C  35.17300 53.07300 23.89800
C  35.48200 51.60400 23.79400
C  34.50900 54.57900 26.14400
C  35.06500 54.06100 22.82700
O  35.14000 53.65600 21.65100
C  34.84300 55.53900 23.14200
N  36.34900 48.58400 23.41100
C  35.96600 49.46100 22.48800
C  36.12200 48.80000 21.03800
C  36.79700 47.45100 21.40100
C  36.72800 47.41900 22.92700
C  34.76000 48.72200 20.29900
C  38.23900 47.36800 20.77900
C  39.48600 48.02600 21.53900
N  36.65000 47.13000 25.84000
C  37.00600 46.10400 24.96700
C  37.30100 44.91500 25.75800
C  36.98700 45.26000 27.08200
C  36.63000 46.64300 27.08800
C  37.89600 43.64700 25.25600
C  37.04700 44.78500 28.49500
O  37.38500 43.77100 29.04100
C  36.47000 46.06500 29.38800
C  35.19100 45.71600 30.09000
O  34.18500 45.23900 29.53400
O  35.36200 45.83400 31.42300
C  34.26000 45.25000 32.18800
H  34.71100 52.54200 28.04400
H  35.39800 51.41000 21.77000
H  37.23000 45.48000 22.88000
H  34.85500 48.41100 30.36700
H  35.65800 51.26100 30.10300
H  33.78200 51.60800 30.75100
H  33.38000 49.87400 30.60000
H  32.93500 51.07900 29.24300
H  37.20300 50.15200 30.92900
H  37.73800 48.55600 30.37400
H  37.44400 49.24000 32.91700
H  37.02500 47.60200 32.29100
H  35.32000 55.27600 25.93600
H  34.27700 54.36400 27.18800
H  33.56500 54.98900 25.78500
H  35.72800 55.94500 23.63100
H  33.84200 55.75200 23.51900
H  34.74400 55.94500 22.13500
H  36.79900 49.41100 20.44000
H  36.22700 46.59000 21.05100
H  33.94400 49.01700 20.95800
H  34.52000 47.70100 20.00200
H  34.68400 49.36300 19.42000
H  38.21800 47.78100 19.77000
H  38.55300 46.33100 20.66200
H  39.31900 48.36300 22.56300
H  39.80000 48.91800 20.99700
H  40.30600 47.31300 21.46700
H  38.37700 43.79400 24.28900
H  36.97300 43.11800 25.01700
H  38.54400 43.19700 26.00800
H  37.30400 46.44800 29.97600
H  34.57000 45.06000 33.21600
H  33.90400 44.32500 31.73300
H  33.41300 45.93500 32.16700
Mg -0.04300 43.76600 26.06700
C  2.09500 43.15500 28.79800
C  -2.65500 42.75700 28.09900
C  -2.07800 43.98600 23.39600
C  2.83800 44.02300 24.05100
N  -0.23900 42.95000 28.17200
C  0.76200 42.92100 29.10400
C  0.19000 42.72800 30.54700
C  -1.31000 42.27700 30.19100
C  -1.40700 42.60800 28.71500
C  -1.63500 40.75600 30.58500
C  0.28700 44.05900 31.33600
C  0.49100 43.98900 32.88200
H  0.39100 42.62300 33.64100
N  -2.12500 43.57800 25.82600
C  -3.05100 43.20100 26.79000
C  -4.41800 43.32800 26.28800
C  -4.22100 43.62400 24.90900
C  -2.72700 43.69900 24.63500
C  -5.67700 43.20800 27.07900
C  -5.31300 43.88100 23.87700
O  -4.97200 44.03700 22.68700
C  -6.79500 43.92200 24.23000
N  0.29400 43.89800 23.99600
C  -0.70500 44.08400 23.11800
C  -0.10200 44.37600 21.71300
C  1.41400 44.56000 22.00700
C  1.55900 44.13600 23.43500
C  -0.49700 43.26000 20.68000
C  1.98200 45.99400 21.82500
C  1.83100 46.99000 22.97300
N  2.07700 43.55800 26.34800
C  3.08900 43.76400 25.40700
C  4.40300 43.75200 26.09100
C  4.08700 43.53400 27.44200
C  2.65200 43.36900 27.52000
C  5.77300 44.00700 25.49100
C  4.60000 43.44300 28.77500
O  5.80300 43.49700 29.14700
C  3.31500 43.24800 29.73800
C  3.63200 42.01900 30.44500
O  3.54500 40.91400 29.99600
O  3.76800 42.22800 31.79600
C  4.12300 41.07300 32.60300
H  -3.46000 42.54600 28.80500
H  -2.83700 44.13100 22.62400
H  3.67700 44.07400 23.35500
H  0.67700 41.84100 30.95300
H  -2.07300 42.96600 30.55500
H  -1.21300 40.16100 29.77500
H  -2.71000 40.66700 30.42900
H  -1.33900 40.37300 31.56200
H  -0.64400 44.58000 31.11200
H  1.05100 44.62400 30.80300
H  -0.26200 44.68200 33.25700
H  1.40000 44.52000 33.16600
H  -5.48300 42.65700 28.00000
H  -6.48200 42.67000 26.57900
H  -6.08600 44.15800 27.42200
H  -7.18400 44.23000 23.26000
H  -7.03300 44.62600 25.02800
H  -7.08100 42.90800 24.50800
H  -0.47600 45.36200 21.43600
H  1.95300 43.85100 21.38000
H  0.38600 43.04700 20.07800
H  -1.20700 43.71800 19.99200
H  -0.83800 42.33600 21.14600
H  1.40300 46.51300 21.06000
H  3.04400 45.98000 21.58100
H  1.64600 46.63900 23.98900
H  1.11100 47.79100 22.80400
H  2.78900 47.46000 23.19900
H  5.85900 45.01900 25.09500
H  6.01500 43.30000 24.69700
H  6.56300 44.05200 26.24100
H  3.22000 43.94900 30.56800
H  5.19400 41.12300 32.79700
H  3.87700 40.14700 32.08300
H  3.54400 41.10400 33.52600

