158

Mg 17.06200 -2.72000 29.01500
C  15.93200 -0.50200 31.54700
C  18.75600 -4.45500 31.29300
C  18.33400 -4.50300 26.44300
C  15.53600 -0.60400 26.66100
N  17.39900 -2.45100 31.21100
C  16.77200 -1.50400 32.04600
C  17.14300 -1.76800 33.55100
C  18.21000 -2.99300 33.45100
C  18.08100 -3.38800 31.93600
C  19.72300 -2.72100 33.82000
C  15.92400 -2.07800 34.43400
C  16.06700 -1.67000 35.90400
H  17.47200 -1.21800 36.45200
N  18.25800 -4.33100 28.93000
C  18.82400 -4.97600 29.96400
C  19.40100 -6.17700 29.43600
C  19.22600 -6.23100 28.04700
C  18.58200 -4.94400 27.75300
C  19.94400 -7.26800 30.33200
C  19.48500 -7.37400 27.12600
O  19.27700 -7.30900 25.92700
C  19.99300 -8.65400 27.63700
N  16.99700 -2.53400 26.83700
C  17.53500 -3.47100 26.01000
C  17.27000 -3.21800 24.55800
C  16.53200 -1.79100 24.60800
C  16.20800 -1.73000 26.12300
C  18.55600 -3.25600 23.69000
C  15.27600 -1.54700 23.66600
C  15.72500 -1.32300 22.15800
N  15.90200 -0.96500 29.01500
C  15.26200 -0.23200 28.00500
C  14.64000 0.96500 28.59800
C  14.87600 0.76100 29.91900
C  15.68400 -0.31300 30.18000
C  13.93500 2.10300 27.82300
C  14.58100 1.49500 31.14700
O  14.04800 2.57500 31.33700
C  15.13500 0.52500 32.22500
C  16.04500 1.45600 33.05400
O  17.20600 1.78700 32.80400
O  15.42200 1.80900 34.24400
C  16.13700 2.62800 35.15100
H  19.17000 -5.05900 32.10300
H  18.83000 -5.09200 25.67000
H  15.05600 0.08200 25.95900
H  17.68500 -0.89600 33.91700
H  17.82800 -3.84600 34.01200
H  19.86400 -1.74700 34.28900
H  20.37600 -2.81200 32.95200
H  19.95900 -3.44300 34.60200
H  15.72800 -3.15000 34.44500
H  15.03000 -1.52800 34.14100
H  15.80000 -2.56100 36.47300
H  15.30500 -0.91500 36.09400
H  19.13200 -7.98000 30.47600
H  20.20600 -6.90600 31.32700
H  20.90800 -7.64200 29.98700
H  19.35000 -9.11800 28.38600
H  20.99400 -8.49000 28.03600
H  20.03500 -9.29900 26.76000
H  16.51900 -3.96100 24.29200
H  17.22600 -0.98500 24.37000
H  19.40300 -2.80400 24.20600
H  18.27000 -2.52300 22.93600
H  18.76700 -4.23900 23.26900
H  14.66200 -0.69600 23.95800
H  14.65200 -2.44000 23.64200
H  15.14600 -0.47400 21.79400
H  15.50500 -2.20700 21.55900
H  16.78500 -1.07500 22.09900
H  12.87600 1.93800 28.01900
H  14.13400 1.97000 26.76000
H  14.27800 3.06700 28.19900
H  14.41800 0.20400 32.98100
H  17.20700 2.61300 34.94500
H  15.98400 2.30600 36.18100
H  15.86000 3.67500 35.02500
Mg 40.78200 40.88600 26.65200
C  40.31500 43.26300 29.17000
C  41.50000 38.59800 29.12700
C  41.64100 38.75100 24.23200
C  40.55300 43.44000 24.26300
N  41.04100 40.95300 28.96900
C  40.56900 42.00600 29.75300
C  40.62300 41.62900 31.23000
C  41.12400 40.13600 31.15400
C  41.23400 39.87000 29.68700
C  42.45800 39.81000 31.94400
C  39.29400 41.81600 31.97800
C  39.16100 42.84700 33.04700
H  38.52400 42.51300 34.37900
N  41.54500 38.97100 26.70200
C  41.82400 38.20300 27.79800
C  42.32200 36.86600 27.41700
C  42.31700 36.92000 25.99700
C  41.82600 38.19600 25.55600
C  42.74800 35.75500 28.38800
C  42.83400 35.82400 25.00300
O  42.90200 35.99600 23.77600
C  43.45900 34.54600 25.52400
N  41.00900 41.05300 24.53100
C  41.29100 40.02400 23.74300
C  41.18100 40.27800 22.20300
C  40.55400 41.74900 22.32200
C  40.69000 42.11500 23.77800
C  42.61400 40.14300 21.55100
C  39.05800 41.83300 21.88200
C  38.14500 40.60800 22.14800
N  40.39300 42.98500 26.64300
C  40.39400 43.88400 25.59800
C  40.19900 45.14100 26.11000
C  40.17900 45.02300 27.50600
C  40.28600 43.61200 27.76300
C  40.22200 46.41500 25.28000
C  39.96300 45.68200 28.77700
O  39.65500 46.82900 29.06500
C  40.06500 44.58900 29.87100
C  41.07700 44.98000 30.89600
O  42.23800 44.73200 30.78300
O  40.43700 45.79900 31.83500
C  41.39000 46.39100 32.80700
H  41.64300 37.76500 29.81700
H  41.86500 38.04400 23.43000
H  40.48300 44.21000 23.49100
H  41.23800 42.33200 31.79100
H  40.40300 39.41600 31.54000
H  42.23600 39.01900 32.66100
H  42.67400 40.65200 32.60200
H  43.33400 39.59100 31.33300
H  38.72600 40.93900 32.28900
H  38.68200 42.23700 31.18100
H  38.53700 43.69100 32.75100
H  40.13400 43.31000 33.21200
H  43.62200 35.25900 27.96500
H  42.01900 34.94600 28.42700
H  43.15600 36.06000 29.35100
H  42.91300 33.89800 26.21000
H  44.34700 34.90500 26.04500
H  43.54300 33.94500 24.61900
H  40.50600 39.63000 21.64400
H  41.09700 42.36700 21.60800
H  43.39700 40.14600 22.30900
H  42.73600 40.96800 20.84900
H  42.69000 39.34400 20.81400
H  39.03300 42.06900 20.81800
H  38.51500 42.70400 22.24800
H  37.84800 40.00500 21.29000
H  37.15800 40.82000 22.55900
H  38.64300 39.95900 22.86900
H  40.44500 46.24900 24.22500
H  41.03000 47.09900 25.53900
H  39.27200 46.92500 25.43400
H  39.13800 44.53900 30.44200
H  41.90000 45.60300 33.36200
H  40.78800 46.89400 33.56300
H  42.01900 47.16700 32.37000

