158

Mg 8.27400 3.10000 27.77900
C  9.80200 1.91200 30.68000
C  6.72900 5.59000 29.48700
C  6.36200 3.68400 25.05400
C  10.06600 0.66300 26.01100
N  8.22300 3.62300 29.76800
C  8.91400 3.04900 30.81300
C  8.52000 3.73300 32.18100
C  7.59000 4.85100 31.72400
C  7.47700 4.68900 30.18000
C  6.27600 5.07000 32.57300
C  9.89500 4.09100 32.97100
C  9.76200 5.17300 34.03500
H  10.54900 4.96700 35.39900
N  6.78900 4.48800 27.34700
C  6.35900 5.48300 28.14900
C  5.31600 6.32100 27.44300
C  5.11400 5.66800 26.21400
C  6.06900 4.57200 26.14300
C  4.68700 7.47100 28.01400
C  4.10100 5.99400 25.17000
O  4.05500 5.40400 24.12400
C  3.18200 7.13600 25.27400
N  8.14700 2.23100 25.78200
C  7.22100 2.65800 24.89300
C  7.36400 1.80100 23.55400
C  8.73500 1.11800 23.82800
C  9.00000 1.33800 25.29700
C  6.16900 0.87700 23.25200
C  9.96200 1.56200 22.99900
C  10.91600 0.48700 22.62500
N  9.61600 1.61800 28.18500
C  10.14400 0.59500 27.36900
C  10.93900 -0.31400 28.15600
C  10.87200 0.24100 29.45300
C  10.04600 1.33200 29.44500
C  11.85700 -1.44400 27.75700
C  11.37500 0.08600 30.83400
O  12.25100 -0.62800 31.33500
C  10.57700 1.13000 31.70400
C  9.71400 0.33300 32.59400
O  8.56600 -0.00500 32.30200
O  10.43700 0.10800 33.81200
C  9.59100 -0.70700 34.71700
H  6.29300 6.36500 30.12000
H  5.77600 3.89500 24.15700
H  10.69200 -0.08700 25.52300
H  8.09400 2.87500 32.70000
H  8.19200 5.72600 31.97000
H  5.36500 5.37700 32.05900
H  6.41800 5.86100 33.30900
H  5.98900 4.15200 33.08600
H  10.66600 4.46800 32.29900
H  10.24800 3.19900 33.48900
H  8.68800 5.32600 34.14200
H  10.16000 6.08500 33.59000
H  3.65600 7.40000 28.35900
H  4.56500 8.31700 27.33700
H  5.26100 7.85900 28.85500
H  2.78500 7.11800 26.28900
H  2.42500 6.92300 24.51800
H  3.71800 8.07900 25.17200
H  7.41000 2.53800 22.75200
H  8.77900 0.06200 23.56200
H  6.32800 -0.13500 22.87800
H  5.45400 1.35900 22.58500
H  5.62100 0.78000 24.18900
H  10.60200 2.29200 23.49400
H  9.56100 2.03500 22.10300
H  10.82700 -0.42500 23.21500
H  11.90400 0.91400 22.79300
H  10.83800 0.25400 21.56300
H  12.84000 -1.19600 28.15800
H  11.88500 -1.59000 26.67700
H  11.55900 -2.40800 28.17000
H  11.26400 1.81400 32.20300
H  9.16900 -1.47400 34.06700
H  8.83100 -0.11400 35.22500
H  10.14100 -1.24800 35.48700
Mg -11.45500 37.69800 42.72800
C  -8.81700 35.44600 41.91900
C  -9.57600 40.22200 41.34300
C  -14.03800 39.69200 42.63900
C  -13.54900 34.87100 43.34800
N  -9.57200 37.71400 41.53600
C  -8.56400 36.70000 41.43400
C  -7.38300 37.23300 40.78100
C  -7.49400 38.73600 41.06400
C  -8.96300 38.93800 41.30100
C  -6.70400 39.13500 42.31500
C  -7.60900 36.86400 39.24200
C  -6.40800 36.90100 38.25000
H  -6.25900 35.81500 37.15200
N  -11.72500 39.81400 42.23500
C  -10.85200 40.70700 41.65400
C  -11.40500 42.02900 41.44000
C  -12.75600 41.88700 41.99900
C  -12.91600 40.47900 42.37200
C  -10.59100 43.21700 40.87800
C  -13.67600 43.10800 42.12600
O  -13.44200 44.19800 41.66100
C  -15.09400 42.89500 42.75000
N  -13.47500 37.37200 42.89100
C  -14.39900 38.32000 42.89200
C  -15.83600 37.91600 43.04400
C  -15.54800 36.39200 43.47800
C  -14.14900 36.16800 43.15300
C  -16.53300 38.67500 44.13100
C  -16.52100 35.39200 42.92000
C  -17.01900 34.26500 43.90900
N  -11.30000 35.60500 42.82600
C  -12.19400 34.57000 43.13700
C  -11.43200 33.30600 43.10500
C  -10.22100 33.65000 42.59200
C  -10.12600 35.05600 42.44700
C  -12.04800 32.00700 43.33300
C  -8.95300 33.04300 42.16100
O  -8.59600 31.84300 42.15800
C  -7.96200 34.19400 41.74800
C  -6.83000 34.25200 42.70900
O  -5.64800 34.14800 42.38900
O  -7.28700 34.30400 44.00800
C  -6.29100 34.37000 45.08300
H  -8.91500 40.93600 40.84700
H  -14.98000 40.20600 42.43400
H  -14.24100 34.08400 43.65400
H  -6.38100 36.86200 40.99600
H  -7.19900 39.34500 40.21000
H  -7.41700 39.32200 43.11700
H  -6.17100 40.06300 42.11000
H  -6.01900 38.38900 42.71700
H  -8.39500 37.56200 38.95400
H  -8.07900 35.88300 39.16800
H  -5.45000 36.89600 38.77000
H  -6.40700 37.86000 37.73100
H  -10.95900 43.46400 39.88200
H  -9.58200 42.81200 40.80900
H  -10.59700 44.12300 41.48500
H  -15.56100 43.77700 43.18900
H  -15.12000 42.27200 43.64400
H  -15.75300 42.37800 42.05300
H  -16.35800 38.08100 42.10100
H  -15.60500 36.45900 44.56500
H  -15.84600 39.22700 44.77200
H  -17.12500 37.90600 44.62700
H  -17.14700 39.41300 43.61400
H  -16.06700 34.95700 42.02900
H  -17.37000 36.00500 42.62000
H  -16.40600 34.17100 44.80500
H  -16.93100 33.26200 43.49200
H  -18.03400 34.54300 44.19300
H  -11.54100 31.52100 44.16700
H  -11.92600 31.37600 42.45300
H  -13.09600 32.09000 43.61900
H  -7.74700 34.08400 40.68500
H  -6.78800 34.65600 46.01100
H  -5.44800 35.02700 44.87000
H  -5.90100 33.36300 45.23000

