158

Mg 5.66700 54.50300 40.93300
C  4.94000 51.04300 40.80000
C  9.05900 53.76600 40.72500
C  6.20900 57.76900 40.68500
C  2.15300 55.12000 41.19200
N  6.80000 52.69400 40.61800
C  6.35400 51.37200 40.69400
C  7.54500 50.40400 40.81400
C  8.68500 51.39400 41.28600
C  8.17400 52.71100 40.82600
C  9.15200 51.31100 42.77100
C  7.82800 49.74700 39.38300
C  7.73600 50.69100 38.16000
H  6.65000 50.29700 37.12600
N  7.41800 55.65800 40.59100
C  8.69000 55.14800 40.50100
C  9.55300 56.29300 40.38800
C  8.81300 57.54100 40.34500
C  7.40900 57.01900 40.56700
C  11.09800 56.15400 40.33100
C  9.30700 58.92600 40.13300
O  10.52500 59.02800 40.13900
C  8.39500 60.14800 39.97700
N  4.36000 56.25800 41.01400
C  4.80400 57.49700 40.87800
C  3.59800 58.55300 41.02400
C  2.34900 57.63100 41.18900
C  2.97300 56.26400 41.06500
C  3.84100 59.48700 42.23100
C  1.14600 57.91800 40.18000
C  -0.31000 58.07900 40.75200
N  3.85100 53.44900 40.81500
C  2.53500 53.76200 41.11500
C  1.69900 52.54800 41.24300
C  2.62000 51.52200 41.23800
C  3.90200 52.08300 40.92800
C  0.21900 52.46200 41.43400
C  2.78000 50.12000 41.44800
O  1.92700 49.31400 41.85100
C  4.24300 49.75700 41.06100
C  4.13400 48.84500 39.86100
O  3.45700 48.95100 38.84600
O  4.88000 47.68800 40.11400
C  5.00700 46.54500 39.17400
H  10.14200 53.64000 40.78700
H  6.42800 58.83000 40.82700
H  1.08700 55.34500 41.26500
H  7.34500 49.63200 41.55700
H  9.54100 50.97900 40.75400
H  10.16100 50.90900 42.68000
H  8.46900 50.93600 43.53400
H  9.29400 52.36000 43.03200
H  7.12300 48.92800 39.24400
H  8.84500 49.35500 39.34700
H  8.75700 50.57700 37.79600
H  7.66700 51.76500 38.33100
H  11.49500 56.43900 39.35700
H  11.52200 55.15600 40.22200
H  11.60800 56.64300 41.16000
H  9.04100 60.94600 39.61200
H  8.09700 60.53400 40.95200
H  7.55200 59.95800 39.31300
H  3.37500 59.18600 40.16600
H  1.90400 57.73300 42.17800
H  4.90900 59.40800 42.43300
H  3.22600 59.31600 43.11500
H  3.61800 60.50400 41.90700
H  1.13800 57.18200 39.37700
H  1.43900 58.79800 39.60900
H  -0.99200 57.34400 40.32400
H  -0.69800 59.09300 40.65600
H  -0.26800 57.85900 41.81800
H  0.02900 51.38900 41.41700
H  -0.25700 52.87200 40.54400
H  -0.10300 52.82400 42.41100
H  4.67400 49.12800 41.84000
H  4.10400 45.94500 39.05600
H  5.61000 45.85300 39.76300
H  5.64800 46.58800 38.29400
Mg 9.64600 48.59200 26.06500
C  7.72200 48.70200 28.94100
C  12.12100 50.07500 27.80100
C  11.41300 48.91700 23.14400
C  6.79400 47.84100 24.17400
N  9.79200 49.44200 28.13400
C  8.99400 49.21200 29.20000
C  9.59700 49.65200 30.49100
C  10.77800 50.49600 29.94500
C  10.94300 49.99400 28.50000
C  10.43800 51.98400 30.02400
C  10.05000 48.42300 31.35800
C  10.34000 48.75800 32.83300
H  9.93800 47.64500 33.89800
N  11.54300 49.21900 25.60200
C  12.46100 49.71400 26.48600
C  13.71900 49.89900 25.79600
C  13.55700 49.32400 24.50300
C  12.09900 49.11900 24.38300
C  14.96700 50.46700 26.53500
C  14.59800 48.88000 23.49400
O  14.25900 48.40100 22.40200
C  16.06300 48.81200 23.89400
N  9.21200 48.35800 23.95000
C  10.08000 48.52300 22.94400
C  9.51200 48.17500 21.56900
C  8.12400 47.52400 21.99000
C  7.98900 47.97300 23.45600
C  9.28200 49.29600 20.58200
C  8.15700 45.94100 21.83500
C  8.74600 45.06200 22.94700
N  7.65600 48.40300 26.40800
C  6.63300 48.05500 25.53500
C  5.42000 47.82700 26.26000
C  5.84800 48.03600 27.61000
C  7.19600 48.41400 27.65600
C  4.09200 47.55500 25.70300
C  5.30900 48.12500 28.90600
O  4.19600 47.98400 29.34800
C  6.55600 48.43700 29.88900
C  6.75900 47.17100 30.67000
O  7.20000 46.08700 30.24100
O  6.35400 47.40900 31.97800
C  6.60300 46.28400 32.86300
H  12.96700 50.50900 28.33700
H  12.00500 49.04900 22.23700
H  5.95800 47.53600 23.54200
H  8.88500 50.21200 31.09800
H  11.70300 50.21800 30.45000
H  9.37000 52.18600 30.11300
H  10.91900 52.54200 29.22100
H  10.86200 52.38700 30.94300
H  11.00600 48.13900 30.91900
H  9.39100 47.57300 31.17900
H  9.91100 49.69600 33.18400
H  11.40500 48.90600 33.01100
H  15.50800 49.65100 27.01300
H  14.69100 51.16100 27.32900
H  15.70400 50.93100 25.87900
H  16.08000 48.45400 24.92300
H  16.42900 49.83900 23.86000
H  16.60400 48.13100 23.23600
H  10.17300 47.42200 21.14000
H  7.23300 47.91300 21.49800
H  9.53900 50.23800 21.06700
H  8.23800 49.39700 20.28400
H  9.94600 49.24100 19.72000
H  8.84700 45.67000 21.03600
H  7.17100 45.73100 21.42000
H  8.17700 44.18200 23.24500
H  9.07300 45.74200 23.73400
H  9.73300 44.68400 22.67900
H  3.87600 48.34400 24.98200
H  3.45200 47.73100 26.56700
H  3.98800 46.52400 25.36600
H  6.32100 49.26900 30.55200
H  7.55500 45.82600 32.59300
H  5.77200 45.58000 32.89300
H  6.59800 46.75400 33.84600

