158

Mg 47.55800 44.92700 42.59700
C  44.04500 44.29900 42.45300
C  47.99900 41.43000 42.17500
C  50.65100 45.66000 41.79300
C  46.67700 48.42100 42.49900
N  46.16000 43.08000 42.01100
C  44.78100 43.09100 42.13900
C  44.25300 41.69100 42.01300
C  45.52700 40.73200 42.22800
C  46.65400 41.84400 42.22700
C  45.40100 39.80900 43.42500
C  43.46900 41.46100 40.77800
C  43.94300 42.29300 39.53500
H  43.74100 41.59000 38.23600
N  49.09700 43.78400 42.14200
C  49.11800 42.37100 42.11300
C  50.49300 41.92400 41.89100
C  51.30300 43.11700 41.62700
C  50.33800 44.29100 41.80700
C  50.92900 40.47000 41.92600
C  52.78400 43.13200 41.43700
O  53.44200 42.09900 41.23200
C  53.64400 44.45100 41.32900
N  48.49300 46.80300 42.15600
C  49.88700 46.81500 42.00400
C  50.49100 48.25800 42.10100
C  49.17900 49.10600 42.17000
C  48.00300 48.04900 42.22800
C  51.42800 48.41500 43.37600
C  48.91700 50.18700 41.00700
C  48.45300 51.54900 41.29200
N  45.78700 46.12500 42.64700
C  45.57300 47.56000 42.66200
C  44.19800 47.88400 42.90100
C  43.54700 46.55600 42.86200
C  44.53500 45.59800 42.61700
C  43.48100 49.16600 43.10400
C  42.27000 45.88700 42.93100
O  41.10300 46.24600 43.02600
C  42.56800 44.41700 42.64000
C  42.06500 43.63200 43.78200
O  41.28300 42.67100 43.64500
O  42.36200 44.21500 44.97200
C  41.68500 43.62400 46.09600
H  48.20000 40.35700 42.16600
H  51.71200 45.90000 41.69700
H  46.57000 49.50500 42.57000
H  43.63700 41.51500 42.89500
H  45.65900 40.17200 41.30200
H  45.73800 40.27900 44.34800
H  45.91200 38.85600 43.28300
H  44.34200 39.58600 43.55200
H  42.38800 41.54100 40.89000
H  43.71500 40.42400 40.54900
H  44.99300 42.56400 39.65000
H  43.32600 43.18800 39.60400
H  50.73300 39.98500 40.96900
H  50.43800 39.85500 42.68000
H  51.96100 40.40300 42.27000
H  53.35500 45.09900 40.50200
H  54.71200 44.26800 41.20600
H  53.55900 44.90600 42.31600
H  51.04100 48.41500 41.17300
H  49.09700 49.67000 43.09900
H  52.27300 49.00700 43.02500
H  51.77500 47.40800 43.61000
H  50.86300 48.92400 44.15800
H  48.31100 49.70900 40.23800
H  49.85400 50.42700 40.50500
H  48.44700 51.74200 42.36500
H  47.46100 51.52900 40.84100
H  49.14100 52.25500 40.82600
H  43.80800 49.63500 44.03200
H  42.42800 49.05000 43.36000
H  43.61200 49.93100 42.33800
H  42.10200 44.20800 41.67700
H  41.85600 44.30300 46.93200
H  42.09300 42.66000 46.40200
H  40.60800 43.66500 45.93300
Mg -2.70100 34.28400 27.19000
C  -4.17500 32.33600 29.91500
C  -1.31100 36.29700 29.59500
C  -1.71800 36.28100 24.68400
C  -4.48600 32.28000 24.96700
N  -2.90500 34.32900 29.52700
C  -3.42600 33.40700 30.49100
C  -3.08500 33.73300 31.90200
C  -2.17700 35.05500 31.73400
C  -2.17300 35.29500 30.17000
C  -2.50500 36.38300 32.61200
C  -2.41200 32.53200 32.65600
C  -3.03700 32.18600 34.07000
H  -1.99000 31.85300 35.17200
N  -1.59200 36.03900 27.11500
C  -1.06000 36.69100 28.23700
C  -0.29700 37.76900 27.78200
C  -0.35100 37.77200 26.36200
C  -1.29200 36.69200 25.98300
C  0.35800 38.73100 28.79200
C  0.47300 38.66200 25.40300
O  0.58100 38.49100 24.21200
C  1.11000 39.90500 25.95900
N  -2.94700 34.24300 25.03300
C  -2.45300 35.19700 24.20600
C  -2.85000 34.96400 22.76500
C  -3.48600 33.55000 22.82400
C  -3.64000 33.28900 24.37400
C  -3.93700 35.98100 22.29400
C  -2.55200 32.45300 22.27600
C  -1.14200 32.28900 22.83600
N  -4.09500 32.60900 27.34900
C  -4.72400 31.97500 26.31500
C  -5.44400 30.82300 26.82500
C  -5.31700 30.89300 28.23800
C  -4.46400 32.04900 28.57000
C  -6.40500 29.88100 26.01600
C  -5.72700 30.36000 29.52300
O  -6.50700 29.44200 29.75500
C  -5.09200 31.29500 30.62300
C  -6.22800 31.81700 31.36100
O  -6.95600 32.75000 31.14400
O  -6.22800 31.10500 32.53900
C  -6.79500 31.80800 33.69600
H  -0.75600 36.92200 30.29800
H  -1.37400 37.06100 24.00100
H  -5.10500 31.69900 24.28100
H  -4.01800 34.05100 32.36700
H  -1.16900 34.76000 32.02700
H  -3.53300 36.33800 32.97300
H  -2.26700 37.27400 32.03100
H  -1.91800 36.37000 33.53000
H  -1.39000 32.85000 32.86300
H  -2.42400 31.68300 31.97300
H  -3.84500 31.46500 33.95000
H  -3.58900 33.08300 34.35100
H  -0.24700 38.83400 29.69300
H  0.35400 39.76200 28.44000
H  1.30300 38.36100 29.19000
H  0.42400 40.41700 26.63300
H  1.42000 40.59300 25.17300
H  2.01000 39.59400 26.49000
H  -2.09800 35.04000 21.98100
H  -4.39300 33.55400 22.21900
H  -4.74800 36.06600 23.01700
H  -4.32100 35.69100 21.31700
H  -3.46800 36.95600 22.16300
H  -2.42700 32.60400 21.20400
H  -3.07200 31.50400 22.40500
H  -0.54500 32.51100 21.95200
H  -0.91300 31.24500 23.05400
H  -0.93000 33.00500 23.62900
H  -6.30800 29.95600 24.93200
H  -7.39200 30.09200 26.42700
H  -6.31600 28.81100 26.20200
H  -4.48900 30.65700 31.26800
H  -6.01900 32.42300 34.15300
H  -7.19300 31.13700 34.45800
H  -7.71700 32.34100 33.46100

