158

Mg 25.92600 0.08800 28.78200
C  27.59800 0.12200 31.97800
C  22.95800 0.58100 30.48000
C  24.38800 0.22900 25.74800
C  28.71800 -1.18000 27.20300
N  25.36800 0.40000 30.98400
C  26.19800 0.33800 32.15200
C  25.34900 0.65100 33.39900
C  23.92600 0.88700 32.87200
C  24.05600 0.58200 31.37100
C  22.76800 0.08000 33.68200
C  26.11600 1.77600 34.30800
C  25.20100 2.52500 35.32000
H  25.75300 2.70600 36.74600
N  23.92200 0.39100 28.20000
C  22.87000 0.47500 29.02300
C  21.67300 0.55900 28.18500
C  22.09300 0.58800 26.82900
C  23.51200 0.49500 26.87800
C  20.23700 0.59800 28.73800
C  21.23300 0.72800 25.55100
O  21.71200 0.73300 24.39400
C  19.70600 0.99700 25.69700
N  26.51600 -0.39300 26.77300
C  25.71300 -0.13400 25.66500
C  26.40700 -0.63000 24.37500
C  27.87200 -0.91100 24.84300
C  27.71100 -0.78500 26.34000
C  25.65700 -1.82500 23.74400
C  28.95200 -0.01100 24.30400
C  28.79800 1.50300 24.72300
N  27.68300 -0.53200 29.38200
C  28.70200 -1.12200 28.62900
C  29.84700 -1.34800 29.60400
C  29.43100 -0.84600 30.85200
C  28.12600 -0.40400 30.71300
C  31.13400 -1.90900 29.30600
C  29.90000 -0.51800 32.21400
O  30.95500 -0.81600 32.75900
C  28.69800 -0.05900 33.01800
C  28.39800 -1.18300 33.89200
O  27.96100 -2.24000 33.50700
O  28.59400 -0.73400 35.21500
C  28.37800 -1.84400 36.23500
H  21.98000 0.73200 30.94300
H  23.88200 0.22400 24.78000
H  29.68400 -1.39000 26.74100
H  25.34000 -0.23700 34.03200
H  23.86500 1.97200 32.95700
H  22.42500 -0.72700 33.03500
H  21.90900 0.72200 33.88100
H  23.13600 -0.47000 34.54800
H  26.49400 2.45700 33.54600
H  26.84400 1.17500 34.85200
H  24.29000 1.93200 35.40700
H  24.95200 3.49400 34.88700
H  19.74200 1.56200 28.61800
H  20.24400 0.32400 29.79200
H  19.69600 -0.19400 28.22000
H  19.26400 0.03500 25.95800
H  19.42500 1.27800 24.68200
H  19.46100 1.80200 26.39000
H  26.43500 0.18900 23.65600
H  28.27400 -1.90500 24.64200
H  24.67000 -2.01600 24.16600
H  26.23200 -2.74800 23.81300
H  25.42400 -1.59200 22.70400
H  28.91800 -0.12900 23.22100
H  29.93700 -0.28200 24.68300
H  29.40900 1.60100 25.62000
H  27.83700 1.85000 25.10100
H  29.30800 2.08200 23.95300
H  31.12100 -2.43100 28.34900
H  31.31800 -2.57800 30.14600
H  31.92000 -1.15400 29.31400
H  28.65900 0.85200 33.61600
H  28.77200 -2.78300 35.84700
H  27.33300 -1.90100 36.54200
H  28.94400 -1.70200 37.15500
Mg 30.32900 58.58000 40.27400
C  27.55200 56.91400 39.32700
C  32.29600 56.06400 38.83000
C  33.12500 60.45000 40.55400
C  28.36600 61.47300 40.93900
N  29.95700 56.72000 39.28300
C  28.70600 56.22500 38.97800
C  28.80100 54.96300 38.14600
C  30.21200 54.48200 38.52400
C  30.89800 55.80700 38.86200
C  30.28100 53.49400 39.78700
C  28.52800 55.24100 36.62100
C  27.50000 54.24900 35.90900
H  26.56200 54.82300 34.95300
N  32.49000 58.28400 39.94200
C  33.09000 57.18600 39.28400
C  34.55000 57.37600 39.24700
C  34.84200 58.66700 39.74200
C  33.50000 59.17700 40.08300
C  35.47400 56.33200 38.71200
C  36.18200 59.30400 39.91600
O  37.20800 58.69100 39.57900
C  36.36600 60.68300 40.59200
N  30.67300 60.66700 40.68800
C  31.92000 61.12600 40.89300
C  31.96700 62.63000 41.31000
C  30.43100 62.99400 41.31000
C  29.78200 61.64900 40.94500
C  32.60100 62.82100 42.80000
C  30.11000 64.05300 40.23500
C  29.96500 65.54800 40.70100
N  28.33900 59.05600 40.25700
C  27.69800 60.25700 40.56000
C  26.27500 60.03400 40.49300
C  26.17900 58.75800 39.91800
C  27.46400 58.19700 39.83800
C  25.10300 60.95300 40.89200
C  25.29300 57.73300 39.47800
O  24.06900 57.70200 39.40900
C  26.14200 56.55600 39.02000
C  25.61900 55.36900 39.71400
O  25.99100 55.04300 40.83400
O  24.74700 54.65700 38.97300
C  24.14000 53.39600 39.48300
H  32.98600 55.28500 38.50200
H  33.97700 61.12300 40.67400
H  27.71700 62.30000 41.23500
H  28.15400 54.20200 38.58400
H  30.66600 53.92700 37.70300
H  30.75100 54.02700 40.61400
H  30.84000 52.61800 39.45600
H  29.27900 53.13300 40.01800
H  29.40500 55.16600 35.97900
H  28.01100 56.18700 36.46500
H  26.97500 53.74100 36.71800
H  28.01600 53.51900 35.28600
H  36.45500 56.72800 38.45300
H  35.09000 55.88300 37.79600
H  35.65200 55.59900 39.49900
H  37.42800 60.71600 40.83600
H  35.64600 60.74600 41.40800
H  36.05400 61.41800 39.85000
H  32.63700 63.20500 40.67100
H  30.12600 63.40000 42.27400
H  32.75800 63.89100 42.93500
H  33.46100 62.25000 43.15300
H  31.84900 62.41900 43.47800
H  29.23100 63.73900 39.67100
H  30.95700 63.92200 39.56100
H  29.07400 66.05000 40.32400
H  30.84000 66.11100 40.37800
H  29.87700 65.54800 41.78800
H  25.47200 61.72500 41.56700
H  24.28500 60.42800 41.38600
H  24.70400 61.56400 40.08200
H  25.90900 56.45800 37.96000
H  24.41900 53.27600 40.53000
H  24.51700 52.52800 38.94100
H  23.05200 53.45100 39.51000

