158

Mg 10.33100 47.45500 25.65800
C  8.30700 47.65000 28.58100
C  12.79600 48.96700 27.61500
C  12.23400 47.61200 23.00300
C  7.51500 46.68200 23.86000
N  10.46600 48.20900 27.88500
C  9.58900 48.05500 28.92900
C  10.13600 48.59200 30.25100
C  11.44000 49.32400 29.75000
C  11.60900 48.82000 28.33500
C  11.47100 50.88000 29.90300
C  10.40900 47.47800 31.32200
C  9.60700 47.57700 32.61300
H  9.81100 46.39100 33.58100
N  12.23000 48.14700 25.29800
C  13.10400 48.68700 26.24900
C  14.44600 48.79700 25.68400
C  14.30100 48.39800 24.32500
C  12.87100 48.13500 24.12000
C  15.62800 49.28900 26.53100
C  15.34500 48.17900 23.23300
O  15.00300 47.74600 22.11100
C  16.77900 48.59000 23.57300
N  9.89000 47.19000 23.61200
C  10.89600 47.20200 22.75100
C  10.42500 46.56700 21.40300
C  9.01100 46.13800 21.73900
C  8.74600 46.64900 23.13900
C  10.59300 47.62000 20.22700
C  8.79700 44.67500 21.49700
C  9.40800 43.70200 22.47500
N  8.31700 47.16200 26.07700
C  7.26200 46.92000 25.26700
C  6.02100 46.73300 25.99100
C  6.38600 46.86500 27.26400
C  7.75500 47.28000 27.26200
C  4.60300 46.52300 25.38800
C  5.95200 46.84100 28.63900
O  4.88300 46.54900 29.11000
C  7.12900 47.30400 29.54100
C  7.39400 46.09700 30.39000
O  8.25700 45.32900 30.22800
O  6.50200 46.22100 31.46000
C  6.48000 45.20100 32.41000
H  13.57300 49.43300 28.22500
H  12.74000 47.42600 22.05400
H  6.59600 46.29900 23.41000
H  9.50500 49.38100 30.66000
H  12.32000 48.97300 30.28900
H  10.64600 51.26700 30.50200
H  11.41200 51.34800 28.92000
H  12.38900 51.27100 30.34300
H  11.48500 47.54000 31.48500
H  10.22600 46.49100 30.89800
H  8.57600 47.83600 32.37300
H  9.95400 48.46200 33.14700
H  16.13100 50.08800 25.98600
H  16.37800 48.58900 26.89800
H  15.38400 49.77000 27.47800
H  17.01600 48.13100 24.53300
H  16.83100 49.66500 23.74700
H  17.35700 48.15900 22.75500
H  11.17000 45.78500 21.25300
H  8.44200 46.68300 20.98600
H  9.67000 47.76800 19.66700
H  11.17400 47.21800 19.39700
H  11.10200 48.52800 20.55000
H  9.07600 44.41300 20.47600
H  7.74200 44.42000 21.59900
H  9.88800 44.17300 23.33300
H  10.04500 43.09400 21.83300
H  8.57900 43.07400 22.80100
H  4.49600 47.08200 24.45800
H  3.95000 46.93400 26.15700
H  4.43900 45.44800 25.31000
H  6.95000 48.15500 30.19700
H  5.61200 44.54300 32.40800
H  6.66000 45.43400 33.45900
H  7.24000 44.44200 32.22100
Mg -4.91600 25.24900 25.30500
C  -3.62400 26.46300 28.29300
C  -6.99100 23.16700 27.27000
C  -5.91100 23.70400 22.49800
C  -2.61700 27.20400 23.58400
N  -5.34800 24.97100 27.52600
C  -4.63500 25.57800 28.56500
C  -5.17000 25.10000 29.94200
C  -5.99800 23.86400 29.48600
C  -6.15200 24.00100 27.97500
C  -5.47200 22.42500 29.82600
C  -5.97600 26.21000 30.68000
C  -5.61900 26.50500 32.16800
H  -4.78900 25.36500 32.97600
N  -6.38600 23.72700 24.87100
C  -7.19300 23.04600 25.83900
C  -8.15600 22.23900 25.15500
C  -7.80600 22.39200 23.73200
C  -6.64300 23.28400 23.65800
C  -9.14400 21.29800 25.83500
C  -8.49800 21.64700 22.53700
O  -8.07000 21.81100 21.41300
C  -9.63000 20.63100 22.69000
N  -4.40500 25.48100 23.37000
C  -4.88800 24.67900 22.33400
C  -4.27000 25.12300 21.02500
C  -3.45700 26.39100 21.38500
C  -3.47100 26.29500 22.90700
C  -3.47100 24.09700 20.21400
C  -4.05100 27.70300 20.91200
C  -3.62700 28.09400 19.51400
N  -3.41600 26.57900 25.83100
C  -2.55600 27.38700 24.99700
C  -1.82000 28.31900 25.76000
C  -2.17200 27.92500 27.09300
C  -3.14300 26.88500 27.06800
C  -0.86100 29.35600 25.33100
C  -1.87200 28.14300 28.50300
O  -1.09100 28.89100 29.05600
C  -2.84300 27.26200 29.36400
C  -2.00300 26.41500 30.23500
O  -1.29400 25.50900 29.80600
O  -1.92100 26.84500 31.51400
C  -0.87100 26.26500 32.25500
H  -7.60500 22.44700 27.81500
H  -6.26400 23.32100 21.53800
H  -1.88300 27.79300 23.03100
H  -4.41600 24.72500 30.63400
H  -7.00200 23.92000 29.90600
H  -5.62800 21.80200 28.94600
H  -5.94300 21.87100 30.63800
H  -4.40200 22.47900 30.02700
H  -7.03000 25.93700 30.72900
H  -5.84900 27.16400 30.16700
H  -6.57400 26.56300 32.69000
H  -5.11100 27.46900 32.21200
H  -8.90500 20.26500 25.58100
H  -10.13200 21.54800 25.44900
H  -9.28500 21.40500 26.91100
H  -9.18000 19.72700 23.10100
H  -10.03800 20.45300 21.69400
H  -10.46100 21.02500 23.27500
H  -5.07700 25.41700 20.35400
H  -2.38800 26.30600 21.18900
H  -4.09300 24.04900 19.32000
H  -3.50600 23.08000 20.60400
H  -2.42200 24.34300 20.05100
H  -3.79600 28.49700 21.61300
H  -5.13900 27.76400 20.92500
H  -4.26600 27.77900 18.68900
H  -2.71200 27.64900 19.12500
H  -3.62100 29.17900 19.40700
H  -0.62900 29.26200 24.27000
H  -0.00400 29.19200 25.98400
H  -1.26300 30.35000 25.52700
H  -3.45500 27.88400 30.01800
H  0.03500 26.41400 31.66700
H  -1.05500 25.20100 32.40300
H  -0.77100 26.78400 33.20800

