158

Mg 41.47000 8.26100 29.62000
C  43.18600 9.71700 32.33700
C  39.14000 6.98700 31.75500
C  39.87900 6.89500 26.86400
C  43.98900 9.40100 27.49000
N  41.38000 8.14800 31.81500
C  42.04300 8.95100 32.73900
C  41.44800 8.83900 34.14000
C  40.33200 7.81100 33.88200
C  40.23500 7.66700 32.35000
C  40.62400 6.53100 34.63300
C  41.07400 10.22000 34.78500
C  39.88500 10.32500 35.84200
H  40.17500 11.25800 36.97000
N  39.78500 7.10400 29.33500
C  38.95900 6.68200 30.35900
C  37.80900 6.07400 29.75800
C  38.03400 6.02700 28.36200
C  39.31400 6.65500 28.14000
C  36.88900 5.22100 30.67700
C  37.08600 5.45100 27.29700
O  37.37700 5.29100 26.06700
C  35.66700 5.10200 27.63700
N  41.95600 8.02700 27.52100
C  41.07100 7.49100 26.55900
C  41.59800 7.74300 25.08500
C  42.72000 8.72900 25.33900
C  42.91100 8.78900 26.86000
C  42.02000 6.37500 24.41800
C  42.25800 10.08800 24.68800
C  41.08000 10.80700 25.27700
N  43.31400 9.18400 29.78300
C  44.12100 9.70800 28.84700
C  45.09200 10.55500 29.54800
C  44.77900 10.54600 30.86900
C  43.67600 9.77000 31.02200
C  46.18700 11.22000 28.83500
C  45.19200 11.09400 32.15600
O  46.13300 11.77500 32.50200
C  44.15600 10.45500 33.21600
C  44.79400 9.56700 34.22300
O  45.57100 8.64000 33.91800
O  44.27400 9.91500 35.47500
C  44.68400 8.98800 36.57800
H  38.33300 6.62300 32.39500
H  39.25900 6.72900 25.98000
H  44.65200 9.89500 26.77600
H  42.36500 8.46300 34.59400
H  39.38900 8.20400 34.26100
H  41.41000 6.59400 35.38600
H  41.00000 5.76100 33.95900
H  39.63800 6.19700 34.95600
H  40.81200 10.83200 33.92200
H  41.91500 10.61500 35.35500
H  39.70000 9.34400 36.28000
H  38.97900 10.64500 35.32800
H  35.96800 5.79800 30.76300
H  37.33800 4.93900 31.62900
H  36.78500 4.26000 30.17200
H  35.66700 4.19500 28.24200
H  35.04400 5.00000 26.74900
H  35.33200 5.86200 28.34200
H  40.84100 8.16100 24.42000
H  43.59000 8.36700 24.79200
H  41.47300 5.53200 24.84000
H  43.08500 6.21700 24.59000
H  41.88700 6.39800 23.33700
H  41.97900 9.91900 23.64800
H  43.14500 10.72200 24.69700
H  40.48500 11.21300 24.45900
H  41.44800 11.67700 25.82100
H  40.45000 10.29500 26.00400
H  46.15200 12.27900 29.09100
H  46.13500 11.02800 27.76300
H  47.07300 10.77300 29.28600
H  43.58400 11.20300 33.76500
H  45.67700 8.57300 36.40800
H  43.91500 8.23000 36.72100
H  44.73000 9.54700 37.51300
Mg 47.59300 16.39200 28.89600
C  45.42000 15.55200 31.60300
C  49.42500 18.32000 31.06800
C  49.93600 16.81300 26.39700
C  45.60500 14.50300 26.77000
N  47.32500 16.95300 30.96900
C  46.51700 16.35900 31.95900
C  46.95400 16.76600 33.32800
C  47.76700 18.04500 33.04200
C  48.24000 17.76300 31.57000
C  47.09800 19.41100 33.08200
C  47.70200 15.66100 34.06800
C  47.80000 15.83200 35.61900
H  49.11400 15.90200 36.28700
N  49.46000 17.41300 28.75500
C  50.02600 18.17600 29.78600
C  51.19900 18.81300 29.23400
C  51.43200 18.35300 27.95000
C  50.22800 17.58300 27.59600
C  52.14000 19.70600 30.01700
C  52.61600 18.53100 26.97600
O  52.53500 18.12600 25.81800
C  53.72300 19.46300 27.40000
N  47.69000 15.89900 26.77400
C  48.83100 15.96700 26.07300
C  48.76900 15.12400 24.77800
C  47.51700 14.30100 25.04700
C  46.85500 14.96800 26.26700
C  48.78200 16.08400 23.55700
C  47.76400 12.81400 25.32700
C  47.22200 11.81600 24.28200
N  45.78500 15.38800 29.01500
C  45.04300 14.71800 28.05800
C  43.90000 14.13900 28.69100
C  43.98900 14.38200 30.03500
C  45.10500 15.28400 30.23100
C  42.89900 13.28100 27.96900
C  43.47800 14.11700 31.38800
O  42.50700 13.47300 31.69600
C  44.28700 14.99000 32.40700
C  43.48600 16.01900 33.06300
O  42.82500 16.86400 32.45900
O  43.50700 15.83600 34.40500
C  42.54900 16.42200 35.35000
H  50.05800 18.98700 31.65700
H  50.66400 16.81700 25.58300
H  45.10900 13.75900 26.14300
H  46.04600 17.08800 33.83800
H  48.73000 18.07100 33.55400
H  46.01800 19.30800 32.97900
H  47.48100 20.05900 32.29300
H  47.39800 19.88400 34.01700
H  48.72600 15.56800 33.70700
H  47.07500 14.79300 33.86700
H  47.43100 14.84500 35.89700
H  47.15900 16.66300 35.91600
H  53.02800 19.17200 30.35300
H  51.63300 20.20800 30.84100
H  52.47400 20.47900 29.32500
H  53.35000 20.48700 27.40700
H  54.47900 19.39200 26.61800
H  54.16900 19.02000 28.29100
H  49.61400 14.46200 24.59000
H  46.93800 14.38100 24.12800
H  48.73500 17.10500 23.93600
H  47.86100 16.08800 22.97500
H  49.66600 15.87600 22.95400
H  47.09500 12.56000 26.14900
H  48.82300 12.64200 25.51700
H  46.42300 11.26200 24.77400
H  48.02100 11.12900 24.00300
H  46.90700 12.34100 23.38000
H  41.93100 13.73800 28.17400
H  43.00000 12.31800 28.47000
H  43.22000 13.23600 26.92800
H  44.71100 14.35200 33.18300
H  41.75300 16.95400 34.82700
H  43.09700 17.02400 36.07500
H  42.01800 15.63100 35.87900

