158

Mg 48.60500 35.34200 26.30000
C  46.58200 34.11600 28.81300
C  48.84400 38.33600 27.97700
C  49.96000 36.71700 23.56200
C  47.53000 32.64500 24.31100
N  47.81100 36.16200 28.13600
C  47.16000 35.43700 29.11300
C  46.99600 36.25500 30.43900
C  47.30000 37.70500 29.93100
C  48.05900 37.41300 28.62900
C  46.08600 38.65100 29.80800
C  47.86400 35.67400 31.55200
C  47.32800 35.99800 33.01200
H  46.60600 37.35400 33.16000
N  49.42900 37.21300 25.92100
C  49.53600 38.26500 26.75200
C  50.22700 39.35900 26.05900
C  50.49900 38.92600 24.72100
C  49.93600 37.59200 24.67000
C  50.61300 40.63200 26.85400
C  51.22500 39.69700 23.63400
O  51.48300 39.15600 22.57400
C  51.65700 41.14600 23.77600
N  48.60000 34.83800 24.23700
C  49.40000 35.46300 23.42600
C  49.54700 34.77700 22.01800
C  48.81300 33.41600 22.28800
C  48.22200 33.62000 23.67700
C  48.89000 35.57500 20.83700
C  49.66800 32.03200 22.36800
C  49.17700 30.83700 21.51400
N  47.46700 33.64300 26.56300
C  47.14000 32.62200 25.63200
C  46.22600 31.71200 26.27900
C  45.93600 32.29200 27.56400
C  46.72100 33.44900 27.66700
C  45.60900 30.52400 25.75900
C  45.22000 32.07800 28.82200
O  44.48800 31.20600 29.19300
C  45.71200 33.24200 29.67400
C  46.38300 32.59200 30.80900
O  47.50000 32.02700 30.82900
O  45.62500 32.76900 31.96500
C  46.15100 31.99800 33.12600
H  48.96300 39.28400 28.50700
H  50.59600 36.94600 22.70400
H  47.27600 31.73800 23.75900
H  45.95300 36.14300 30.73400
H  48.01100 38.24000 30.56100
H  45.20500 38.10000 30.13700
H  45.74300 38.91800 28.80800
H  46.17200 39.47100 30.52000
H  48.78500 36.24700 31.44600
H  47.96800 34.59300 31.46500
H  48.19600 35.83100 33.64900
H  46.64700 35.23700 33.39300
H  51.46800 41.24200 26.56000
H  50.90800 40.29900 27.84900
H  49.78000 41.33000 26.93800
H  50.88300 41.78500 24.20200
H  51.72100 41.43300 22.72700
H  52.61500 41.48500 24.17000
H  50.60000 34.60500 21.79200
H  47.95300 33.25300 21.63900
H  48.08400 36.18900 21.24000
H  48.43600 34.85100 20.16100
H  49.56800 36.19800 20.25300
H  49.69500 31.66300 23.39300
H  50.63100 32.30400 21.93400
H  48.15700 31.06100 21.20000
H  49.24800 29.84100 21.95100
H  49.78800 30.86300 20.61200
H  45.43800 30.61100 24.68600
H  44.71200 30.19700 26.28400
H  46.41900 29.81300 25.92800
H  44.92500 33.82400 30.15500
H  46.15400 30.92000 32.96500
H  45.47900 32.16800 33.96600
H  47.18400 32.21700 33.39800
Mg 9.50500 48.61400 25.74700
C  7.37100 48.86000 28.55800
C  11.95300 49.98700 27.60400
C  11.38800 48.43900 23.01400
C  6.69200 47.76700 23.92600
N  9.63400 49.25800 27.80000
C  8.68800 49.16800 28.80900
C  9.34400 49.53700 30.12900
C  10.63100 50.32900 29.67300
C  10.77100 49.81300 28.29500
C  10.49600 51.90600 29.68100
C  9.58600 48.34100 31.13200
C  9.02400 48.74900 32.53300
H  9.40800 47.74000 33.69200
N  11.53100 49.06600 25.39700
C  12.33000 49.69200 26.26500
C  13.62700 49.82500 25.64400
C  13.51600 49.16900 24.34300
C  12.09500 48.89100 24.17400
C  14.81800 50.40400 26.33100
C  14.55100 48.84500 23.41700
O  14.16100 48.31700 22.37800
C  16.00500 49.03800 23.67800
N  9.07600 48.30700 23.63800
C  10.04300 48.26400 22.72500
C  9.56700 47.59800 21.44500
C  8.19300 47.05800 21.85500
C  7.90700 47.80200 23.21900
C  9.64300 48.38800 20.08400
C  8.11900 45.47600 21.90800
C  8.25600 44.83000 23.32200
N  7.50700 48.31600 26.14700
C  6.45800 47.98000 25.28600
C  5.12100 47.91100 25.98000
C  5.49500 48.18200 27.28400
C  6.93500 48.42900 27.33000
C  3.73400 47.62700 25.38900
C  4.96900 48.27200 28.63400
O  3.83500 48.16600 29.10100
C  6.21700 48.56000 29.54800
C  6.28900 47.25800 30.21700
O  6.75800 46.19900 29.76500
O  5.87400 47.24100 31.54800
C  6.07900 45.99800 32.34700
H  12.82700 50.24000 28.20800
H  11.89900 48.13100 22.09900
H  5.90200 47.18300 23.44900
H  8.57500 50.21100 30.50700
H  11.46900 50.10600 30.33300
H  9.61000 52.22100 30.23300
H  10.60000 52.36000 28.69600
H  11.35100 52.28100 30.24300
H  10.64600 48.09000 31.17100
H  9.03800 47.45900 30.80200
H  7.95000 48.56600 32.50200
H  9.10100 49.82600 32.67700
H  15.56900 50.88600 25.70500
H  15.35100 49.73700 27.00900
H  14.46700 51.15900 27.03400
H  16.27100 50.06900 23.44100
H  16.49300 48.43900 22.91000
H  16.35800 48.66800 24.64100
H  10.28700 46.78400 21.35300
H  7.48200 47.35000 21.08200
H  9.26800 49.40500 20.19700
H  9.19600 47.80300 19.28000
H  10.70500 48.43400 19.84300
H  8.80900 45.06800 21.17000
H  7.15400 45.19200 21.48800
H  8.91200 45.37200 24.00200
H  8.70800 43.84100 23.24900
H  7.23600 44.82100 23.70700
H  3.42100 46.72400 25.91400
H  3.56500 47.63200 24.31200
H  3.09900 48.38300 25.85100
H  6.05700 49.40900 30.21200
H  5.83200 46.17500 33.39400
H  7.13000 45.74000 32.21600
H  5.42400 45.14900 32.15400

