158

Mg 46.68600 24.95700 28.62300
C  47.39700 27.13500 31.29200
C  45.36900 22.75300 30.80200
C  46.55700 22.65300 26.11600
C  48.12100 27.19800 26.48000
N  46.45800 24.95400 30.82100
C  46.76300 25.98200 31.69900
C  46.21100 25.59800 33.11000
C  45.49200 24.19200 32.89600
C  45.79700 23.88300 31.43200
C  45.85800 23.13300 33.91000
C  45.27400 26.63900 33.84100
C  45.80500 27.19400 35.16400
H  44.82400 27.29400 36.32500
N  46.21400 22.93300 28.48800
C  45.54800 22.24400 29.47700
C  45.35700 20.85400 29.02200
C  45.76900 20.80500 27.67500
C  46.20900 22.15300 27.33600
C  44.62600 19.87200 29.91500
C  45.80800 19.65000 26.63900
O  46.12200 19.77700 25.44500
C  45.34200 18.26700 27.16600
N  47.25500 24.94700 26.55600
C  47.10000 23.87800 25.75900
C  47.64700 24.18800 24.36100
C  47.80700 25.74200 24.39500
C  47.68200 26.02600 25.87800
C  49.00500 23.41100 24.14800
C  46.76100 26.46600 23.61400
C  46.93200 26.66000 22.13900
N  47.56600 26.78300 28.78800
C  48.06800 27.63200 27.81900
C  48.50300 28.90000 28.35800
C  48.29500 28.70900 29.70800
C  47.69500 27.39700 29.97200
C  49.20300 30.00100 27.71400
C  48.45000 29.37200 31.02000
O  48.88500 30.46400 31.39300
C  47.81700 28.40200 32.00700
C  48.78300 28.25500 33.13100
O  49.78200 27.50000 33.14000
O  48.48300 29.10300 34.17400
C  49.14100 28.70300 35.42800
H  44.90600 22.17300 31.60400
H  46.64000 21.99300 25.24900
H  48.48000 27.91400 25.73800
H  47.08200 25.45400 33.75000
H  44.40300 24.14300 32.92400
H  45.22500 22.24800 33.84400
H  45.74700 23.57300 34.90200
H  46.89500 22.82700 33.77200
H  44.40200 26.09100 34.19800
H  45.03400 27.44200 33.14400
H  46.29000 28.16800 35.10200
H  46.57400 26.48500 35.47300
H  43.57000 19.86200 29.64600
H  44.74100 20.17600 30.95500
H  45.00500 18.85100 29.95900
H  45.42000 17.60000 26.30800
H  44.35900 18.14700 27.62300
H  46.07300 18.08700 27.95400
H  47.03700 23.85200 23.52200
H  48.78200 26.08400 24.04600
H  49.86100 24.07200 24.01100
H  49.04300 22.58200 23.44200
H  49.19200 22.93800 25.11200
H  46.75900 27.47100 24.03600
H  45.75300 26.06000 23.69500
H  47.76200 26.04200 21.79600
H  47.21000 27.69500 21.93800
H  46.07500 26.33000 21.55200
H  49.43500 29.56200 26.74400
H  50.11000 30.33400 28.21700
H  48.51900 30.84600 27.63700
H  46.95700 28.93400 32.41400
H  50.16300 29.07600 35.37500
H  49.10000 27.63700 35.65100
H  48.66900 29.20200 36.27500
Mg 30.28100 59.97000 39.30100
C  27.23900 58.35400 38.04900
C  32.01900 57.25400 38.21400
C  33.14600 61.66000 39.75000
C  28.25700 62.79200 39.76600
N  29.67500 58.10300 37.98800
C  28.42400 57.61900 37.78600
C  28.58600 56.31800 37.02100
C  29.94500 55.82000 37.51700
C  30.60700 57.12200 37.95400
C  30.02300 54.70600 38.64600
C  28.29200 56.53400 35.47900
C  27.14200 55.74900 34.78400
H  26.25400 56.41700 33.81600
N  32.33600 59.50600 39.04200
C  32.80300 58.32700 38.65200
C  34.19600 58.37400 38.65800
C  34.62000 59.61000 39.15900
C  33.38300 60.33800 39.38000
C  35.09000 57.30800 38.02700
C  36.03800 60.05500 39.39900
O  36.94100 59.33900 39.06000
C  36.32200 61.27000 40.13500
N  30.63400 61.93000 39.62000
C  31.86800 62.37700 39.83400
C  31.80100 63.94600 39.82100
C  30.29600 64.21200 40.19600
C  29.66000 62.88500 39.88000
C  32.81500 64.68200 40.79900
C  29.68600 65.42800 39.47000
C  28.83600 66.39900 40.43200
N  28.13000 60.52100 39.05300
C  27.51600 61.70100 39.33800
C  26.05300 61.56400 39.16000
C  25.88100 60.18700 38.67600
C  27.18100 59.64400 38.64800
C  24.90300 62.60000 39.22000
C  24.89800 59.24900 38.21000
O  23.66700 59.33300 38.11200
C  25.80600 57.94600 37.84000
C  25.26700 56.83500 38.58200
O  25.72300 56.43600 39.67300
O  24.18600 56.32200 37.93400
C  23.49400 55.22500 38.61000
H  32.55600 56.37900 37.84100
H  33.98900 62.35400 39.73300
H  27.68000 63.70900 39.89700
H  27.94000 55.51600 37.38000
H  30.53700 55.44700 36.68100
H  30.79800 55.03100 39.34000
H  30.39300 53.76300 38.24300
H  29.12500 54.66900 39.26400
H  29.17500 56.26400 34.89800
H  28.02800 57.59000 35.43100
H  26.44400 55.26500 35.46800
H  27.59400 54.86500 34.33400
H  34.57400 56.68600 37.29500
H  35.59900 56.79500 38.84300
H  35.92500 57.72200 37.46100
H  37.25900 61.24300 40.69100
H  35.57000 61.27700 40.92400
H  36.27600 62.19700 39.56300
H  32.05600 64.38100 38.85400
H  30.22000 64.30300 41.28000
H  33.50800 64.01900 41.31700
H  32.24000 65.17300 41.58300
H  33.32800 65.44700 40.21600
H  29.04100 65.11200 38.65100
H  30.55800 66.03400 39.22500
H  28.74700 66.01600 41.44900
H  27.83900 66.59900 40.03800
H  29.45400 67.24400 40.73400
H  24.02700 62.11700 38.78800
H  25.27600 63.51400 38.75700
H  24.75000 62.78000 40.28400
H  25.66100 57.69300 36.78900
H  23.99800 54.32300 38.26500
H  22.44500 55.19000 38.31500
H  23.62000 55.30400 39.69000

