158

Mg 33.67100 48.62700 25.03700
C  34.09800 47.19900 28.23700
C  31.97300 51.24800 26.62300
C  33.16400 49.80300 22.09200
C  35.18100 45.69100 23.68200
N  33.31000 49.22200 27.25300
C  33.56700 48.52100 28.33400
C  33.28400 49.36600 29.61100
C  32.46800 50.55700 29.05100
C  32.64900 50.38600 27.54800
C  31.05600 50.63900 29.50700
C  34.50100 49.72000 30.35200
C  34.41400 49.69600 31.85600
H  33.01500 49.56000 32.54200
N  32.70100 50.31500 24.43300
C  32.07000 51.26100 25.17500
C  31.64400 52.35900 24.28200
C  31.90900 51.93800 22.96200
C  32.61600 50.59800 23.16000
C  30.99300 53.59500 24.71700
C  31.56500 52.71300 21.72600
O  31.91700 52.23600 20.65400
C  30.73700 54.00500 21.69000
N  34.12900 47.85500 23.14900
C  33.89100 48.58400 21.99000
C  34.47900 47.97400 20.73800
C  35.06300 46.65400 21.28500
C  34.85900 46.77800 22.78400
C  33.38800 47.84700 19.60300
C  36.56500 46.30100 20.78700
C  37.75900 46.75500 21.70500
N  34.31300 46.69600 25.66800
C  34.96200 45.69300 25.09700
C  35.31600 44.63600 26.02800
C  34.92800 45.22300 27.31100
C  34.42300 46.43800 27.05800
C  35.87300 43.30100 25.66800
C  34.97300 45.01300 28.77200
O  35.35200 44.04100 29.34500
C  34.40400 46.30100 29.38800
C  33.17000 45.79500 30.00400
O  32.08600 45.65900 29.45700
O  33.50800 45.46800 31.32500
C  32.44800 44.77100 32.12000
H  31.50600 52.10300 27.11600
H  32.99800 50.20700 21.09100
H  35.68500 44.81400 23.26900
H  32.63500 48.75700 30.24100
H  32.98000 51.49100 29.28300
H  30.70600 49.72800 29.99200
H  30.45800 50.70200 28.59700
H  30.85600 51.42200 30.23800
H  34.72200 50.75200 30.08200
H  35.35700 49.16200 29.97000
H  34.98500 50.52900 32.26500
H  34.93400 48.77300 32.11600
H  31.54000 54.44200 24.30500
H  31.12500 53.69600 25.79400
H  29.92300 53.68300 24.52500
H  29.80600 54.00500 22.25700
H  30.51000 54.28600 20.66100
H  31.35900 54.80000 22.10000
H  35.27600 48.68000 20.50500
H  34.40600 45.83400 20.99500
H  32.62900 48.62000 19.47900
H  32.82200 46.95400 19.87000
H  33.76700 47.68200 18.59400
H  36.79900 46.77600 19.83400
H  36.62200 45.21500 20.71200
H  37.52900 47.43500 22.52600
H  38.34400 47.38400 21.03500
H  38.34600 45.93500 22.11900
H  36.95600 43.35100 25.55600
H  35.37700 42.86900 24.79900
H  35.75500 42.62400 26.51400
H  35.16900 46.67400 30.07000
H  32.82700 43.75200 32.19800
H  31.47300 44.89500 31.64900
H  32.35600 45.26400 33.08800
Mg 6.38000 57.25500 42.16800
C  5.22900 53.94200 42.25100
C  9.23600 56.17800 40.97300
C  7.16500 60.47900 41.78000
C  3.09300 58.34100 43.12900
N  6.94100 55.27600 41.39700
C  6.44600 54.08400 41.55000
C  7.36400 52.98400 40.86800
C  8.71600 53.69000 40.94300
C  8.26100 55.18200 41.13000
C  9.65100 53.24400 42.15100
C  6.89900 52.66000 39.45100
C  7.53700 51.41800 38.92600
H  6.63700 50.56100 38.02800
N  7.96900 58.18800 41.33400
C  9.15500 57.59500 40.94100
C  10.05000 58.60700 40.38800
C  9.43000 59.87100 40.59500
C  8.10100 59.53200 41.30700
C  11.35200 58.16800 39.76700
C  10.09800 61.17200 40.17200
O  11.18500 61.20300 39.61000
C  9.56500 62.57300 40.66400
N  5.26100 59.15600 42.33900
C  5.87500 60.31600 42.24500
C  4.94600 61.47200 42.61700
C  3.53600 60.82000 42.64900
C  3.97200 59.35100 42.71200
C  5.37700 62.33000 43.79000
C  2.64500 61.11100 41.40500
C  1.09900 61.05200 41.61300
N  4.47300 56.32600 42.62600
C  3.29800 56.86600 43.14200
C  2.39200 55.74300 43.41300
C  3.21900 54.59200 43.26100
C  4.37800 54.98000 42.62600
C  0.96300 55.83900 43.87700
C  3.14900 53.14100 43.31000
O  2.37100 52.30600 43.78900
C  4.55100 52.68900 42.70200
C  4.37600 51.58200 41.71100
O  3.87300 51.62500 40.61500
O  4.92900 50.49400 42.31000
C  4.91800 49.20800 41.60100
H  10.25900 55.86400 40.75600
H  7.35500 61.55400 41.80100
H  2.08600 58.56000 43.48900
H  7.19000 52.22500 41.63000
H  9.30200 53.57900 40.03000
H  9.30600 52.26000 42.46900
H  9.67900 53.90800 43.01500
H  10.64200 53.09600 41.72400
H  7.21600 53.54700 38.90300
H  5.81400 52.57300 39.51000
H  8.03200 50.86300 39.72200
H  8.49100 51.73900 38.50800
H  11.19800 57.81100 38.74900
H  11.80600 57.30300 40.25000
H  12.12200 58.94000 39.74100
H  8.58800 62.61700 40.18300
H  10.09200 63.45500 40.30000
H  9.43200 62.55900 41.74500
H  4.90100 62.08600 41.71800
H  3.03100 61.12400 43.56600
H  6.33700 61.98100 44.17000
H  4.67100 62.31600 44.62000
H  5.43200 63.36900 43.46300
H  2.98300 60.49300 40.57300
H  2.85800 62.13600 41.10300
H  0.57500 60.51000 40.82500
H  0.56200 61.99200 41.48400
H  0.83200 60.64400 42.58800
H  0.33400 56.16300 43.04800
H  0.92100 56.66100 44.59100
H  0.67200 54.93900 44.41900
H  5.24400 52.36000 43.47600
H  5.81000 49.18000 40.97500
H  4.10900 48.88400 40.94500
H  4.92000 48.41600 42.34900

