158

Mg 1.06900 -0.98500 45.68100
C  4.30300 0.47900 45.31300
C  -0.24300 1.59300 44.01900
C  -1.82300 -2.79800 45.54500
C  2.78900 -3.87200 46.85800
N  1.99500 0.80100 44.73200
C  3.22600 1.28700 44.86600
C  3.36600 2.69800 44.20400
C  1.83600 3.07100 44.07300
C  1.10000 1.78300 44.33700
C  1.28500 4.26400 45.01800
C  4.15100 2.85100 42.80700
C  4.29400 4.33800 42.40100
H  3.60400 4.87300 41.14100
N  -0.80400 -0.65400 44.90500
C  -1.15000 0.46400 44.26400
C  -2.58900 0.44100 43.90100
C  -3.04000 -0.84700 44.28800
C  -1.87400 -1.51700 44.93600
C  -3.36800 1.56000 43.17200
C  -4.48200 -1.38700 44.07300
O  -5.28000 -0.72600 43.38000
C  -4.89600 -2.75600 44.62700
N  0.54500 -2.97500 46.15900
C  -0.71900 -3.41100 46.15800
C  -0.93400 -4.81700 46.75100
C  0.56300 -5.25000 46.99900
C  1.39300 -3.93600 46.70000
C  -1.79600 -4.81300 48.06300
C  0.87600 -6.50700 46.05100
C  1.35400 -7.74900 46.95800
N  3.08000 -1.56100 46.24300
C  3.67600 -2.72500 46.75500
C  5.10400 -2.60900 46.73200
C  5.40600 -1.38700 46.23400
C  4.17300 -0.79200 45.92200
C  6.06900 -3.56500 47.32900
C  6.43500 -0.52000 45.81500
O  7.62900 -0.77300 45.81300
C  5.80600 0.75700 45.21000
C  6.30200 1.90300 46.03400
O  6.06600 2.05600 47.22800
O  7.10300 2.75400 45.25300
C  7.52800 4.02500 45.84900
H  -0.73600 2.45100 43.55700
H  -2.66200 -3.48100 45.39700
H  3.18600 -4.85600 47.11800
H  3.88700 3.25700 44.98100
H  1.54400 3.37600 43.06800
H  2.11900 4.92300 45.25600
H  0.76500 3.92400 45.91300
H  0.61900 4.85700 44.39100
H  3.67100 2.31500 41.98800
H  5.17300 2.56000 43.04700
H  5.36200 4.51700 42.27200
H  4.06700 4.98100 43.25100
H  -2.95000 2.47000 43.60200
H  -4.45100 1.55400 43.29000
H  -3.20200 1.61700 42.09600
H  -4.30200 -3.47600 44.06500
H  -5.91300 -3.01200 44.32800
H  -4.88800 -2.87500 45.71100
H  -1.43000 -5.47300 46.03500
H  0.77400 -5.52700 48.03200
H  -2.43700 -3.95100 48.25100
H  -1.09500 -4.90500 48.89200
H  -2.37500 -5.73500 48.00800
H  1.61100 -6.25900 45.28600
H  0.02600 -6.89200 45.48800
H  1.05500 -8.69100 46.50000
H  1.09100 -7.80500 48.01400
H  2.43800 -7.83700 46.87900
H  6.93500 -3.64000 46.67200
H  5.74100 -4.60400 47.31800
H  6.47700 -3.27200 48.29700
H  6.08500 0.75600 44.15600
H  8.20600 3.84500 46.68400
H  6.70700 4.70900 46.06400
H  8.14100 4.60400 45.15900
Mg 29.19600 57.53700 41.52500
C  26.40100 55.75000 40.25700
C  31.14600 55.26700 39.66100
C  31.90500 59.48500 42.05000
C  27.02500 59.86700 42.81800
N  28.80800 55.75700 40.08700
C  27.63400 55.28200 39.77200
C  27.74900 54.16700 38.71800
C  29.18500 53.69800 38.96100
C  29.79800 54.94300 39.59100
C  29.36200 52.42400 39.88400
C  27.48600 54.71600 37.25700
C  26.63600 53.77500 36.37400
H  27.06600 53.74300 34.93400
N  31.24700 57.41100 40.98100
C  31.79100 56.38600 40.30000
C  33.27500 56.49200 40.31900
C  33.51800 57.74500 40.88300
C  32.23500 58.28500 41.31900
C  34.27700 55.48400 39.73000
C  34.89200 58.28900 41.09000
O  35.83900 57.62600 40.71500
C  35.21000 59.65900 41.66500
N  29.38500 59.41400 42.18600
C  30.61700 60.02700 42.38400
C  30.44900 61.45400 42.97100
C  28.90900 61.48100 43.28700
C  28.38400 60.17000 42.70800
C  31.42200 61.88700 44.15000
C  28.27500 62.86900 42.77300
C  27.69500 62.85400 41.37000
N  27.10400 57.68800 41.70000
C  26.34000 58.66200 42.36500
C  24.98100 58.29600 42.35300
C  24.93300 57.10000 41.60200
C  26.23400 56.80400 41.18300
C  23.89200 58.95500 43.09700
C  24.12900 56.06500 41.08500
O  22.94400 55.86600 41.32400
C  25.02700 55.10700 40.04300
C  24.93900 53.63200 40.34300
O  25.20300 53.08700 41.40400
O  24.32200 52.92900 39.26600
C  24.35300 51.44600 39.40700
H  31.86500 54.54000 39.27800
H  32.79300 60.07000 42.29900
H  26.44300 60.60500 43.37500
H  27.09800 53.32300 38.94300
H  29.76400 53.60500 38.04200
H  29.45800 52.74900 40.92000
H  30.28000 51.95000 39.53800
H  28.48200 51.78100 39.85000
H  28.42400 54.90000 36.73200
H  26.99400 55.68400 37.35600
H  25.61800 54.15300 36.27000
H  26.54900 52.76000 36.76000
H  33.85100 54.48400 39.65000
H  35.20300 55.36800 40.29400
H  34.55100 55.65000 38.68800
H  34.70600 60.38200 41.02300
H  36.29600 59.75100 41.68300
H  34.84400 59.68700 42.69100
H  30.51200 62.12300 42.11300
H  28.66600 61.39500 44.34600
H  32.30100 61.24300 44.18200
H  30.93500 61.92400 45.12500
H  31.78800 62.86600 43.84100
H  28.94000 63.71600 42.94400
H  27.41800 63.05400 43.42100
H  27.44000 61.88200 40.94800
H  28.46800 63.30800 40.75000
H  26.80900 63.48800 41.41200
H  22.96400 58.38600 43.02700
H  23.71200 59.89800 42.58200
H  24.16300 59.14300 44.13600
H  24.66700 55.43200 39.06800
H  23.30300 51.18200 39.28800
H  24.77600 51.08100 40.34300
H  25.00500 50.95400 38.68500

