158

Mg 26.59000 50.54900 26.30100
C  24.52100 51.89900 28.87500
C  28.75900 49.38300 28.73900
C  28.76400 49.93800 23.90300
C  24.63600 52.37400 24.01000
N  26.60900 50.68000 28.56000
C  25.57200 51.09300 29.39800
C  25.94400 50.78100 30.80800
C  27.32800 50.08100 30.76700
C  27.59400 50.02800 29.24400
C  28.44900 50.79900 31.59500
C  24.79300 50.04200 31.56400
C  24.48900 50.83800 32.92500
H  24.68400 50.02900 34.23300
N  28.51300 49.67500 26.35700
C  29.19400 49.29700 27.43700
C  30.53300 48.79600 27.05700
C  30.53300 48.98400 25.60300
C  29.23500 49.53500 25.21800
C  31.52300 48.19200 28.03700
C  31.55300 48.65300 24.60400
O  31.52200 48.90600 23.40700
C  32.60200 47.74500 25.07200
N  26.78500 51.31600 24.29900
C  27.73800 50.74800 23.45200
C  27.29400 50.68500 22.03500
C  25.97400 51.44200 22.06900
C  25.81200 51.81700 23.50700
C  28.41900 51.30500 21.13300
C  24.78800 50.55100 21.47300
C  24.09500 51.08800 20.15800
N  24.88000 51.89200 26.36600
C  24.17000 52.39600 25.35900
C  22.93400 52.96900 25.81100
C  23.06700 52.90500 27.20500
C  24.24300 52.18200 27.49000
C  21.87700 53.67500 25.04700
C  22.41000 53.24500 28.46600
O  21.43600 53.88900 28.75500
C  23.41900 52.69200 29.60400
C  23.92900 53.86100 30.38900
O  24.79200 54.63700 29.98600
O  23.17600 54.02000 31.47100
C  23.38500 55.16200 32.40400
H  29.39800 49.07700 29.57000
H  29.33900 49.43800 23.12200
H  23.87600 52.73700 23.31400
H  26.05600 51.79400 31.19300
H  27.28000 49.04800 31.11100
H  28.19700 51.68300 32.18000
H  29.28900 51.09200 30.96500
H  28.90100 50.09100 32.29000
H  25.13200 49.04600 31.85000
H  23.87300 49.91500 30.99400
H  23.42800 51.07400 32.84700
H  25.05400 51.76300 33.03300
H  31.19600 48.13900 29.07600
H  32.40200 48.82200 27.89700
H  31.96000 47.22700 27.78000
H  33.40800 47.60000 24.35200
H  32.10000 46.82200 25.36300
H  33.12300 48.31300 25.84200
H  27.09700 49.62800 21.85600
H  26.04000 52.33500 21.44800
H  29.30700 51.47800 21.74000
H  28.14100 52.26900 20.70700
H  28.73400 50.67800 20.29900
H  23.98300 50.43200 22.19900
H  25.15200 49.54400 21.26700
H  24.00000 50.13500 19.63700
H  24.67400 51.74000 19.50400
H  23.16300 51.55800 20.47000
H  22.24300 54.50900 24.44900
H  21.21400 54.16400 25.76100
H  21.34500 52.91600 24.47200
H  22.80000 52.12000 30.29500
H  23.89000 56.03300 31.98500
H  24.03000 54.78200 33.19600
H  22.46900 55.43100 32.92900
Mg -11.82200 16.73300 40.71600
C  -8.45600 15.60000 40.48400
C  -10.76000 20.01500 40.05900
C  -14.98000 17.73400 40.44700
C  -12.77300 13.52800 41.36800
N  -9.84900 17.66900 40.24900
C  -8.56600 17.02200 40.16400
C  -7.47600 18.07700 39.91000
C  -8.19800 19.43300 39.67800
C  -9.71700 19.06000 40.03700
C  -7.61100 20.63900 40.43000
C  -6.56700 17.61700 38.58800
C  -5.01400 17.64600 38.84900
H  -4.21700 16.36600 38.79300
N  -12.77400 18.62800 40.35100
C  -12.14800 19.84200 40.21400
C  -13.14400 20.81900 40.17900
C  -14.44900 20.25800 40.40200
C  -14.12000 18.80000 40.37700
C  -12.80700 22.33000 39.87400
C  -15.81400 20.98800 40.68700
O  -15.89400 22.20600 40.57800
C  -16.98000 20.27400 41.40600
N  -13.59300 15.68700 40.52600
C  -14.73200 16.35200 40.53400
C  -15.91100 15.49800 40.98800
C  -15.28700 14.07200 41.09500
C  -13.76600 14.46700 41.06000
C  -16.60500 16.12700 42.23900
C  -15.74700 13.14600 39.87400
C  -16.47800 11.85700 40.31900
N  -10.85100 14.85600 40.96600
C  -11.33800 13.65400 41.27800
C  -10.26000 12.68500 41.49700
C  -9.15100 13.39200 41.17200
C  -9.56500 14.71900 40.81700
C  -10.26600 11.22600 41.85100
C  -7.70900 13.38000 41.10100
O  -6.97200 12.39800 41.25200
C  -7.19000 14.74700 40.62300
C  -6.19700 15.18300 41.62200
O  -6.41400 15.71000 42.66900
O  -4.99000 14.53400 41.36400
C  -3.87100 14.60900 42.38500
H  -10.55600 21.07400 39.89200
H  -16.04100 17.99100 40.47800
H  -13.08100 12.50400 41.58700
H  -6.92400 17.98000 40.84500
H  -8.31900 19.50700 38.59700
H  -6.76800 20.19700 40.96000
H  -8.37000 21.06500 41.08600
H  -7.29900 21.44300 39.76300
H  -6.75300 18.29200 37.75400
H  -6.86600 16.59700 38.34600
H  -4.81100 18.01100 39.85500
H  -4.56200 18.31400 38.11500
H  -13.68000 22.94500 39.65800
H  -12.08400 22.42700 39.06300
H  -12.26300 22.75800 40.71600
H  -17.92900 20.25800 40.87000
H  -17.15700 20.94000 42.25100
H  -16.77700 19.30100 41.85400
H  -16.60700 15.49800 40.14900
H  -15.38300 13.56100 42.05400
H  -16.25000 17.11000 42.54800
H  -16.56300 15.38600 43.03800
H  -17.64400 16.29500 41.95600
H  -14.82600 12.89100 39.35100
H  -16.39600 13.61900 39.13700
H  -15.72900 11.06600 40.27900
H  -17.39400 11.56500 39.80700
H  -16.77900 11.95700 41.36200
H  -11.17800 10.68700 41.59400
H  -10.24400 11.08900 42.93200
H  -9.41000 10.82100 41.31100
H  -6.66900 14.68400 39.66800
H  -3.13300 13.90900 41.99400
H  -4.23900 14.33500 43.37400
H  -3.54500 15.62200 42.62100

