158

Mg 1.64800 -1.99300 45.28200
C  5.12200 -1.02100 45.22600
C  1.01600 0.84100 43.41500
C  -1.50700 -2.95200 45.19100
C  2.63800 -4.98000 46.51900
N  2.97400 -0.23700 44.51300
C  4.31400 -0.12300 44.52200
C  4.79100 1.10300 43.69200
C  3.44600 1.94500 43.55200
C  2.41200 0.80400 43.78000
C  3.23100 3.25800 44.42600
C  5.41900 0.71200 42.34800
C  6.38300 1.74600 41.80200
H  6.24500 2.04800 40.32500
N  -0.04800 -1.13400 44.40400
C  -0.06800 -0.00400 43.60200
C  -1.38300 0.22000 43.18400
C  -2.19500 -0.76400 43.84600
C  -1.24100 -1.68300 44.58400
C  -1.80100 1.34900 42.27300
C  -3.72000 -0.90300 43.70200
O  -4.31100 -0.13600 42.95700
C  -4.62000 -1.82400 44.57900
N  0.73400 -3.76000 45.80800
C  -0.63200 -3.91300 45.67500
C  -1.05700 -5.34400 46.09900
C  0.27300 -5.93500 46.58900
C  1.27800 -4.83700 46.27200
C  -2.30900 -5.40400 47.06500
C  0.66200 -7.35300 45.93300
C  0.93100 -8.50700 46.93800
N  3.51200 -2.92500 45.79900
C  3.72200 -4.08300 46.40100
C  5.16300 -4.21100 46.65700
C  5.80600 -3.05300 46.24300
C  4.69000 -2.27700 45.66800
C  5.81600 -5.41800 47.30000
C  7.02600 -2.28100 46.06400
O  8.18700 -2.57300 46.30100
C  6.63600 -0.95900 45.44200
C  6.93400 0.08800 46.49300
O  6.80300 -0.04700 47.69800
O  7.31200 1.25100 45.90100
C  7.80600 2.29000 46.80700
H  0.79900 1.79000 42.91900
H  -2.54300 -3.23400 45.38800
H  2.95000 -5.96000 46.88400
H  5.50400 1.64900 44.31000
H  3.30200 2.31700 42.53800
H  4.20200 3.56500 44.81500
H  2.46900 3.13700 45.19600
H  2.98200 4.11500 43.80100
H  4.55900 0.38700 41.76200
H  5.96200 -0.22100 42.49600
H  7.42800 1.59100 42.07300
H  6.14500 2.66300 42.34100
H  -0.98100 2.02500 42.03100
H  -2.53900 1.89900 42.85800
H  -2.36300 1.00600 41.40400
H  -4.14800 -1.87500 45.56000
H  -4.72000 -2.74400 44.00200
H  -5.67400 -1.55200 44.52900
H  -1.40500 -5.85000 45.19800
H  0.27300 -6.08000 47.66900
H  -1.99000 -5.83100 48.01600
H  -3.02600 -6.12200 46.66500
H  -2.88700 -4.49800 47.24900
H  1.50700 -7.23200 45.25400
H  -0.31500 -7.62800 45.53500
H  0.61000 -8.26800 47.95200
H  1.99200 -8.74000 47.02400
H  0.31800 -9.38300 46.72300
H  5.32700 -6.35900 47.04600
H  6.08700 -5.30500 48.35000
H  6.70400 -5.49400 46.67400
H  7.20400 -0.97500 44.51100
H  8.85800 2.55200 46.69700
H  7.65700 2.22400 47.88500
H  7.33900 3.20600 46.44500
Mg 26.81300 50.69400 26.75400
C  24.73200 51.55700 29.64600
C  29.14100 49.55300 28.94100
C  28.58900 49.67000 24.10000
C  24.35700 51.94100 24.76900
N  26.77500 50.39900 29.06500
C  25.85600 50.80200 29.99700
C  26.21400 50.40100 31.43300
C  27.74700 50.00400 31.16300
C  27.95500 50.00600 29.63500
C  28.83000 50.80000 31.91800
C  25.36300 49.27100 32.19500
C  24.77300 49.50000 33.55400
H  25.78500 49.94000 34.60000
N  28.58200 49.72100 26.58600
C  29.43100 49.35900 27.60500
C  30.57700 48.68700 27.09700
C  30.53000 48.78000 25.66500
C  29.20200 49.38400 25.41100
C  31.68200 48.26800 28.02000
C  31.51200 48.40600 24.53900
O  31.31300 48.74500 23.35800
C  32.87200 47.94800 24.88600
N  26.53500 50.71400 24.70900
C  27.39600 50.27500 23.74800
C  26.86400 50.58500 22.36000
C  25.43200 50.88200 22.60500
C  25.40100 51.21100 24.09800
C  27.67000 51.71700 21.63300
C  24.30000 49.90100 22.19400
C  23.11800 50.48900 21.45500
N  25.04400 51.69700 27.06000
C  24.11900 52.19000 26.12800
C  22.88300 52.69300 26.80400
C  23.14800 52.54500 28.15300
C  24.42400 51.88500 28.26900
C  21.68000 53.24100 26.08900
C  22.57000 52.77200 29.49800
O  21.60700 53.37100 29.79400
C  23.57100 52.12400 30.46600
C  23.97900 53.16100 31.50400
O  24.76800 54.01200 31.25600
O  23.22900 52.93100 32.61600
C  23.61700 53.69500 33.80500
H  29.83100 49.14700 29.68300
H  29.15600 49.35600 23.22200
H  23.58600 52.24300 24.05700
H  26.16300 51.31900 32.01900
H  27.90400 48.93600 31.31700
H  28.44500 50.96900 32.92300
H  29.11700 51.73100 31.42900
H  29.73400 50.19100 31.95600
H  25.89200 48.32000 32.14000
H  24.45100 49.19300 31.60400
H  24.34200 48.57300 33.93200
H  23.98100 50.24900 33.58900
H  32.34800 47.52300 27.58300
H  31.28100 47.90900 28.96800
H  32.13900 49.23600 28.22300
H  33.51800 48.04000 24.01200
H  32.82100 46.89000 25.14300
H  33.24600 48.47000 25.76700
H  27.07000 49.69900 21.76000
H  25.02800 51.79700 22.17100
H  28.44800 52.04800 22.32200
H  27.07200 52.57100 21.31600
H  28.34400 51.41800 20.83000
H  23.80600 49.43500 23.04600
H  24.74700 49.05800 21.66600
H  23.03300 49.89700 20.54400
H  23.31300 51.48300 21.05200
H  22.19100 50.55900 22.02400
H  20.96300 53.63000 26.81100
H  21.14600 52.59600 25.39100
H  22.15700 53.96500 25.42900
H  23.10600 51.27900 30.97200
H  22.71500 53.76500 34.41300
H  23.95500 54.72000 33.65400
H  24.38900 53.15000 34.34700

