158

Mg 35.00600 3.07800 30.18000
C  32.69500 3.98300 32.80900
C  37.35300 3.18000 32.45600
C  37.07500 2.62800 27.63100
C  32.29200 3.45300 27.97500
N  34.99400 3.41400 32.37300
C  33.96100 3.60900 33.26100
C  34.41100 3.63900 34.71500
C  35.97000 3.68200 34.54100
C  36.15000 3.45600 33.02900
C  36.76100 4.97100 34.87800
C  33.91200 2.40800 35.46100
C  33.61400 2.56000 36.96200
H  34.34500 3.63900 37.78700
N  36.90400 2.84800 30.03600
C  37.79100 2.81600 31.09400
C  39.11200 2.63300 30.61300
C  39.04600 2.43300 29.19900
C  37.61000 2.58300 28.89000
C  40.25800 2.50900 31.54100
C  40.20200 2.06400 28.16000
O  40.03400 1.91200 26.94000
C  41.61900 1.85000 28.67300
N  34.76900 3.03000 28.07300
C  35.75800 2.79900 27.22100
C  35.25700 2.50900 25.79800
C  33.70100 2.72000 25.88900
C  33.54200 3.09600 27.40400
C  36.02100 3.33100 24.71000
C  32.80700 1.52800 25.50000
C  33.16400 0.15600 26.14700
N  32.99100 3.67100 30.28100
C  31.99800 3.76700 29.34600
C  30.82200 4.29500 29.93500
C  31.06400 4.31000 31.27800
C  32.39300 3.95700 31.47800
C  29.59400 4.57100 29.12900
C  30.35700 4.67500 32.47300
O  29.20700 5.11800 32.68500
C  31.41000 4.40600 33.61100
C  31.53900 5.61900 34.50700
O  31.92500 6.67400 34.13400
O  30.94800 5.36000 35.72000
C  30.65900 6.45100 36.69000
H  38.04300 2.99600 33.28200
H  37.76600 2.42300 26.81100
H  31.49200 3.50000 27.23200
H  34.27400 4.60100 35.21000
H  36.49400 2.97400 35.18400
H  37.76000 4.83500 35.29200
H  36.11800 5.54400 35.54500
H  36.92500 5.56700 33.98000
H  34.60600 1.60600 35.20900
H  32.96500 2.22700 34.95400
H  33.60000 1.62400 37.51900
H  32.56700 2.86200 36.98500
H  40.87100 3.41100 31.53000
H  40.86100 1.66000 31.22000
H  39.86600 2.37300 32.54900
H  42.27800 1.88500 27.80600
H  41.61300 0.85500 29.11800
H  41.93400 2.61200 29.38600
H  35.49800 1.47100 25.56800
H  33.40800 3.52200 25.21200
H  36.65600 4.08900 25.17000
H  35.35900 3.76200 23.95900
H  36.70800 2.59300 24.29700
H  32.89400 1.36600 24.42600
H  31.75000 1.66500 25.72900
H  32.40900 -0.31500 26.77600
H  34.02000 0.36700 26.78700
H  33.44700 -0.58900 25.40400
H  29.55500 3.96300 28.22500
H  29.53700 5.62700 28.86600
H  28.74100 4.37400 29.78000
H  31.05000 3.50800 34.11300
H  31.20700 6.32400 37.62300
H  29.64200 6.45500 37.08100
H  30.79600 7.42700 36.22300
Mg 26.81900 50.30200 26.65700
C  24.70600 51.68400 29.17500
C  29.16500 49.76200 29.12000
C  29.03100 49.36200 24.27900
C  24.64500 51.61500 24.13300
N  26.82400 50.65200 28.94100
C  25.86500 51.16500 29.70800
C  26.20400 50.91900 31.13700
C  27.75800 50.46000 31.12500
C  27.95000 50.28800 29.67600
C  28.80500 51.36600 31.78800
C  25.31000 49.74100 31.83200
C  24.45200 50.18500 33.08200
H  24.56400 49.27800 34.29900
N  28.75200 49.60700 26.76600
C  29.65000 49.42800 27.83300
C  30.90600 48.91200 27.40800
C  30.84900 48.88200 26.03200
C  29.49600 49.23700 25.64600
C  32.00700 48.54400 28.39800
C  31.98500 48.57300 24.98300
O  31.85900 48.69000 23.77400
C  33.27300 48.14900 25.48700
N  26.70500 50.24400 24.48600
C  27.78200 49.74700 23.73800
C  27.37300 49.71700 22.26000
C  25.98800 50.51600 22.22500
C  25.73700 50.85800 23.71100
C  28.57300 50.25400 21.30400
C  24.80300 49.76900 21.57700
C  23.78800 50.67100 20.82100
N  25.07300 51.35200 26.65500
C  24.26100 51.80000 25.55600
C  23.03000 52.39700 26.08300
C  23.17400 52.32500 27.50300
C  24.47100 51.75700 27.78100
C  21.91000 52.98100 25.20000
C  22.57000 52.74300 28.72600
O  21.52600 53.34800 28.98000
C  23.44400 52.21400 29.87900
C  23.76100 53.27500 30.84900
O  24.60500 54.13800 30.74400
O  22.92300 53.14300 31.92800
C  23.27900 53.93700 33.15700
H  29.94400 49.43100 29.81100
H  29.68800 48.97200 23.49900
H  24.02500 52.06800 23.35700
H  26.14900 51.85800 31.68700
H  27.94200 49.50300 31.61400
H  29.37400 50.89900 32.59200
H  28.23000 52.16200 32.26100
H  29.45300 51.85500 31.06100
H  25.96600 48.97000 32.23700
H  24.65900 49.26500 31.09900
H  23.39100 50.29300 32.85900
H  24.78800 51.15700 33.44100
H  31.76900 48.82000 29.42500
H  32.95400 49.08200 28.35700
H  32.17300 47.46700 28.35400
H  33.94100 48.15700 24.62600
H  33.20200 47.14100 25.89500
H  33.70700 48.74700 26.28800
H  27.24100 48.65000 22.08200
H  26.08800 51.46700 21.70200
H  29.41100 50.56600 21.92700
H  28.22400 51.13700 20.76900
H  28.80600 49.42300 20.63700
H  24.23000 49.23600 22.33500
H  25.29200 48.99200 20.98900
H  23.68400 50.33100 19.79100
H  24.19400 51.68200 20.78200
H  22.81600 50.73200 21.31200
H  22.41100 53.71400 24.56800
H  21.12300 53.46600 25.77700
H  21.37500 52.23100 24.61700
H  22.99000 51.41900 30.47100
H  23.72400 53.32600 33.94200
H  22.36100 54.35800 33.56700
H  23.91900 54.77800 32.89000

