158

Mg 1.76700 -0.89000 43.85000
C  5.08700 -0.47300 43.22700
C  1.14100 2.07400 42.22900
C  -1.48100 -1.64500 43.79300
C  2.43900 -4.07700 45.14200
N  2.98200 0.55400 42.82700
C  4.35300 0.61300 42.80300
C  4.83200 1.90600 42.13100
C  3.57600 2.72900 42.03700
C  2.46400 1.72400 42.39400
C  3.58800 3.91300 43.04300
C  5.43600 1.61400 40.72100
C  6.50900 2.62800 40.19600
H  6.29500 3.17000 38.87300
N  0.02600 0.17300 43.10900
C  0.02300 1.38000 42.51800
C  -1.33900 1.72300 42.12600
C  -2.15300 0.67600 42.55600
C  -1.21500 -0.36000 43.20300
C  -1.72900 2.90600 41.26200
C  -3.66100 0.60200 42.28800
O  -4.29100 1.48800 41.75800
C  -4.45300 -0.53200 42.89600
N  0.64600 -2.57300 44.35200
C  -0.67500 -2.63700 44.34500
C  -1.19900 -3.90600 44.94700
C  0.08000 -4.71000 45.42700
C  1.14800 -3.71600 44.93400
C  -2.28400 -3.75000 46.04000
C  0.29900 -6.16100 44.99600
C  -0.94400 -7.02100 44.80200
N  3.47200 -2.03100 44.27900
C  3.63500 -3.26700 44.73500
C  5.01500 -3.58600 44.89000
C  5.68200 -2.49200 44.26800
C  4.64400 -1.59700 43.93900
C  5.67300 -4.80500 45.46300
C  6.94500 -2.01700 43.82700
O  8.04400 -2.47400 43.95500
C  6.60500 -0.61200 43.20900
C  7.29300 0.36600 44.00100
O  7.00700 0.64800 45.17900
O  8.18900 1.06700 43.25200
C  8.71300 2.37300 43.76700
H  1.02600 3.05900 41.77300
H  -2.51700 -1.95700 43.93900
H  2.62100 -5.04700 45.60800
H  5.56800 2.35700 42.79700
H  3.44800 3.09300 41.01700
H  2.84500 3.70500 43.81400
H  3.23600 4.78300 42.48800
H  4.55900 4.12000 43.49100
H  4.63400 1.66700 39.98400
H  5.80900 0.59100 40.76600
H  7.40100 2.00100 40.20000
H  6.60500 3.31500 41.03600
H  -2.44400 3.59100 41.71700
H  -2.17100 2.52600 40.34100
H  -0.80200 3.41600 41.00200
H  -5.52500 -0.36200 42.79000
H  -4.20700 -0.53800 43.95800
H  -4.21800 -1.46200 42.37800
H  -1.59100 -4.31800 44.01700
H  0.09700 -4.80600 46.51300
H  -2.05500 -4.17400 47.01700
H  -3.21500 -4.23600 45.74800
H  -2.50600 -2.68900 46.15200
H  0.91000 -6.55500 45.80900
H  0.88900 -6.22100 44.08100
H  -0.81000 -8.04100 45.16300
H  -1.34000 -7.02200 43.78700
H  -1.66700 -6.49400 45.42500
H  5.54500 -5.52400 44.65400
H  5.21000 -5.09900 46.40500
H  6.73600 -4.65000 45.64600
H  7.04900 -0.59000 42.21300
H  7.87600 2.98400 44.10300
H  9.12500 2.89400 42.90300
H  9.48800 2.16800 44.50600
Mg 41.50200 41.35900 25.88200
C  40.64500 43.84700 28.33900
C  42.32100 39.27900 28.57400
C  42.36400 39.14500 23.66800
C  40.83100 43.68700 23.43700
N  41.45700 41.53600 28.08600
C  40.99700 42.55800 28.85600
C  40.83600 42.27600 30.38900
C  41.64500 40.90000 30.45000
C  41.78100 40.50900 28.95800
C  43.05300 40.90000 31.13700
C  39.35000 42.08800 30.77500
C  38.95000 42.88100 32.01500
H  38.76500 42.20800 33.43400
N  42.20800 39.42400 26.07300
C  42.50400 38.73400 27.26000
C  42.88700 37.38300 26.86300
C  42.92300 37.35900 25.47300
C  42.52300 38.65200 25.05400
C  43.23500 36.39100 27.93300
C  43.38900 36.26100 24.51700
O  43.29600 36.32000 23.30700
C  44.08700 35.04300 25.01100
N  41.75900 41.48800 23.88100
C  42.05100 40.36800 23.11000
C  41.89400 40.60600 21.62700
C  41.04300 41.94200 21.62900
C  41.24900 42.44100 23.04900
C  43.25100 40.68000 20.87300
C  39.58500 41.67500 21.20500
C  38.78700 40.88500 22.27000
N  40.96900 43.37700 25.85900
C  40.73000 44.19000 24.77200
C  40.47400 45.53000 25.16500
C  40.41300 45.45200 26.58900
C  40.66700 44.10100 26.91100
C  40.28700 46.75700 24.31500
C  40.16300 46.20000 27.84800
O  39.79900 47.35100 28.01900
C  40.37400 45.12600 29.00000
C  41.41400 45.60200 29.91400
O  42.63800 45.37700 29.84400
O  40.82500 46.21100 30.98500
C  41.64700 46.63200 32.08400
H  42.29700 38.77000 29.54000
H  42.55300 38.40700 22.88600
H  40.47800 44.41200 22.70100
H  41.28900 43.07400 30.97700
H  41.15200 40.09200 30.99000
H  43.32400 41.90900 31.44800
H  43.84900 40.55900 30.47500
H  43.06100 40.23600 32.00100
H  39.02100 41.05800 30.91400
H  38.79500 42.30600 29.86300
H  37.99300 43.39000 31.90400
H  39.67200 43.67200 32.21800
H  42.99800 36.64500 28.96600
H  44.28800 36.14000 28.06700
H  42.80100 35.40100 27.79200
H  45.05700 35.36500 25.39100
H  44.31200 34.40200 24.15900
H  43.48900 34.40300 25.65900
H  41.29300 39.81000 21.18600
H  41.53100 42.75100 21.08500
H  43.51700 41.72800 20.73400
H  43.16800 40.05700 19.98200
H  44.06100 40.25700 21.46900
H  39.58000 41.21900 20.21500
H  39.04600 42.61600 21.09500
H  38.00600 41.53200 22.66900
H  39.33400 40.48900 23.12700
H  38.29000 40.06600 21.75000
H  40.81400 47.57100 24.81200
H  39.27400 47.15500 24.25400
H  40.77400 46.60400 23.35200
H  39.43300 45.07800 29.54900
H  41.93100 47.68400 32.09000
H  42.57500 46.07700 32.22200
H  41.15400 46.37900 33.02300

