158

Mg 47.07600 25.62500 28.56100
C  48.29900 27.65500 31.20800
C  45.80600 23.55800 30.88400
C  46.18000 23.58500 26.07400
C  48.72900 27.78900 26.36600
N  47.07600 25.72000 30.82500
C  47.50600 26.58800 31.65300
C  46.98200 26.33900 33.14300
C  46.37900 24.96900 32.94800
C  46.46000 24.69700 31.42800
C  47.22200 23.83800 33.59600
C  46.02300 27.47100 33.66800
C  46.51100 28.23600 34.89600
H  45.48900 28.34600 36.03800
N  46.05000 23.87800 28.44500
C  45.65300 23.16100 29.54200
C  44.95600 22.01400 29.05400
C  44.98400 21.97200 27.61300
C  45.79600 23.16600 27.32000
C  44.31000 20.95700 29.93600
C  44.31800 21.03400 26.56100
O  44.30100 21.34200 25.38200
C  43.55700 19.83500 27.09000
N  47.21300 25.80800 26.52100
C  46.80400 24.76400 25.62900
C  47.40500 24.91900 24.20100
C  48.04700 26.36500 24.38700
C  47.96700 26.74700 25.80800
C  48.44800 23.86000 23.94700
C  47.46600 27.53900 23.44400
C  48.41900 28.21100 22.41600
N  48.30900 27.46700 28.69000
C  48.84700 28.25200 27.69200
C  49.45900 29.41200 28.31600
C  49.26500 29.20400 29.69000
C  48.64100 27.94700 29.82500
C  50.08500 30.63100 27.62400
C  49.54400 29.74300 30.99800
O  50.15900 30.74200 31.30800
C  48.88000 28.78800 32.01300
C  49.93200 28.35000 33.10300
O  50.58300 27.31200 32.97300
O  49.96800 29.22400 34.19600
C  50.94400 28.86100 35.22800
H  45.33000 22.95500 31.66100
H  46.12100 22.92300 25.20700
H  49.16500 28.49000 25.65100
H  47.78700 26.18300 33.86100
H  45.33700 24.85100 33.24300
H  47.54300 24.08800 34.60700
H  48.09800 23.71400 32.95800
H  46.65400 22.91100 33.67200
H  45.06500 26.99400 33.87700
H  45.89800 28.20500 32.87200
H  46.61100 29.27800 34.59000
H  47.47400 27.91200 35.29000
H  43.25600 20.80100 29.70300
H  44.56400 21.05800 30.99100
H  44.79400 20.00900 29.70100
H  44.20500 19.17300 27.66400
H  43.28800 19.26000 26.20300
H  42.64300 20.23200 27.53100
H  46.58200 24.80200 23.49700
H  49.12300 26.35700 24.21700
H  48.10700 22.94900 23.45500
H  48.85300 23.54700 24.91000
H  49.28000 24.19900 23.33000
H  46.97600 28.28100 24.07300
H  46.65100 27.10100 22.86800
H  48.18700 29.27500 22.46600
H  48.15800 27.77600 21.45100
H  49.48500 28.16900 22.64100
H  49.57000 30.80400 26.67900
H  51.13800 30.36500 27.53200
H  49.92100 31.54100 28.20200
H  48.12100 29.42700 32.46500
H  51.06000 29.65600 35.96500
H  51.93700 28.64800 34.83300
H  50.56500 28.01000 35.79500
Mg -6.01800 25.39100 25.37700
C  -4.11100 26.43800 28.29200
C  -7.66200 23.22900 27.56900
C  -7.12100 23.88900 22.77900
C  -3.79100 27.37200 23.49500
N  -5.86400 24.92700 27.70500
C  -5.15100 25.55800 28.63500
C  -5.75600 25.33000 30.05300
C  -6.72200 24.10200 29.82700
C  -6.76400 24.09400 28.28000
C  -6.27300 22.76900 30.60100
C  -6.42600 26.56900 30.66900
C  -6.07200 26.67300 32.19100
H  -7.22400 26.19500 33.06400
N  -7.35500 23.93400 25.18500
C  -8.04200 23.24700 26.14300
C  -9.05900 22.38400 25.50400
C  -8.87000 22.49700 24.14600
C  -7.76200 23.45300 24.00100
C  -10.09800 21.64500 26.30700
C  -9.49300 21.74500 22.88900
O  -9.09200 21.70700 21.75700
C  -10.63100 20.89200 23.14700
N  -5.66200 25.73400 23.37400
C  -6.14700 24.85900 22.47900
C  -5.52800 25.04500 21.04500
C  -4.62600 26.35400 21.25400
C  -4.71500 26.58500 22.77300
C  -5.07000 23.83700 20.25200
C  -5.09000 27.68800 20.56300
C  -4.44200 28.14800 19.20200
N  -4.31600 26.61400 25.77800
C  -3.58100 27.36000 24.89800
C  -2.46800 28.03300 25.55200
C  -2.70100 27.78200 26.92000
C  -3.76900 26.81900 26.99100
C  -1.46300 28.83100 24.87600
C  -2.23600 28.11800 28.28600
O  -1.37000 28.89500 28.75000
C  -3.17600 27.24500 29.16500
C  -2.36900 26.49200 30.13900
O  -2.04400 25.32200 29.92700
O  -2.00400 27.19200 31.30000
C  -1.42200 26.34200 32.35800
H  -8.22000 22.71200 28.35300
H  -7.46500 23.43000 21.85100
H  -3.06700 27.93900 22.90600
H  -4.96200 24.99800 30.72200
H  -7.72400 24.31300 30.20000
H  -7.12500 22.30700 31.10000
H  -5.35600 22.78300 31.19000
H  -6.14000 22.03900 29.80300
H  -7.48700 26.42400 30.46600
H  -5.99900 27.46000 30.20900
H  -6.02500 27.74100 32.40400
H  -5.17000 26.15400 32.51500
H  -10.36000 20.65600 25.93100
H  -10.98800 22.27400 26.33400
H  -9.83100 21.48500 27.35100
H  -11.15600 20.77700 22.19900
H  -11.35400 21.41100 23.77600
H  -10.21900 19.94500 23.49500
H  -6.36500 25.29900 20.39500
H  -3.58100 26.22500 20.97100
H  -5.94300 23.18500 20.21500
H  -4.31700 23.34200 20.86500
H  -4.68800 24.15100 19.28100
H  -4.94700 28.41100 21.36600
H  -6.15100 27.53600 20.36500
H  -3.84400 29.05100 19.32300
H  -5.15300 28.31700 18.39400
H  -3.76500 27.40900 18.77100
H  -1.14400 28.30900 23.97400
H  -0.63100 28.73200 25.57300
H  -1.77600 29.87100 24.78100
H  -3.84200 27.84100 29.78900
H  -2.18300 26.23200 33.13100
H  -0.55300 26.82400 32.80600
H  -1.11400 25.33500 32.07600

