158

Mg 41.94200 41.26500 26.19000
C  41.05800 43.72600 28.57000
C  42.38400 39.02900 28.69500
C  43.11200 39.02800 23.91100
C  41.57900 43.57500 23.78600
N  41.78600 41.40800 28.37900
C  41.29100 42.45200 29.13900
C  41.31900 42.18000 30.71900
C  41.79300 40.65600 30.63700
C  42.04800 40.33200 29.15100
C  43.11900 40.38200 31.41000
C  39.94200 42.49200 31.43900
C  39.65700 41.73000 32.71800
H  39.15000 42.55700 33.97500
N  42.61900 39.26200 26.31400
C  42.66400 38.54500 27.43300
C  43.14700 37.16700 27.05200
C  43.38900 37.18900 25.66300
C  42.94000 38.51100 25.21700
C  43.49500 36.04200 28.06700
C  44.02900 36.13100 24.86500
O  44.28300 36.31400 23.69100
C  44.13000 34.70400 25.42900
N  42.39900 41.34100 24.22000
C  42.84100 40.30900 23.40600
C  42.82000 40.65900 21.91800
C  42.24200 42.15100 21.84300
C  42.05400 42.36700 23.36700
C  44.13800 40.61200 21.05500
C  40.91100 42.20400 21.11600
C  39.63000 41.79400 21.82900
N  41.55900 43.31500 26.16400
C  41.35700 44.10800 25.12000
C  40.85400 45.44500 25.52200
C  40.73300 45.28000 26.93600
C  41.20400 44.02200 27.22800
C  40.52000 46.62800 24.63200
C  40.29200 45.98300 28.10100
O  39.81500 47.09700 28.25700
C  40.52700 44.98800 29.24500
C  41.50700 45.68600 30.08000
O  42.61800 46.05500 29.84000
O  41.07500 45.90800 31.37500
C  42.07100 46.27400 32.38300
H  42.23200 38.33600 29.52500
H  43.42800 38.37000 23.09900
H  41.35700 44.25500 22.96000
H  42.07400 42.79500 31.20800
H  41.04400 39.99300 31.07100
H  43.78400 41.20300 31.13900
H  43.58900 39.43500 31.14700
H  43.01300 40.46500 32.49200
H  39.18400 42.42900 30.65800
H  39.95200 43.55900 31.66100
H  40.53100 41.22000 33.12200
H  38.88600 40.97100 32.58900
H  44.52400 35.72600 27.89700
H  42.74200 35.25500 28.05400
H  43.44500 36.51000 29.05000
H  44.99700 34.51400 26.06200
H  44.09900 34.01700 24.58300
H  43.15800 34.44300 25.84700
H  42.14100 40.01600 21.35900
H  43.00400 42.74600 21.33900
H  44.09000 41.26200 20.18100
H  44.35600 39.64700 20.59800
H  44.97800 40.82300 21.71800
H  41.07700 41.63200 20.20300
H  40.82600 43.22800 20.75200
H  39.31400 42.55800 22.53900
H  39.84300 40.88000 22.38300
H  39.01800 41.57900 20.95300
H  40.45000 46.32200 23.58800
H  41.26300 47.40300 24.82300
H  39.55800 46.98800 24.99800
H  39.59500 44.80500 29.78000
H  43.05000 45.83000 32.19800
H  41.69400 45.82900 33.30400
H  42.29200 47.33900 32.45900
Mg -2.17500 35.35400 26.69500
C  -3.53000 33.73200 29.64000
C  -1.08600 37.80500 28.84500
C  -1.24000 36.89000 24.08100
C  -3.90400 32.94600 24.88800
N  -2.42200 35.72300 28.99200
C  -2.81600 34.89600 30.00600
C  -2.44900 35.35600 31.35500
C  -1.63100 36.68400 31.07600
C  -1.70200 36.81500 29.54200
C  -2.18200 37.92800 31.76600
C  -1.60800 34.23700 32.05200
C  -2.09000 33.72900 33.36900
H  -1.14300 33.57400 34.59200
N  -1.10700 37.03400 26.45700
C  -0.71000 37.90100 27.49700
C  0.10300 38.96900 26.86500
C  0.19800 38.61000 25.46700
C  -0.76200 37.51500 25.26800
C  0.83300 40.02600 27.67100
C  0.99200 39.16800 24.34100
O  1.20000 38.57300 23.31000
C  1.77200 40.34200 24.56000
N  -2.71700 35.04700 24.77000
C  -2.10800 35.87400 23.80900
C  -2.56400 35.44300 22.37800
C  -3.33600 34.08400 22.63700
C  -3.30700 33.95600 24.14400
C  -3.48500 36.43000 21.62900
C  -2.63500 32.74300 21.96900
C  -1.16000 32.43000 22.31700
N  -3.39000 33.66100 27.10200
C  -3.99600 32.84100 26.29300
C  -4.69200 31.71500 26.94000
C  -4.47600 32.01500 28.22000
C  -3.71000 33.20000 28.26500
C  -5.47900 30.52900 26.39600
C  -4.77800 31.56500 29.56100
O  -5.41500 30.59700 29.94500
C  -4.15700 32.63000 30.52200
C  -5.37000 33.17900 31.22600
O  -6.20200 33.95100 30.72600
O  -5.52700 32.61600 32.44700
C  -6.69100 32.99100 33.23200
H  -0.54100 38.46900 29.51900
H  -1.06700 37.50000 23.19200
H  -4.43700 32.22900 24.26000
H  -3.44300 35.52600 31.76800
H  -0.57900 36.59700 31.35000
H  -2.77900 38.48600 31.04500
H  -1.30800 38.54500 31.97500
H  -2.74800 37.54900 32.61700
H  -0.58200 34.59200 32.15500
H  -1.47700 33.48800 31.27000
H  -2.49000 32.72600 33.21900
H  -2.84100 34.42300 33.74800
H  0.72700 39.91100 28.75000
H  0.43400 40.98400 27.33800
H  1.90200 39.95300 27.47100
H  2.04000 40.80600 23.61100
H  2.69700 39.98500 25.01300
H  1.20700 41.02800 25.19200
H  -1.76500 35.21600 21.67200
H  -4.41000 34.24100 22.53800
H  -3.80700 37.27500 22.23700
H  -4.39400 35.90900 21.32600
H  -3.02100 36.78300 20.70900
H  -2.68800 32.91100 20.89400
H  -3.15100 31.78600 22.05100
H  -1.15100 31.37200 22.57900
H  -0.88700 33.07700 23.15100
H  -0.45400 32.47200 21.48700
H  -6.48000 30.96100 26.43200
H  -5.37500 29.66800 27.05600
H  -5.28000 30.21900 25.37000
H  -3.51000 32.12800 31.24100
H  -7.61500 32.78800 32.69000
H  -6.54200 34.04200 33.48000
H  -6.71600 32.48600 34.19700

