158

Mg -1.45900 17.52600 27.39200
C  -1.90100 15.23900 29.97300
C  -2.27200 20.02900 29.65800
C  -1.61600 19.68400 24.81000
C  -1.59100 14.89800 25.04000
N  -2.00400 17.66500 29.58500
C  -1.99800 16.61000 30.49000
C  -2.35600 17.07500 31.96500
C  -2.43600 18.63200 31.83400
C  -2.22800 18.82400 30.23500
C  -3.69700 19.32900 32.43000
C  -1.39600 16.60500 33.08900
C  -1.65100 17.17900 34.51300
H  -0.37300 17.04000 35.35200
N  -1.67700 19.52100 27.32400
C  -1.97400 20.42700 28.30100
C  -2.16000 21.71800 27.73800
C  -1.82700 21.59200 26.37800
C  -1.70400 20.18700 26.09200
C  -2.53900 23.00200 28.45900
C  -1.60600 22.67400 25.34200
O  -1.19000 22.59500 24.19900
C  -1.94900 24.10300 25.68100
N  -1.52800 17.30400 25.24800
C  -1.43500 18.43000 24.40100
C  -1.42000 17.98500 22.91500
C  -1.07800 16.45700 23.06400
C  -1.38100 16.15800 24.52800
C  -2.76500 18.28400 22.15300
C  0.28000 16.02500 22.53700
C  1.43200 16.56800 23.30200
N  -1.56400 15.48100 27.46300
C  -1.68900 14.59000 26.41500
C  -1.74900 13.25400 26.94600
C  -1.91400 13.43500 28.35100
C  -1.76200 14.83300 28.62000
C  -1.79100 11.95200 26.16400
C  -2.09800 12.72700 29.56600
O  -2.20100 11.56800 29.82600
C  -2.14100 13.89900 30.70200
C  -1.15300 13.51500 31.77400
O  -0.06900 14.07100 31.95300
O  -1.72300 12.61800 32.64400
C  -1.25500 12.67000 34.03700
H  -2.35400 20.81500 30.41200
H  -1.64200 20.45300 24.03500
H  -1.58700 14.13400 24.26000
H  -3.39100 16.76100 32.09800
H  -1.51800 18.99700 32.29500
H  -4.15900 18.61900 33.11600
H  -4.43400 19.70700 31.72200
H  -3.33400 20.23900 32.90800
H  -0.37200 16.68700 32.72500
H  -1.60300 15.55000 33.26800
H  -2.55400 16.69700 34.88400
H  -1.81100 18.25700 34.51400
H  -2.58600 22.84100 29.53600
H  -3.56200 23.18500 28.13100
H  -1.91800 23.89000 28.34000
H  -1.92000 24.86400 24.90100
H  -1.22800 24.52200 26.38300
H  -2.96400 24.02900 26.07200
H  -0.60100 18.39700 22.32600
H  -1.77000 15.76100 22.59000
H  -3.55900 18.55600 22.84900
H  -2.93200 17.38800 21.55600
H  -2.58100 19.09500 21.44900
H  0.37900 16.44800 21.53800
H  0.43900 14.94700 22.51100
H  1.09700 16.94100 24.27000
H  1.78900 17.46900 22.80400
H  2.27500 15.88100 23.38300
H  -1.75900 12.04200 25.07800
H  -2.64600 11.35000 26.46900
H  -0.93300 11.37500 26.51100
H  -3.09500 13.91600 31.23000
H  -1.58800 13.59800 34.50200
H  -0.17700 12.54200 34.12700
H  -1.74200 11.85700 34.57600
Mg 40.86700 8.57000 29.98800
C  42.49000 9.87100 32.85300
C  38.28100 7.45100 32.02500
C  39.20000 7.72600 27.27100
C  43.49000 9.81400 28.02400
N  40.47600 8.58700 32.20300
C  41.23300 9.24000 33.09900
C  40.65300 9.08400 34.54700
C  39.23500 8.33800 34.29300
C  39.28300 8.12800 32.75300
C  39.09800 6.91000 34.96400
C  40.58000 10.44600 35.28200
C  39.75200 10.60900 36.54800
H  40.48000 11.66200 37.55600
N  39.14300 7.52300 29.66900
C  38.19500 7.13400 30.63900
C  37.12500 6.43100 29.96800
C  37.27800 6.62900 28.54600
C  38.52900 7.34100 28.45200
C  35.93500 5.90700 30.75000
C  36.43900 6.22400 27.39300
O  36.70600 6.50700 26.25200
C  35.30300 5.33900 27.56300
N  41.28100 8.84500 27.99200
C  40.39900 8.36200 27.03200
C  40.87600 8.68500 25.62800
C  42.23100 9.41400 25.79200
C  42.36200 9.30700 27.36000
C  40.93900 7.48000 24.64600
C  42.23300 10.87100 25.25200
C  43.26400 11.13500 24.27900
N  42.64600 9.57600 30.39300
C  43.64300 10.03000 29.43100
C  44.65700 10.64000 30.11800
C  44.26800 10.65600 31.50400
C  43.00200 10.03000 31.63700
C  45.97600 11.05900 29.52000
C  44.71400 11.00100 32.89300
O  45.76100 11.40700 33.31000
C  43.48300 10.57700 33.78300
C  44.05000 9.63800 34.72000
O  44.10200 8.41600 34.61600
O  44.53200 10.34300 35.80600
C  45.25400 9.52000 36.75400
H  37.41800 7.16100 32.62900
H  38.83400 7.49200 26.26900
H  44.34700 10.17000 27.44800
H  41.31400 8.44400 35.13100
H  38.44600 9.06100 34.50400
H  38.11600 6.59200 35.31400
H  39.89200 6.85500 35.70800
H  39.26200 6.11300 34.23900
H  40.17700 11.16300 34.56700
H  41.56900 10.79500 35.58200
H  39.76700 9.64000 37.04700
H  38.74600 10.89500 36.23900
H  34.98300 6.24800 30.34400
H  36.04100 6.15700 31.80500
H  35.89500 4.81700 30.75600
H  35.64000 4.54900 28.23300
H  35.08300 5.11100 26.52000
H  34.44300 5.90000 27.93000
H  40.08200 9.35500 25.29800
H  42.96900 8.75300 25.33800
H  40.77000 6.53100 25.15400
H  41.90700 7.33400 24.16700
H  40.37300 7.62900 23.72700
H  42.40900 11.48400 26.13600
H  41.23000 10.98400 24.83900
H  44.05100 10.38800 24.17500
H  43.85900 11.95200 24.68800
H  42.86000 11.46100 23.32000
H  46.53000 11.35100 30.41300
H  45.82900 11.94000 28.89600
H  46.39000 10.16600 29.05300
H  43.07200 11.45800 34.27600
H  45.81700 10.18000 37.41300
H  46.07700 9.08200 36.18800
H  44.73900 8.78900 37.37800

