158

Mg 49.52300 45.47000 42.37600
C  45.96100 45.69600 41.51500
C  49.17600 42.16900 41.43800
C  52.70900 45.44000 42.09400
C  49.46600 48.93600 42.78900
N  47.70500 44.06500 41.49400
C  46.40900 44.40400 41.22100
C  45.75400 43.20400 40.55000
C  46.69100 42.10400 41.04600
C  47.90800 42.81700 41.30000
C  46.27000 41.27000 42.26700
C  45.60000 43.41600 39.04200
C  44.59600 42.52100 38.27500
H  44.97100 41.74700 36.96200
N  50.78400 43.96800 41.95400
C  50.50500 42.65700 41.60100
C  51.75900 41.93200 41.61700
C  52.83300 42.88000 41.65300
C  52.13600 44.17200 41.92600
C  51.77500 40.45300 41.65600
C  54.34800 42.61800 41.63900
O  54.82800 41.50300 41.39900
C  55.30300 43.81600 41.95000
N  50.89900 46.98800 42.47300
C  52.26200 46.72200 42.49200
C  53.10500 48.03800 42.65100
C  51.99200 49.14800 42.84300
C  50.66300 48.32600 42.74600
C  54.18800 47.98200 43.80800
C  52.13000 50.25700 41.65600
C  51.87000 51.68600 42.15400
N  48.10900 47.06600 42.27700
C  48.26700 48.38600 42.54800
C  46.95400 49.01600 42.48700
C  46.03400 48.06200 42.03200
C  46.75200 46.86000 41.90300
C  46.65800 50.49600 42.68100
C  44.64200 47.82700 41.66000
O  43.74000 48.68100 41.63800
C  44.59400 46.29300 41.21200
C  43.55900 45.48700 41.80500
O  42.81700 44.71300 41.21200
O  43.37200 45.83100 43.07800
C  42.12900 45.37200 43.84500
H  49.11400 41.09100 41.27200
H  53.79400 45.53400 42.02200
H  49.35600 50.02200 42.81500
H  44.73300 42.94200 40.82900
H  47.00700 41.39900 40.27700
H  47.12200 41.09400 42.92300
H  46.06300 40.30200 41.81100
H  45.31800 41.61000 42.67800
H  46.58900 43.44500 38.58500
H  45.12900 44.39400 38.94400
H  43.77800 43.19000 38.00600
H  44.07900 41.88000 38.98900
H  51.47700 40.05800 42.62700
H  52.69000 40.00300 41.27200
H  51.08400 40.05400 40.91400
H  56.28800 43.37100 42.08600
H  54.90600 44.15100 42.90800
H  55.41000 44.50300 41.11100
H  53.67100 48.27900 41.75100
H  51.98400 49.55400 43.85500
H  55.18400 48.18500 43.41500
H  54.35500 47.02500 44.30400
H  53.93100 48.56300 44.69400
H  51.30600 49.98700 40.99600
H  53.05000 50.29600 41.07300
H  51.09700 52.07800 41.49300
H  52.78300 52.28000 42.20600
H  51.66500 51.72000 43.22400
H  47.50500 50.92100 43.21900
H  45.82000 50.52600 43.37700
H  46.40100 51.12600 41.83000
H  44.39300 46.29900 40.14000
H  41.21000 45.75500 43.40300
H  42.15200 45.72300 44.87700
H  42.01900 44.29800 43.69000
Mg 9.76400 47.98000 27.01800
C  8.01200 47.68900 29.95700
C  12.49600 48.98700 28.73100
C  11.51100 47.92500 24.05500
C  6.83100 47.14800 25.15700
N  10.15100 48.27200 29.14800
C  9.30500 48.12400 30.18000
C  10.05200 48.37400 31.52700
C  11.28700 49.17500 30.98800
C  11.36200 48.81900 29.53000
C  11.19000 50.74300 31.07100
C  10.39000 47.08900 32.36900
C  10.13400 47.24800 33.87100
H  10.12200 45.99400 34.69100
N  11.75000 48.49600 26.48600
C  12.70800 48.77900 27.35300
C  13.99700 48.82700 26.65700
C  13.75200 48.38500 25.31400
C  12.26700 48.25000 25.21100
C  15.25400 49.18100 27.29600
C  14.73400 48.17000 24.22600
O  14.28700 47.83100 23.14500
C  16.19900 48.31900 24.45900
N  9.21400 47.65500 24.90400
C  10.11700 47.73400 23.88600
C  9.51600 47.54000 22.52000
C  8.03900 47.13800 22.81900
C  7.98100 47.38300 24.37700
C  9.72100 48.81500 21.60200
C  7.66500 45.64100 22.45000
C  6.26000 45.29000 21.91400
N  7.78400 47.67700 27.44900
C  6.75000 47.27400 26.55500
C  5.60700 46.91300 27.36700
C  6.03800 47.20000 28.69900
C  7.40400 47.55500 28.70500
C  4.24800 46.67200 26.85200
C  5.57500 47.25100 30.05300
O  4.46300 47.07700 30.57900
C  6.92100 47.45500 30.91200
C  7.07700 46.19700 31.69500
O  7.52200 45.16300 31.24800
O  6.55700 46.39700 33.00600
C  6.66700 45.21600 33.82800
H  13.42600 49.25500 29.23600
H  12.05600 47.81700 23.11500
H  5.95400 46.81200 24.60000
H  9.45300 49.05500 32.13200
H  12.19400 48.86900 31.51000
H  11.17000 51.04900 30.02400
H  11.95900 51.33500 31.56700
H  10.25400 51.08100 31.51600
H  11.45300 46.88300 32.24100
H  9.89400 46.25400 31.87400
H  9.12300 47.65100 33.93800
H  10.99600 47.83300 34.19100
H  15.40300 49.20800 28.37600
H  15.70600 50.11500 26.96200
H  15.86700 48.28300 27.21400
H  16.79300 48.06000 23.58300
H  16.42000 47.54800 25.19600
H  16.43500 49.33100 24.78800
H  9.94600 46.73700 21.92100
H  7.30400 47.82900 22.40500
H  10.26500 49.57800 22.16000
H  8.78900 49.18300 21.17500
H  10.38900 48.53300 20.78900
H  7.87900 44.95100 23.26600
H  8.38100 45.26100 21.72100
H  5.56200 46.11800 21.79400
H  5.90200 44.63300 22.70700
H  6.30500 44.67900 21.01300
H  4.25900 45.72800 26.30800
H  4.07100 47.40700 26.06600
H  3.45800 46.63900 27.60300
H  6.86800 48.36300 31.51300
H  7.53800 44.63000 33.53800
H  5.82000 44.56400 33.61400
H  6.55900 45.49600 34.87600

