158

Mg 15.77700 51.45100 25.60200
C  17.23600 50.31600 28.60000
C  12.93600 52.19700 27.38500
C  14.27000 52.01000 22.73500
C  18.54400 50.10500 23.90300
N  15.14900 51.18100 27.75700
C  15.99300 50.91100 28.82300
C  15.43100 51.44000 30.18200
C  13.95100 51.75400 29.81000
C  14.01500 51.78900 28.24000
C  12.69500 50.89000 30.25600
C  16.26800 52.69800 30.60400
C  16.07300 53.24900 31.95500
H  14.88500 52.79800 32.86400
N  13.87100 51.96600 25.12500
C  12.85000 52.29800 26.01600
C  11.65100 52.59300 25.26900
C  11.95000 52.37200 23.89200
C  13.42900 52.10500 23.84700
C  10.34600 52.93400 25.91300
C  11.07400 52.39600 22.62500
O  11.47800 52.04700 21.54900
C  9.64700 52.78700 22.75700
N  16.33100 51.06100 23.54000
C  15.58200 51.54600 22.51900
C  16.23800 51.37000 21.16400
C  17.54800 50.57400 21.59700
C  17.53300 50.58500 23.11600
C  15.28000 50.72900 20.11800
C  18.84800 51.12700 20.97000
C  19.34500 50.24700 19.83600
N  17.54900 50.34300 26.11200
C  18.59400 49.89900 25.32300
C  19.62400 49.34300 26.16300
C  19.14400 49.41100 27.44200
C  17.85600 50.03000 27.40900
C  20.91600 48.90500 25.63500
C  19.44600 49.20700 28.80500
O  20.50700 48.86800 29.36800
C  18.24600 49.82600 29.55600
C  17.55400 48.99600 30.62500
O  16.74800 48.10000 30.50900
O  18.11400 49.30900 31.84800
C  17.83700 48.41900 32.96200
H  12.07900 52.41600 28.02600
H  13.82500 52.21100 21.75900
H  19.41400 49.78100 23.32700
H  15.40600 50.64200 30.92500
H  13.83700 52.81100 30.04900
H  12.32900 50.41100 29.34900
H  11.92800 51.47600 30.76200
H  13.06500 50.12300 30.93600
H  16.32200 53.43300 29.80100
H  17.31000 52.37700 30.59100
H  15.91900 54.29700 31.69800
H  17.03000 53.06700 32.44300
H  9.98500 53.82000 25.39100
H  10.55300 53.31300 26.91400
H  9.59000 52.15000 25.89400
H  9.61400 53.85900 22.95100
H  9.18900 52.12500 23.49200
H  9.21300 52.58300 21.77800
H  16.51000 52.33400 20.73500
H  17.40400 49.57600 21.18400
H  14.42100 50.31900 20.64900
H  15.76200 49.90100 19.59900
H  14.81600 51.54800 19.56800
H  19.69900 51.29900 21.62900
H  18.54800 52.07300 20.52000
H  20.13000 49.61800 20.25500
H  19.90200 50.86200 19.12800
H  18.60000 49.76400 19.20300
H  21.33200 49.84500 25.27200
H  20.88600 48.12800 24.87200
H  21.58700 48.43500 26.35500
H  18.61400 50.74000 30.02200
H  17.21000 48.95000 33.67900
H  18.73800 48.10100 33.48800
H  17.30000 47.49000 32.77100
Mg -9.22200 41.12300 42.25100
C  -8.33100 37.88200 41.70200
C  -6.43200 42.02200 40.35500
C  -10.35300 44.17900 42.20100
C  -12.12900 39.97900 43.86300
N  -7.65800 40.02100 41.05400
C  -7.49800 38.74600 41.05000
C  -6.33100 38.32800 40.25900
C  -5.61900 39.68200 39.87100
C  -6.59900 40.62100 40.47800
C  -4.15300 39.87300 40.28300
C  -6.68000 37.48500 38.91400
C  -5.50200 36.54400 38.52000
H  -4.60200 37.04300 37.39500
N  -8.50300 42.81900 41.38900
C  -7.30700 43.02200 40.70700
C  -7.17100 44.41700 40.29600
C  -8.32400 45.06900 40.81700
C  -9.10100 44.05500 41.61000
C  -5.99400 44.86500 39.42200
C  -8.62100 46.54700 40.51200
O  -7.91000 47.18700 39.73800
C  -9.78300 47.23500 41.12800
N  -11.13300 41.94400 42.69400
C  -11.31200 43.31500 42.74200
C  -12.62100 43.69100 43.45100
C  -13.17500 42.30900 43.99300
C  -12.12500 41.31200 43.46700
C  -12.40800 44.77800 44.50200
C  -14.68800 42.10900 43.51200
C  -15.72500 41.67700 44.50800
N  -10.05200 39.31200 42.88300
C  -11.19100 38.97400 43.45500
C  -11.28900 37.56200 43.69000
C  -10.12700 37.09800 42.97100
C  -9.47100 38.17500 42.41800
C  -12.39900 36.77700 44.44900
C  -9.30900 35.91400 42.80700
O  -9.48500 34.79300 43.22100
C  -8.18800 36.40700 41.83000
C  -6.89600 36.03600 42.44300
O  -6.52700 36.46200 43.56800
O  -6.25900 34.97700 41.80600
C  -5.14700 34.35400 42.57600
H  -5.57900 42.31000 39.73800
H  -10.69600 45.20700 42.33500
H  -13.00800 39.73400 44.46300
H  -5.66200 37.86800 40.98600
H  -5.74100 39.82800 38.79800
H  -4.09400 40.37600 41.24800
H  -3.59000 40.53000 39.62000
H  -3.64900 38.91000 40.20400
H  -7.02600 38.12700 38.10400
H  -7.51400 36.79800 39.05800
H  -5.98700 35.64500 38.14100
H  -4.98400 36.39400 39.46700
H  -6.15100 44.86000 38.34400
H  -5.09500 44.28600 39.63200
H  -5.72600 45.89200 39.67200
H  -9.89100 48.22300 40.68000
H  -9.70500 47.31300 42.21200
H  -10.69100 46.66300 40.93400
H  -13.14200 44.18500 42.63100
H  -13.01800 42.31500 45.07200
H  -12.90400 45.65500 44.08600
H  -11.39000 45.16900 44.49900
H  -12.68000 44.46100 45.50900
H  -14.63300 41.31000 42.77400
H  -15.01000 42.96400 42.91700
H  -15.39000 41.93000 45.51400
H  -16.05100 40.63800 44.45600
H  -16.55900 42.36700 44.38400
H  -13.37400 36.60900 43.99100
H  -12.51600 37.14800 45.46700
H  -12.04000 35.76200 44.61300
H  -8.38400 35.99300 40.84100
H  -5.48000 34.20300 43.60300
H  -4.19900 34.89100 42.54800
H  -4.95400 33.38700 42.11200

