158

Mg 47.54300 44.86300 43.56100
C  44.10500 43.90000 43.38100
C  48.31400 41.55100 43.32100
C  50.55500 45.91700 43.02000
C  46.24900 48.22800 43.16400
N  46.31200 42.99800 43.53200
C  44.96000 42.79300 43.44400
C  44.53000 41.29500 43.50900
C  45.92900 40.62100 43.67200
C  46.90100 41.76700 43.39200
C  46.05700 40.08400 45.06600
C  43.97300 41.04800 41.95500
C  44.92700 41.37700 40.76600
H  44.87700 40.51100 39.47500
N  49.26900 43.84200 43.25200
C  49.35300 42.47900 43.25200
C  50.73000 42.12500 43.14600
C  51.43700 43.35400 42.81900
C  50.45300 44.46600 42.96700
C  51.26800 40.73300 43.00500
C  52.90700 43.48200 42.40300
O  53.65400 42.51800 42.29700
C  53.45800 44.79100 42.02000
N  48.26300 46.76100 43.04300
C  49.53100 46.91900 43.13100
C  49.91700 48.43900 43.31200
C  48.49300 49.15100 43.26900
C  47.60700 47.96900 43.06300
C  50.76100 48.82500 44.54600
C  48.37100 50.23800 42.11500
C  48.11600 51.67400 42.65000
N  45.62900 45.89600 43.42500
C  45.30500 47.26500 43.39000
C  43.87000 47.48100 43.45000
C  43.36200 46.17000 43.46300
C  44.45000 45.26700 43.37800
C  43.01900 48.82000 43.48300
C  42.11400 45.42700 43.48600
O  40.95700 45.77600 43.52300
C  42.58900 43.91000 43.37600
C  41.98800 43.16000 44.52800
O  42.07900 43.45500 45.71100
O  41.23800 42.10600 44.06400
C  40.47100 41.34000 45.05100
H  48.67900 40.52500 43.24100
H  51.54700 46.37100 42.98400
H  45.91500 49.26700 43.19900
H  43.79400 41.10500 44.29000
H  46.03600 39.77800 42.98900
H  46.04800 38.99600 45.12300
H  45.21200 40.40300 45.67700
H  46.96500 40.44500 45.54900
H  43.04200 41.58800 41.78400
H  43.63900 40.01100 41.97500
H  45.96900 41.42600 41.08400
H  44.65700 42.36300 40.38800
H  51.60200 40.44700 42.00800
H  50.61200 39.95500 43.39500
H  52.18300 40.66700 43.59300
H  52.75700 45.27900 41.34200
H  54.40500 44.69400 41.49000
H  53.57700 45.52700 42.81600
H  50.41200 48.74800 42.39100
H  48.30000 49.51300 44.27900
H  50.54400 49.82200 44.92900
H  51.78100 48.66400 44.19600
H  50.50400 48.12200 45.33900
H  47.50900 50.19300 41.45000
H  49.24200 50.11700 41.47200
H  49.10900 52.11500 42.56600
H  47.87400 51.68800 43.71300
H  47.36300 52.25900 42.12200
H  43.36000 49.41400 44.33100
H  41.98900 48.49300 43.62800
H  43.06800 49.35700 42.53500
H  42.28100 43.44900 42.43800
H  39.57900 41.88700 45.35300
H  41.15700 41.00800 45.83000
H  40.19500 40.41600 44.54300
Mg -4.74900 24.86800 26.84900
C  -3.60300 26.89300 29.58800
C  -5.97300 22.60800 29.11500
C  -5.83800 23.02900 24.21400
C  -3.55700 27.33300 24.74600
N  -4.87200 24.85800 29.07600
C  -4.34500 25.75100 30.02500
C  -4.75600 25.26700 31.44600
C  -5.25900 23.80800 31.25500
C  -5.34600 23.73600 29.72500
C  -4.39800 22.69800 31.89000
C  -5.90800 26.24600 32.04000
C  -5.86400 26.51200 33.54500
H  -5.70200 25.18800 34.28600
N  -5.58700 23.00100 26.66400
C  -6.06800 22.30500 27.76300
C  -6.66100 21.02200 27.25100
C  -6.64900 21.16600 25.83000
C  -5.97600 22.40600 25.46400
C  -7.30800 19.96200 28.07800
C  -7.11400 20.19100 24.75300
O  -6.73000 20.30400 23.55900
C  -7.76600 18.87300 25.13800
N  -4.74700 25.17200 24.72200
C  -5.35200 24.30700 23.87300
C  -5.47500 24.90800 22.46900
C  -4.55600 26.21400 22.66600
C  -4.32000 26.29100 24.11200
C  -4.96800 23.99500 21.29600
C  -5.05500 27.56200 22.08200
C  -5.67000 27.43200 20.67200
N  -3.63600 26.61300 27.01800
C  -3.24900 27.56800 26.10300
C  -2.54500 28.66200 26.66800
C  -2.66700 28.43700 28.10100
C  -3.33200 27.17500 28.22600
C  -1.71400 29.77000 25.96000
C  -2.28600 28.97900 29.38800
O  -1.61700 29.94800 29.69800
C  -2.90900 27.98500 30.43200
C  -1.78500 27.39800 31.30600
O  -0.91400 26.56500 30.99600
O  -1.96300 27.78200 32.58200
C  -0.91800 27.24300 33.51400
H  -6.41000 21.85600 29.77600
H  -6.29700 22.60000 23.32000
H  -3.20000 28.07000 24.02400
H  -3.85700 25.35600 32.05600
H  -6.21900 23.73100 31.76600
H  -4.87700 22.64400 32.86700
H  -3.33400 22.88900 32.02500
H  -4.53800 21.76600 31.34300
H  -6.87200 25.79700 31.80200
H  -5.91300 27.23800 31.58700
H  -6.75300 27.04100 33.88900
H  -4.99700 27.14700 33.72800
H  -6.83800 18.98000 28.02600
H  -8.34000 19.83900 27.74900
H  -7.54100 20.28800 29.09200
H  -8.00800 18.36500 24.20500
H  -8.78500 19.14700 25.41500
H  -7.24500 18.33600 25.93000
H  -6.53700 25.08800 22.29900
H  -3.61600 26.00100 22.15600
H  -4.34700 24.63500 20.66900
H  -5.82900 23.65000 20.72500
H  -4.33200 23.15900 21.58600
H  -4.23800 28.26900 21.93600
H  -5.74400 28.13100 22.70700
H  -5.05800 27.88000 19.88900
H  -6.67200 27.85500 20.74500
H  -5.92700 26.44500 20.28700
H  -1.96500 30.70500 26.46200
H  -2.09900 29.84900 24.94300
H  -0.65300 29.55600 26.09000
H  -3.55500 28.52700 31.12300
H  0.05900 27.20500 33.03100
H  -1.05300 26.18300 33.73100
H  -0.76900 27.95400 34.32700

