158

Mg 48.51700 45.52200 42.64300
C  45.10100 45.80700 41.94100
C  48.48800 42.22600 41.51800
C  51.86700 45.57700 42.41700
C  48.56400 48.93800 43.28800
N  47.04900 44.26700 41.85800
C  45.70700 44.58800 41.58200
C  45.03100 43.42400 40.89600
C  45.94700 42.23400 41.23600
C  47.26500 42.95200 41.47000
C  45.75000 41.17200 42.29500
C  44.65100 43.57800 39.44200
C  43.35800 42.79300 38.98200
H  43.49100 41.78600 37.90900
N  50.00200 44.01500 42.21100
C  49.79500 42.70400 41.78200
C  51.07000 42.14800 41.59300
C  52.05800 43.04600 42.01200
C  51.32000 44.26600 42.32300
C  51.26800 40.72500 41.12400
C  53.54300 42.74300 42.07000
O  53.98000 41.66100 41.64700
C  54.51800 43.70700 42.69100
N  49.95600 47.06100 42.66500
C  51.28600 46.82600 42.63000
C  52.09900 48.08800 42.93600
C  51.10200 49.17300 43.27100
C  49.81800 48.39100 43.04200
C  53.33900 47.87600 43.86000
C  51.20500 50.47400 42.43800
C  51.46700 51.70000 43.25200
N  47.15400 47.01800 42.75600
C  47.28800 48.35000 43.06600
C  46.01300 49.03500 43.04000
C  45.14500 48.07400 42.64900
C  45.88300 46.87200 42.46900
C  45.65100 50.45400 43.44100
C  43.78700 47.74900 42.35800
O  42.78200 48.44200 42.41900
C  43.72800 46.38100 41.72000
C  42.60100 45.50200 42.14300
O  41.99100 44.89300 41.32300
O  42.37500 45.48200 43.43900
C  41.40900 44.36700 43.78600
H  48.37600 41.16300 41.29400
H  52.94500 45.60200 42.24900
H  48.57700 49.98000 43.61600
H  44.08800 43.30500 41.43100
H  46.11600 41.68200 40.31100
H  46.46000 41.32200 43.10800
H  45.84000 40.14600 41.93800
H  44.79600 41.35300 42.79100
H  45.46500 43.33100 38.75900
H  44.41900 44.63300 39.30300
H  42.56400 43.49500 38.72600
H  42.99300 42.11800 39.75700
H  51.90700 40.74600 40.24100
H  50.29700 40.31000 40.85600
H  51.62300 40.13000 41.96500
H  55.30500 43.11300 43.15600
H  53.87700 44.00500 43.52100
H  54.90500 44.38400 41.92900
H  52.40100 48.28000 41.90600
H  51.06500 49.50000 44.31000
H  54.12100 47.62900 43.14300
H  53.10800 47.16700 44.65500
H  53.64500 48.84400 44.25700
H  50.30100 50.64100 41.85200
H  52.07700 50.39900 41.78900
H  50.62700 51.55600 43.93100
H  51.29800 52.68000 42.80500
H  52.43400 51.73700 43.75300
H  45.53200 51.11000 42.57900
H  46.34000 50.91400 44.14800
H  44.66800 50.53700 43.90600
H  43.60400 46.58200 40.65600
H  41.81700 43.38300 43.55500
H  40.45100 44.55000 43.29700
H  41.37200 44.45300 44.87200
Mg 42.46200 41.85200 25.66000
C  42.03900 44.01200 28.30300
C  43.57100 39.49000 27.96200
C  43.10000 39.81600 23.07800
C  41.97400 44.54700 23.41600
N  42.69400 41.74800 27.88100
C  42.37800 42.73900 28.77200
C  42.58700 42.29600 30.27300
C  43.05800 40.78500 30.08300
C  43.08600 40.62100 28.54900
C  44.34300 40.40500 30.84400
C  41.31200 42.64800 31.07700
C  41.00400 41.73700 32.31600
H  40.54900 42.44300 33.57400
N  43.24800 39.91000 25.53300
C  43.60500 39.15600 26.57700
C  43.99100 37.83800 26.11200
C  43.82500 37.85200 24.67400
C  43.35500 39.22500 24.35900
C  44.54500 36.72300 27.02400
C  43.98900 36.82800 23.63100
O  43.80000 37.03700 22.46900
C  44.48700 35.49300 24.08600
N  42.60500 42.17000 23.60200
C  42.77600 41.14800 22.71000
C  42.66000 41.62700 21.21800
C  41.96200 43.00500 21.39300
C  42.15800 43.30400 22.89800
C  43.97300 41.65300 20.37700
C  40.40300 43.08100 20.99100
C  39.27200 42.79400 22.10100
N  42.12200 43.86500 25.77600
C  41.95900 44.83100 24.80300
C  41.65100 46.10000 25.49000
C  41.70300 45.82800 26.85200
C  41.96800 44.44100 26.97600
C  41.21900 47.33400 24.85400
C  41.43600 46.40900 28.23400
O  41.00700 47.47100 28.61600
C  41.81800 45.32200 29.17200
C  42.95700 45.77700 29.97000
O  44.11400 45.34800 29.87200
O  42.47500 46.54200 30.99400
C  43.56800 46.86200 31.92500
H  43.80200 38.64300 28.61200
H  43.12800 39.17500 22.19400
H  41.79300 45.34000 22.68800
H  43.38700 42.84500 30.77100
H  42.27300 40.12000 30.44200
H  45.27100 40.57600 30.29700
H  44.22400 39.34900 31.08700
H  44.43300 40.92300 31.79900
H  40.43000 42.66700 30.43600
H  41.44700 43.66800 31.43600
H  41.80800 41.04800 32.57700
H  40.21200 41.13400 31.87000
H  45.24000 37.13400 27.75500
H  45.03800 35.95700 26.42500
H  43.81900 36.33200 27.73800
H  43.76100 34.97100 24.71000
H  45.51100 35.38800 24.44300
H  44.47700 35.03000 23.10000
H  41.92800 41.05700 20.64600
H  42.54000 43.74200 20.83600
H  43.97400 40.65900 19.92800
H  44.70500 41.85000 21.16000
H  43.98700 42.47900 19.66600
H  40.17600 42.38700 20.18100
H  40.29300 44.12200 20.68800
H  39.78500 42.72900 23.06100
H  38.87700 41.78600 21.97400
H  38.47600 43.53900 22.09200
H  41.75200 47.42000 23.90700
H  41.51700 48.13400 25.53200
H  40.14800 47.30000 24.65200
H  40.98100 45.11800 29.84100
H  44.26900 47.60800 31.55100
H  44.23800 46.04500 32.19100
H  43.26900 47.27600 32.88900

