158

Mg 47.81300 34.63300 27.59100
C  45.79300 33.10600 29.83800
C  48.16400 37.29700 29.50200
C  49.42800 36.32200 24.99200
C  47.13700 32.02000 25.19800
N  47.01200 35.13600 29.45900
C  46.29100 34.28600 30.28900
C  46.26300 34.89400 31.70700
C  46.65700 36.40100 31.51300
C  47.26800 36.33200 30.07000
C  45.50500 37.45400 31.63400
C  47.28900 34.08700 32.66000
C  46.77500 33.80900 34.07100
H  47.62800 34.57600 35.13600
N  48.83800 36.41700 27.32200
C  48.87000 37.34000 28.31100
C  49.78100 38.35600 27.97400
C  50.30800 38.03400 26.68200
C  49.50000 36.87800 26.26700
C  50.00500 39.60900 28.78500
C  51.29100 38.82800 25.78900
O  51.53700 38.43300 24.64200
C  52.11600 40.04800 26.29100
N  48.04400 34.32300 25.33200
C  48.90700 35.07700 24.61100
C  49.03800 34.54100 23.14800
C  48.33300 33.11200 23.23000
C  47.75100 33.17800 24.65200
C  48.44600 35.39600 22.03000
C  49.44500 31.96000 23.03400
C  50.26500 31.50500 24.32800
N  46.67000 33.01500 27.43500
C  46.62600 31.95200 26.53700
C  45.88000 30.88700 27.09200
C  45.50700 31.28900 28.34300
C  45.97900 32.56300 28.48600
C  45.43800 29.59700 26.42100
C  44.78400 30.97900 29.55600
O  44.27700 29.89900 29.92000
C  44.82100 32.22400 30.43900
C  44.91500 31.79400 31.84300
O  45.85900 31.16100 32.41900
O  43.69900 32.00600 32.51500
C  43.69700 31.56000 33.89100
H  48.24400 38.11400 30.22300
H  49.81800 36.85000 24.12000
H  47.22600 31.08300 24.64400
H  45.23400 34.77300 32.04600
H  47.43700 36.70600 32.21100
H  44.64300 37.16700 32.23600
H  45.17500 37.78200 30.64800
H  45.84200 38.32300 32.19900
H  48.21700 34.65400 32.58800
H  47.63400 33.17100 32.17900
H  46.87100 32.75700 34.34000
H  45.75000 34.11900 34.27300
H  49.71600 40.41200 28.10800
H  51.06900 39.67000 29.01600
H  49.46100 39.69300 29.72600
H  51.48800 40.93800 26.32500
H  52.93500 40.21600 25.59100
H  52.46200 39.90800 27.31500
H  50.11600 34.52800 22.98600
H  47.57300 32.90600 22.47600
H  49.14100 35.54900 21.20400
H  48.20000 36.33100 22.53300
H  47.48100 35.10000 21.62100
H  50.02800 32.25000 22.16000
H  48.99700 31.03000 22.68400
H  49.87900 31.91500 25.26100
H  51.31200 31.80100 24.26000
H  50.37200 30.42100 24.36000
H  45.32900 28.84900 27.20500
H  46.21900 29.36500 25.69700
H  44.47200 29.83200 25.97400
H  43.81400 32.63000 30.34300
H  42.86600 30.85400 33.89000
H  43.51100 32.39200 34.56900
H  44.60200 31.26800 34.42400
Mg 42.33600 41.61000 26.10700
C  41.40700 43.96300 28.61500
C  43.16300 39.44900 28.70500
C  43.26900 39.53700 23.74600
C  41.58100 44.06300 23.71400
N  42.45000 41.81500 28.46300
C  41.74000 42.72000 29.18400
C  41.58400 42.27200 30.68500
C  42.23300 40.83100 30.73300
C  42.58300 40.62600 29.20300
C  43.48500 40.57600 31.55200
C  40.10300 42.40900 31.10400
C  39.73200 43.33200 32.26800
H  39.40500 42.78100 33.66500
N  43.26100 39.83800 26.24600
C  43.43700 39.07000 27.34400
C  43.94900 37.81200 26.95800
C  43.94900 37.75900 25.56700
C  43.48200 39.12200 25.11400
C  44.23700 36.80100 27.92900
C  44.28300 36.60400 24.51800
O  44.22700 36.78400 23.31000
C  44.68400 35.28000 24.94100
N  42.56800 41.85500 23.98900
C  42.93800 40.83400 23.23600
C  42.85500 41.15600 21.73200
C  41.92600 42.46400 21.69600
C  41.98300 42.83000 23.20600
C  44.20300 41.34400 20.99600
C  40.55600 42.27300 21.11700
C  39.51700 41.70100 22.13900
N  41.64400 43.60300 26.13500
C  41.48300 44.49300 25.03700
C  41.14900 45.79300 25.53400
C  40.97100 45.59700 26.93700
C  41.31200 44.22400 27.22900
C  40.87100 47.02400 24.77200
C  40.57400 46.36700 28.21400
O  40.29700 47.51400 28.50400
C  40.91100 45.26400 29.29800
C  41.84800 45.82700 30.29400
O  42.98600 45.54300 30.43200
O  41.16300 46.57800 31.25400
C  41.84000 46.95300 32.52900
H  43.32400 38.72100 29.50300
H  43.38400 38.78900 22.95800
H  41.14800 44.78500 23.01900
H  42.12500 42.95200 31.34300
H  41.47400 40.07100 30.92200
H  44.29100 40.67300 30.82400
H  43.39300 39.55900 31.93400
H  43.52800 41.35600 32.31100
H  39.77900 41.40700 31.38300
H  39.41400 42.69700 30.31000
H  38.81600 43.85400 31.99100
H  40.56000 44.03700 32.33600
H  43.69100 35.90100 27.64300
H  44.07900 36.92900 29.00000
H  45.27800 36.50700 27.79700
H  43.80200 34.66600 25.12400
H  45.31100 35.44000 25.81800
H  45.20600 34.74200 24.15000
H  42.34400 40.34500 21.21400
H  42.32000 43.31800 21.14300
H  44.01300 41.93100 20.09800
H  44.67400 40.40800 20.69600
H  44.91800 41.78200 21.69300
H  40.48700 41.57800 20.28100
H  40.31200 43.29300 20.81900
H  38.68600 41.10300 21.76400
H  38.99400 42.55000 22.57900
H  40.01300 41.22700 22.98500
H  40.06300 46.85900 24.05900
H  41.75900 47.38100 24.25000
H  40.74200 47.87300 25.44200
H  40.03100 45.08400 29.91500
H  41.26100 46.57300 33.37100
H  41.83300 48.03400 32.66800
H  42.86700 46.60600 32.63700

