158

Mg 29.34900 58.90200 41.05200
C  26.32700 57.49100 40.29700
C  30.88700 56.17600 39.45500
C  32.27800 60.61500 41.15800
C  27.69400 61.82100 41.88700
N  28.62800 57.11300 40.04500
C  27.35000 56.70000 39.83000
C  27.22200 55.31100 39.07300
C  28.69100 54.84300 39.13000
C  29.46000 56.13500 39.48400
C  28.86200 53.65200 40.19300
C  26.79000 55.69300 37.60100
C  25.82300 54.77800 36.84400
H  25.93200 54.65500 35.35300
N  31.33800 58.36100 40.57000
C  31.75600 57.24600 39.95000
C  33.21200 57.33500 39.81400
C  33.56700 58.57400 40.26900
C  32.37700 59.27500 40.70300
C  33.97400 56.11500 39.36700
C  35.09100 59.00300 40.29600
O  36.00900 58.27600 39.78600
C  35.54300 60.31500 40.98200
N  29.84000 61.01900 41.27800
C  31.16600 61.36600 41.44900
C  31.22200 62.92900 41.66800
C  29.70700 63.34100 41.79600
C  29.07600 61.99200 41.64600
C  32.09400 63.35600 42.92300
C  28.96600 64.42700 40.84500
C  28.68400 65.83500 41.43100
N  27.45700 59.62100 41.12400
C  26.90900 60.77500 41.60100
C  25.46700 60.74200 41.53500
C  25.19300 59.42800 41.13100
C  26.43300 58.79600 40.83400
C  24.40100 61.76900 41.97100
C  24.17100 58.37700 41.00500
O  23.00100 58.37300 41.40000
C  24.91500 57.21100 40.37700
C  24.53400 56.03400 41.13600
O  24.85600 55.85000 42.27600
O  23.90000 55.03200 40.31700
C  23.66800 53.70800 40.91400
H  31.45200 55.30900 39.10600
H  33.22900 61.11100 41.36800
H  27.11600 62.71800 42.12100
H  26.59200 54.61400 39.62500
H  28.94600 54.40200 38.16700
H  29.52200 53.89100 41.02700
H  29.18900 52.71800 39.73700
H  27.98100 53.28100 40.71800
H  27.65400 55.84800 36.95500
H  26.17200 56.59000 37.61800
H  24.80300 55.13600 36.98500
H  25.78700 53.76200 37.23900
H  34.13700 56.24200 38.29600
H  33.41700 55.21600 39.63200
H  34.86000 56.21000 39.99500
H  35.43400 61.19600 40.34900
H  36.60000 60.17400 41.20900
H  35.05900 60.44500 41.94900
H  31.80300 63.34000 40.84200
H  29.47800 63.81900 42.74800
H  31.49700 63.33100 43.83400
H  32.32500 64.42100 42.94100
H  32.95600 62.71400 43.10300
H  27.99600 64.02100 40.56000
H  29.69200 64.43300 40.03200
H  27.60100 65.85200 41.54600
H  28.90200 66.70000 40.80400
H  29.19800 65.94700 42.38600
H  24.77700 61.90900 42.98400
H  23.41100 61.32200 41.87200
H  24.45700 62.77700 41.55900
H  24.43300 57.05500 39.41200
H  23.03600 53.79900 41.79800
H  24.55500 53.14500 41.20400
H  23.17600 53.02400 40.22400
Mg -9.16800 41.51800 42.47800
C  -8.20600 38.15600 41.61800
C  -6.43200 42.61900 40.66800
C  -10.41900 44.50600 42.72000
C  -12.18800 39.99100 43.50800
N  -7.69000 40.53300 41.21900
C  -7.45400 39.19200 41.03800
C  -6.21600 38.99600 40.12600
C  -5.55300 40.29800 39.94900
C  -6.60900 41.23600 40.63500
C  -4.15200 40.42800 40.64900
C  -6.57800 38.41400 38.72100
C  -5.73000 37.24700 38.29100
H  -4.77400 37.57200 37.17600
N  -8.39500 43.41400 41.90700
C  -7.20700 43.64200 41.29500
C  -7.10700 45.11800 41.18900
C  -8.28300 45.72700 41.66700
C  -9.07600 44.56400 42.17600
C  -5.93500 45.71400 40.55700
C  -8.59900 47.23700 41.63100
O  -7.83400 47.98400 41.09700
C  -9.80700 47.85800 42.39300
N  -11.03800 42.11700 43.14000
C  -11.27900 43.43800 43.14900
C  -12.67700 43.66700 43.59700
C  -13.33400 42.29900 43.79200
C  -12.12000 41.39700 43.41500
C  -12.82500 44.69900 44.74800
C  -14.62900 41.98900 42.92000
C  -15.85000 41.43200 43.66800
N  -9.96300 39.53200 42.79500
C  -11.15600 39.05200 43.23800
C  -11.19000 37.67600 43.31500
C  -10.06600 37.24000 42.59600
C  -9.34800 38.41600 42.35000
C  -12.38000 36.84500 43.69100
C  -9.39900 36.06700 42.13800
O  -9.75900 34.92800 42.18800
C  -8.11000 36.62100 41.44500
C  -7.00700 36.04600 42.11900
O  -6.69200 36.30600 43.26600
O  -6.23900 35.25100 41.25500
C  -5.16000 34.44300 41.98100
H  -5.63700 43.02000 40.03500
H  -10.85700 45.49800 42.84500
H  -13.09500 39.48300 43.84400
H  -5.48900 38.40600 40.68600
H  -5.44700 40.46600 38.87700
H  -4.21300 40.82900 41.66000
H  -3.40600 41.02900 40.12900
H  -3.70500 39.44100 40.76200
H  -6.54000 39.17800 37.94400
H  -7.61700 38.09200 38.79300
H  -6.42800 36.47700 37.96200
H  -5.07700 36.79400 39.03700
H  -6.20000 46.56900 39.93500
H  -5.48300 45.04200 39.82900
H  -5.16700 45.85100 41.31800
H  -9.69600 47.38000 43.36600
H  -10.79200 47.63100 41.98500
H  -9.71100 48.94400 42.39600
H  -13.06600 44.15300 42.70200
H  -13.47900 42.20700 44.86900
H  -11.95000 45.33500 44.88200
H  -13.23100 44.22800 45.64400
H  -13.69800 45.27100 44.43600
H  -14.37800 41.27100 42.13900
H  -14.95400 42.93400 42.48500
H  -15.52900 41.48000 44.70800
H  -16.12300 40.41000 43.40600
H  -16.68600 42.10700 43.48400
H  -12.97600 37.26400 44.50100
H  -11.95500 35.89400 44.01400
H  -13.01900 36.60700 42.84000
H  -7.99300 36.48200 40.37100
H  -5.58900 33.86900 42.80200
H  -4.35800 35.11300 42.29200
H  -4.84800 33.77800 41.17600

