158

Mg -2.53600 18.09100 26.23100
C  -2.87300 15.92900 28.88100
C  -3.32100 20.68400 28.28500
C  -2.73200 20.16500 23.53500
C  -2.35100 15.27600 24.03300
N  -3.12400 18.28000 28.36200
C  -3.17100 17.20700 29.29300
C  -3.43300 17.71200 30.75900
C  -3.45300 19.29600 30.46800
C  -3.33800 19.47400 28.92100
C  -4.72400 20.00000 31.01400
C  -2.40100 17.21800 31.75000
C  -2.29700 17.82700 33.16300
H  -2.13000 16.90100 34.40500
N  -2.85500 20.19900 25.90500
C  -3.12900 21.02700 26.92900
C  -3.21600 22.35800 26.35600
C  -3.39900 22.19600 24.95900
C  -2.94700 20.81300 24.71900
C  -3.36000 23.56900 27.23300
C  -3.73600 23.22400 23.96600
O  -3.73900 22.88000 22.80700
C  -4.08000 24.64300 24.27600
N  -2.41400 17.76600 24.07400
C  -2.42200 18.80400 23.19200
C  -2.54400 18.36000 21.74000
C  -2.47000 16.77300 21.89300
C  -2.45900 16.55700 23.44100
C  -3.73200 18.91900 20.92500
C  -1.30200 16.20700 21.03300
C  -1.71400 15.82700 19.64100
N  -2.48600 16.07400 26.36600
C  -2.36800 15.08600 25.40600
C  -2.12400 13.81700 26.13100
C  -2.42600 14.09000 27.50900
C  -2.57900 15.45100 27.55600
C  -1.83300 12.45300 25.48800
C  -2.60300 13.52200 28.80600
O  -2.63300 12.37500 29.15200
C  -2.70900 14.68700 29.78100
C  -1.39300 14.65500 30.45500
O  -0.34000 15.14400 30.00200
O  -1.48900 14.03600 31.62900
C  -0.24000 13.71000 32.34500
H  -3.49100 21.45300 29.04100
H  -2.76100 20.77100 22.62700
H  -2.28100 14.39900 23.38600
H  -4.43300 17.42200 31.08200
H  -2.58200 19.77100 30.91800
H  -5.38000 19.29800 31.52900
H  -5.40000 20.38100 30.24900
H  -4.33200 20.74400 31.70800
H  -1.39100 17.18000 31.34000
H  -2.81100 16.26100 32.07200
H  -3.16200 18.47500 33.30700
H  -1.43100 18.49000 33.16800
H  -4.39400 23.72900 27.54000
H  -3.00900 24.49100 26.76900
H  -2.68300 23.44600 28.07800
H  -4.20400 25.13600 23.31200
H  -3.17700 25.13800 24.63400
H  -4.92000 24.91500 24.91500
H  -1.60400 18.61000 21.24900
H  -3.45800 16.51100 21.51400
H  -3.30000 19.33100 20.01300
H  -4.26300 19.65400 21.52900
H  -4.43800 18.15400 20.60000
H  -1.04200 15.30400 21.58500
H  -0.50500 16.94700 20.96400
H  -1.28800 14.84400 19.43900
H  -1.16600 16.48500 18.96600
H  -2.78200 15.88000 19.43000
H  -1.08800 12.62900 24.71200
H  -2.72900 11.93800 25.14200
H  -1.41400 11.91700 26.34100
H  -3.55800 14.51100 30.44200
H  -0.40100 12.63200 32.36800
H  -0.28200 14.24100 33.29600
H  0.70700 13.83600 31.82100
Mg 1.15200 8.27600 25.54300
C  1.59800 10.04900 28.45100
C  0.94000 5.40500 27.41200
C  1.15400 6.66700 22.68600
C  1.65900 11.32000 23.81000
N  1.39800 7.78000 27.80500
C  1.39400 8.67700 28.77100
C  1.28900 8.03300 30.18600
C  1.41900 6.45800 29.76800
C  1.21900 6.52800 28.28200
C  2.62200 5.75600 30.30100
C  -0.07500 8.30000 30.88100
C  -0.20600 8.56400 32.44600
H  0.98800 8.08500 33.35000
N  0.98700 6.27400 25.09300
C  0.93200 5.25400 25.95700
C  0.88600 4.00300 25.24100
C  0.86200 4.32200 23.85400
C  0.95800 5.79600 23.79900
C  0.90000 2.64600 25.95100
C  0.89100 3.39100 22.71800
O  0.88500 3.83300 21.55600
C  0.97200 1.80800 22.93300
N  1.30400 8.87000 23.51500
C  1.39900 8.07400 22.51600
C  1.74200 8.72900 21.16300
C  1.34400 10.22300 21.55100
C  1.42500 10.14800 23.03900
C  3.18900 8.38400 20.85700
C  -0.10700 10.63200 21.07900
C  -0.30800 12.11100 20.87700
N  1.67900 10.27600 25.96200
C  1.71300 11.42700 25.19700
C  1.94400 12.56700 25.94400
C  1.88000 12.10500 27.29300
C  1.73000 10.72500 27.23300
C  2.05000 13.98200 25.44300
C  1.92400 12.50000 28.68500
O  2.04800 13.63600 29.20900
C  1.62500 11.16800 29.50100
C  2.66300 11.07400 30.59000
O  3.79700 10.63700 30.43900
O  2.11000 11.45200 31.85500
C  2.94200 11.61100 33.02100
H  0.81400 4.45000 27.92600
H  1.17200 6.16700 21.71600
H  1.57700 12.17100 23.13000
H  2.11700 8.31700 30.83500
H  0.58000 5.93000 30.22100
H  2.89100 5.13600 29.44600
H  2.61800 5.06700 31.14600
H  3.41200 6.49800 30.41900
H  -0.81400 7.51500 30.72700
H  -0.47400 9.17600 30.36900
H  -1.07000 8.06000 32.87800
H  -0.43500 9.62300 32.57100
H  1.14700 2.66800 27.01300
H  1.58400 1.99100 25.41200
H  -0.06900 2.14900 25.90900
H  0.92500 1.40700 21.92000
H  0.18400 1.44000 23.59000
H  1.98100 1.64400 23.31100
H  1.19100 8.49700 20.25100
H  2.17100 10.86400 21.24400
H  3.57900 7.54500 21.43400
H  3.88800 9.20000 21.03800
H  3.32600 8.18900 19.79400
H  -0.85800 10.30900 21.79900
H  -0.38500 10.18100 20.12600
H  -0.88900 12.35300 19.98600
H  0.60500 12.70600 20.86100
H  -0.82800 12.47900 21.76200
H  2.44700 14.25300 24.46500
H  2.78800 14.36500 26.14800
H  1.13000 14.55100 25.58200
H  0.68100 11.22900 30.04400
H  3.18300 12.64700 33.25800
H  3.84600 11.00300 32.99800
H  2.45300 11.35600 33.96100

