158

Mg 7.14700 54.12600 41.58900
C  6.78300 50.54900 41.76900
C  10.37700 53.51100 40.67200
C  7.28500 57.24300 40.89000
C  3.70100 54.26300 42.39600
N  8.34600 52.28900 41.14100
C  8.02000 50.95600 41.23700
C  9.13100 49.94900 40.82300
C  10.32300 50.94100 40.86900
C  9.63600 52.34200 40.91000
C  11.42200 50.79800 42.00000
C  8.92000 49.35000 39.44200
C  8.38400 50.30800 38.41000
H  8.20800 49.68200 36.98600
N  8.65700 55.28900 40.91200
C  10.00200 54.86600 40.64100
C  10.75200 56.04500 40.43800
C  9.86700 57.13900 40.35800
C  8.52400 56.59500 40.68300
C  12.13000 55.99200 40.09100
C  10.19200 58.59900 39.98400
O  11.28600 58.98500 39.62100
C  9.16800 59.67200 39.92900
N  5.52300 55.49900 41.28700
C  5.96500 56.81600 41.16400
C  4.81000 57.83600 41.57600
C  3.64200 56.78700 41.88300
C  4.33300 55.44700 41.88800
C  5.26800 58.84500 42.62300
C  2.42800 56.81100 40.95500
C  1.04700 57.04900 41.60700
N  5.52300 52.72600 41.99200
C  4.22700 52.99200 42.41800
C  3.64000 51.76400 42.95600
C  4.64900 50.73500 42.65600
C  5.72600 51.39800 42.06500
C  2.33100 51.54700 43.65600
C  4.98400 49.33100 42.81800
O  4.39000 48.44200 43.39000
C  6.31300 49.12000 42.06100
C  5.93800 48.27900 40.86700
O  5.38000 48.68600 39.84000
O  6.16500 46.97500 41.13800
C  5.68900 46.04500 40.11900
H  11.43100 53.40600 40.40700
H  7.32400 58.33300 40.92200
H  2.64600 54.39000 42.64800
H  9.25300 49.23100 41.63400
H  10.65200 50.99200 39.83100
H  12.37700 51.10000 41.57000
H  11.37500 49.85500 42.54500
H  11.16000 51.60400 42.68500
H  8.30100 48.46700 39.59800
H  9.89900 49.01300 39.10000
H  9.08400 51.13800 38.30900
H  7.40800 50.75700 38.59100
H  12.34000 55.25700 39.31400
H  12.69400 55.77400 40.99800
H  12.38500 56.97700 39.70000
H  8.94100 59.91100 40.96800
H  8.27300 59.44800 39.34900
H  9.49600 60.59600 39.45200
H  4.42500 58.46600 40.77500
H  3.28700 57.09500 42.86600
H  6.27800 58.68400 42.99900
H  4.50200 58.98000 43.38700
H  5.38100 59.80300 42.11600
H  2.42600 55.87700 40.39300
H  2.62100 57.53500 40.16300
H  0.50300 57.78300 41.01300
H  1.16700 57.39200 42.63500
H  0.43600 56.16100 41.77000
H  1.63600 50.96100 43.05400
H  1.75100 52.42700 43.93300
H  2.39600 50.87300 44.50900
H  7.02700 48.58900 42.69000
H  6.41700 45.99800 39.31000
H  4.72700 46.31400 39.68200
H  5.56000 45.00900 40.43200
Mg -10.10100 40.63600 42.89700
C  -9.43800 37.28300 41.87500
C  -7.12900 41.60800 41.51600
C  -11.16800 43.93200 42.95300
C  -13.36300 39.56100 43.69000
N  -8.52700 39.54400 41.77800
C  -8.47200 38.19500 41.45400
C  -7.12000 37.80300 40.76000
C  -6.36200 39.26000 40.89800
C  -7.36900 40.18400 41.45900
C  -5.02300 39.08500 41.67700
C  -7.31000 37.40400 39.22800
C  -6.65700 36.06000 38.94900
H  -5.73500 36.08200 37.72000
N  -9.30400 42.54300 42.33600
C  -7.99000 42.68700 41.82100
C  -7.74200 44.12700 41.66500
C  -8.92100 44.85300 42.07400
C  -9.87400 43.79000 42.46900
C  -6.41300 44.71500 41.14100
C  -9.11500 46.33500 42.03400
O  -8.20200 47.11600 41.70900
C  -10.43600 47.02900 42.51000
N  -11.99400 41.57000 43.25300
C  -12.09900 42.95500 43.29300
C  -13.60700 43.31400 43.71100
C  -14.16600 41.99300 44.24100
C  -13.14000 40.98000 43.68300
C  -13.76300 44.55500 44.62000
C  -15.63500 41.76300 43.61700
C  -15.74500 41.32900 42.13200
N  -11.22600 38.78800 42.94700
C  -12.49800 38.54100 43.27600
C  -12.72600 37.10300 43.40600
C  -11.50700 36.57300 42.85600
C  -10.66900 37.68100 42.52300
C  -13.96500 36.51000 43.77900
C  -10.89400 35.29800 42.43500
O  -11.22300 34.12200 42.48700
C  -9.59000 35.82300 41.75300
C  -8.56800 35.03400 42.44400
O  -8.03400 35.25400 43.49100
O  -8.23500 33.95600 41.65300
C  -7.26000 33.05600 42.28200
H  -6.09000 41.82200 41.25500
H  -11.66500 44.90100 42.86800
H  -14.29600 39.27800 44.18200
H  -6.55400 37.04200 41.29600
H  -6.06400 39.58300 39.90000
H  -4.73700 38.05800 41.90300
H  -5.07000 39.58900 42.64200
H  -4.18400 39.59800 41.20700
H  -6.98600 38.07500 38.43200
H  -8.38800 37.25200 39.18300
H  -7.43300 35.35600 38.65000
H  -6.02900 35.77900 39.79400
H  -6.44800 45.49500 40.38100
H  -5.97300 43.81900 40.70400
H  -5.63900 44.85200 41.89600
H  -10.31400 48.09000 42.29100
H  -10.72700 46.79600 43.53400
H  -11.18700 46.58700 41.85400
H  -14.13800 43.52200 42.78200
H  -14.30600 41.97300 45.32200
H  -12.76200 44.91600 44.85400
H  -14.28500 44.36700 45.55900
H  -14.32800 45.33900 44.11600
H  -16.10700 42.73900 43.50100
H  -16.19000 41.22400 44.38500
H  -14.74200 41.28300 41.70700
H  -16.29000 42.05500 41.53000
H  -16.17700 40.33000 42.19200
H  -13.81400 35.55100 44.27500
H  -14.75200 36.40600 43.03200
H  -14.51800 37.14400 44.47200
H  -9.62900 35.61500 40.68400
H  -7.59500 32.61100 43.21900
H  -6.36200 33.61700 42.54000
H  -6.94500 32.32800 41.53400

