158

Mg 54.46500 23.41800 45.01500
C  51.96200 25.72000 44.12700
C  52.15500 20.85700 44.44100
C  56.98100 21.06400 45.33700
C  56.62900 26.04100 45.47000
N  52.35000 23.33400 44.27700
C  51.51500 24.43000 43.97000
C  50.13100 23.86800 43.44200
C  50.20600 22.31700 43.71700
C  51.64500 22.15200 44.18300
C  49.21700 21.72100 44.63800
C  50.01400 24.22700 41.87200
C  48.61600 24.79200 41.62900
H  48.17300 24.73700 40.15500
N  54.50300 21.23900 44.92400
C  53.39300 20.41700 44.82700
C  53.89900 19.06400 44.88100
C  55.24900 19.11900 45.27500
C  55.65800 20.51200 45.19100
C  52.98300 17.86800 44.63000
C  56.11900 17.85700 45.80800
O  55.48500 16.80300 45.85500
C  57.60600 17.87700 46.35700
N  56.59400 23.55100 45.08200
C  57.36000 22.44800 45.33700
C  58.80500 22.93600 45.46700
C  58.75000 24.47800 45.65600
C  57.22300 24.74100 45.44100
C  59.53200 22.29100 46.71700
C  59.68600 25.31200 44.75000
C  60.76600 26.15500 45.58600
N  54.42000 25.59500 44.78900
C  55.32700 26.49600 45.24000
C  54.71500 27.83500 45.17200
C  53.37500 27.57900 44.74100
C  53.25100 26.20900 44.48100
C  55.38300 29.16300 45.45000
C  52.07200 28.14300 44.47300
O  51.72900 29.30200 44.45500
C  51.18800 26.98400 43.83700
C  50.92500 27.39300 42.40400
O  51.68300 27.12100 41.46100
O  49.88200 28.31900 42.38600
C  49.69000 28.98100 41.07200
H  51.42200 20.05100 44.36800
H  57.79300 20.36100 45.53300
H  57.35500 26.80800 45.74700
H  49.30500 24.29600 44.01000
H  50.12200 21.77000 42.77900
H  49.61000 21.13300 45.46600
H  48.59100 21.14200 43.95900
H  48.44000 22.39900 44.99100
H  50.07400 23.35800 41.21700
H  50.82200 24.92600 41.65400
H  48.56000 25.87200 41.76100
H  47.83800 24.36900 42.26400
H  53.50400 17.09400 44.06800
H  52.11300 18.07200 44.00500
H  52.67400 17.52800 45.61900
H  57.87400 16.83700 46.54700
H  57.64600 18.52900 47.22900
H  58.26000 18.31000 45.60100
H  59.41700 22.70700 44.59400
H  58.91200 24.77800 46.69100
H  58.89000 22.18000 47.59100
H  60.32300 23.01400 46.91500
H  59.98700 21.41500 46.25500
H  59.23900 26.00400 44.03600
H  60.35400 24.64000 44.21200
H  61.18000 25.55900 46.40000
H  60.24100 27.00300 46.02600
H  61.52400 26.47700 44.87300
H  56.31000 29.11500 44.87800
H  55.35900 29.33100 46.52600
H  54.86100 29.97500 44.94500
H  50.20300 26.94800 44.30200
H  49.49100 28.18200 40.35800
H  50.57200 29.59800 40.89500
H  48.77100 29.56300 41.01200
Mg 36.93200 49.16800 24.82600
C  37.00900 47.03600 27.58600
C  35.75500 51.60900 26.75100
C  36.16500 50.79000 21.91100
C  38.10200 46.40800 22.89000
N  36.26100 49.19900 26.89300
C  36.55700 48.32900 27.91100
C  36.10900 48.93800 29.26000
C  35.56200 50.31700 28.92800
C  35.90200 50.40400 27.43700
C  34.07800 50.66400 29.27600
C  37.44200 48.92600 30.17400
C  37.30600 48.71600 31.68500
H  35.91200 48.79000 32.29500
N  36.22700 51.02100 24.37100
C  35.84900 51.89500 25.33500
C  35.58100 53.16900 24.73200
C  35.49800 52.87900 23.29300
C  35.86400 51.49100 23.15500
C  35.27000 54.47400 25.46300
C  35.05100 53.81100 22.16500
O  34.97100 53.35400 21.02600
C  34.64500 55.25900 22.31400
N  36.87300 48.56400 22.68200
C  36.60000 49.44100 21.68100
C  37.04000 48.88900 20.33600
C  37.66000 47.44000 20.66900
C  37.48100 47.44300 22.20400
C  35.96700 48.79000 19.26700
C  39.19100 47.33900 20.17800
C  40.21500 48.26800 20.91000
N  37.49800 47.08500 25.03100
C  38.01900 46.13400 24.20500
C  38.15300 44.82700 24.95100
C  37.79500 45.20100 26.29200
C  37.35000 46.52000 26.24100
C  38.56300 43.47800 24.31600
C  37.63700 44.73200 27.77300
O  37.91500 43.64900 28.27900
C  37.26200 46.00900 28.63300
C  36.08300 45.53200 29.51900
O  34.91300 45.42100 29.18400
O  36.53200 45.19900 30.77100
C  35.56300 44.84700 31.77000
H  35.31900 52.39400 27.37200
H  36.07300 51.36500 20.98700
H  38.57500 45.58700 22.34600
H  35.31200 48.34600 29.71200
H  36.14100 51.05700 29.48100
H  33.40600 51.02200 28.49500
H  34.09100 51.30700 30.15600
H  33.61900 49.72300 29.57900
H  37.87600 49.92500 30.11800
H  38.21700 48.20200 29.92400
H  37.83100 49.44100 32.30700
H  37.55300 47.67800 31.90700
H  34.26700 54.89100 25.37500
H  35.88800 55.12500 24.84400
H  35.75700 54.37100 26.43300
H  34.04800 55.59500 21.46700
H  35.55200 55.86000 22.38600
H  34.02200 55.44500 23.18900
H  37.79800 49.50800 19.85500
H  37.09700 46.58500 20.29600
H  34.90900 48.81400 19.53000
H  36.06000 47.80200 18.81600
H  36.10700 49.49600 18.44900
H  39.21600 47.56600 19.11200
H  39.54100 46.30700 20.19900
H  40.95800 48.68700 20.23200
H  40.55200 47.67000 21.75600
H  39.60300 49.05400 21.35400
H  39.21800 43.65800 23.46300
H  37.71500 42.91700 23.92300
H  39.05700 43.02200 25.17400
H  38.05600 46.38900 29.27700
H  36.10400 44.91900 32.71300
H  35.23100 43.82100 31.61200
H  34.68200 45.48900 31.75900

