158

Mg 7.21200 54.87100 41.68500
C  6.66500 51.49700 41.11400
C  10.22200 54.49500 39.82300
C  7.62600 58.16300 41.61800
C  3.98600 55.12400 42.80000
N  8.31200 53.18100 40.73200
C  7.88300 51.94100 40.48800
C  8.82600 51.14300 39.44200
C  10.11800 51.96000 39.70500
C  9.52300 53.30600 40.06500
C  11.07900 51.39500 40.77200
C  8.45600 51.28400 37.86600
C  8.85700 50.02200 37.15900
H  8.33200 49.86800 35.72000
N  8.71700 56.16000 40.96500
C  9.90900 55.79500 40.28400
C  10.71300 56.96700 40.06800
C  10.02100 58.07700 40.61900
C  8.75200 57.50800 41.13700
C  12.09500 56.77000 39.50000
C  10.50000 59.49200 40.51500
O  11.54600 59.71900 39.91500
C  9.64600 60.59200 41.16200
N  5.86700 56.46400 41.97500
C  6.30700 57.74700 42.01200
C  5.22600 58.66000 42.50400
C  4.05100 57.69700 42.89200
C  4.66300 56.34300 42.56000
C  5.62800 59.56300 43.68300
C  2.66800 57.90300 42.20300
C  1.57500 58.13600 43.23400
N  5.70000 53.57800 42.21100
C  4.39100 53.81000 42.59400
C  3.65500 52.61700 42.65700
C  4.54000 51.69000 42.12000
C  5.76000 52.30800 41.82400
C  2.21900 52.38000 43.07400
C  4.69700 50.26200 41.91000
O  3.88300 49.37500 42.15400
C  6.07800 50.07300 41.17600
C  5.70100 49.51500 39.88100
O  5.43100 50.08800 38.82900
O  5.75800 48.16200 40.00100
C  5.56900 47.43400 38.71800
H  11.13500 54.36100 39.23900
H  7.58400 59.25300 41.56000
H  2.98700 55.28800 43.20900
H  8.90500 50.08600 39.69600
H  10.59900 52.16800 38.74900
H  10.89800 50.36800 41.08800
H  11.11200 52.00000 41.67900
H  12.03000 51.44000 40.24200
H  8.99700 52.02300 37.27700
H  7.40400 51.48200 37.66400
H  8.45300 49.21900 37.77500
H  9.93600 49.99100 37.31000
H  12.59300 57.69300 39.20200
H  12.10500 56.11500 38.62900
H  12.69200 56.24500 40.24600
H  9.33100 60.24900 42.14800
H  8.75700 60.74800 40.55100
H  10.16400 61.54800 41.23300
H  5.01400 59.27100 41.62600
H  3.99600 57.66600 43.98000
H  6.36400 60.30700 43.37600
H  6.07200 58.97200 44.48400
H  4.73800 60.09800 44.01500
H  2.43100 57.03900 41.58200
H  2.73700 58.80300 41.59100
H  1.73700 57.91000 44.28800
H  0.69500 57.51100 43.08100
H  1.03300 59.07700 43.13800
H  2.36200 51.79600 43.98400
H  1.74700 51.75300 42.31800
H  1.73300 53.34900 43.18900
H  6.64600 49.36100 41.77500
H  5.74500 46.37700 38.91400
H  6.18900 47.76400 37.88400
H  4.54400 47.69100 38.45200
Mg 16.81500 51.74300 26.41900
C  18.82700 50.52200 29.03900
C  14.62200 52.79900 28.98100
C  14.59800 52.53700 23.97800
C  18.96500 50.44100 24.06700
N  16.67900 51.58700 28.77800
C  17.56400 50.92100 29.54900
C  17.10400 50.99400 31.01600
C  15.70100 51.53400 30.93400
C  15.62500 51.95100 29.48000
C  14.57000 50.52200 31.30300
C  18.02400 51.71300 32.02200
C  18.12500 51.19200 33.47800
H  17.36200 51.91100 34.49100
N  14.90400 52.54300 26.47900
C  14.28600 53.11400 27.61900
C  13.19700 53.93000 27.16100
C  13.12400 53.85000 25.73800
C  14.25100 52.95100 25.32800
C  12.41100 54.76600 28.12700
C  12.12200 54.54900 24.87500
O  12.29000 54.63100 23.64800
C  10.94000 55.33400 25.41800
N  16.69500 51.31200 24.39500
C  15.64900 51.76700 23.58100
C  16.03700 51.65200 22.13500
C  17.60800 51.25000 22.16800
C  17.76900 50.99700 23.63100
C  15.19100 50.61700 21.29100
C  18.70700 52.28900 21.70000
C  19.70300 51.71400 20.67000
N  18.59600 50.67900 26.43200
C  19.38000 50.28900 25.40000
C  20.57800 49.72000 25.98900
C  20.42800 49.68700 27.38100
C  19.13700 50.35400 27.62300
C  21.71800 49.06700 25.26200
C  20.98200 49.42800 28.61400
O  22.03500 48.92000 28.89900
C  20.03400 49.90000 29.79700
C  19.77800 48.86900 30.81500
O  19.09600 47.86200 30.68400
O  20.40900 49.11400 31.99500
C  20.23800 48.15000 33.14300
H  13.97800 53.23800 29.74700
H  14.07500 53.09800 23.20100
H  19.72400 50.10300 23.35800
H  17.00500 49.92600 31.21100
H  15.59800 52.39500 31.59400
H  13.99600 50.10400 30.47500
H  14.02200 50.87600 32.17600
H  15.04200 49.64400 31.74300
H  17.63500 52.73100 32.01900
H  19.00800 51.90200 31.59300
H  19.17200 51.19500 33.78300
H  17.82500 50.14400 33.51100
H  12.02300 55.72600 27.78700
H  13.00400 54.98300 29.01600
H  11.57300 54.17400 28.49400
H  10.09200 55.49700 24.75300
H  11.32600 56.31300 25.70000
H  10.47800 54.76700 26.22600
H  15.95700 52.65500 21.71600
H  17.73300 50.32200 21.60900
H  14.13700 50.83900 21.46000
H  15.45800 49.63200 21.67300
H  15.36300 50.75100 20.22300
H  19.24500 52.71700 22.54600
H  18.16900 53.03100 21.11100
H  19.89100 52.43600 19.87500
H  19.51900 50.69500 20.33200
H  20.57400 51.55900 21.30800
H  22.02700 49.86300 24.58300
H  21.36900 48.23800 24.64600
H  22.34000 48.84100 26.12800
H  20.59500 50.74500 30.19500
H  20.64300 48.63900 34.02900
H  20.84900 47.26100 32.98300
H  19.17500 47.93200 33.24900

