158

Mg 46.62400 45.68800 44.15000
C  43.29500 44.46900 43.77800
C  47.68700 42.37300 43.83400
C  49.71000 46.87100 43.90300
C  45.35700 48.87400 44.00900
N  45.60500 43.68400 43.69200
C  44.25600 43.43300 43.68100
C  43.97000 41.88800 43.61600
C  45.28800 41.31400 44.04800
C  46.27200 42.50500 43.83700
C  45.37500 40.76400 45.51600
C  43.32000 41.36600 42.24000
C  43.39100 42.32900 40.99500
H  43.04000 41.82900 39.55200
N  48.43800 44.74600 43.79500
C  48.63000 43.41100 43.75700
C  50.04600 43.19500 43.55700
C  50.72200 44.47800 43.66300
C  49.60600 45.43400 43.79300
C  50.55700 41.78700 43.27400
C  52.24300 44.71700 43.53200
O  53.02600 43.74000 43.58900
C  52.82400 46.06700 43.29200
N  47.38800 47.63100 43.65800
C  48.69500 47.80800 43.99700
C  49.04700 49.29500 44.35500
C  47.65500 49.97600 44.10500
C  46.74700 48.72500 43.92900
C  49.54800 49.49400 45.82600
C  47.59500 50.79300 42.74300
C  48.63200 51.90200 42.53800
N  44.71300 46.56600 43.96500
C  44.35600 47.85000 43.98500
C  42.89000 47.97800 43.83400
C  42.47800 46.67600 43.79800
C  43.59200 45.82000 43.90700
C  41.99300 49.27600 43.57200
C  41.29800 45.89100 43.75400
O  40.10200 46.11700 43.71000
C  41.79500 44.40200 43.71900
C  41.27700 43.66300 44.88400
O  40.89200 42.48300 44.86200
O  41.21900 44.46600 46.00900
C  40.48300 43.85000 47.21400
H  48.02200 41.34800 44.00400
H  50.69600 47.33700 43.95900
H  44.96300 49.88800 44.10600
H  43.23300 41.64700 44.38100
H  45.59700 40.46800 43.43300
H  45.50800 39.68300 45.47900
H  44.50000 41.14400 46.04400
H  46.31200 41.08600 45.97100
H  42.30100 41.02100 42.41400
H  43.99700 40.55400 41.97500
H  44.37300 42.80300 40.98900
H  42.82800 43.24300 41.18400
H  51.27800 41.54800 44.05600
H  51.10900 41.62800 42.34700
H  49.84100 40.96600 43.30500
H  52.91900 46.54400 44.26800
H  52.13000 46.57100 42.61900
H  53.76100 45.97600 42.74300
H  49.74900 49.71700 43.63600
H  47.31100 50.57200 44.95000
H  48.70200 49.37400 46.50200
H  50.19300 50.36500 45.94600
H  50.16200 48.64700 46.13300
H  46.64200 51.22700 42.43800
H  47.87000 50.07600 41.97000
H  49.35600 51.72100 41.74300
H  49.26300 52.14600 43.39200
H  48.04500 52.80600 42.38000
H  41.51100 49.31600 42.59500
H  42.62500 50.16300 43.62000
H  41.20700 49.33100 44.32500
H  41.43000 43.81200 42.87800
H  39.48300 44.27300 47.12200
H  40.79300 44.33000 48.14200
H  40.38200 42.77100 47.33100
Mg 6.32300 57.03800 41.26000
C  5.17400 53.84600 41.35700
C  9.50500 55.81000 40.35400
C  7.49400 60.25100 40.72700
C  3.12300 58.18800 42.10700
N  7.14700 55.11700 40.59300
C  6.40000 53.92200 40.74100
C  7.29900 52.72500 40.35500
C  8.72900 53.42200 40.33600
C  8.51000 54.87500 40.54700
C  9.80400 52.58500 41.18000
C  7.03600 52.23900 38.85600
C  7.55400 50.90400 38.39400
H  7.00200 50.34500 37.09200
N  8.25900 57.89200 40.51300
C  9.41100 57.22900 40.20600
C  10.42800 58.17600 39.81000
C  9.87300 59.47700 40.11800
C  8.46300 59.30900 40.41800
C  11.86600 57.77500 39.45100
C  10.68200 60.69500 40.08000
O  11.87300 60.59300 39.76700
C  10.18800 62.02600 40.33600
N  5.47400 58.85000 41.32400
C  6.19000 60.12100 41.19500
C  5.27400 61.34500 41.55500
C  3.91400 60.62800 41.86800
C  4.19500 59.08900 41.79700
C  5.85300 62.24700 42.59700
C  2.67000 61.07500 40.93100
C  1.37800 61.43700 41.66900
N  4.46600 56.22100 41.83200
C  3.23600 56.81600 42.03300
C  2.27900 55.74300 42.27100
C  2.97700 54.55200 42.13000
C  4.28100 54.90800 41.73000
C  0.77300 55.91600 42.57100
C  2.89200 53.13800 42.07400
O  1.86900 52.44300 42.19500
C  4.37600 52.63900 41.66700
C  4.09900 51.65900 40.55500
O  3.21300 51.64300 39.75900
O  5.03000 50.62100 40.69200
C  4.81900 49.39100 39.86700
H  10.53200 55.44200 40.41600
H  7.75100 61.31200 40.70700
H  2.22000 58.77400 42.29200
H  7.22300 51.80600 40.93800
H  9.12300 53.49500 39.32200
H  10.59700 52.24900 40.51200
H  9.32200 51.68500 41.56400
H  10.28000 53.09600 42.01700
H  7.35000 53.04300 38.19000
H  5.95000 52.25100 38.76500
H  7.51100 50.19700 39.22300
H  8.58900 50.97600 38.05900
H  11.88100 56.70300 39.25100
H  12.47900 57.99300 40.32600
H  12.15300 58.37000 38.58400
H  9.74200 62.12500 41.32600
H  9.46900 62.32800 39.57500
H  11.07600 62.65500 40.39900
H  5.26400 61.76600 40.55000
H  3.64600 60.90500 42.88800
H  6.84900 61.85300 42.79800
H  5.27900 62.27000 43.52300
H  5.99900 63.23900 42.17000
H  2.39100 60.49000 40.05500
H  2.95400 62.00500 40.43800
H  0.50500 61.07000 41.12900
H  1.40600 62.49100 41.94300
H  1.35800 60.87700 42.60400
H  0.83500 56.24400 43.60900
H  0.33200 54.91900 42.56800
H  0.19400 56.61200 41.96400
H  4.83100 52.07000 42.47800
H  4.02500 48.86900 40.40100
H  5.72100 48.78300 39.79800
H  4.60000 49.57400 38.81500

