158

Mg 8.83100 3.23900 27.44600
C  10.13900 1.79300 30.34500
C  6.61900 5.00400 29.46000
C  7.28200 4.48700 24.71600
C  10.54300 0.83100 25.52200
N  8.38600 3.25400 29.64200
C  9.19500 2.77400 30.62800
C  8.81800 3.25400 32.03800
C  7.72500 4.31200 31.67600
C  7.57000 4.21100 30.11000
C  6.39600 3.96600 32.32800
C  10.01800 3.84300 32.82200
C  9.59900 4.61200 34.01300
H  10.05400 4.15300 35.37200
N  7.23000 4.58400 27.20700
C  6.40000 5.19000 28.10900
C  5.51700 6.09800 27.49900
C  5.83300 6.06800 26.10000
C  6.86900 5.01300 25.97900
C  4.55700 7.03000 28.24300
C  5.27800 6.90300 24.97700
O  5.40100 6.71200 23.77300
C  4.52200 8.14300 25.30600
N  8.97700 2.72800 25.34000
C  8.26300 3.42800 24.41000
C  8.74000 2.95700 23.00000
C  9.72900 1.79000 23.29900
C  9.75900 1.80600 24.79600
C  7.53400 2.63000 22.04900
C  11.04300 1.76400 22.51600
C  11.15800 0.65700 21.39900
N  10.19200 1.62400 27.77200
C  10.76300 0.75100 26.91800
C  11.46400 -0.27600 27.63200
C  11.22700 0.11700 28.94600
C  10.50600 1.27800 29.01900
C  12.16400 -1.44300 27.18300
C  11.54100 -0.23100 30.35500
O  12.09000 -1.23800 30.73900
C  10.97100 0.94900 31.26000
C  10.10700 0.26300 32.27400
O  9.11000 -0.45100 32.04800
O  10.58000 0.40000 33.55300
C  9.75900 -0.07500 34.72100
H  6.04300 5.72800 30.03900
H  6.89100 4.98400 23.82600
H  11.17300 0.13500 24.96500
H  8.37900 2.47900 32.66700
H  8.02300 5.33600 31.90400
H  5.95700 3.01200 32.03500
H  5.63800 4.64600 31.93900
H  6.50600 3.99600 33.41200
H  10.63500 4.37400 32.09600
H  10.60400 3.03700 33.26300
H  8.51000 4.59600 33.97200
H  9.84500 5.67000 33.92100
H  3.60100 7.08900 27.72300
H  5.04800 7.97900 28.46000
H  4.20400 6.60000 29.18000
H  3.46500 7.93200 25.47000
H  4.74400 8.85200 24.50800
H  4.92000 8.55100 26.23500
H  9.20100 3.85000 22.57900
H  9.27400 0.81400 23.12700
H  6.63300 2.83000 22.62800
H  7.64200 1.59700 21.71700
H  7.47500 3.32900 21.21600
H  11.86900 1.67500 23.22100
H  11.23300 2.74000 22.07000
H  10.78700 0.94500 20.41600
H  10.61400 -0.26300 21.61300
H  12.22400 0.46900 21.26400
H  12.80500 -1.10400 26.36900
H  11.56500 -2.31700 26.92900
H  12.84500 -1.69000 27.99700
H  11.74700 1.58700 31.68200
H  10.46600 -0.05200 35.55000
H  9.61500 -1.14700 34.58900
H  8.79200 0.41800 34.81900
Mg 45.84000 5.07400 49.01800
C  43.78500 7.86800 48.03800
C  43.12600 3.04500 48.06900
C  47.78900 2.48400 49.33300
C  48.61400 7.32500 49.30800
N  43.60300 5.44100 48.32800
C  43.08900 6.64700 47.86400
C  41.77400 6.42700 47.09900
C  41.44300 4.85800 47.39200
C  42.81600 4.39200 47.99700
C  40.26900 4.76100 48.39300
C  41.87200 6.76800 45.57500
C  40.93600 7.92800 45.13500
H  39.95000 7.64900 43.93000
N  45.51200 3.02100 48.83500
C  44.29900 2.39500 48.46500
C  44.56400 0.96600 48.40300
C  45.86700 0.77100 48.79600
C  46.46200 2.14800 48.97900
C  43.39600 0.00600 48.00100
C  46.58700 -0.63700 48.91900
O  45.92800 -1.67600 48.86700
C  48.08600 -0.74400 49.10500
N  47.92300 4.91700 49.14300
C  48.42700 3.68600 49.49800
C  49.88700 3.84500 49.87500
C  50.15500 5.40400 49.94600
C  48.84200 5.91800 49.34700
C  50.34100 3.13100 51.23500
C  51.40900 5.91700 49.10400
C  52.38400 6.84100 49.93100
N  46.18900 7.12800 48.84400
C  47.35900 7.85900 49.01000
C  46.99400 9.30900 48.85200
C  45.71200 9.29500 48.46100
C  45.21800 7.97400 48.47500
C  47.91800 10.44100 48.98200
C  44.59700 10.13300 48.07400
O  44.62600 11.38200 47.95800
C  43.32100 9.31500 47.83900
C  42.34400 9.70700 48.77600
O  42.15400 9.22000 49.90200
O  41.53200 10.66000 48.20600
C  40.33000 10.88300 48.98800
H  42.36000 2.33400 47.75100
H  48.36700 1.65900 49.75600
H  49.46300 7.94900 49.59200
H  40.99500 7.05800 47.52600
H  41.22900 4.30500 46.47700
H  39.80300 3.77600 48.37100
H  39.47800 5.47700 48.16900
H  40.59100 5.03000 49.39900
H  41.57200 5.88500 45.01100
H  42.90300 6.94900 45.27200
H  41.60700 8.69900 44.75600
H  40.45100 8.35800 46.01200
H  43.80200 -0.77500 47.35900
H  42.64400 0.44400 47.34400
H  43.03800 -0.40100 48.94600
H  48.41600 -1.73700 48.80200
H  48.31700 -0.49100 50.13900
H  48.50900 -0.09300 48.34000
H  50.35900 3.38900 49.00500
H  50.09600 5.83000 50.94700
H  49.53300 2.67600 51.80800
H  50.95900 3.76600 51.87000
H  50.91400 2.24400 50.96400
H  50.93000 6.48800 48.30900
H  52.00800 5.10100 48.69800
H  53.44800 6.62500 49.84000
H  52.11700 6.71600 50.98000
H  52.27200 7.90200 49.70700
H  48.31400 10.55800 49.99000
H  47.36800 11.31000 48.62100
H  48.67300 10.38300 48.19800
H  42.94900 9.42400 46.82100
H  40.61000 11.43900 49.88300
H  39.75000 9.97200 49.13900
H  39.66900 11.61200 48.52000

