158

Mg 41.13500 8.96800 29.81800
C  42.99400 10.16300 32.45100
C  38.86300 7.64600 32.10600
C  39.38000 7.79100 27.33800
C  43.77400 9.79500 27.68400
N  40.91200 9.02700 32.11700
C  41.78800 9.65000 32.95800
C  41.39600 9.38000 34.44200
C  40.21500 8.31300 34.20200
C  39.94400 8.35200 32.70500
C  40.62300 6.90400 34.70000
C  40.95200 10.53700 35.29300
C  41.24800 10.34600 36.79200
H  41.79400 11.40500 37.77300
N  39.34300 7.89300 29.73800
C  38.52700 7.43700 30.79500
C  37.36500 6.88600 30.22100
C  37.50200 6.88800 28.80200
C  38.80800 7.47000 28.60900
C  36.21500 6.30000 31.04000
C  36.58400 6.40500 27.66800
O  36.97100 6.17900 26.49100
C  35.20000 6.05200 27.97600
N  41.63200 8.70100 27.76400
C  40.63200 8.38000 26.95400
C  40.91700 8.68000 25.43300
C  42.44500 9.20400 25.55100
C  42.65100 9.26600 27.09600
C  40.80400 7.44800 24.48100
C  42.74700 10.41500 24.66100
C  43.54400 10.18400 23.33500
N  43.06600 9.80900 29.95300
C  44.03900 10.01400 29.00300
C  45.16400 10.66600 29.65100
C  44.75000 10.85300 30.99200
C  43.50000 10.22900 31.14400
C  46.37900 11.30600 28.96200
C  45.07100 11.38700 32.22300
O  46.04900 11.94900 32.63800
C  43.97100 11.00400 33.19500
C  44.64800 10.20600 34.27900
O  45.46800 9.35200 34.08600
O  44.25500 10.61100 35.57700
C  44.81700 9.89800 36.76300
H  38.10700 7.31100 32.82000
H  38.74700 7.67300 26.45600
H  44.52200 10.06000 26.93300
H  42.20700 8.81700 34.90500
H  39.28600 8.62800 34.67700
H  41.43200 6.99900 35.42400
H  40.84400 6.33400 33.79800
H  39.77300 6.37300 35.12700
H  39.89900 10.81200 35.24200
H  41.58800 11.36000 34.96600
H  41.95000 9.51300 36.82100
H  40.30800 10.00800 37.23000
H  36.34200 6.38300 32.12000
H  36.04600 5.24700 30.81300
H  35.31600 6.78700 30.66400
H  34.63600 6.97000 28.14000
H  34.98400 5.37900 28.80500
H  34.75400 5.62000 27.08000
H  40.22600 9.51000 25.28700
H  43.05000 8.37400 25.18500
H  41.70500 7.03400 24.02700
H  40.03800 7.75300 23.76800
H  40.43300 6.63200 25.10000
H  43.33800 11.11800 25.24800
H  41.86300 10.98100 24.36700
H  43.20200 10.86000 22.55100
H  43.35600 9.17000 22.98300
H  44.62100 10.23400 23.49700
H  46.34400 12.39300 28.88300
H  46.45000 10.98500 27.92300
H  47.27800 10.93500 29.45300
H  43.62900 11.92700 33.66300
H  44.01300 9.62000 37.44500
H  45.51500 10.55200 37.28500
H  45.22800 8.92800 36.48200
Mg 10.02200 48.15600 26.17000
C  7.81200 48.60300 28.82100
C  12.55000 49.80400 27.94900
C  12.01600 47.81800 23.51500
C  7.25800 47.36900 24.11300
N  10.11300 49.27700 28.12200
C  9.15300 49.05900 29.11200
C  9.77300 49.65200 30.35300
C  11.09500 50.32000 29.96800
C  11.28700 49.77100 28.53900
C  11.21700 51.88700 30.08900
C  9.87700 48.57800 31.45600
C  10.51700 49.00600 32.80800
H  9.76400 48.34200 34.02100
N  12.05600 48.64400 25.82300
C  12.86600 49.22600 26.70400
C  14.22000 49.24800 26.10600
C  14.15500 48.59400 24.84200
C  12.67200 48.30500 24.66700
C  15.44700 49.88600 26.83200
C  15.30200 48.13600 23.86000
O  15.12900 47.52400 22.79100
C  16.72800 48.40000 24.24700
N  9.66100 47.60500 24.03400
C  10.69100 47.43900 23.22200
C  10.29900 46.99600 21.85800
C  8.71400 46.73100 22.01900
C  8.50300 47.18000 23.51900
C  10.61800 47.95600 20.66300
C  8.23000 45.34900 21.78000
C  8.47100 44.27800 22.83400
N  8.00000 48.04700 26.33600
C  6.95900 47.70500 25.46200
C  5.62600 47.67000 26.08400
C  5.99400 48.03100 27.41300
C  7.39100 48.23700 27.49900
C  4.30300 47.32100 25.57800
C  5.45300 48.06500 28.74100
O  4.29300 47.92900 29.10300
C  6.60000 48.37800 29.74000
C  6.78900 47.09600 30.52000
O  7.43500 46.13900 30.14800
O  6.10500 47.17900 31.69800
C  6.47900 46.11400 32.59100
H  13.35800 50.30500 28.48700
H  12.76400 47.70600 22.72800
H  6.51500 46.97700 23.41500
H  9.13100 50.43700 30.75300
H  11.92900 49.96500 30.57300
H  10.25800 52.34200 30.33700
H  11.69500 52.31500 29.20800
H  11.91300 51.94200 30.92600
H  10.30600 47.69500 30.98200
H  8.89700 48.12900 31.61700
H  10.73400 50.07000 32.89700
H  11.48300 48.50000 32.81100
H  16.18900 50.31800 26.16100
H  15.97100 49.07100 27.33200
H  15.20800 50.75700 27.44200
H  16.89200 49.47300 24.15100
H  17.36800 47.77700 23.62100
H  16.79100 48.00300 25.26000
H  10.86100 46.06800 21.76000
H  8.27800 47.43300 21.30800
H  10.80400 48.95900 21.04800
H  9.79600 47.99700 19.94900
H  11.55500 47.62000 20.22000
H  8.64300 45.04600 20.81800
H  7.16100 45.50200 21.63300
H  7.47700 43.85000 22.96000
H  8.71200 44.73900 23.79200
H  9.24300 43.55100 22.58100
H  4.22300 46.41000 24.98400
H  3.97100 48.05600 24.84500
H  3.57600 47.40500 26.38600
H  6.21500 49.19600 30.35000
H  6.18700 45.17800 32.11500
H  5.95500 46.28400 33.53100
H  7.55800 46.21800 32.70200

