158

Mg 2.10800 -1.56800 43.56000
C  5.52000 -0.62100 43.06200
C  1.21700 1.58400 42.15800
C  -0.99400 -2.73800 42.90500
C  3.18200 -4.72700 44.39000
N  3.28300 0.39500 42.83900
C  4.67600 0.45600 42.62900
C  4.99800 1.64000 41.80000
C  3.68100 2.53900 41.98900
C  2.60400 1.45500 42.38300
C  3.80600 3.77600 42.95600
C  5.35700 1.16800 40.37300
C  6.69800 1.53300 39.79200
H  6.65600 2.25300 38.46400
N  0.27700 -0.71900 42.71000
C  0.15400 0.60300 42.29100
C  -1.24300 0.87200 41.99400
C  -1.95000 -0.40000 42.19800
C  -0.90000 -1.31500 42.54700
C  -1.84700 2.20300 41.71200
C  -3.46000 -0.59200 42.13000
O  -4.16800 0.41300 41.89900
C  -4.14300 -1.89800 42.34300
N  1.19000 -3.46900 43.78800
C  -0.07100 -3.71300 43.44800
C  -0.40400 -5.20500 43.59900
C  0.90900 -5.79500 44.08800
C  1.85600 -4.56500 44.12300
C  -1.68700 -5.52600 44.42000
C  1.55000 -6.98000 43.22500
C  1.37300 -8.42200 43.74900
N  3.98200 -2.51300 43.95100
C  4.23900 -3.77800 44.19300
C  5.66000 -3.95500 44.17800
C  6.18700 -2.73000 43.73300
C  5.08700 -1.86900 43.58200
C  6.47900 -5.14500 44.43700
C  7.43100 -1.99900 43.42600
O  8.58500 -2.43800 43.43100
C  7.01300 -0.63400 42.82000
C  7.79700 0.36900 43.52900
O  7.61700 0.77400 44.66600
O  8.83500 0.84100 42.66700
C  9.41000 2.00100 43.17300
H  0.89800 2.55900 41.78300
H  -1.99000 -3.17900 42.82500
H  3.69700 -5.68600 44.47300
H  5.79400 2.08600 42.39700
H  3.38000 3.05900 41.08000
H  4.64500 3.65700 43.64200
H  2.84100 3.78800 43.46400
H  3.95800 4.66100 42.33800
H  4.60500 1.61900 39.72500
H  5.17600 0.10100 40.23900
H  7.31100 0.64300 39.65600
H  7.18600 2.19800 40.50500
H  -2.74800 2.08900 41.11100
H  -1.15900 2.90900 41.24600
H  -2.20400 2.63100 42.64900
H  -5.22900 -1.81200 42.31000
H  -3.83100 -2.23700 43.33100
H  -3.87500 -2.66300 41.61500
H  -0.70500 -5.43500 42.57700
H  0.71100 -6.12200 45.10900
H  -1.55300 -6.25500 45.22000
H  -2.48300 -5.87900 43.76400
H  -1.93500 -4.54000 44.81400
H  2.60000 -6.77100 43.02300
H  1.04800 -6.93000 42.25900
H  2.19200 -8.67100 44.42400
H  1.24000 -9.00500 42.83800
H  0.43000 -8.60800 44.26300
H  7.51500 -4.86900 44.63500
H  6.55800 -5.71300 43.51000
H  6.11900 -5.80200 45.22800
H  7.25400 -0.58900 41.75800
H  10.09800 1.77500 43.98800
H  8.70600 2.77500 43.47700
H  9.98000 2.52700 42.40700
Mg 48.80700 34.03000 26.83400
C  47.07000 32.89100 29.60600
C  49.14300 37.14000 28.61000
C  50.02800 35.48800 24.07600
C  47.80700 31.29500 25.03300
N  48.23400 34.90900 28.93400
C  47.57400 34.14700 29.88800
C  47.61500 34.89100 31.18400
C  47.90400 36.40300 30.80300
C  48.53900 36.17100 29.40900
C  46.69400 37.41500 30.73400
C  48.88200 34.32400 31.89600
C  49.19400 34.59500 33.41500
H  48.12100 35.34000 34.17100
N  49.80000 35.87400 26.49800
C  49.76400 37.01500 27.31300
C  50.32200 38.14000 26.57000
C  50.68800 37.69000 25.31500
C  50.09600 36.33400 25.21100
C  50.37400 39.58400 27.05100
C  51.41800 38.39400 24.17000
O  51.82300 37.79900 23.17600
C  51.71200 39.82800 24.09400
N  48.92800 33.48100 24.89800
C  49.61300 34.19600 23.91500
C  49.75300 33.35400 22.56300
C  49.20800 31.94100 23.02700
C  48.54500 32.25400 24.35500
C  49.03800 33.99500 21.33400
C  50.13500 30.75600 22.91500
C  50.69900 30.16100 24.23100
N  47.70400 32.41000 27.16600
C  47.35400 31.29900 26.36900
C  46.55000 30.38100 27.03200
C  46.36200 30.99800 28.29500
C  47.16000 32.16900 28.33400
C  45.92600 29.02600 26.64900
C  45.71900 30.79600 29.53400
O  45.02200 29.87100 29.99000
C  46.02900 32.07400 30.36600
C  46.45800 31.62200 31.78700
O  47.52500 31.12000 32.15800
O  45.33900 31.74500 32.60400
C  45.49100 31.51800 34.01700
H  49.25700 38.13400 29.04700
H  50.37300 35.92300 23.13500
H  47.50000 30.35600 24.56700
H  46.72700 34.76900 31.80500
H  48.72400 36.86500 31.35300
H  46.64400 38.04000 31.62500
H  45.76500 36.89700 30.49500
H  46.73900 38.16600 29.94600
H  49.79400 34.69100 31.42700
H  48.84200 33.24200 31.76500
H  50.16300 35.09400 33.43500
H  49.23700 33.63000 33.91800
H  51.34800 39.98000 26.76400
H  50.35500 39.68900 28.13600
H  49.55900 40.17000 26.62600
H  50.92500 40.43500 24.54300
H  51.81100 40.21400 23.07900
H  52.67900 39.83000 24.59700
H  50.81100 33.27600 22.31200
H  48.38700 31.77500 22.33000
H  48.91900 35.07800 21.31800
H  48.03400 33.59900 21.18300
H  49.67600 33.73500 20.48900
H  50.98600 30.88300 22.24700
H  49.58700 29.90600 22.50800
H  50.04000 29.30700 24.39000
H  50.60600 30.82400 25.09100
H  51.75400 29.91900 24.10300
H  46.30500 28.71500 25.67500
H  44.84000 29.11800 26.64400
H  46.31500 28.36200 27.42100
H  45.23200 32.81500 30.43500
H  44.77400 32.19300 34.48500
H  46.49500 31.73800 34.37800
H  45.33400 30.47900 34.31000

