158

Mg 47.35300 25.63300 27.84700
C  48.46400 27.70100 30.41400
C  46.81500 23.15000 30.15300
C  46.94300 23.53500 25.36200
C  48.54800 28.09900 25.63100
N  47.56700 25.50900 29.97900
C  47.96000 26.53700 30.87600
C  47.66400 26.11300 32.35800
C  47.39800 24.61700 32.20100
C  47.22300 24.35900 30.66100
C  48.53900 23.79500 32.89700
C  46.69400 27.01100 33.26800
C  47.34900 27.55900 34.49800
H  46.39000 28.07000 35.63600
N  46.95000 23.63800 27.74800
C  46.64400 22.81900 28.80700
C  46.01500 21.59700 28.32600
C  46.08800 21.67600 26.89600
C  46.76900 22.92900 26.62000
C  45.45700 20.47900 29.27700
C  45.71300 20.64000 25.89000
O  45.87600 20.69500 24.63300
C  45.12000 19.33900 26.36200
N  47.69600 25.79400 25.79000
C  47.44400 24.79700 24.90800
C  47.55700 25.26100 23.48300
C  48.02600 26.71900 23.50600
C  47.97100 26.94300 25.03600
C  48.25600 24.30000 22.38800
C  47.19000 27.76100 22.72500
C  47.94200 28.50900 21.61500
N  48.24500 27.49200 27.90400
C  48.69200 28.35400 26.97900
C  49.24500 29.61900 27.53500
C  49.09600 29.41300 28.89100
C  48.56700 28.02200 29.08400
C  49.87200 30.81100 26.84500
C  49.22900 29.99400 30.20000
O  49.67300 31.08200 30.51500
C  48.84600 28.89100 31.24900
C  50.08700 28.83600 32.11300
O  51.12800 28.29100 31.80800
O  49.82100 29.27300 33.39500
C  50.87100 29.05100 34.41900
H  46.62400 22.37700 30.90100
H  46.66300 22.94100 24.48900
H  48.97000 28.77900 24.88800
H  48.66200 26.33300 32.73800
H  46.43500 24.33900 32.63100
H  48.01100 23.04500 33.48700
H  49.01900 24.37600 33.68500
H  49.11600 23.25200 32.14900
H  45.92700 26.36300 33.69200
H  46.15000 27.80100 32.74900
H  47.95000 28.41800 34.19900
H  48.06600 26.90000 34.98700
H  45.52200 20.78300 30.32200
H  46.08300 19.59200 29.38200
H  44.41000 20.24400 29.08800
H  45.85200 18.77400 26.93800
H  44.93100 18.79300 25.43800
H  44.17600 19.51800 26.87700
H  46.51300 25.37000 23.18500
H  49.05800 26.85700 23.18400
H  49.01100 23.73100 22.92900
H  48.63800 25.02700 21.67100
H  47.43000 23.68700 22.02900
H  46.69400 28.50000 23.35500
H  46.44400 27.24300 22.12300
H  48.17200 27.80000 20.81900
H  48.78200 29.01700 22.08800
H  47.31100 29.34200 21.30500
H  49.32900 31.02500 25.92500
H  50.88100 30.46900 26.61600
H  49.91600 31.73200 27.42800
H  48.06500 29.34400 31.86000
H  50.57400 28.27700 35.12700
H  51.03400 29.93800 35.03000
H  51.89800 28.97600 34.06300
Mg 42.62200 42.04900 26.84100
C  41.76200 44.17500 29.45000
C  43.52900 39.71200 29.23900
C  43.68100 40.07900 24.37400
C  41.80200 44.54900 24.53200
N  42.72900 42.09300 29.15800
C  42.31000 43.04400 29.97700
C  42.20400 42.54500 31.48700
C  43.07000 41.14800 31.31000
C  43.02300 40.87400 29.78700
C  44.52400 41.26500 31.85300
C  40.71200 42.31300 31.95500
C  40.47700 41.76300 33.41900
H  39.79000 42.58000 34.44300
N  43.65000 40.19400 26.83100
C  43.86100 39.38200 27.92800
C  44.34700 38.13900 27.49100
C  44.15700 38.15100 26.03300
C  43.85300 39.52700 25.68400
C  44.89400 37.10300 28.45500
C  44.22200 37.01400 25.02000
O  44.09300 37.17400 23.80800
C  44.59900 35.69600 25.40200
N  42.92900 42.29500 24.78300
C  43.23400 41.30000 23.94100
C  43.05500 41.58200 22.46800
C  42.39700 43.04100 22.54800
C  42.28300 43.27400 24.03900
C  44.51100 41.40900 21.77900
C  41.03900 43.14400 21.81600
C  39.97700 42.20600 22.49700
N  42.06500 44.01600 26.94600
C  41.79200 44.87800 25.88300
C  41.27800 46.09100 26.48600
C  41.17600 45.83100 27.86100
C  41.67700 44.57400 28.09900
C  40.96400 47.30400 25.79500
C  40.85200 46.42600 29.12600
O  40.35000 47.54000 29.42100
C  41.05700 45.31400 30.18300
C  41.80700 45.92800 31.30900
O  42.81700 46.59900 31.22100
O  41.03100 45.78300 32.48600
C  41.68100 46.21400 33.76200
H  43.67800 38.95300 30.01000
H  43.64700 39.37500 23.53900
H  41.41500 45.29600 23.83600
H  42.66400 43.21200 32.21600
H  42.51100 40.39100 31.86200
H  45.25700 40.90300 31.13200
H  44.60800 40.65600 32.75300
H  44.82200 42.29500 32.05100
H  40.36000 41.56200 31.24800
H  40.15600 43.24900 31.88500
H  41.43100 41.52400 33.88900
H  39.80900 40.90200 33.41100
H  45.16200 37.59600 29.39000
H  45.85600 36.71500 28.12200
H  44.25500 36.25100 28.68700
H  43.81400 35.14800 25.92400
H  45.41100 35.74000 26.12800
H  44.85400 35.11800 24.51400
H  42.31900 40.86300 22.10900
H  43.06000 43.74500 22.04500
H  44.77700 42.44900 21.59300
H  44.44100 40.87600 20.83100
H  45.19100 40.78500 22.36000
H  41.27900 42.70100 20.84900
H  40.60500 44.13800 21.71400
H  39.69900 41.44400 21.76900
H  39.13300 42.81600 22.81900
H  40.35400 41.62600 23.33900
H  40.24100 47.90400 26.34800
H  40.80100 47.19600 24.72200
H  41.84200 47.94600 25.86800
H  40.03100 45.13500 30.50600
H  42.75500 46.05700 33.65900
H  41.36900 45.49300 34.51800
H  41.37700 47.20900 34.08600

