158

Mg 48.05600 25.71900 27.96000
C  48.99300 27.84500 30.62200
C  46.93400 23.49200 30.50400
C  47.35200 23.54400 25.58300
C  49.68200 27.82800 25.69500
N  48.01100 25.73700 30.26400
C  48.31800 26.73200 31.07300
C  48.02500 26.38400 32.54700
C  47.46300 24.96700 32.54400
C  47.42400 24.70000 30.98600
C  48.19100 23.92200 33.45900
C  47.11200 27.44200 33.12200
C  47.28700 27.60200 34.68300
H  46.08000 27.81600 35.62000
N  47.28000 23.78300 28.10000
C  46.78400 23.09200 29.15400
C  46.35900 21.73600 28.74700
C  46.54500 21.72200 27.30300
C  47.05800 23.04400 26.94300
C  46.13400 20.65900 29.61600
C  46.08800 20.63700 26.31600
O  46.37900 20.76100 25.16300
C  45.17100 19.53000 26.77400
N  48.43400 25.69400 25.96100
C  48.06000 24.65700 25.14600
C  48.31000 25.01000 23.60400
C  49.10500 26.36400 23.67400
C  49.09800 26.62200 25.23500
C  48.96200 23.98000 22.70000
C  48.40300 27.50800 22.83400
C  49.23200 28.29600 21.84000
N  49.19800 27.41600 28.07300
C  49.85100 28.18300 27.09000
C  50.37200 29.44500 27.66200
C  50.09200 29.28000 29.05000
C  49.28400 28.10800 29.25000
C  50.95200 30.55900 26.81200
C  50.19800 29.90600 30.33400
O  50.77200 30.95800 30.67000
C  49.43100 29.06000 31.35000
C  50.28600 28.82400 32.56300
O  51.06900 27.90000 32.67000
O  50.07900 29.91300 33.37300
C  50.70000 29.79600 34.66100
H  46.61700 22.84200 31.32200
H  47.17400 22.89000 24.72800
H  50.13600 28.55100 25.01500
H  48.99700 26.44600 33.03600
H  46.44900 24.97800 32.94400
H  48.88100 24.42900 34.13400
H  48.81400 23.18600 32.95100
H  47.44500 23.37100 34.03100
H  46.06600 27.18100 32.96300
H  47.12500 28.40900 32.61900
H  47.81000 28.54800 34.82600
H  47.92500 26.86200 35.16600
H  46.71600 20.82000 30.52300
H  46.64200 19.80400 29.17000
H  45.07200 20.42000 29.66700
H  45.68800 18.87900 27.48000
H  45.08000 18.94000 25.86200
H  44.17200 19.91500 26.97800
H  47.30700 25.23700 23.24200
H  50.13400 26.35300 23.31700
H  48.68400 22.98500 23.04600
H  50.03100 24.19300 22.68700
H  48.76400 23.99400 21.62900
H  47.98200 28.04700 23.68200
H  47.53700 27.10100 22.31200
H  48.59000 28.30200 20.95900
H  50.15700 27.76500 21.61600
H  49.47500 29.32600 22.10200
H  50.35700 30.70900 25.91100
H  52.00400 30.29000 26.71800
H  50.95800 31.49500 27.37100
H  48.54200 29.64700 31.58200
H  50.36100 28.99900 35.32200
H  50.40000 30.73500 35.12700
H  51.78800 29.74200 34.71500
Mg 16.78800 52.38700 26.67700
C  19.14400 50.59700 28.48400
C  14.90000 52.76900 29.44000
C  14.68200 53.99800 24.73800
C  18.60800 51.32000 23.69000
N  17.05000 51.89700 28.69800
C  18.08700 51.17000 29.27600
C  18.04600 51.20200 30.81000
C  16.55100 51.56300 31.01200
C  16.14400 52.10700 29.60300
C  15.60800 50.41400 31.31400
C  19.11200 52.21400 31.46700
C  19.20700 52.39200 32.96800
H  18.11500 51.77900 33.87600
N  15.02600 53.21500 27.00200
C  14.37400 53.30000 28.26800
C  13.13500 54.06900 28.17300
C  13.08000 54.52800 26.81600
C  14.29600 53.95800 26.09500
C  12.13900 54.24200 29.25100
C  12.11700 55.47700 26.13700
O  12.02800 55.57400 24.91700
C  11.19000 56.29800 26.98200
N  16.67200 52.63700 24.58600
C  15.74300 53.44100 24.00100
C  15.81400 53.55700 22.42200
C  17.10700 52.71400 22.22700
C  17.51200 52.21500 23.60300
C  14.69200 52.99100 21.55300
C  18.26400 53.45200 21.51000
C  19.17300 54.27400 22.48700
N  18.54000 51.21400 26.13800
C  19.15600 50.90300 24.92700
C  20.37100 50.07200 25.24000
C  20.38700 49.96400 26.65200
C  19.24600 50.67000 27.10500
C  21.39400 49.59500 24.18100
C  21.05100 49.36300 27.80000
O  21.99200 48.59700 27.83700
C  20.40300 49.96200 29.01000
C  20.19700 48.81000 29.96900
O  19.40900 47.88600 29.85500
O  20.76800 49.13700 31.19200
C  20.40700 48.37400 32.36400
H  14.30600 52.99000 30.32900
H  14.04000 54.60400 24.09500
H  19.23400 51.00300 22.85300
H  18.12700 50.21700 31.27000
H  16.39500 52.36300 31.73600
H  14.90200 50.89000 31.99500
H  16.12900 49.60100 31.82000
H  15.08300 50.09600 30.41300
H  18.90900 53.22700 31.12100
H  20.13200 51.95700 31.17700
H  19.26500 53.47700 33.05900
H  20.19500 52.02000 33.24000
H  11.47800 55.10800 29.25700
H  12.68100 54.30600 30.19500
H  11.45000 53.39800 29.29500
H  11.71900 56.71900 27.83700
H  10.34600 55.72400 27.36300
H  10.86300 57.15900 26.39900
H  16.02300 54.56500 22.06500
H  16.92300 51.74700 21.76000
H  13.96600 52.37500 22.08300
H  15.11300 52.38200 20.75300
H  14.12500 53.77200 21.04500
H  17.89800 54.12100 20.73100
H  18.74100 52.70100 20.88100
H  19.46000 55.26600 22.13600
H  20.05800 53.64300 22.56700
H  18.75400 54.43000 23.48100
H  22.21800 49.10800 24.70200
H  21.74800 50.37900 23.51300
H  20.86600 48.94200 23.48600
H  21.11300 50.72600 29.32600
H  21.35700 48.34000 32.89800
H  20.03700 47.37800 32.12300
H  19.72700 48.98700 32.95600

