158

Mg -0.76200 7.39800 26.36100
C  0.11100 9.44100 29.10900
C  -0.73700 4.80800 28.61500
C  -1.19700 5.39000 23.76700
C  -0.35900 10.10100 24.32800
N  -0.46800 7.17300 28.66100
C  -0.18200 8.21000 29.58400
C  -0.34400 7.73200 31.05800
C  -0.40500 6.12700 30.85300
C  -0.58300 6.00000 29.28800
C  0.90000 5.41300 31.39900
C  -1.70300 8.35500 31.67200
C  -1.75100 8.44600 33.17300
H  -0.51600 7.97200 33.92800
N  -0.95700 5.39400 26.21300
C  -0.87500 4.50100 27.19700
C  -0.79400 3.16100 26.53900
C  -1.03000 3.27600 25.13500
C  -1.09900 4.70500 24.99300
C  -0.69600 2.00500 27.35900
C  -1.14300 2.19500 24.06900
O  -1.34200 2.45400 22.88200
C  -1.35700 0.72000 24.50800
N  -0.93600 7.70100 24.37500
C  -1.04600 6.73400 23.46200
C  -1.31100 7.25800 22.03300
C  -1.34900 8.76700 22.35400
C  -0.83300 8.93900 23.77000
C  -0.20700 6.73900 21.10400
C  -2.86100 9.41200 22.31700
C  -2.97100 10.99200 22.05400
N  -0.33200 9.38900 26.55900
C  -0.12800 10.36500 25.62500
C  0.21000 11.64400 26.24300
C  0.37100 11.32100 27.60200
C  0.04300 9.96000 27.78700
C  0.44000 12.94900 25.56800
C  0.80700 11.82200 28.84300
O  1.44300 12.81600 29.12600
C  0.52800 10.71300 29.93700
C  1.70700 10.57800 30.78200
O  2.52000 9.67000 30.84900
O  1.59300 11.54900 31.70000
C  2.44100 11.43700 32.85200
H  -0.74800 3.93500 29.27200
H  -1.42100 4.78300 22.88800
H  -0.39700 11.00200 23.71200
H  0.56300 8.06300 31.56400
H  -1.22500 5.67600 31.41100
H  0.53600 4.41400 31.64000
H  1.28600 5.89300 32.29800
H  1.68500 5.39700 30.64300
H  -2.50900 7.74200 31.26800
H  -1.84700 9.33400 31.21500
H  -2.61100 7.88500 33.54000
H  -1.98900 9.45600 33.50600
H  0.18200 1.40800 27.11700
H  -1.63200 1.44700 27.33000
H  -0.51500 2.19000 28.41800
H  -0.45400 0.30600 24.95900
H  -1.70100 0.09400 23.68500
H  -2.12000 0.78100 25.28400
H  -2.34300 7.08000 21.72900
H  -0.67500 9.36700 21.74200
H  0.40500 7.61000 20.87400
H  -0.68300 6.48300 20.15700
H  0.44200 5.95900 21.50300
H  -3.22300 9.36700 23.34400
H  -3.51900 8.84800 21.65600
H  -3.57300 11.38700 22.87300
H  -3.35300 11.19700 21.05400
H  -2.03100 11.53500 22.14700
H  1.17200 12.84700 24.76700
H  0.91400 13.70500 26.19400
H  -0.53100 13.31600 25.23600
H  -0.33200 10.95100 30.56300
H  2.62500 12.32700 33.45300
H  3.42100 11.04400 32.58200
H  2.00600 10.68000 33.50500
Mg 46.67500 17.53100 29.30600
C  44.81600 16.80800 32.27200
C  48.95000 19.26000 31.35400
C  48.25200 18.63600 26.46200
C  44.23300 16.05800 27.51800
N  46.95400 17.73600 31.50000
C  46.03900 17.44100 32.53300
C  46.58200 17.91200 33.88100
C  47.72500 18.97200 33.55000
C  47.93100 18.60300 32.03400
C  47.38200 20.50000 33.87800
C  47.13500 16.76800 34.71700
C  47.38300 17.04800 36.21800
H  47.00500 18.36900 36.88500
N  48.34600 18.68200 28.96700
C  49.13600 19.31300 29.94600
C  50.16000 20.09500 29.19800
C  49.94700 20.01000 27.80200
C  48.82400 19.03700 27.67100
C  51.23300 20.91400 29.93900
C  50.73100 20.65400 26.65000
O  50.55200 20.48800 25.45300
C  51.99100 21.40800 26.87300
N  46.45200 17.12900 27.24800
C  47.12300 17.77100 26.23200
C  46.65500 17.32500 24.85200
C  45.40900 16.42500 25.23900
C  45.32100 16.57000 26.75400
C  46.35200 18.42900 23.71300
C  45.52400 14.91600 24.77300
C  46.47400 14.00900 25.62200
N  44.88700 16.58500 29.74200
C  43.97200 16.07900 28.88800
C  42.84000 15.54000 29.59900
C  43.13700 15.83200 30.93700
C  44.39300 16.44800 30.96600
C  41.67200 14.85600 28.98300
C  42.65400 15.68400 32.37900
O  41.67700 15.15600 32.90200
C  43.79300 16.31500 33.26700
C  43.18800 17.50500 34.01100
O  42.93400 18.57400 33.51200
O  42.97400 17.23500 35.33300
C  42.07300 18.16400 36.05900
H  49.73700 19.69000 31.97700
H  48.67900 18.93700 25.50300
H  43.52800 15.57100 26.84100
H  45.82500 18.49000 34.41200
H  48.57600 18.67900 34.16500
H  46.30800 20.66100 33.97300
H  47.64800 21.11700 33.02000
H  47.87300 20.77100 34.81300
H  48.03700 16.39500 34.23200
H  46.46400 15.90900 34.69600
H  48.44900 16.83100 36.28100
H  46.88000 16.32100 36.85400
H  51.72100 21.71200 29.37800
H  52.05900 20.26300 30.22600
H  50.85500 21.27300 30.89600
H  52.61700 20.86400 27.58000
H  51.81800 22.40800 27.27000
H  52.63000 21.42100 25.99000
H  47.37100 16.59500 24.47500
H  44.44300 16.85800 24.97900
H  45.27700 18.60800 23.73800
H  46.67000 18.16400 22.70500
H  46.77200 19.41200 23.92800
H  45.85600 14.85700 23.73600
H  44.58400 14.39300 24.94900
H  47.44300 14.50700 25.61200
H  46.56500 12.97800 25.27900
H  45.99000 13.87400 26.58900
H  41.10300 15.65100 28.50100
H  41.16700 14.25000 29.73500
H  42.03800 14.26200 28.14500
H  44.15400 15.56100 33.96700
H  41.13000 18.27300 35.52400
H  42.52200 19.15200 36.15900
H  41.86200 17.79700 37.06400

