158

Mg 0.80800 7.07800 25.63500
C  1.35000 9.02000 28.40100
C  0.82500 4.28000 27.55100
C  -0.43200 5.27900 23.05800
C  1.16100 9.81800 23.56600
N  1.06900 6.66800 27.71000
C  1.17000 7.66200 28.70000
C  1.16500 6.99900 30.07000
C  1.27500 5.45500 29.75100
C  1.02900 5.46700 28.21900
C  2.62400 4.78700 30.13600
C  -0.12000 7.39000 30.88300
C  0.20100 7.77900 32.38800
H  1.43200 7.31800 33.10200
N  0.37700 5.03200 25.28500
C  0.42500 4.08100 26.26100
C  0.09500 2.82500 25.62000
C  -0.41400 3.12700 24.33800
C  -0.22300 4.54900 24.15600
C  0.35700 1.52400 26.32000
C  -1.12400 2.20900 23.32100
O  -1.45300 2.43500 22.15400
C  -1.62200 0.84900 23.83300
N  0.62600 7.45200 23.59100
C  -0.00900 6.55700 22.75400
C  -0.18600 7.14200 21.39100
C  0.28000 8.62200 21.58200
C  0.82000 8.63900 22.99500
C  0.58800 6.41600 20.23600
C  -0.85400 9.70500 21.34300
C  -0.69400 10.55300 20.07500
N  1.36000 9.00900 25.86600
C  1.34300 10.07900 24.95300
C  1.52900 11.33100 25.67700
C  1.60700 10.90700 26.96800
C  1.43000 9.52900 27.05300
C  1.56700 12.72800 25.08800
C  1.83300 11.44700 28.36800
O  2.19200 12.60200 28.70900
C  1.55800 10.22800 29.29700
C  2.56400 10.07900 30.39600
O  3.63800 9.53000 30.35700
O  2.24700 11.01500 31.31000
C  3.32700 11.33800 32.22000
H  0.82200 3.40300 28.20000
H  -0.97000 4.79800 22.23900
H  1.20700 10.69300 22.91400
H  2.03600 7.30300 30.65000
H  0.46800 4.93200 30.26500
H  2.41400 3.77800 30.49000
H  3.16100 5.26000 30.95800
H  3.37600 4.70500 29.35100
H  -0.86000 6.59800 30.76600
H  -0.45100 8.27500 30.34000
H  -0.73000 7.48500 32.87200
H  0.19900 8.86800 32.42700
H  -0.57600 1.15700 26.74700
H  1.17500 1.56200 27.04000
H  0.74600 0.86000 25.54800
H  -0.81300 0.12600 23.73200
H  -2.32300 0.49000 23.08000
H  -2.15200 0.93500 24.78100
H  -1.27000 7.14100 21.27300
H  1.20100 8.89200 21.06500
H  1.40100 6.06100 20.86800
H  0.79300 7.10900 19.42000
H  0.06100 5.50200 19.96300
H  -0.96700 10.42300 22.15500
H  -1.84300 9.24500 21.35100
H  -1.69700 10.64300 19.65800
H  -0.09800 9.96800 19.37400
H  -0.25100 11.51000 20.34900
H  1.99000 12.72400 24.08400
H  2.13400 13.26100 25.85200
H  0.57900 13.15500 24.91600
H  0.63400 10.40700 29.84600
H  2.90400 11.99400 32.98100
H  4.29800 11.58900 31.79300
H  3.46300 10.35500 32.67200
Mg -5.28300 24.67800 25.84700
C  -3.71700 26.32900 28.48600
C  -6.72300 22.59300 28.28200
C  -7.02500 23.28800 23.48000
C  -3.50400 26.71500 23.62100
N  -5.23500 24.55700 28.12200
C  -4.60200 25.37600 28.97300
C  -5.12400 25.15600 30.43800
C  -5.83100 23.78100 30.29100
C  -5.93700 23.61200 28.77100
C  -5.01900 22.67900 31.04100
C  -6.05100 26.35600 30.86900
C  -6.02700 26.76200 32.32800
H  -5.61400 25.72500 33.40800
N  -6.72400 23.15500 25.89300
C  -7.19100 22.44500 26.93300
C  -8.25500 21.58500 26.45800
C  -8.29700 21.70600 25.07100
C  -7.36500 22.72600 24.75700
C  -9.10300 20.83100 27.47700
C  -9.22200 21.00800 24.03500
O  -9.31300 21.30000 22.82700
C  -10.18100 20.04000 24.60800
N  -5.20900 24.88500 23.78000
C  -6.10600 24.21100 23.00700
C  -5.87800 24.54700 21.50100
C  -4.80900 25.73700 21.57200
C  -4.51900 25.81300 23.03400
C  -5.18400 23.44100 20.55500
C  -5.25600 27.06900 21.03700
C  -4.37400 27.59300 19.92400
N  -3.88700 26.22100 25.98600
C  -3.27200 26.93200 24.99900
C  -2.45400 27.95500 25.64000
C  -2.52200 27.75700 27.00700
C  -3.41500 26.61800 27.12800
C  -1.67500 29.04600 25.04000
C  -2.06400 28.14900 28.37900
O  -1.33100 29.07000 28.69400
C  -2.76900 27.17900 29.38100
C  -1.81400 26.40300 30.19100
O  -1.00800 25.55000 29.80700
O  -1.99700 26.83900 31.43100
C  -1.30100 26.06600 32.45100
H  -7.05100 21.97300 29.11900
H  -7.64400 22.89200 22.67100
H  -2.84900 27.33600 23.00600
H  -4.26100 25.08900 31.10100
H  -6.83200 23.90300 30.70400
H  -5.08700 21.73800 30.49700
H  -5.53000 22.61300 32.00100
H  -3.99400 23.02300 31.17900
H  -7.07900 26.09200 30.62000
H  -5.78800 27.15300 30.17300
H  -6.99800 27.16100 32.62100
H  -5.30600 27.58000 32.33000
H  -10.15700 21.01400 27.26400
H  -8.95800 21.15200 28.50900
H  -8.94800 19.75400 27.41400
H  -9.71400 19.23400 25.17500
H  -10.74500 19.63800 23.76600
H  -10.84600 20.54900 25.30500
H  -6.81100 24.80800 21.00100
H  -3.82100 25.52700 21.16200
H  -5.88200 23.12200 19.78100
H  -4.85200 22.57200 21.12300
H  -4.28300 23.70800 20.00300
H  -5.49500 27.80500 21.80400
H  -6.15500 26.76700 20.49900
H  -4.91900 28.21100 19.21000
H  -3.98400 26.80500 19.28000
H  -3.52200 28.14700 20.32000
H  -1.40800 28.61400 24.07600
H  -0.85800 29.36300 25.68700
H  -2.26500 29.93300 24.80800
H  -3.37400 27.80600 30.03600
H  -0.73600 25.24700 32.00600
H  -2.15900 25.76500 33.05300
H  -0.70000 26.59300 33.19200

