158

Mg 45.77700 3.92800 47.50200
C  43.96600 6.85100 47.17800
C  42.94200 2.13900 46.77900
C  47.73400 1.19600 47.31400
C  48.77700 6.01100 47.38700
N  43.67200 4.45100 47.15800
C  43.16300 5.69800 47.05000
C  41.80800 5.65800 46.41600
C  41.37900 4.18500 46.65800
C  42.74600 3.51100 46.87600
C  40.45000 4.07200 47.97500
C  41.82600 6.08900 44.91500
C  40.63200 6.90700 44.43400
H  40.34100 6.70500 42.98100
N  45.36900 1.92500 47.10900
C  44.11000 1.37600 46.92000
C  44.24000 -0.07500 46.80900
C  45.59700 -0.38100 47.08500
C  46.33400 0.91000 47.14300
C  43.10500 -1.09400 46.51900
C  46.18300 -1.75800 47.26800
O  45.42900 -2.75500 47.32100
C  47.66900 -2.03200 47.24900
N  47.92500 3.64700 47.39800
C  48.47200 2.41900 47.47600
C  50.03500 2.44800 47.62200
C  50.33000 3.91200 47.24800
C  48.95300 4.64000 47.36400
C  50.43800 1.87400 49.04800
C  51.17500 4.00200 45.97000
C  52.34000 5.04200 45.85400
N  46.34300 6.05100 47.41700
C  47.50000 6.74800 47.36000
C  47.24400 8.16600 47.44100
C  45.86700 8.25100 47.25200
C  45.37700 6.94400 47.24800
C  48.27500 9.25800 47.50600
C  44.74600 9.14600 47.14400
O  44.82300 10.36100 47.08700
C  43.48000 8.25600 47.06300
C  42.48300 8.71400 48.13600
O  42.33900 8.15200 49.25500
O  41.67000 9.79000 47.69400
C  40.52900 10.25400 48.40600
H  42.02100 1.56200 46.67100
H  48.39100 0.32500 47.34900
H  49.63500 6.68500 47.41100
H  41.19800 6.36500 46.97800
H  40.81200 3.77700 45.82100
H  40.02700 4.98800 48.38900
H  40.98000 3.52900 48.75700
H  39.60600 3.45800 47.66200
H  41.84100 5.11800 44.41900
H  42.71600 6.62600 44.58800
H  40.94600 7.93600 44.61000
H  39.74100 6.79300 45.05200
H  42.12500 -0.61600 46.51100
H  43.22200 -1.90000 47.24300
H  43.37000 -1.55000 45.56500
H  48.00700 -1.55000 48.16600
H  48.03100 -1.59000 46.32100
H  47.87400 -3.09300 47.10700
H  50.50300 1.73800 46.94000
H  50.91000 4.41900 48.01900
H  49.57100 1.67900 49.68000
H  50.91800 2.69600 49.58100
H  51.10400 1.01200 49.01700
H  50.50600 4.21400 45.13600
H  51.53400 3.02400 45.64800
H  51.96200 5.90200 45.30100
H  53.13900 4.62900 45.23800
H  52.69800 5.37900 46.82700
H  47.80600 10.14200 47.07500
H  49.12100 8.95100 46.89300
H  48.57100 9.50700 48.52500
H  42.99300 8.44800 46.10600
H  39.68000 9.64900 48.08700
H  40.25400 11.26600 48.10900
H  40.55300 10.20600 49.49400
Mg 0.27100 44.04400 25.94000
C  2.47800 43.86200 28.64300
C  -2.31200 43.62700 28.24000
C  -1.82800 43.88400 23.49400
C  2.96800 44.35900 23.82100
N  0.11600 43.93000 28.18400
C  1.16300 43.80500 29.01800
C  0.58900 43.68800 30.45300
C  -0.92000 43.30300 30.32800
C  -1.06500 43.67000 28.80100
C  -1.25600 41.75900 30.64800
C  0.85300 44.99800 31.24800
C  1.38300 44.70800 32.66800
H  0.63700 43.68200 33.50600
N  -1.76500 43.85200 25.89100
C  -2.64800 43.73600 26.93200
C  -4.04500 43.69700 26.49400
C  -3.93000 43.81300 25.04700
C  -2.45600 43.87500 24.76300
C  -5.30500 43.56600 27.39000
C  -5.01400 43.91200 24.03400
O  -4.78600 43.97600 22.84700
C  -6.53600 43.98500 24.46500
N  0.63700 43.88700 23.92000
C  -0.45100 43.87200 23.11400
C  -0.02900 44.03000 21.66800
C  1.50400 44.45200 21.74800
C  1.71100 44.21700 23.21500
C  -0.24900 42.79700 20.78800
C  1.80800 45.88200 21.20500
C  2.14400 45.78800 19.67100
N  2.41000 44.01100 26.14300
C  3.35800 44.15800 25.17300
C  4.65600 44.08500 25.77400
C  4.38100 44.03100 27.14500
C  2.99600 43.90400 27.30100
C  6.02600 44.00100 25.03600
C  4.89600 43.88200 28.50500
O  6.06900 43.93200 28.91700
C  3.70500 43.88000 29.50100
C  3.83200 42.72700 30.39300
O  3.68000 41.60500 29.98600
O  4.35500 43.05900 31.65800
C  4.79300 41.94600 32.48600
H  -3.08600 43.57100 29.00900
H  -2.47900 43.89200 22.61800
H  3.66900 44.59800 23.01800
H  1.20300 42.84800 30.77600
H  -1.50100 44.07300 30.83700
H  -0.32900 41.26200 30.93200
H  -1.63300 41.39400 29.69300
H  -1.93900 41.67300 31.49400
H  -0.05200 45.58500 31.40600
H  1.61600 45.59500 30.75000
H  1.45700 45.69800 33.11600
H  2.45600 44.57200 32.53500
H  -5.79800 44.51400 27.60200
H  -4.97800 43.22000 28.37000
H  -5.97900 42.82500 26.96100
H  -6.83800 42.98300 24.77000
H  -7.00900 44.41900 23.58500
H  -6.58800 44.64700 25.33000
H  -0.62800 44.81800 21.21200
H  2.18300 43.74100 21.27700
H  0.51800 42.48400 20.08100
H  -1.07800 42.97900 20.10400
H  -0.54900 41.93900 21.39000
H  2.73400 46.28900 21.61000
H  0.96300 46.56800 21.24900
H  1.68700 46.67000 19.22100
H  1.56700 44.92200 19.34800
H  3.19800 45.70000 19.41000
H  6.77500 44.42200 25.70700
H  5.89900 44.60600 24.13800
H  6.30500 42.97500 24.79500
H  3.80400 44.77000 30.12200
H  5.86500 41.78700 32.36600
H  4.23800 41.01200 32.39800
H  4.69500 42.20400 33.54100

