158

Mg 47.39500 15.65700 27.94900
C  45.17500 15.77600 30.75400
C  49.72300 17.38600 29.88000
C  49.02300 16.14200 25.22300
C  44.58000 14.47900 26.06600
N  47.39300 16.61500 30.08400
C  46.48800 16.41900 31.05300
C  46.99800 16.76100 32.42800
C  48.36700 17.42200 32.06500
C  48.51200 17.12500 30.58800
C  48.31400 18.98700 32.28700
C  47.15700 15.62700 33.51900
C  46.61200 15.85300 34.98500
H  46.37500 17.32200 35.45100
N  49.17600 16.57800 27.58500
C  50.00700 17.18600 28.53400
C  51.17500 17.57300 27.81600
C  51.03300 17.25400 26.42600
C  49.77000 16.55600 26.39300
C  52.38600 18.22500 28.49500
C  51.95100 17.62400 25.26500
O  51.71700 17.24700 24.15400
C  53.12000 18.54500 25.55100
N  46.81400 15.30100 25.91400
C  47.79400 15.58700 24.99700
C  47.23800 15.23400 23.56400
C  45.94100 14.46000 23.83100
C  45.73000 14.72700 25.35000
C  47.14600 16.45100 22.59300
C  46.07900 12.99600 23.47700
C  46.69600 12.16100 24.60200
N  45.33300 15.27000 28.23100
C  44.37700 14.67100 27.41600
C  43.21600 14.34900 28.19600
C  43.52600 14.69100 29.49100
C  44.75700 15.39000 29.50300
C  41.86000 13.79700 27.66500
C  43.03300 14.65100 30.83500
O  42.00300 14.20500 31.36300
C  44.07500 15.34200 31.75300
C  43.57200 16.49000 32.46400
O  43.56500 17.63300 32.02900
O  43.06800 16.06400 33.61600
C  42.28800 17.04600 34.49600
H  50.47300 17.89100 30.49300
H  49.40200 16.28800 24.20900
H  43.76400 14.01300 25.51000
H  46.27900 17.45400 32.86500
H  49.28800 17.06800 32.52900
H  47.55200 19.29800 33.00100
H  48.22500 19.48900 31.32300
H  49.23800 19.35600 32.73200
H  48.20200 15.56700 33.82300
H  46.69600 14.70200 33.17000
H  47.33800 15.54000 35.73500
H  45.67400 15.31600 35.12800
H  53.33600 17.72800 28.29800
H  52.22900 18.26400 29.57300
H  52.43300 19.28800 28.25800
H  52.85700 19.50000 26.00700
H  53.47600 18.71000 24.53400
H  53.94200 17.95800 25.96000
H  47.97600 14.57500 23.10700
H  44.97300 14.81500 23.47600
H  46.24300 16.42300 21.98300
H  48.06800 16.34400 22.02100
H  47.16800 17.34600 23.21400
H  46.55700 12.85700 22.50700
H  45.10600 12.57800 23.22100
H  47.51800 12.54300 25.20800
H  47.21600 11.37200 24.06000
H  45.85100 11.76000 25.16300
H  41.55900 13.01200 28.35900
H  41.89100 13.34400 26.67500
H  41.13300 14.60900 27.66600
H  44.55600 14.62700 32.42100
H  41.25300 17.01500 34.15400
H  42.65800 18.07100 34.47100
H  42.19200 16.74500 35.53900
Mg -6.91900 26.05400 25.30700
C  -5.24800 27.29100 28.10400
C  -8.31300 23.70400 27.49000
C  -8.06100 24.35500 22.48900
C  -5.05600 27.95800 23.21700
N  -6.82300 25.62100 27.50100
C  -6.15900 26.35900 28.41700
C  -6.58700 26.01500 29.83500
C  -7.41200 24.67800 29.62100
C  -7.55300 24.66700 28.14600
C  -6.79700 23.34500 30.24400
C  -7.37400 27.19300 30.57400
C  -7.07900 27.40500 32.02800
H  -6.63100 26.17400 32.86200
N  -8.18300 24.31900 25.03400
C  -8.59500 23.52200 26.05700
C  -9.27900 22.40800 25.44400
C  -9.33500 22.53400 23.99900
C  -8.53700 23.78500 23.78700
C  -9.79900 21.30900 26.24000
C  -10.03400 21.71600 22.90000
O  -10.04800 22.17300 21.77800
C  -10.69600 20.41200 23.27900
N  -6.82200 26.32400 23.13600
C  -7.30200 25.41800 22.20600
C  -6.81100 25.82600 20.74900
C  -6.00200 27.15200 21.03100
C  -5.96900 27.18700 22.58700
C  -6.15600 24.72000 19.90400
C  -6.63100 28.46600 20.44300
C  -5.96800 29.04400 19.18200
N  -5.54300 27.51600 25.54700
C  -4.77200 28.14300 24.61100
C  -3.83800 29.03700 25.29800
C  -3.99800 28.74700 26.73400
C  -5.01500 27.77000 26.79500
C  -2.96300 30.06500 24.69900
C  -3.62100 29.12900 28.06300
O  -2.78200 29.95000 28.44700
C  -4.27900 28.03500 28.99100
C  -3.26900 27.11900 29.60700
O  -3.05500 26.01400 29.22900
O  -2.57400 27.73600 30.64500
C  -1.48500 26.92000 31.18200
H  -8.75300 22.97300 28.17200
H  -8.34000 23.82000 21.57900
H  -4.41000 28.53900 22.55600
H  -5.67700 25.86900 30.41700
H  -8.42200 24.81900 30.00400
H  -6.02900 22.98800 29.55800
H  -7.51100 22.54500 30.43800
H  -6.37900 23.60200 31.21700
H  -8.45000 27.18200 30.40100
H  -7.11400 28.14900 30.12000
H  -7.98500 27.79900 32.48700
H  -6.31300 28.17900 32.07800
H  -10.86500 21.47100 26.39600
H  -9.32600 21.20600 27.21700
H  -9.62900 20.33900 25.77300
H  -9.94900 19.70500 23.64000
H  -11.24300 20.07200 22.40000
H  -11.49500 20.61300 23.99200
H  -7.71500 26.05200 20.18300
H  -5.06300 26.97900 20.50500
H  -5.91600 23.88200 20.55900
H  -5.21800 25.03900 19.45000
H  -6.82900 24.27500 19.17200
H  -6.67100 29.37000 21.05100
H  -7.63400 28.31900 20.04300
H  -6.71100 29.40900 18.47300
H  -5.23500 28.37000 18.73900
H  -5.43100 29.92800 19.52700
H  -3.35600 30.40700 23.74200
H  -2.04100 29.54700 24.43400
H  -2.67100 30.82300 25.42600
H  -4.75600 28.71400 29.69700
H  -0.64600 26.97800 30.49000
H  -1.81200 25.88000 31.16700
H  -1.18700 27.34200 32.14200

