158

Mg 49.04800 34.89200 27.22700
C  47.37700 33.24300 29.65600
C  49.26700 37.61800 29.17500
C  50.61300 36.38800 24.72800
C  48.32000 32.19500 25.01000
N  48.39600 35.34900 29.19300
C  47.88700 34.50300 30.12500
C  48.07300 34.94500 31.57300
C  48.19200 36.49600 31.31700
C  48.57800 36.51000 29.80600
C  46.88600 37.28400 31.61200
C  49.32300 34.32200 32.26300
C  49.16000 33.77500 33.74700
H  49.39200 34.89100 34.85000
N  49.86600 36.71500 27.04400
C  49.81100 37.71600 27.92700
C  50.45100 38.90700 27.34000
C  50.97100 38.53000 26.10500
C  50.43800 37.18100 25.84900
C  50.36900 40.27500 27.94900
C  51.86200 39.32300 25.18000
O  52.28200 38.85500 24.14000
C  52.39400 40.67700 25.61600
N  49.44300 34.29800 25.18300
C  50.15300 35.10500 24.39400
C  50.21300 34.61000 22.92900
C  49.82700 33.15600 23.03400
C  49.17900 33.18800 24.47000
C  49.37100 35.42400 21.93100
C  50.97700 32.04600 23.08800
C  51.21900 31.33000 21.72500
N  48.00100 33.06300 27.24000
C  47.75100 32.03800 26.30800
C  47.04800 30.95300 26.90200
C  46.80300 31.39800 28.23200
C  47.45000 32.67200 28.37000
C  46.60800 29.72900 26.23600
C  46.05300 31.17000 29.45400
O  45.35700 30.21300 29.70300
C  46.54600 32.22200 30.41500
C  47.23500 31.48900 31.58500
O  48.41300 31.22400 31.71500
O  46.36300 31.17500 32.52600
C  46.80300 30.36600 33.69100
H  49.52700 38.47200 29.80500
H  51.17800 36.75500 23.86800
H  48.21200 31.38500 24.28600
H  47.21500 34.67700 32.18900
H  48.99800 36.98800 31.86000
H  47.11000 37.79200 32.55000
H  46.07900 36.60500 31.88600
H  46.61500 37.94600 30.78900
H  50.15800 35.01800 32.34600
H  49.87000 33.57900 31.68200
H  49.82000 32.95100 34.01800
H  48.11800 33.45700 33.78600
H  51.36800 40.46600 28.34100
H  49.71900 40.42900 28.81000
H  50.22300 40.96800 27.12000
H  53.30700 40.92400 25.07400
H  52.67100 40.47300 26.65000
H  51.51900 41.30500 25.44500
H  51.24400 34.61800 22.57700
H  49.04100 32.91900 22.31600
H  48.53400 34.84700 21.53800
H  49.86700 35.69500 20.99800
H  49.09800 36.38700 22.36200
H  50.92700 31.30100 23.88200
H  51.86400 32.63900 23.31100
H  50.40500 31.49400 21.02000
H  51.30400 30.25500 21.88200
H  52.18600 31.68700 21.37000
H  46.84600 29.80100 25.17500
H  45.55700 29.44400 26.28300
H  47.24000 28.89300 26.53500
H  45.69100 32.69700 30.89600
H  46.85900 29.34800 33.30500
H  46.12200 30.55300 34.52200
H  47.79500 30.67600 34.01800
Mg 4.76900 53.84000 41.30800
C  4.46600 50.40900 40.90600
C  7.57600 53.92900 39.55500
C  4.57000 57.24500 41.41900
C  1.43000 53.76400 42.86600
N  5.86900 52.39100 40.41800
C  5.56300 51.01600 40.29200
C  6.64300 50.28200 39.43100
C  7.78300 51.35200 39.31500
C  7.02900 52.66000 39.77400
C  9.00800 51.04200 40.29100
C  6.09200 49.96400 38.01100
C  6.83100 48.90100 37.29500
H  6.28900 48.26600 35.98900
N  5.93900 55.39800 40.62400
C  7.10900 55.21600 40.02800
C  7.80400 56.50500 39.95200
C  6.95900 57.39400 40.55400
C  5.73300 56.71600 40.92900
C  9.10500 56.81100 39.34900
C  7.23400 58.91100 40.48400
O  8.17200 59.41200 39.92300
C  6.30200 59.87300 41.11400
N  3.14300 55.25700 41.82400
C  3.37700 56.60200 41.79300
C  2.12900 57.36100 42.27700
C  1.15600 56.29100 42.80200
C  1.98500 55.00100 42.52500
C  2.46700 58.55700 43.28500
C  -0.19600 56.20700 42.24000
C  -1.19300 55.94300 43.38200
N  3.13600 52.38600 41.81700
C  2.01200 52.48500 42.58300
C  1.51400 51.17000 42.93500
C  2.43100 50.27600 42.29400
C  3.41100 51.08600 41.64400
C  0.35500 50.82600 43.79600
C  2.83000 48.91500 42.00700
O  2.31600 47.87300 42.36900
C  4.10600 48.96400 41.08400
C  3.78000 48.15600 39.90200
O  2.94200 48.48000 39.06000
O  4.57200 46.97900 39.84600
C  4.46000 46.18300 38.61000
H  8.58900 53.87600 39.15200
H  4.50800 58.32500 41.56500
H  0.44000 53.74700 43.32500
H  7.00500 49.39400 39.95000
H  8.15000 51.41000 38.29100
H  8.92600 50.01100 40.63500
H  8.95500 51.75600 41.11400
H  9.95900 51.05100 39.75900
H  6.12100 50.79700 37.30800
H  5.07200 49.58000 38.02900
H  7.19100 48.11300 37.95700
H  7.74600 49.39800 36.97600
H  9.42600 55.91100 38.82500
H  9.78300 56.97500 40.18700
H  9.14300 57.66400 38.67200
H  6.74500 60.83900 41.35700
H  6.04900 59.37500 42.05000
H  5.50100 60.00600 40.38700
H  1.72800 57.95200 41.45300
H  1.19000 56.44500 43.88100
H  2.55000 59.46900 42.69400
H  3.36600 58.40100 43.88100
H  1.56400 58.67300 43.88400
H  -0.46100 55.40200 41.55500
H  -0.37200 57.20000 41.82600
H  -1.48300 56.93500 43.72800
H  -0.89000 55.30100 44.20900
H  -2.11000 55.51200 42.98100
H  -0.17500 50.14100 43.13500
H  -0.27800 51.66500 44.08700
H  0.70400 50.21900 44.63200
H  5.00500 48.48900 41.47500
H  4.12200 46.81800 37.79100
H  3.81400 45.31800 38.76300
H  5.45100 45.82100 38.33700

