158

Mg 35.10300 3.02200 30.07000
C  32.77400 3.94600 32.58200
C  37.62100 3.36800 32.48600
C  37.31700 2.20200 27.79300
C  32.64100 3.58900 27.73500
N  35.16700 3.91800 32.19500
C  34.11700 3.94600 33.10200
C  34.61800 3.87200 34.53700
C  36.13100 4.10100 34.40700
C  36.34500 3.82200 32.91600
C  36.58100 5.55900 34.66100
C  34.24300 2.47900 35.14300
C  33.74000 2.47600 36.59300
H  34.42900 3.42800 37.56600
N  37.17300 2.71100 30.10700
C  37.99500 2.83800 31.17700
C  39.27900 2.32700 30.85600
C  39.19000 1.96100 29.46800
C  37.87600 2.27200 29.02300
C  40.36400 2.25700 31.84600
C  40.30600 1.38100 28.49800
O  40.12900 1.10200 27.33600
C  41.73500 1.27600 29.06700
N  34.99600 3.01000 28.02500
C  36.06100 2.58300 27.31000
C  35.62000 2.44300 25.81100
C  34.07900 2.76100 25.88200
C  33.85600 3.11800 27.32800
C  36.38200 3.35300 24.74500
C  33.20400 1.50100 25.60200
C  32.87100 1.30000 24.08000
N  33.04500 3.64300 30.08300
C  32.14900 3.78500 29.05600
C  30.83000 4.09800 29.60500
C  31.03100 4.14000 31.02200
C  32.39100 3.87400 31.24000
C  29.57800 4.36800 28.79200
C  30.40200 4.37200 32.34400
O  29.26000 4.61500 32.65000
C  31.47400 4.13500 33.44300
C  31.57100 5.26100 34.34500
O  32.04200 6.37500 34.19100
O  31.13900 4.74900 35.58200
C  31.22400 5.84700 36.65400
H  38.37600 3.37700 33.27500
H  37.97800 2.13800 26.92600
H  31.91000 3.67500 26.92900
H  34.14100 4.66600 35.11100
H  36.72900 3.40700 34.99800
H  37.27400 5.61400 35.50000
H  35.66500 6.15000 34.64300
H  37.14600 5.94800 33.81400
H  35.07800 1.78100 35.20600
H  33.43000 2.11800 34.51300
H  33.75400 1.47000 37.01200
H  32.72500 2.87200 36.61300
H  39.91800 1.83500 32.74600
H  40.69400 3.28300 32.00800
H  41.13600 1.51700 31.63400
H  42.31800 1.09400 28.16500
H  41.72700 0.40400 29.72100
H  42.12000 2.15800 29.57900
H  35.83100 1.40200 25.56800
H  33.90900 3.55400 25.15400
H  37.03000 4.14100 25.13000
H  35.62700 3.90400 24.18400
H  36.90800 2.92600 23.89100
H  32.25800 1.72700 26.09500
H  33.67100 0.59800 25.99600
H  33.26800 0.32300 23.80600
H  33.19900 2.15500 23.48900
H  31.78800 1.23900 23.97600
H  28.80200 4.19600 29.53800
H  29.59600 3.54700 28.07600
H  29.75600 5.35200 28.35800
H  31.20300 3.21700 33.96500
H  32.27900 5.99100 36.88700
H  30.76800 5.75900 37.64000
H  30.79000 6.76700 36.26300
Mg 16.95500 51.74300 25.72400
C  18.92000 50.60100 28.41400
C  14.59300 52.53400 28.09400
C  15.16700 53.04600 23.28300
C  19.31500 50.28400 23.53900
N  16.80900 51.63800 27.93900
C  17.77500 51.25300 28.86200
C  17.46200 51.62900 30.29800
C  15.94700 52.01700 30.21000
C  15.74100 52.01700 28.64300
C  15.00100 50.91900 30.95400
C  18.40800 52.73200 30.91000
C  18.84500 52.41700 32.31500
H  17.81100 51.89200 33.25400
N  15.03900 52.68700 25.68400
C  14.24300 52.90200 26.75700
C  13.03900 53.57300 26.24600
C  13.17100 53.76500 24.81400
C  14.51700 53.21400 24.53500
C  11.98200 53.89000 27.23100
C  12.26100 54.32900 23.72500
O  12.47300 54.28800 22.51700
C  10.99700 55.09600 24.12500
N  17.24300 51.62000 23.58700
C  16.31900 52.30100 22.79600
C  16.86600 52.27300 21.29100
C  18.24700 51.53400 21.41800
C  18.28800 51.07600 22.83800
C  15.88700 51.61600 20.32700
C  19.53000 52.32600 21.19900
C  20.22100 51.93700 19.92000
N  18.66500 50.62100 25.85100
C  19.53600 50.06700 24.91300
C  20.62300 49.36400 25.57200
C  20.40800 49.58500 26.93700
C  19.26300 50.37100 27.04100
C  21.76000 48.65800 24.96900
C  20.93900 49.21000 28.22400
O  21.84900 48.48700 28.61800
C  20.07000 49.98100 29.24800
C  19.64400 48.91100 30.22100
O  18.81000 48.00300 29.93800
O  20.13000 49.18400 31.51600
C  19.48300 48.26700 32.43300
H  13.84200 52.78700 28.84500
H  14.61600 53.45200 22.43200
H  20.06600 49.76400 22.94100
H  17.56900 50.74800 30.93100
H  15.78500 52.96500 30.72200
H  15.47700 50.46000 31.82000
H  14.66100 50.21900 30.19000
H  14.11500 51.44300 31.31300
H  17.82600 53.64600 31.03300
H  19.20600 53.06700 30.24800
H  19.18400 53.27000 32.90300
H  19.68600 51.72800 32.23600
H  11.30100 54.68200 26.92000
H  12.31500 54.19900 28.22200
H  11.41300 52.97900 27.41800
H  10.34700 54.63100 24.86500
H  10.45200 55.22600 23.19000
H  11.32700 56.03900 24.56300
H  16.88700 53.34300 21.08500
H  18.15000 50.76800 20.64900
H  16.26500 51.39300 19.32900
H  14.97700 52.18700 20.14400
H  15.57000 50.63200 20.67300
H  20.30000 52.04400 21.91600
H  19.40600 53.40800 21.23000
H  20.97100 51.20000 20.20600
H  20.92300 52.68200 19.54600
H  19.54400 51.70100 19.09900
H  21.46700 48.27100 23.99400
H  21.95500 47.82700 25.64700
H  22.73000 49.15700 24.94400
H  20.68000 50.68900 29.81000
H  18.40300 48.39500 32.49500
H  19.72600 48.74800 33.38000
H  19.74600 47.21100 32.37100

