158

Mg 17.10200 -1.53000 27.89500
C  15.78900 0.65000 30.43600
C  18.76400 -3.18600 30.39600
C  18.63300 -3.19700 25.41100
C  15.85700 0.76700 25.50300
N  17.36800 -1.13400 30.15500
C  16.62700 -0.34500 30.96100
C  16.98500 -0.52800 32.39300
C  17.98900 -1.70300 32.33600
C  18.09000 -2.02100 30.87500
C  19.47700 -1.42900 32.99100
C  15.72400 -0.76000 33.30900
C  15.75800 -0.09200 34.69800
H  17.09900 0.34500 35.32900
N  18.38300 -2.98500 27.92000
C  18.86700 -3.70200 29.05700
C  19.50000 -4.92400 28.60000
C  19.54100 -4.94100 27.16300
C  18.78200 -3.71000 26.75900
C  20.05200 -6.08300 29.49600
C  20.11600 -5.93000 26.19900
O  19.84100 -5.90200 25.01400
C  21.03600 -6.92400 26.67300
N  17.27300 -1.23700 25.71500
C  18.04600 -2.02800 24.97800
C  18.21200 -1.49100 23.54800
C  17.19300 -0.26300 23.57500
C  16.65100 -0.28200 25.00700
C  19.65400 -1.11900 23.23200
C  16.01000 -0.30400 22.55700
C  15.71500 1.09500 21.92000
N  16.01400 0.25400 27.88600
C  15.53300 1.05800 26.83900
C  14.70800 2.14100 27.27700
C  14.77500 1.96800 28.68900
C  15.59000 0.87600 29.00100
C  13.78700 2.90700 26.37700
C  14.32800 2.56900 29.94000
O  13.58600 3.52700 30.20600
C  15.00400 1.75500 31.08500
C  16.01700 2.75100 31.57900
O  16.86600 3.34400 30.91300
O  15.74100 3.04100 32.87500
C  16.26900 4.29700 33.44400
H  19.43400 -3.70600 31.08300
H  19.16300 -3.75500 24.63600
H  15.49300 1.49600 24.77600
H  17.36300 0.41800 32.78000
H  17.60900 -2.63700 32.75000
H  20.29400 -1.24300 32.29300
H  19.55000 -2.28000 33.66700
H  19.48600 -0.51600 33.58600
H  15.59200 -1.83600 33.42100
H  14.84800 -0.38200 32.78300
H  15.30300 -0.77600 35.41400
H  15.17500 0.82600 34.62300
H  19.80100 -7.08300 29.14400
H  19.70200 -6.06000 30.52900
H  21.12200 -5.93700 29.64400
H  21.85800 -6.41900 27.18000
H  21.60100 -7.36500 25.85200
H  20.64000 -7.72000 27.30300
H  17.86400 -2.27500 22.87500
H  17.75000 0.65800 23.40000
H  19.88800 -0.05500 23.25100
H  19.94200 -1.59500 22.29400
H  20.34200 -1.57300 23.94500
H  15.07000 -0.64500 22.99000
H  16.24500 -0.86300 21.65100
H  14.69000 1.35900 22.18000
H  15.86900 1.11400 20.84100
H  16.23500 1.95200 22.35100
H  13.28300 2.30300 25.62300
H  14.34400 3.68100 25.84900
H  13.12800 3.40600 27.08700
H  14.24600 1.70600 31.86700
H  16.07000 5.14700 32.79100
H  17.34300 4.27500 33.62800
H  15.74700 4.54000 34.36900
Mg 25.18700 1.06600 28.97300
C  27.24900 0.75900 31.73100
C  22.53000 1.80700 31.27100
C  23.21600 1.73600 26.48700
C  27.76300 0.20700 26.76700
N  24.89900 1.11200 31.14900
C  25.93000 1.16200 32.06200
C  25.50500 1.56300 33.46600
C  24.03000 1.84000 33.25400
C  23.79800 1.66400 31.75600
C  22.95900 0.91700 33.97100
C  26.31300 2.75400 34.10600
C  26.73100 2.75700 35.59300
H  26.06800 3.77800 36.51700
N  23.15200 1.45700 28.90500
C  22.23300 1.69400 29.91500
C  20.90400 1.90700 29.33400
C  21.13200 2.08600 27.91000
C  22.55900 1.72400 27.72700
C  19.62200 2.05000 30.25400
C  20.10400 2.45100 26.87500
O  20.30600 2.31900 25.65600
C  18.69000 3.01600 27.11900
N  25.41200 0.83100 26.89700
C  24.42600 1.24700 26.07200
C  24.84600 1.31000 24.56600
C  26.36500 0.96100 24.69800
C  26.52800 0.61800 26.17400
C  24.19300 0.25700 23.71800
C  27.40900 1.95000 24.10600
C  27.75200 3.18100 25.02200
N  27.11200 0.42100 29.20800
C  28.08700 0.10000 28.19100
C  29.30300 -0.10800 28.89800
C  29.02100 0.11800 30.28100
C  27.69100 0.52600 30.36800
C  30.60100 -0.45300 28.29900
C  29.62600 0.07600 31.62100
O  30.71900 -0.19400 31.99900
C  28.44700 0.56400 32.58000
C  28.29600 -0.46100 33.65700
O  27.44100 -1.30400 33.53600
O  28.95500 -0.22300 34.80200
C  28.49700 -0.97400 35.97700
H  21.66800 1.99800 31.91400
H  22.69800 1.92400 25.54400
H  28.54500 0.12600 26.00800
H  25.53800 0.67000 34.09100
H  23.90700 2.89100 33.51500
H  22.65000 0.10200 33.31600
H  22.18600 1.63800 34.23600
H  23.36200 0.48300 34.88600
H  25.75700 3.66600 33.89100
H  27.17400 2.99800 33.48500
H  27.80900 2.79000 35.75300
H  26.41300 1.76800 35.92300
H  19.45100 3.09600 30.50900
H  19.75200 1.41700 31.13200
H  18.78100 1.68400 29.66500
H  18.74000 3.55700 28.06400
H  17.95100 2.21400 27.10600
H  18.35400 3.57600 26.24600
H  24.60700 2.29700 24.17100
H  26.68400 -0.01600 24.33400
H  24.83400 -0.36900 23.09800
H  23.65100 0.74200 22.90600
H  23.40200 -0.21400 24.30200
H  26.93800 2.49000 23.28500
H  28.34700 1.48900 23.79700
H  27.14500 3.20000 25.92800
H  27.71400 4.11500 24.46300
H  28.78700 3.10800 25.35700
H  30.27000 -1.04500 27.44500
H  31.15800 -1.14000 28.93500
H  31.28700 0.37700 28.13000
H  28.82000 1.49400 33.01100
H  27.44800 -0.70700 36.10000
H  29.09100 -0.89200 36.88700
H  28.48500 -2.02700 35.69600

