158

Mg 47.17400 16.63900 27.57400
C  45.27600 16.66100 30.55600
C  49.77400 18.21300 29.43100
C  48.85200 17.24700 24.66500
C  44.46400 15.57300 25.88700
N  47.50700 17.40300 29.75900
C  46.58800 17.10300 30.80100
C  47.17300 17.61900 32.10200
C  48.43800 18.36800 31.70300
C  48.60100 17.99100 30.15900
C  48.56600 19.87500 32.06400
C  47.37900 16.47800 33.22600
C  46.73900 16.65300 34.58900
H  46.93500 17.98200 35.31700
N  49.06400 17.39500 27.11200
C  50.01600 17.92200 27.98600
C  51.30900 18.17600 27.33100
C  51.02900 17.96200 25.90800
C  49.57900 17.48200 25.79400
C  52.53700 18.58800 28.01100
C  52.02600 18.04700 24.78300
O  51.79800 17.91600 23.58600
C  53.48800 18.45300 25.06100
N  46.53400 16.70900 25.50800
C  47.46000 16.82100 24.48900
C  46.88400 16.49100 23.18400
C  45.60700 15.74900 23.59900
C  45.49300 16.00400 25.08300
C  46.69100 17.76100 22.25100
C  45.56500 14.25800 23.24200
C  44.73100 13.81900 22.08100
N  45.27200 16.16800 28.05800
C  44.28000 15.68700 27.23700
C  43.07200 15.37700 27.94600
C  43.47000 15.73100 29.33000
C  44.80200 16.22400 29.29400
C  41.69900 14.94100 27.41300
C  42.96300 15.71100 30.68600
O  41.89300 15.28700 31.06500
C  44.26500 16.22200 31.57900
C  43.73900 17.29900 32.35400
O  43.73700 18.47200 32.02300
O  43.27100 16.83800 33.52900
C  42.63300 17.82100 34.49900
H  50.60100 18.68500 29.96400
H  49.40200 17.30900 23.72300
H  43.69000 15.11300 25.27000
H  46.37600 18.26200 32.47400
H  49.38400 18.02200 32.12000
H  48.34900 20.48900 31.19000
H  49.54700 20.09600 32.48400
H  47.90800 20.17700 32.87900
H  48.44300 16.25100 33.29900
H  46.87900 15.58300 32.85600
H  47.12700 15.90600 35.28200
H  45.69100 16.35300 34.59600
H  53.25900 17.77800 27.90500
H  52.35600 18.60800 29.08500
H  52.99500 19.49400 27.61400
H  54.05400 18.31600 24.14000
H  53.91200 17.82800 25.84700
H  53.53400 19.48200 25.41700
H  47.46100 15.69800 22.70800
H  44.70200 16.22400 23.22100
H  45.64400 17.75800 21.94800
H  47.31300 17.68800 21.35900
H  46.83800 18.65400 22.85800
H  45.35500 13.62200 24.10200
H  46.60600 13.97100 23.09200
H  44.18200 12.89400 22.26100
H  45.39900 13.61600 21.24400
H  43.99100 14.61600 22.00800
H  41.00300 15.57900 27.95600
H  41.56300 13.86200 27.49300
H  41.59800 15.16700 26.35100
H  44.64000 15.35800 32.12800
H  41.66700 18.09000 34.07200
H  43.22500 18.73500 34.54700
H  42.47000 17.41200 35.49600
Mg 36.33200 49.40800 25.54800
C  36.18800 47.35800 28.35800
C  34.98500 51.95600 27.48300
C  35.81200 51.25300 22.76200
C  36.84400 46.66000 23.60600
N  35.67300 49.59700 27.68900
C  35.88500 48.69500 28.68300
C  35.70800 49.31700 30.06400
C  35.03700 50.68900 29.74100
C  35.18100 50.76200 28.24200
C  33.64600 50.93800 30.27000
C  37.13100 49.41500 30.81900
C  37.17700 49.98200 32.25500
H  35.94200 49.86900 33.05600
N  35.70400 51.41600 25.16600
C  35.28300 52.27600 26.13500
C  34.84500 53.49700 25.52200
C  35.13200 53.39900 24.11800
C  35.58700 52.02000 23.91300
C  34.24400 54.72600 26.28500
C  34.99100 54.31900 22.93900
O  35.04000 53.91100 21.77000
C  34.66300 55.77900 23.07800
N  36.37800 49.03800 23.47700
C  36.09000 49.93300 22.49600
C  36.29800 49.39900 21.15200
C  36.98800 48.07900 21.43700
C  36.67300 47.84300 22.93200
C  34.92100 49.23500 20.32600
C  38.56100 47.97700 21.26000
C  38.95700 47.68400 19.78000
N  36.62400 47.33800 25.90900
C  36.80900 46.37600 24.98200
C  37.13600 45.08500 25.67700
C  36.91400 45.45200 27.06200
C  36.49700 46.81600 27.08100
C  37.54900 43.72300 25.07300
C  36.98600 44.90000 28.41900
O  37.25400 43.77200 28.85000
C  36.58700 46.23000 29.29000
C  35.58500 45.78400 30.29800
O  34.48100 45.28600 29.95700
O  35.99100 45.99500 31.60900
C  35.01500 45.57800 32.63400
H  34.60900 52.80300 28.06100
H  35.70700 51.80600 21.82600
H  37.07000 45.79800 22.97500
H  35.04100 48.59000 30.52500
H  35.61800 51.45100 30.26200
H  33.26100 50.06800 30.80200
H  32.96800 51.06800 29.42600
H  33.58400 51.81500 30.91500
H  37.77200 50.04000 30.19600
H  37.59700 48.43000 30.81000
H  37.57300 50.99400 32.16700
H  37.90700 49.33900 32.74600
H  34.08900 55.64600 25.72200
H  34.90600 54.95600 27.11900
H  33.31100 54.29900 26.65400
H  33.69100 56.00000 23.51800
H  34.73600 56.28000 22.11300
H  35.52300 56.16300 23.62700
H  37.04600 49.99500 20.62900
H  36.60600 47.34900 20.72400
H  34.12500 48.86400 20.97100
H  35.03000 48.48000 19.54700
H  34.68100 50.21600 19.91500
H  39.07100 47.22600 21.86300
H  39.05100 48.89800 21.57600
H  38.18000 47.17100 19.21400
H  39.85900 47.07500 19.73400
H  39.12100 48.63800 19.27800
H  37.16100 43.71700 24.05400
H  37.01300 42.98300 25.66800
H  38.63100 43.59700 25.02600
H  37.47200 46.39900 29.90400
H  34.94500 44.50600 32.81400
H  33.99700 45.94800 32.50900
H  35.38400 45.95700 33.58700

