158

Mg 1.70900 -1.29700 43.39800
C  5.10600 -0.25400 43.32200
C  0.96800 1.57900 41.72200
C  -1.42900 -2.42500 42.97700
C  2.82400 -4.47800 44.18400
N  2.88300 0.27400 42.53100
C  4.18700 0.59800 42.61700
C  4.62800 1.94300 42.00300
C  3.18600 2.56300 42.03000
C  2.27200 1.38000 42.07900
C  2.94200 3.73900 43.04500
C  5.15800 1.63600 40.52300
C  6.12700 2.72100 39.80000
H  5.52800 3.62000 38.65700
N  -0.02800 -0.48900 42.59100
C  -0.12400 0.71200 41.91700
C  -1.49000 0.91100 41.49200
C  -2.25400 -0.17900 41.98800
C  -1.25000 -1.08900 42.58100
C  -2.04800 2.20500 40.90300
C  -3.77100 -0.22800 42.13100
O  -4.50900 0.66100 41.70500
C  -4.49100 -1.34700 42.75800
N  0.84100 -3.18700 43.53500
C  -0.49700 -3.40200 43.31400
C  -0.80200 -4.92400 43.40400
C  0.48400 -5.45100 44.09700
C  1.46900 -4.29700 43.90500
C  -2.03300 -5.32600 44.16100
C  1.01300 -6.82900 43.66200
C  1.79300 -7.71800 44.71200
N  3.52700 -2.22400 43.71200
C  3.82100 -3.55400 43.98200
C  5.28800 -3.74300 44.04300
C  5.81400 -2.49400 43.88400
C  4.74200 -1.59400 43.61900
C  6.07100 -4.95500 44.47900
C  6.98800 -1.80300 43.90000
O  8.16200 -2.13500 44.11200
C  6.59500 -0.25000 43.42400
C  6.99000 0.57600 44.56300
O  6.77000 0.39400 45.71500
O  7.87100 1.50800 44.08500
C  8.66400 2.24700 45.10700
H  0.77400 2.56800 41.30000
H  -2.39500 -2.88000 42.74900
H  3.15600 -5.50800 44.32500
H  5.31900 2.61200 42.51400
H  3.11400 3.03200 41.04800
H  3.77200 4.43800 42.94700
H  2.86700 3.53900 44.11300
H  2.05600 4.32000 42.78600
H  4.34800 1.23500 39.91300
H  5.75500 0.73700 40.67100
H  7.04500 2.20700 39.51500
H  6.27900 3.44500 40.60100
H  -1.28700 2.97600 40.78200
H  -2.72000 2.59600 41.66700
H  -2.52500 1.91100 39.96800
H  -5.54500 -1.10000 42.88500
H  -4.02200 -1.43100 43.73800
H  -4.27900 -2.28400 42.24400
H  -0.73600 -5.31900 42.39000
H  0.32800 -5.47600 45.17500
H  -1.85300 -5.81200 45.12000
H  -2.55500 -6.19400 43.75600
H  -2.75300 -4.51300 44.24400
H  1.52200 -6.76500 42.70100
H  0.11600 -7.40400 43.43200
H  1.14000 -8.45700 45.17600
H  2.30000 -7.20800 45.53200
H  2.49700 -8.27200 44.09100
H  5.37400 -5.50200 45.11300
H  6.90900 -4.52200 45.02600
H  6.44800 -5.46600 43.59300
H  7.26700 -0.02300 42.59700
H  8.68700 3.32500 44.94700
H  9.64700 1.77900 45.05500
H  8.41900 2.12300 46.16200
Mg -11.08300 17.50700 40.38100
C  -7.56100 17.09200 40.55300
C  -10.52300 20.93300 39.66700
C  -14.28400 17.81800 39.53300
C  -11.41700 14.03700 40.54000
N  -9.11800 18.85900 40.13300
C  -7.89500 18.47000 40.30400
C  -6.95900 19.64200 39.97000
C  -7.93100 20.88500 40.04500
C  -9.30800 20.24000 39.94500
C  -7.87800 21.80900 41.29900
C  -6.37700 19.50900 38.45600
C  -4.94700 19.04000 38.26300
H  -4.67000 17.96400 37.21700
N  -12.29300 19.23000 39.81600
C  -11.85100 20.51900 39.49900
C  -12.95800 21.23100 39.04000
C  -14.08100 20.38100 38.91200
C  -13.63100 19.07900 39.42900
C  -12.77200 22.67900 38.67900
C  -15.37100 20.76700 38.34600
O  -15.65800 21.95600 38.06900
C  -16.46900 19.84400 38.01900
N  -12.61400 16.14700 40.13200
C  -13.88200 16.52000 39.89700
C  -14.88700 15.28600 39.80300
C  -13.93200 14.09600 40.02500
C  -12.54700 14.73100 40.31500
C  -16.05100 15.55800 40.79800
C  -13.81500 13.02600 38.87800
C  -14.25400 11.61000 39.42800
N  -9.83000 15.81600 40.56300
C  -10.13900 14.49100 40.60100
C  -8.93100 13.74500 40.85000
C  -7.87700 14.69500 40.77800
C  -8.47300 15.96500 40.60000
C  -8.85200 12.27200 40.96500
C  -6.43300 14.95700 40.81000
O  -5.49100 14.24100 40.82800
C  -6.15500 16.44100 40.71900
C  -5.35100 16.93800 41.90300
O  -4.61100 17.84400 41.89800
O  -5.41800 16.04300 42.94800
C  -4.22100 16.11300 43.82800
H  -10.37200 22.01300 39.60000
H  -15.31500 17.97900 39.21000
H  -11.54600 12.95300 40.54800
H  -6.16700 19.70900 40.71600
H  -7.82300 21.45400 39.12200
H  -7.76000 22.86000 41.03400
H  -7.01700 21.44400 41.85900
H  -8.68900 21.57200 41.98700
H  -6.51000 20.44800 37.91700
H  -6.90800 18.66500 38.01700
H  -4.62500 18.59700 39.20500
H  -4.27100 19.86900 38.04900
H  -13.28100 22.84900 37.73100
H  -11.71400 22.88700 38.51500
H  -13.22600 23.29400 39.45600
H  -16.10800 18.96200 37.49000
H  -17.14800 20.39100 37.36500
H  -17.08300 19.74600 38.91500
H  -15.32300 15.17900 38.80900
H  -14.29700 13.51300 40.87000
H  -15.95800 16.62900 40.98200
H  -16.11300 14.84800 41.62300
H  -17.01900 15.46000 40.30700
H  -12.85000 12.95700 38.37500
H  -14.52800 13.23400 38.08000
H  -15.31500 11.37100 39.50800
H  -13.83700 11.38300 40.40900
H  -13.75100 10.93100 38.74000
H  -7.93500 11.82400 40.58100
H  -9.59100 11.69200 40.41100
H  -8.99800 11.97500 42.00400
H  -5.57300 16.46000 39.79700
H  -3.77700 15.12500 43.95000
H  -4.55700 16.47700 44.79800
H  -3.46000 16.83700 43.53500

