158

Mg 1.00800 7.64400 26.45000
C  1.64000 9.81500 29.19600
C  1.31700 4.99800 28.65500
C  0.50100 5.63600 23.90900
C  1.46300 10.38700 24.32700
N  1.32200 7.43300 28.69000
C  1.54800 8.46100 29.56200
C  1.39000 7.88700 30.96500
C  1.66000 6.39100 30.79000
C  1.43300 6.23500 29.27300
C  3.00500 5.77000 31.19500
C  0.13100 8.36300 31.73100
C  0.44000 8.65900 33.20300
H  1.53600 7.88700 33.84600
N  0.77900 5.64700 26.30700
C  0.95400 4.69200 27.35200
C  0.59200 3.38000 26.84400
C  0.36300 3.50100 25.43000
C  0.58300 4.92000 25.16100
C  0.47200 2.09300 27.75000
C  0.16800 2.45500 24.24000
O  -0.01200 2.76000 23.06900
C  0.24800 0.96000 24.68000
N  1.20200 7.91100 24.39600
C  0.68300 6.98800 23.61500
C  0.48900 7.55500 22.19900
C  0.60500 9.05900 22.40100
C  1.15100 9.12900 23.83500
C  1.42200 6.98900 21.10900
C  -0.74800 9.88400 22.22700
C  -0.66700 11.07100 21.14200
N  1.50000 9.71100 26.62500
C  1.65900 10.71900 25.67500
C  2.12300 11.92100 26.27800
C  2.02200 11.63200 27.67800
C  1.65000 10.30700 27.85900
C  2.30200 13.25700 25.58800
C  2.24900 12.22400 29.00000
O  2.71600 13.31700 29.31000
C  1.96600 11.03700 30.00700
C  3.13200 10.97700 30.95800
O  4.12500 10.33100 30.71600
O  2.92300 11.79600 32.11500
C  4.03400 11.77000 33.09300
H  1.47200 4.19400 29.37800
H  0.32900 5.10100 22.97300
H  1.44900 11.23000 23.63300
H  2.24800 8.24600 31.53400
H  0.85100 5.77600 31.18500
H  3.54300 6.46300 31.84100
H  3.62400 5.54100 30.32800
H  2.81400 4.85000 31.74600
H  -0.56900 7.52700 31.76000
H  -0.23000 9.32800 31.37600
H  -0.42100 8.28500 33.75700
H  0.38800 9.70800 33.49600
H  1.39800 1.52500 27.84300
H  -0.24700 1.35800 27.38900
H  0.06800 2.50100 28.67700
H  0.32300 0.50100 23.69500
H  -0.63200 0.70300 25.26900
H  1.10900 0.71000 25.30000
H  -0.50300 7.33500 21.80400
H  1.43000 9.43500 21.79700
H  1.67400 5.94500 21.29200
H  2.24900 7.62700 20.79600
H  0.82100 6.87700 20.20700
H  -1.03700 10.33200 23.17800
H  -1.61800 9.24000 22.09200
H  -1.16800 10.96900 20.18000
H  0.37000 11.34700 20.94900
H  -1.20300 11.93800 21.52800
H  1.43500 13.88400 25.37600
H  2.69500 12.91500 24.63000
H  2.96200 13.87000 26.20200
H  1.10600 11.22900 30.64800
H  4.86600 11.10800 32.85300
H  3.70300 11.60400 34.11900
H  4.46000 12.76500 32.96800
Mg 35.59200 1.53000 30.06500
C  33.54100 2.93000 32.64600
C  38.25800 2.03200 32.35300
C  37.73900 0.92300 27.56100
C  32.94900 1.93500 27.89500
N  35.80400 2.12400 32.33700
C  34.80300 2.57600 33.14500
C  35.29300 2.64700 34.60500
C  36.85400 2.74600 34.39200
C  37.02000 2.28000 32.89600
C  37.47400 4.11700 34.70400
C  34.71700 1.53600 35.53500
C  34.75900 1.79200 37.07300
H  35.47700 3.04300 37.47900
N  37.67400 1.28300 30.01400
C  38.56300 1.61400 30.95900
C  39.88000 1.42200 30.37500
C  39.79500 1.07500 28.99900
C  38.33900 1.10100 28.78100
C  41.15600 1.50800 31.11100
C  40.86700 0.94600 27.91100
O  40.52600 0.46800 26.80700
C  42.39000 1.19100 28.04300
N  35.35500 1.35200 28.07500
C  36.38700 0.97600 27.18700
C  35.87700 0.81900 25.71700
C  34.30300 0.95300 25.92200
C  34.14800 1.44900 27.41300
C  36.54700 1.92800 24.89700
C  33.46800 -0.37200 25.71200
C  32.35800 -0.29500 24.71500
N  33.65700 2.22500 30.20300
C  32.64900 2.32400 29.21700
C  31.42400 2.84200 29.72800
C  31.72100 3.17400 31.09800
C  33.06300 2.80900 31.28700
C  30.20700 3.24900 28.97000
C  31.18200 3.64900 32.35600
O  30.13700 4.19900 32.56200
C  32.34100 3.46700 33.41300
C  32.64500 4.75100 34.09600
O  33.13800 5.66000 33.46600
O  32.36600 4.84700 35.41700
C  32.69200 6.14700 36.06300
H  39.12800 2.33700 32.94000
H  38.29300 0.83800 26.62400
H  32.08000 1.96100 27.23400
H  34.86500 3.60000 34.91800
H  37.36500 2.06900 35.07700
H  37.49900 4.61900 33.73700
H  38.52800 3.93200 34.91000
H  36.86000 4.65500 35.42700
H  35.34900 0.66700 35.35000
H  33.72000 1.36900 35.12700
H  35.18100 0.90200 37.53900
H  33.73600 1.83700 37.44900
H  41.61200 0.52600 30.98700
H  41.02500 1.78700 32.15700
H  41.80000 2.20400 30.57200
H  42.86600 0.90100 27.10700
H  42.79700 0.72100 28.93800
H  42.51800 2.26700 27.92400
H  36.13500 -0.16200 25.32000
H  33.89200 1.69900 25.24200
H  36.75000 2.81900 25.49200
H  35.86700 2.28300 24.12300
H  37.47300 1.65000 24.39500
H  33.01100 -0.72500 26.63700
H  34.23200 -1.11000 25.46800
H  32.08400 0.73500 24.48700
H  31.41300 -0.67400 25.10500
H  32.51400 -0.78100 23.75200
H  29.53300 2.40500 28.82600
H  30.48600 3.72400 28.03000
H  29.70800 4.05100 29.51500
H  31.86800 2.82800 34.15800
H  31.78200 6.71100 36.27100
H  33.48200 6.58500 35.45500
H  33.15600 5.80500 36.98800

