158

Mg 39.90000 10.23600 29.54900
C  41.97200 11.36400 32.15500
C  37.73700 9.17400 31.93700
C  37.96100 8.94600 27.12100
C  42.37400 11.10800 27.32900
N  39.90600 10.30500 31.87200
C  40.74900 11.00700 32.68200
C  40.24600 11.00200 34.14200
C  39.00900 10.07000 34.02100
C  38.88300 9.81400 32.50800
C  39.28600 8.71200 34.80500
C  39.75200 12.44500 34.62600
C  39.43100 12.51000 36.12400
H  40.42200 13.18700 37.08600
N  38.19000 9.16700 29.49700
C  37.41500 8.79100 30.59800
C  36.27400 8.02100 30.23700
C  36.40700 7.88500 28.76800
C  37.51500 8.77900 28.39600
C  35.23000 7.46300 31.23000
C  35.59700 7.03500 27.79800
O  35.77800 6.93600 26.59000
C  34.41000 6.25500 28.35000
N  40.14000 10.03200 27.53000
C  39.12700 9.46600 26.67200
C  39.54500 9.59800 25.16400
C  40.92900 10.38900 25.30600
C  41.19500 10.50200 26.82100
C  39.61600 8.24800 24.28600
C  40.83100 11.81600 24.74000
C  41.76500 12.30000 23.67900
N  41.86200 10.90700 29.68800
C  42.71400 11.34200 28.68000
C  43.81500 12.07400 29.25300
C  43.57500 12.04500 30.62400
C  42.36100 11.38600 30.79900
C  44.91000 12.76600 28.42200
C  44.06700 12.42900 31.95100
O  45.11000 12.99000 32.28400
C  43.01300 12.04800 32.95800
C  43.59700 11.26600 34.08100
O  43.73400 10.07400 34.17700
O  44.05200 12.15000 35.04200
C  44.78800 11.66400 36.22200
H  37.06500 8.90600 32.75500
H  37.28500 8.55000 26.36000
H  43.05200 11.55700 26.59900
H  41.03500 10.59000 34.77100
H  38.12000 10.62100 34.32600
H  38.65600 8.62700 35.69100
H  40.32400 8.69200 35.13600
H  39.12100 7.86100 34.14400
H  38.88200 12.75500 34.04700
H  40.52200 13.20600 34.50200
H  39.29700 11.46900 36.41800
H  38.50400 13.08300 36.14500
H  34.22700 7.72600 30.89500
H  35.37800 7.71200 32.28100
H  35.33300 6.38900 31.07500
H  34.82100 5.47200 28.98900
H  34.03900 5.75200 27.45800
H  33.66700 6.92900 28.77600
H  38.74700 10.20400 24.73400
H  41.77500 9.90000 24.82400
H  40.59000 7.89500 23.94900
H  38.98800 8.34700 23.40100
H  39.35500 7.33500 24.82300
H  40.99900 12.58300 25.49700
H  39.88300 11.91300 24.21100
H  41.24900 12.47600 22.73500
H  42.47400 11.57600 23.27800
H  42.41000 13.12300 23.98600
H  45.49500 13.45400 29.03200
H  44.56500 13.39700 27.60300
H  45.60800 12.00000 28.08500
H  42.58900 12.95900 33.38100
H  45.83800 11.79900 35.96000
H  44.76900 10.59900 36.45600
H  44.60500 12.25100 37.12200
Mg -11.03300 38.85600 41.12600
C  -9.23800 35.93400 40.50200
C  -8.37900 40.64000 39.72500
C  -12.98700 41.57100 41.23800
C  -13.82000 36.87000 42.14900
N  -9.08200 38.36600 40.01300
C  -8.53500 37.10300 39.96500
C  -7.24800 37.09200 39.17700
C  -6.81800 38.61600 39.23700
C  -8.16100 39.25100 39.71900
C  -5.58900 39.00300 40.18700
C  -7.34600 36.36900 37.84000
C  -6.34800 35.14400 37.66800
H  -5.09300 35.58000 36.86200
N  -10.71300 40.93200 40.60600
C  -9.51400 41.41600 40.05600
C  -9.71500 42.85400 39.90100
C  -11.07100 43.14000 40.25400
C  -11.71100 41.85100 40.68900
C  -8.70600 43.82400 39.27800
C  -11.79400 44.57200 40.08600
O  -11.19600 45.53700 39.65800
C  -13.17500 44.78100 40.41800
N  -13.14800 39.20400 41.56500
C  -13.64500 40.45400 41.63800
C  -15.20600 40.46400 41.82000
C  -15.48200 38.93500 41.99900
C  -14.10500 38.26200 41.85800
C  -15.69500 41.40300 42.98800
C  -16.47900 38.52400 40.90000
C  -17.06100 37.10200 40.95600
N  -11.42600 36.85900 41.42900
C  -12.55200 36.21300 41.92800
C  -12.24700 34.84100 42.00800
C  -10.97700 34.70400 41.41000
C  -10.51900 35.96700 41.08000
C  -13.17300 33.79200 42.38800
C  -9.91000 33.76700 41.03200
O  -9.89600 32.55200 41.02900
C  -8.78100 34.58000 40.32600
C  -7.53600 34.24300 41.06200
O  -7.11300 33.12500 41.03300
O  -7.05300 35.17200 41.87100
C  -5.93200 34.83300 42.70600
H  -7.66400 41.34800 39.30100
H  -13.55800 42.48400 41.41900
H  -14.65800 36.24300 42.46000
H  -6.43900 36.57600 39.69400
H  -6.53800 38.81800 38.20300
H  -4.96000 39.82300 39.84000
H  -5.09700 38.06700 40.44900
H  -5.98400 39.44100 41.10400
H  -7.07900 37.10900 37.08600
H  -8.36300 36.07900 37.57600
H  -6.82400 34.40400 37.02500
H  -6.00700 34.71200 38.60900
H  -9.14600 44.21100 38.35900
H  -7.85500 43.16900 39.09200
H  -8.56500 44.63800 39.99000
H  -13.38500 44.63800 41.47800
H  -13.56700 43.92300 39.87100
H  -13.72700 45.64700 40.05200
H  -15.64500 40.77300 40.87100
H  -15.94700 38.82400 42.97800
H  -16.64100 41.89900 42.76900
H  -15.02700 42.23700 43.20100
H  -15.90000 40.81400 43.88300
H  -16.09200 38.38700 39.89000
H  -17.41600 39.07900 40.84700
H  -18.14300 37.18200 41.06500
H  -16.53800 36.50500 41.70300
H  -16.73400 36.63100 40.02900
H  -13.23800 33.73500 43.47500
H  -12.80400 32.84400 41.99700
H  -14.15300 34.13700 42.05800
H  -8.62600 34.27200 39.29200
H  -5.63400 33.78500 42.65200
H  -6.23000 35.03800 43.73400
H  -5.13100 35.56900 42.63600

