158

Mg 25.74700 2.12800 29.15500
C  27.80300 1.45800 32.07200
C  23.00700 1.80700 31.20400
C  23.90200 2.19900 26.37800
C  28.57700 1.28500 27.28400
N  25.52800 1.81800 31.42000
C  26.42800 1.60300 32.41200
C  25.80500 1.79700 33.78400
C  24.30400 1.76700 33.48200
C  24.26900 1.79100 31.93500
C  23.53800 0.53400 33.98700
C  26.22400 3.06900 34.63900
C  26.70900 2.65100 36.05600
H  26.22400 3.61700 37.23100
N  23.73900 2.05600 28.82900
C  22.74000 1.92100 29.80100
C  21.42200 1.94100 29.16200
C  21.65800 2.18200 27.75400
C  23.16600 2.19200 27.61500
C  20.17600 1.79400 29.95200
C  20.65400 2.35200 26.67700
O  20.88900 2.70200 25.54900
C  19.19400 2.15400 27.08600
N  26.13400 1.56900 27.08700
C  25.25400 1.96200 26.14400
C  25.82300 1.99000 24.73000
C  27.24800 1.39700 25.02000
C  27.38800 1.46600 26.53500
C  25.02500 1.20300 23.67400
C  28.36400 2.20200 24.26500
C  29.56400 1.40100 23.62600
N  27.85900 1.57600 29.51400
C  28.77200 1.19600 28.63800
C  29.99900 0.91400 29.33400
C  29.68100 1.02600 30.70500
C  28.35400 1.39300 30.74300
C  31.29800 0.51700 28.74900
C  30.17100 0.89400 31.99700
O  31.30000 0.60000 32.34800
C  28.94700 1.12700 32.97300
C  28.70100 -0.02700 33.87800
O  27.97200 -0.98700 33.62600
O  29.24000 0.29700 35.05400
C  28.86200 -0.47400 36.23600
H  22.18100 1.83000 31.91800
H  23.24900 2.43900 25.53700
H  29.48300 1.20800 26.67900
H  26.07700 0.90000 34.33900
H  23.73900 2.65200 33.77600
H  23.29600 -0.11700 33.14700
H  22.64000 0.90200 34.48200
H  24.12600 -0.04700 34.69900
H  25.42800 3.81300 34.68700
H  27.07400 3.46600 34.08500
H  27.79400 2.60400 35.96600
H  26.33200 1.65600 36.29400
H  20.41900 1.45500 30.95900
H  19.54200 1.03600 29.49100
H  19.62400 2.73400 29.96100
H  18.47300 2.31600 26.28500
H  18.90000 2.81100 27.90400
H  19.13200 1.11900 27.42200
H  25.93000 3.04700 24.48700
H  27.33100 0.33700 24.77900
H  24.65300 1.89500 22.91800
H  24.14000 0.71300 24.08100
H  25.66200 0.47600 23.17100
H  28.90200 2.84400 24.96200
H  27.91000 2.87800 23.54000
H  29.38200 1.54600 22.56100
H  29.44800 0.37700 23.98400
H  30.54200 1.76200 23.94400
H  31.38800 0.99400 27.77300
H  31.52600 -0.51100 28.46700
H  32.08300 0.89100 29.40500
H  29.25300 2.00000 33.54900
H  27.93800 -0.07700 36.65600
H  29.67300 -0.47700 36.96400
H  28.76500 -1.51400 35.92600
Mg 41.73200 41.08600 26.98500
C  41.00400 43.43000 29.53400
C  42.86900 38.92200 29.52400
C  42.98400 38.94800 24.72000
C  41.52500 43.65600 24.73700
N  42.00700 41.21400 29.20300
C  41.48700 42.20700 30.03500
C  41.53900 41.83000 31.52500
C  42.39500 40.47300 31.50100
C  42.47300 40.18100 29.98000
C  43.73600 40.29800 32.37300
C  40.05700 41.62100 32.16000
C  39.73400 42.30900 33.50600
H  39.09800 41.44600 34.57900
N  42.62400 39.07200 27.09500
C  42.93900 38.34100 28.22700
C  43.32100 36.99800 27.80800
C  43.37100 36.98500 26.38500
C  42.92000 38.36000 25.97900
C  43.48900 35.88200 28.90600
C  43.67700 35.85500 25.45000
O  43.54900 35.85000 24.20500
C  44.22400 34.60000 26.03200
N  42.15300 41.30000 25.05300
C  42.64000 40.28600 24.23300
C  42.71100 40.72600 22.75900
C  42.10900 42.18100 22.75300
C  41.92300 42.43200 24.25600
C  44.20100 40.64100 22.23200
C  40.67300 42.31400 22.04200
C  40.60600 43.41000 21.00500
N  41.29300 43.16000 27.04800
C  41.26200 44.06900 26.06600
C  40.75800 45.35600 26.46600
C  40.55700 45.14800 27.82800
C  40.97100 43.79900 28.18300
C  40.63200 46.61500 25.64600
C  40.12100 45.72800 29.11700
O  39.72700 46.89700 29.32100
C  40.46500 44.66800 30.17800
C  41.39100 45.37200 31.05200
O  42.45200 45.82900 30.73100
O  40.93000 45.33400 32.33100
C  41.95400 45.56100 33.31300
H  43.15600 38.20700 30.29800
H  43.38900 38.31200 23.93100
H  41.36700 44.21300 23.81200
H  42.04000 42.58000 32.13800
H  41.77000 39.64800 31.84100
H  43.83300 41.15600 33.03900
H  44.50800 40.39400 31.61000
H  43.91200 39.35800 32.89600
H  39.79400 40.57300 32.30000
H  39.30100 42.04900 31.50100
H  39.01300 43.08200 33.23900
H  40.59400 42.84400 33.90700
H  43.34400 36.21400 29.93400
H  44.48100 35.43200 28.88700
H  42.79800 35.05700 28.73500
H  43.41900 34.14100 26.60600
H  44.97200 34.86800 26.77900
H  44.68100 33.94400 25.29200
H  41.98600 40.16100 22.17300
H  42.75800 42.92800 22.29700
H  44.77800 40.72000 23.15400
H  44.43300 41.57400 21.71900
H  44.38300 39.80100 21.56200
H  39.89900 42.38900 22.80700
H  40.40900 41.37000 21.56500
H  40.64600 42.97900 20.00400
H  41.38200 44.17100 21.08100
H  39.65300 43.92300 21.13300
H  39.92900 46.58300 24.81300
H  41.62800 46.85700 25.27500
H  40.30800 47.36400 26.36800
H  39.50200 44.49700 30.65900
H  42.41000 46.54200 33.18400
H  42.72900 44.80000 33.21600
H  41.56200 45.54000 34.33000

