158

Mg -0.71700 17.40400 27.48100
C  -1.74200 15.18300 29.97600
C  -1.83000 20.01600 29.43000
C  -0.46600 19.39600 24.77300
C  -0.20700 14.64200 25.35000
N  -1.71900 17.60100 29.53000
C  -1.83100 16.50500 30.44100
C  -2.26700 17.01000 31.82100
C  -2.52800 18.59500 31.56100
C  -1.94600 18.77700 30.12200
C  -3.94500 19.07700 31.91300
C  -1.22600 16.67300 32.91800
C  -1.14800 17.63800 34.19200
H  0.02000 17.39000 35.21700
N  -1.07800 19.45000 27.17100
C  -1.49900 20.37500 28.09300
C  -1.62100 21.73900 27.44200
C  -1.25100 21.49300 26.10700
C  -0.83400 20.10800 25.96400
C  -2.09900 23.01300 28.15000
C  -1.18400 22.53000 25.05900
O  -0.74500 22.26100 23.95000
C  -1.80800 23.82100 25.24900
N  -0.38700 17.03400 25.35400
C  -0.20300 18.06200 24.53900
C  -0.01700 17.57000 23.07000
C  0.41400 16.06500 23.35800
C  -0.05600 15.89100 24.77200
C  -1.26700 17.59600 22.17400
C  1.99300 15.81900 23.18200
C  2.97800 16.53000 24.13300
N  -0.97500 15.34800 27.58000
C  -0.61300 14.32100 26.66600
C  -0.85500 13.05900 27.26300
C  -1.20700 13.30600 28.55800
C  -1.40000 14.73600 28.69400
C  -0.58300 11.75100 26.57100
C  -1.52200 12.74000 29.77800
O  -1.58200 11.53800 30.04600
C  -1.89600 13.88100 30.80900
C  -0.93700 13.74900 31.82300
O  0.24300 14.13500 31.83700
O  -1.58000 13.21000 32.94300
C  -0.81900 12.86100 34.15700
H  -2.18700 20.92300 29.92200
H  -0.56600 19.99700 23.86600
H  0.01400 13.79300 24.70000
H  -3.20100 16.49100 32.03900
H  -1.96500 19.17300 32.29300
H  -4.25200 19.87900 31.24100
H  -4.09100 19.41300 32.94000
H  -4.65400 18.27000 31.73100
H  -0.24100 16.46200 32.50100
H  -1.47800 15.79400 33.51200
H  -2.14200 17.69300 34.63700
H  -0.86100 18.59500 33.75600
H  -1.59400 23.94800 27.90500
H  -1.83900 22.87200 29.20000
H  -3.18000 23.08400 28.02900
H  -1.85900 24.19500 24.22700
H  -1.06100 24.34200 25.84800
H  -2.78400 23.80200 25.73200
H  0.78100 18.15700 22.61600
H  0.01500 15.36500 22.62500
H  -1.96100 16.77300 22.34500
H  -0.93700 17.42000 21.15000
H  -1.70500 18.56200 22.42500
H  2.19400 16.06300 22.13900
H  2.12100 14.74000 23.25700
H  2.63100 17.34600 24.76700
H  3.80800 16.93800 23.55600
H  3.38100 15.79300 24.82800
H  -0.05200 11.81900 25.62100
H  -1.53200 11.23300 26.43400
H  -0.04800 11.10700 27.26900
H  -2.89900 13.59800 31.12800
H  -0.98200 13.58900 34.95200
H  0.25000 12.84400 33.94700
H  -1.15100 11.86300 34.44300
Mg 46.81200 24.49500 28.33700
C  47.74700 26.88500 30.83900
C  45.86000 22.38700 30.85900
C  46.22900 22.25800 26.07600
C  48.21600 26.69800 26.00400
N  46.79700 24.68300 30.54000
C  47.18900 25.70700 31.36400
C  46.91100 25.34100 32.88800
C  46.46400 23.85100 32.89900
C  46.40800 23.56800 31.33300
C  47.36800 22.79900 33.63900
C  45.82400 26.24700 33.67100
C  46.12700 26.67000 35.16400
H  44.97800 26.86700 36.13400
N  46.25200 22.55000 28.43300
C  45.79300 21.89600 29.52200
C  45.45700 20.52900 29.12400
C  45.38500 20.43700 27.75100
C  45.95500 21.73900 27.34900
C  45.09800 19.42300 30.13200
C  44.99600 19.33300 26.78700
O  45.07800 19.38900 25.59100
C  44.39600 18.12400 27.35700
N  47.29900 24.46500 26.36900
C  46.78700 23.46200 25.59200
C  47.03200 23.66300 24.09200
C  47.50500 25.17400 24.11200
C  47.59800 25.55100 25.59400
C  48.11400 22.75000 23.43300
C  46.58600 26.16800 23.34700
C  47.13700 26.94700 22.15500
N  47.70800 26.43700 28.39500
C  48.23400 27.20300 27.31900
C  48.58200 28.52700 27.82700
C  48.55000 28.39400 29.21900
C  47.93500 27.14100 29.50900
C  49.09900 29.72300 26.99200
C  48.74100 29.11500 30.45000
O  49.19500 30.22200 30.72000
C  48.20900 28.10400 31.53600
C  49.33000 27.84100 32.46700
O  50.33600 27.12500 32.34900
O  49.02100 28.53500 33.66000
C  49.97600 28.42800 34.76400
H  45.37300 21.83800 31.66700
H  46.15400 21.56400 25.23700
H  48.55800 27.26100 25.13300
H  47.83300 25.48000 33.45300
H  45.43000 23.66800 33.19100
H  47.31800 21.85700 33.09200
H  46.88700 22.61600 34.59900
H  48.41100 23.06900 33.80600
H  44.91400 25.64900 33.62400
H  45.62000 27.14600 33.08900
H  46.72200 27.58200 35.21000
H  46.77200 25.89900 35.58500
H  44.02600 19.27500 30.00800
H  45.24000 19.80600 31.14300
H  45.57300 18.45000 30.00300
H  45.08000 17.52700 27.95900
H  44.05700 17.46100 26.56000
H  43.50600 18.39300 27.92600
H  46.05100 23.57300 23.62400
H  48.51300 25.33700 23.72900
H  47.79800 22.60000 22.40100
H  48.10800 21.86700 24.07100
H  49.06300 23.28300 23.37500
H  46.22000 26.80800 24.14900
H  45.64700 25.70600 23.04000
H  46.69900 26.56200 21.23400
H  48.21100 26.77400 22.09900
H  47.02600 27.99000 22.45000
H  49.98500 30.08500 27.51300
H  48.36800 30.53100 27.02100
H  49.42500 29.43700 25.99200
H  47.35000 28.47100 32.09900
H  50.28100 29.42000 35.09600
H  50.92000 28.05800 34.36400
H  49.45100 27.82700 35.50600

