158

Mg 46.69600 15.82800 28.42800
C  44.93100 15.23700 31.40400
C  49.01500 17.67500 30.23700
C  48.19500 16.94600 25.51000
C  44.07400 14.48000 26.52800
N  46.88100 16.39300 30.56300
C  46.09200 16.02400 31.60500
C  46.61300 16.55400 32.95100
C  47.77800 17.44900 32.53500
C  47.91900 17.13700 31.02100
C  47.59200 19.00900 32.90000
C  46.98200 15.47600 33.99800
C  46.24100 15.44000 35.32700
H  45.98600 16.75300 35.99500
N  48.39400 17.06400 27.96000
C  49.26600 17.61200 28.88100
C  50.36000 18.26200 28.22500
C  50.14600 18.13800 26.80800
C  48.90200 17.33200 26.69000
C  51.55600 18.71400 29.03500
C  50.98200 18.69300 25.70900
O  50.73800 18.40200 24.52100
C  52.15600 19.54800 25.98700
N  46.22700 15.63800 26.30600
C  46.94400 16.24500 25.30700
C  46.36100 15.90800 23.88600
C  45.18100 14.93500 24.29100
C  45.12900 15.03000 25.79500
C  45.88600 17.20800 23.15400
C  45.21300 13.44800 23.84100
C  46.53900 12.81500 24.12500
N  44.89200 14.91600 28.86000
C  43.91300 14.39200 27.99300
C  42.83200 13.84700 28.77000
C  43.24700 14.10100 30.12900
C  44.46700 14.80000 30.17400
C  41.54200 13.15900 28.31800
C  42.78800 13.93900 31.43900
O  41.72200 13.51700 31.86800
C  43.86400 14.57800 32.33800
C  43.16300 15.56800 33.22700
O  43.05400 16.80100 32.99900
O  42.69400 14.95200 34.35400
C  42.08900 15.85200 35.29900
H  49.67400 18.18900 30.94100
H  48.50100 17.31900 24.53000
H  43.26400 13.94400 26.02800
H  45.88700 17.28200 33.31300
H  48.73800 17.25600 33.01400
H  46.57900 19.26700 33.20900
H  47.73800 19.66300 32.04100
H  48.29300 19.33700 33.66700
H  48.04400 15.50200 34.24300
H  46.83000 14.52200 33.49400
H  46.86500 14.88200 36.02600
H  45.24800 14.99200 35.35200
H  51.71700 19.79200 29.02300
H  52.33300 18.14200 28.52700
H  51.53200 18.37900 30.07100
H  53.00300 18.88300 26.15600
H  51.79600 20.05800 26.88000
H  52.45900 20.23400 25.19600
H  47.13600 15.43300 23.28500
H  44.24500 15.22200 23.81100
H  46.61600 17.56100 22.42600
H  45.71000 18.02900 23.84900
H  45.11600 16.98800 22.41400
H  44.92400 13.35600 22.79400
H  44.42500 12.87800 24.33200
H  47.29900 13.54900 24.39400
H  46.74900 12.31200 23.18100
H  46.46700 12.06300 24.91000
H  41.29100 13.48600 27.30900
H  40.72900 13.49900 28.96000
H  41.64100 12.07300 28.32000
H  44.41900 13.81400 32.88200
H  42.00100 15.43800 36.30400
H  41.12300 16.24600 34.98500
H  42.72600 16.69200 35.57700
Mg 27.12500 49.92800 26.86100
C  25.09900 51.07000 29.49200
C  29.50400 49.12700 29.19000
C  29.03800 49.25500 24.27100
C  24.72900 51.45000 24.67400
N  27.13800 49.98500 29.12100
C  26.27900 50.54100 29.98700
C  26.77400 50.31200 31.51000
C  28.19900 49.75300 31.35000
C  28.31000 49.66300 29.75800
C  29.40500 50.54000 32.03500
C  25.80100 49.43200 32.32900
C  25.59200 49.86100 33.78900
H  24.94300 48.75000 34.70400
N  28.99700 49.27400 26.77100
C  29.87200 48.98600 27.79800
C  31.08600 48.49200 27.22600
C  31.03200 48.76100 25.87200
C  29.62500 49.10000 25.56200
C  32.18200 48.12500 28.12000
C  32.14500 48.61900 24.83500
O  31.99900 48.87600 23.66600
C  33.46900 48.10700 25.28300
N  26.98800 50.42800 24.76300
C  27.83300 49.87100 23.90400
C  27.42000 50.09300 22.48300
C  26.01100 50.60500 22.60200
C  25.91300 50.87800 24.09900
C  28.39000 51.03900 21.66800
C  24.82600 49.61600 22.02900
C  24.59600 48.27000 22.85100
N  25.29900 51.04200 27.00500
C  24.43300 51.53100 26.02300
C  23.32200 52.27400 26.67000
C  23.56000 52.08300 28.00900
C  24.75900 51.30200 28.15700
C  22.24000 53.12400 26.12200
C  23.01000 52.38600 29.28300
O  21.92900 53.01500 29.52600
C  23.93300 51.79800 30.31400
C  24.47000 52.96300 31.08800
O  25.56500 53.47600 30.96900
O  23.57300 53.31200 32.08400
C  24.03200 53.90400 33.31300
H  30.14100 48.69500 29.96500
H  29.71400 48.96400 23.46400
H  24.03200 51.97200 24.01500
H  26.91800 51.29700 31.95400
H  28.33900 48.77100 31.80200
H  29.00700 51.47500 32.43100
H  30.14300 50.67000 31.24400
H  29.89600 49.94500 32.80500
H  26.04600 48.37400 32.23600
H  24.85800 49.49000 31.78600
H  24.92000 50.71900 33.80500
H  26.57600 50.12000 34.18100
H  31.85700 47.85800 29.12500
H  32.76600 49.02900 28.29100
H  32.83300 47.32200 27.77400
H  34.20300 48.49400 24.57600
H  33.58800 47.02700 25.37200
H  33.73600 48.50000 26.26400
H  27.40900 49.11800 21.99600
H  25.84800 51.62700 22.26300
H  27.95600 52.03800 21.62300
H  28.59500 50.57200 20.70500
H  29.30200 50.97700 22.26100
H  24.99500 49.42600 20.96900
H  23.89500 50.18200 22.05400
H  24.96300 48.40700 23.86800
H  25.04900 47.34500 22.49500
H  23.52800 48.06600 22.91900
H  22.48000 53.31400 25.07500
H  22.15000 54.03700 26.71100
H  21.35800 52.50000 26.26400
H  23.32800 51.15700 30.95500
H  25.08700 53.68200 33.47500
H  23.42700 53.56600 34.15400
H  23.82600 54.97200 33.36500

