158

Mg 16.62900 -1.78100 27.35700
C  15.76600 0.24200 30.00200
C  18.73000 -3.67600 29.47600
C  18.03900 -3.40400 24.65100
C  14.85600 0.26900 25.21600
N  17.17700 -1.61400 29.52700
C  16.67700 -0.73200 30.45300
C  17.12300 -1.21200 31.86400
C  18.26600 -2.27100 31.56000
C  18.06300 -2.57100 30.10800
C  19.69100 -1.84400 31.96600
C  15.92200 -1.65800 32.77600
C  15.97000 -1.26600 34.26600
H  17.01200 -0.30300 34.75500
N  18.00800 -3.40600 27.14100
C  18.75000 -3.99700 28.07300
C  19.44000 -5.14600 27.50300
C  19.13900 -5.22500 26.16000
C  18.34700 -3.93500 25.88000
C  20.20800 -6.14200 28.36800
C  19.56500 -6.14300 25.11300
O  19.41200 -5.92200 23.89900
C  20.17600 -7.48600 25.54500
N  16.39600 -1.64400 25.22500
C  17.16000 -2.38100 24.35800
C  16.93300 -1.93500 22.86300
C  15.93800 -0.73000 23.08600
C  15.69800 -0.69300 24.59400
C  18.25700 -1.50200 22.12600
C  14.51000 -0.88700 22.40900
C  13.92000 0.30100 21.57900
N  15.42000 -0.03100 27.49700
C  14.78400 0.68000 26.54600
C  13.91200 1.68800 27.23200
C  14.37600 1.59500 28.58300
C  15.29900 0.60700 28.67500
C  13.09100 2.71500 26.62200
C  14.11900 2.08900 29.86000
O  13.37100 2.93900 30.24600
C  15.06600 1.32300 30.88100
C  15.85800 2.24500 31.71700
O  17.05500 2.42500 31.66600
O  15.06100 2.87800 32.70100
C  15.71100 3.72200 33.67300
H  19.19400 -4.22600 30.29800
H  18.46700 -3.90200 23.77800
H  14.29900 0.90600 24.52600
H  17.60600 -0.31000 32.23900
H  18.03100 -3.22200 32.03900
H  20.11500 -2.84800 32.00400
H  19.89600 -1.37000 32.92600
H  20.16300 -1.17200 31.25000
H  15.89300 -2.74700 32.74500
H  14.97300 -1.37100 32.32400
H  16.12100 -2.18400 34.83500
H  14.95800 -0.89400 34.42900
H  21.01700 -6.51400 27.74000
H  19.60000 -7.00700 28.63300
H  20.63300 -5.68100 29.25900
H  20.19400 -8.21600 24.73600
H  19.63700 -7.86900 26.41200
H  21.23600 -7.28300 25.69400
H  16.45600 -2.78400 22.37300
H  16.31300 0.23600 22.74800
H  17.97400 -0.97600 21.21400
H  19.03100 -2.22500 21.87100
H  18.74800 -0.70000 22.67800
H  13.76000 -1.21100 23.13100
H  14.58400 -1.66700 21.65100
H  12.84500 0.36700 21.75000
H  14.03800 -0.06900 20.56100
H  14.42900 1.22500 21.85500
H  12.44800 2.31000 25.84100
H  13.79000 3.44900 26.22100
H  12.45100 3.08200 27.42400
H  14.48200 0.77900 31.62400
H  15.09500 4.54600 34.03400
H  16.48500 4.27200 33.13700
H  16.19500 3.19500 34.49600
Mg -11.64300 17.02000 42.89800
C  -8.56600 15.60900 42.48400
C  -10.55500 19.98900 41.40700
C  -14.75400 18.12300 42.86900
C  -12.90500 13.65000 43.39400
N  -9.77900 17.71200 42.06500
C  -8.64800 16.96500 42.05200
C  -7.51600 17.69300 41.31600
C  -8.09600 19.16600 41.23300
C  -9.54900 18.95500 41.62200
C  -7.39700 20.30100 42.02700
C  -7.16100 16.98000 39.94100
C  -5.58500 16.65900 39.82500
H  -5.09200 15.70100 38.71900
N  -12.55000 18.83000 42.13800
C  -11.95500 19.88300 41.56400
C  -12.93600 20.85600 41.26200
C  -14.18500 20.45300 41.81000
C  -13.85600 19.08600 42.31600
C  -12.64000 22.16000 40.58300
C  -15.49700 21.26100 41.79700
O  -15.62600 22.42700 41.40000
C  -16.61200 20.66500 42.54500
N  -13.62400 15.96500 42.83000
C  -14.68000 16.75000 43.13900
C  -15.92300 15.84000 43.58800
C  -15.34100 14.39800 43.41100
C  -13.83200 14.62200 43.18000
C  -16.44200 16.04900 45.01300
C  -15.83300 13.51800 42.18200
C  -16.02100 12.03400 42.46300
N  -10.93900 14.99500 43.07900
C  -11.51200 13.81800 43.38100
C  -10.53500 12.76900 43.55400
C  -9.32600 13.48700 43.24000
C  -9.62400 14.79500 42.95100
C  -10.74200 11.36600 43.93300
C  -7.91300 13.30200 43.02800
O  -7.21600 12.33400 43.22600
C  -7.39400 14.64000 42.43500
C  -6.29800 15.06000 43.35500
O  -6.39300 15.53300 44.45000
O  -5.08500 14.80400 42.72000
C  -3.83500 15.25100 43.42300
H  -10.07700 20.91800 41.09000
H  -15.81500 18.35200 42.99200
H  -13.26500 12.66100 43.68600
H  -6.69200 17.69600 42.03100
H  -8.15300 19.35200 40.16000
H  -7.13600 21.01000 41.24200
H  -6.51200 19.91600 42.53300
H  -8.03300 20.83000 42.73600
H  -7.44000 17.62100 39.10400
H  -7.76400 16.07600 39.85300
H  -5.15200 16.33000 40.77000
H  -5.14700 17.64400 39.66600
H  -12.01000 21.87400 39.74100
H  -12.01000 22.75800 41.24200
H  -13.49500 22.71600 40.19900
H  -17.32700 21.46000 42.75300
H  -16.22600 20.24400 43.47400
H  -17.11500 19.90900 41.94200
H  -16.68800 16.11300 42.86100
H  -15.40900 13.76900 44.29800
H  -16.45500 15.16800 45.65500
H  -17.42500 16.51100 45.09600
H  -15.76200 16.82500 45.36400
H  -15.15000 13.53700 41.33200
H  -16.71000 14.06900 41.84200
H  -15.46800 11.81000 43.37400
H  -15.63300 11.32300 41.73300
H  -17.04800 11.71800 42.64400
H  -9.84700 10.77300 43.74400
H  -11.58400 10.96600 43.36700
H  -10.94700 11.30200 45.00200
H  -7.01800 14.55900 41.41600
H  -3.40000 14.28400 43.67600
H  -3.94100 15.72400 44.39900
H  -3.04900 15.73000 42.83900

