158

Mg 7.30700 3.15300 27.66500
C  8.56500 1.99700 30.74500
C  5.18300 5.14900 29.42300
C  5.98900 4.12600 24.77500
C  8.95300 0.51300 26.02900
N  7.05100 3.55700 29.89700
C  7.68900 3.03100 30.97700
C  7.23300 3.70500 32.32400
C  5.99200 4.49200 31.84900
C  6.08500 4.49900 30.26800
C  4.60100 3.86900 32.35300
C  8.35300 4.57600 33.06100
C  8.67300 4.12100 34.48600
H  9.69200 4.89700 35.34500
N  5.75000 4.40900 27.16200
C  5.00500 5.17100 27.99700
C  4.07700 5.90700 27.26600
C  4.32200 5.73700 25.84100
C  5.41100 4.77100 25.86300
C  2.95900 6.52000 28.01000
C  3.65200 6.35300 24.66300
O  4.02400 6.02800 23.50600
C  2.61000 7.38000 24.91900
N  7.41400 2.43700 25.69200
C  7.03200 3.22700 24.66100
C  7.42900 2.63100 23.30600
C  8.30600 1.37100 23.71900
C  8.26500 1.43100 25.25700
C  6.27500 2.28100 22.30400
C  9.68600 1.30900 23.11700
C  10.06400 0.04700 22.32600
N  8.57500 1.59700 28.17300
C  9.16400 0.61000 27.39000
C  10.04800 -0.13500 28.23400
C  9.86200 0.38800 29.51000
C  8.94100 1.39700 29.48200
C  10.97400 -1.30900 27.83200
C  10.32600 0.28700 30.89600
O  11.13300 -0.50000 31.36100
C  9.58600 1.37100 31.70700
C  9.02300 0.60300 32.82800
O  7.89800 0.08700 32.99500
O  10.00900 0.68100 33.87300
C  9.45500 0.42500 35.23000
H  4.51700 5.79600 29.99800
H  5.89000 4.61700 23.80500
H  9.51400 -0.25100 25.48700
H  6.98600 2.85800 32.96500
H  6.00900 5.55100 32.10600
H  3.97400 3.51100 31.53600
H  4.01500 4.57300 32.94500
H  4.86800 3.07600 33.05100
H  8.17600 5.64700 32.96200
H  9.27500 4.40500 32.50500
H  9.10300 3.13000 34.33700
H  7.79100 3.90300 35.08800
H  3.31200 7.52800 28.23000
H  2.80000 6.08900 28.99900
H  2.04100 6.42600 27.43000
H  1.69600 6.93600 25.31400
H  2.37000 7.88800 23.98600
H  3.05700 8.08500 25.62000
H  8.11500 3.36600 22.88500
H  7.75000 0.47200 23.45300
H  5.45700 2.36900 23.01900
H  6.25300 1.25200 21.94600
H  6.15300 2.98500 21.48100
H  10.38800 1.29700 23.95000
H  9.99800 2.11800 22.45700
H  9.25600 -0.66400 22.15500
H  10.97600 -0.32500 22.79400
H  10.55300 0.14100 21.35600
H  10.42900 -2.25200 27.88900
H  11.84800 -1.21700 28.47700
H  11.16400 -1.15800 26.76900
H  10.27500 2.12000 32.09700
H  8.71100 1.19000 35.45200
H  10.25000 0.38200 35.97600
H  8.94500 -0.52100 35.41000
Mg 36.74900 49.28100 25.95400
C  36.76600 47.43500 28.79700
C  35.32400 51.91700 27.74100
C  36.41700 51.00400 22.98900
C  38.23600 46.75100 24.20400
N  36.03200 49.52300 28.04100
C  36.23400 48.72400 29.08200
C  35.90300 49.30900 30.49000
C  35.30500 50.67700 30.03600
C  35.58600 50.73400 28.56000
C  33.74800 50.76400 30.42900
C  37.21500 49.45300 31.30000
C  37.31300 48.99300 32.77500
H  36.08700 48.86300 33.65500
N  35.95400 51.22200 25.44200
C  35.46000 52.15800 26.31800
C  35.10500 53.36500 25.61200
C  35.39700 53.08500 24.22000
C  35.94600 51.74000 24.17900
C  34.52600 54.57600 26.31400
C  35.21600 54.01600 23.02800
O  35.51400 53.59200 21.88700
C  34.69600 55.33500 23.19700
N  37.21600 48.93500 23.94100
C  37.00100 49.77500 22.86800
C  37.61400 49.27200 21.52400
C  38.44600 47.99700 21.96200
C  38.01100 47.95300 23.47600
C  36.48200 48.97300 20.48200
C  39.98000 48.09200 21.80500
C  40.67700 47.26800 20.66700
N  37.35700 47.47000 26.31700
C  37.92900 46.49600 25.56700
C  38.17800 45.30200 26.30300
C  37.68000 45.65300 27.56300
C  37.21700 46.96100 27.53100
C  38.80500 44.02900 25.71000
C  37.54300 45.08300 28.89400
O  37.70700 43.97900 29.39400
C  36.94100 46.24400 29.77700
C  35.63800 45.68900 30.30500
O  34.59500 45.57600 29.66400
O  35.85400 45.33700 31.58000
C  34.66700 45.19500 32.30900
H  34.90900 52.75100 28.31100
H  36.39600 51.39600 21.97000
H  38.71900 45.96300 23.62300
H  35.22100 48.70200 31.08600
H  35.83200 51.49000 30.53500
H  33.39400 50.01100 31.13300
H  33.17300 50.75000 29.50400
H  33.68600 51.71600 30.95700
H  37.65700 50.44900 31.30700
H  37.92700 48.83500 30.75200
H  37.96800 49.71400 33.26500
H  37.88000 48.06300 32.79200
H  33.82600 55.17600 25.73200
H  35.28500 55.26300 26.68700
H  33.82500 54.19900 27.05900
H  34.89800 55.89300 22.28200
H  35.13500 55.90600 24.01500
H  33.63200 55.15600 23.34800
H  38.33700 50.04400 21.26100
H  38.06200 47.07000 21.53600
H  36.50600 49.76400 19.73200
H  35.50100 49.01500 20.95500
H  36.64200 48.03300 19.95300
H  40.49300 47.73900 22.69900
H  40.21600 49.14300 21.64100
H  39.86200 46.82800 20.09200
H  41.28600 46.45800 21.06900
H  41.37800 47.80900 20.03100
H  39.28800 44.17900 24.74500
H  38.06900 43.28800 25.39700
H  39.61100 43.69700 26.36500
H  37.57500 46.39500 30.65100
H  33.79400 45.80400 32.07300
H  34.87500 45.46700 33.34400
H  34.47200 44.12900 32.20000

