158

Mg 1.60000 -1.60300 43.94000
C  5.08400 -1.09000 43.76800
C  1.14900 1.37600 42.20300
C  -1.62500 -2.39100 43.51100
C  2.24600 -4.79500 45.15500
N  2.93300 0.05200 43.24300
C  4.33100 0.05200 43.20700
C  4.89200 1.29500 42.58100
C  3.54000 2.11200 42.32600
C  2.43200 1.06700 42.58300
C  3.38300 3.40700 43.11400
C  5.77400 0.88600 41.39700
C  5.24400 0.04300 40.27200
H  5.67800 0.36000 38.85800
N  -0.05600 -0.61600 42.99900
C  -0.00900 0.59400 42.26700
C  -1.38000 0.88900 41.81200
C  -2.19400 -0.13100 42.28000
C  -1.29500 -1.15600 42.95400
C  -1.77100 2.24100 41.14000
C  -3.74500 -0.00600 42.25300
O  -4.25400 1.04700 41.81700
C  -4.67000 -1.01700 42.93300
N  0.49100 -3.38800 44.20200
C  -0.82900 -3.33200 44.09000
C  -1.50600 -4.66200 44.56500
C  -0.25700 -5.39300 45.19800
C  0.92200 -4.48300 44.83100
C  -2.73300 -4.44000 45.61800
C  -0.01500 -6.91200 44.80600
C  0.03300 -7.76900 46.12000
N  3.29800 -2.72500 44.53300
C  3.41900 -4.02300 44.95600
C  4.77100 -4.27900 45.36600
C  5.49600 -3.15200 44.89400
C  4.53600 -2.28200 44.31200
C  5.32700 -5.50000 46.00400
C  6.76400 -2.54800 44.80900
O  7.86300 -2.99600 45.15100
C  6.53600 -1.19600 44.08400
C  7.01600 -0.11300 44.96000
O  6.58300 0.18200 46.04000
O  8.04100 0.55000 44.25400
C  8.39600 1.87600 44.72900
H  1.13000 2.31700 41.65000
H  -2.66000 -2.73700 43.52800
H  2.57500 -5.79200 45.45500
H  5.50900 1.82800 43.30400
H  3.56800 2.31500 41.25500
H  4.31800 3.91200 43.35700
H  2.83900 3.16800 44.02800
H  2.79000 4.12200 42.54400
H  6.73600 0.53400 41.77100
H  5.98600 1.82700 40.88900
H  4.15800 0.10200 40.34900
H  5.60400 -0.94600 40.55400
H  -2.13600 2.98500 41.84700
H  -2.49700 2.14200 40.33300
H  -0.85800 2.64600 40.70200
H  -5.64400 -0.81800 42.48600
H  -4.64200 -0.75500 43.99000
H  -4.29000 -2.02900 42.79100
H  -1.83700 -5.23000 43.69500
H  -0.27900 -5.31700 46.28600
H  -2.56300 -5.02300 46.52300
H  -3.72500 -4.62800 45.20800
H  -2.73300 -3.37700 45.86100
H  0.89700 -7.06600 44.22900
H  -0.85200 -7.25200 44.19600
H  -0.79400 -8.47800 46.10700
H  -0.05000 -7.14700 47.01100
H  0.96500 -8.33000 46.05400
H  4.53000 -6.17400 46.31500
H  5.89500 -5.33800 46.92100
H  6.01600 -5.94800 45.28800
H  7.22200 -1.30500 43.24400
H  9.08300 1.98200 45.56800
H  7.51200 2.47100 44.95800
H  8.98000 2.45100 44.01000
Mg 43.29800 5.03300 46.64500
C  41.37700 8.00200 46.91800
C  40.23600 3.32700 46.48700
C  44.94100 2.24900 45.77200
C  46.00900 7.02400 45.86700
N  41.04000 5.55300 46.81900
C  40.53500 6.85300 46.99300
C  39.00400 6.84200 46.95100
C  38.68000 5.31700 47.12700
C  40.03200 4.70700 46.70700
C  38.19700 4.99700 48.55500
C  38.41200 7.37800 45.61800
C  38.93300 6.87000 44.24100
H  39.71000 7.70300 43.19400
N  42.66400 3.05600 46.33300
C  41.36900 2.58800 46.23800
C  41.46300 1.21600 45.85300
C  42.81700 0.81400 45.70900
C  43.55100 2.05100 45.95200
C  40.19500 0.39500 45.61200
C  43.36600 -0.56500 45.43400
O  42.60100 -1.45500 45.22700
C  44.80700 -0.93600 45.51000
N  45.21600 4.69400 45.86700
C  45.67700 3.47500 45.74600
C  47.25000 3.46800 45.59600
C  47.44100 4.93900 45.28900
C  46.13500 5.58800 45.74300
C  47.89400 2.96900 46.93600
C  47.89500 5.16900 43.81400
C  49.42900 5.14300 43.66000
N  43.71300 7.10500 46.55000
C  44.86900 7.76800 46.21700
C  44.72600 9.20700 46.32600
C  43.34100 9.37100 46.64900
C  42.76200 8.01800 46.69000
C  45.83400 10.24100 46.24200
C  42.28200 10.36600 46.94000
O  42.35500 11.61600 47.01600
C  40.93300 9.50500 46.97400
C  40.13600 9.77400 48.17000
O  40.19100 9.17200 49.26700
O  39.18600 10.79400 47.92700
C  38.35000 11.22600 49.04400
H  39.31500 2.75700 46.35100
H  45.62100 1.41200 45.59700
H  46.93600 7.59100 45.76000
H  38.66500 7.46100 47.78100
H  37.97200 5.06000 46.34000
H  37.16100 4.66100 48.57300
H  38.43000 5.70300 49.35200
H  38.74100 4.12600 48.92300
H  38.42900 8.46600 45.55700
H  37.32700 7.27000 45.63200
H  38.02600 6.45100 43.80500
H  39.66800 6.07500 44.36700
H  39.52300 0.75900 46.38900
H  40.26800 -0.69200 45.63400
H  39.86600 0.52300 44.58000
H  45.24800 -0.50800 46.41100
H  45.29400 -0.55000 44.61500
H  44.82300 -2.02100 45.61200
H  47.48600 2.78600 44.77900
H  48.24800 5.35200 45.89500
H  47.30900 2.23200 47.48600
H  47.97600 3.83800 47.58900
H  48.84700 2.53800 46.63000
H  47.35800 5.97600 43.31500
H  47.45600 4.36200 43.22700
H  49.82000 5.65700 44.53800
H  49.78600 5.80200 42.86800
H  49.74500 4.10000 43.68000
H  46.50400 10.18700 45.38400
H  46.45100 10.11700 47.13200
H  45.38900 11.23600 46.25000
H  40.32500 9.86100 46.14200
H  37.34400 10.84600 48.87000
H  38.21600 12.30500 48.96300
H  38.73900 10.90900 50.01200

