158

Mg 45.54600 4.95800 48.24600
C  43.89500 7.74600 47.10600
C  42.77200 3.13600 47.26600
C  47.38000 2.11900 48.71100
C  48.43700 6.79300 48.65700
N  43.52500 5.44800 47.30400
C  43.01500 6.67400 46.97200
C  41.60800 6.57700 46.39000
C  41.21600 5.08900 46.76100
C  42.63400 4.51700 47.05000
C  40.15500 5.00900 47.90100
C  41.64200 7.02700 44.85300
C  40.74100 8.23800 44.31900
H  39.71900 7.97300 43.17400
N  45.15600 2.92900 48.09100
C  43.94100 2.35800 47.60700
C  44.03500 0.94200 47.78900
C  45.31900 0.60300 48.05300
C  46.06900 1.89300 48.27800
C  42.82100 0.08600 47.56800
C  45.89900 -0.81700 48.01000
O  45.16000 -1.80700 47.81500
C  47.31100 -1.08800 48.20200
N  47.65000 4.55000 48.43700
C  48.14600 3.33600 48.76800
C  49.62900 3.32600 49.18300
C  50.01300 4.78700 48.84600
C  48.60500 5.45900 48.58800
C  49.89300 2.87400 50.71300
C  50.92200 5.10200 47.64100
C  52.35300 4.33000 47.60000
N  46.08700 6.82900 47.94600
C  47.26700 7.47400 48.30500
C  47.10500 8.87700 48.26300
C  45.79500 9.02800 47.79000
C  45.22200 7.77100 47.64000
C  48.18900 9.93300 48.44000
C  44.84100 10.07000 47.34800
O  44.99000 11.27300 47.29100
C  43.57300 9.22100 46.78700
C  42.25500 9.71000 47.26800
O  41.55600 9.33300 48.22700
O  41.93400 10.74800 46.36000
C  40.55800 11.22600 46.74300
H  41.87900 2.56800 46.99400
H  47.87800 1.17800 48.95400
H  49.39600 7.29300 48.81000
H  40.92900 7.19300 46.98000
H  40.76400 4.59600 45.90000
H  39.95400 5.92900 48.45000
H  40.53500 4.27900 48.61700
H  39.30200 4.55700 47.39600
H  41.24600 6.13300 44.37100
H  42.58900 7.28000 44.37700
H  41.51700 8.93700 44.00600
H  40.15800 8.65200 45.14200
H  42.76500 -0.70700 48.31300
H  42.96800 -0.35800 46.58300
H  41.86200 0.58700 47.44100
H  47.47600 -1.88300 47.47500
H  47.63600 -1.24100 49.23000
H  47.84500 -0.28300 47.69600
H  50.27700 2.72000 48.55100
H  50.50700 5.18200 49.73400
H  50.86900 3.20000 51.07100
H  49.87600 1.78500 50.74900
H  49.20400 3.38500 51.38700
H  51.16600 6.14200 47.85800
H  50.32100 5.05700 46.73200
H  52.54400 3.57400 48.36200
H  53.06700 5.14700 47.70500
H  52.47800 3.83800 46.63500
H  49.16200 9.48200 48.63500
H  47.93000 10.64100 49.22700
H  48.28100 10.40100 47.46000
H  43.57700 9.21700 45.69700
H  40.76700 11.82100 47.63300
H  39.83800 10.40800 46.77300
H  40.10400 11.91300 46.02800
Mg 48.90700 34.49200 27.15200
C  46.90400 33.42000 29.87500
C  49.69800 37.22700 29.12000
C  50.79000 35.73400 24.66800
C  47.70700 31.89700 25.27000
N  48.44200 35.14100 29.35700
C  47.74700 34.46100 30.25600
C  47.84000 35.14400 31.60500
C  48.39900 36.58000 31.25100
C  48.84600 36.39000 29.79200
C  47.42400 37.78400 31.24300
C  48.86300 34.41500 32.56300
C  48.50600 34.27300 34.05300
H  48.99700 35.48000 34.95800
N  50.10900 36.29100 26.86200
C  50.37100 37.21500 27.84400
C  51.22400 38.19900 27.22000
C  51.53800 37.84200 25.91000
C  50.83600 36.58600 25.74800
C  51.71500 39.41100 27.88500
C  52.40400 38.57900 24.83100
O  52.63600 38.07900 23.75600
C  53.06000 39.87400 25.12200
N  49.06900 33.97200 25.14100
C  49.97500 34.59000 24.33600
C  50.14900 33.79200 22.99200
C  49.27800 32.48600 23.24200
C  48.58400 32.77900 24.60900
C  49.77500 34.66200 21.77700
C  50.14200 31.17400 23.18800
C  50.46100 30.65200 21.71000
N  47.52800 33.01300 27.40800
C  47.12200 31.99700 26.55800
C  46.15700 31.12600 27.26000
C  45.93500 31.73300 28.48600
C  46.87100 32.80700 28.59600
C  45.58400 29.82500 26.58500
C  45.21000 31.62300 29.79600
O  44.43800 30.82300 30.29900
C  45.76000 32.75700 30.70600
C  46.33300 32.04600 31.86800
O  47.22600 31.23100 31.79300
O  45.76600 32.40500 33.02500
C  46.25200 31.60400 34.14400
H  50.02800 38.06800 29.73400
H  51.53500 35.96100 23.90300
H  47.48300 31.04400 24.62600
H  46.91800 35.25300 32.17500
H  49.32000 36.81700 31.78500
H  46.98800 37.95700 30.26000
H  47.97300 38.69300 31.49000
H  46.68900 37.58700 32.02300
H  49.90200 34.72200 32.44600
H  48.82600 33.37100 32.25000
H  49.00200 33.37900 34.43200
H  47.42600 34.14800 33.98000
H  51.39000 40.29900 27.34200
H  52.80400 39.37300 27.91100
H  51.36600 39.53600 28.91000
H  53.78900 39.74100 25.92300
H  52.36000 40.68400 25.32300
H  53.52600 40.27500 24.22300
H  51.19400 33.50800 22.87300
H  48.50200 32.25000 22.51400
H  48.78500 34.36900 21.42800
H  50.47800 34.39800 20.98700
H  49.92700 35.74000 21.83700
H  49.83500 30.40600 23.89800
H  51.13600 31.54700 23.43600
H  49.74900 31.10500 21.02200
H  50.42700 29.56400 21.77100
H  51.49500 30.88500 21.45500
H  46.39000 29.15400 26.29100
H  44.98400 30.10900 25.72100
H  44.99600 29.26100 27.30900
H  44.89500 33.36000 30.98100
H  47.30000 31.78900 34.37700
H  46.02900 30.54300 34.02800
H  45.69100 31.96700 35.00500

