158

Mg 17.22800 -2.02800 27.23000
C  16.28000 0.01500 29.85900
C  19.22400 -3.77700 29.47200
C  18.69300 -3.48700 24.65200
C  15.26600 -0.13800 25.10400
N  17.82400 -1.74700 29.35500
C  17.21500 -0.92500 30.28600
C  17.66500 -1.19900 31.76500
C  18.76700 -2.24400 31.49700
C  18.65300 -2.62900 30.05000
C  20.29900 -1.80200 31.71800
C  16.49900 -1.75200 32.64600
C  16.50700 -1.34200 34.12100
H  17.74300 -0.85600 34.83800
N  18.57500 -3.55300 27.09000
C  19.24000 -4.17700 28.12100
C  19.96400 -5.27500 27.53800
C  19.96700 -5.08700 26.11300
C  19.05000 -3.98300 25.89400
C  20.69300 -6.37400 28.39700
C  20.67600 -5.93500 25.01200
O  20.70500 -5.70200 23.82400
C  21.32900 -7.19900 25.46000
N  17.21000 -1.63300 25.13100
C  17.79400 -2.51400 24.26900
C  17.46400 -2.17500 22.80200
C  16.03100 -1.51300 23.07700
C  16.18500 -0.97900 24.48800
C  18.48100 -1.27500 22.12400
C  14.82300 -2.51600 22.69200
C  14.24800 -3.29600 23.84200
N  16.01300 -0.31600 27.39800
C  15.24700 0.27200 26.42200
C  14.43500 1.27500 27.02800
C  14.76300 1.20900 28.39400
C  15.78100 0.27300 28.56600
C  13.34500 2.06900 26.34500
C  14.50900 1.71400 29.72800
O  13.67200 2.54100 30.11200
C  15.47100 0.97900 30.71300
C  16.35300 1.97500 31.39000
O  17.40400 2.45700 30.93900
O  15.72000 2.33800 32.53600
C  16.36700 3.44000 33.26700
H  19.78900 -4.46800 30.10000
H  19.12600 -3.83000 23.71000
H  14.57200 0.36100 24.42500
H  18.13700 -0.25000 32.02100
H  18.65100 -3.08000 32.18700
H  20.82600 -2.16500 30.83600
H  20.78800 -2.24000 32.58800
H  20.25600 -0.71600 31.79600
H  16.62900 -2.83400 32.63000
H  15.52500 -1.63800 32.17200
H  16.01500 -2.13600 34.68300
H  15.78900 -0.52200 34.14900
H  20.40000 -7.37700 28.08800
H  20.31600 -6.33900 29.42000
H  21.78200 -6.36400 28.35200
H  20.68800 -7.90200 25.99300
H  22.12400 -6.76400 26.06600
H  21.90000 -7.70400 24.68200
H  17.40600 -3.14900 22.31600
H  15.87800 -0.62700 22.46000
H  19.41000 -1.20800 22.69100
H  18.10200 -0.29800 21.82400
H  18.73100 -1.84100 21.22700
H  15.18600 -3.25900 21.98200
H  14.07300 -1.83200 22.29400
H  13.95900 -2.55900 24.59200
H  15.01000 -3.93400 24.28900
H  13.37400 -3.93700 23.72600
H  13.71100 2.66500 25.51000
H  12.74700 2.55500 27.11600
H  12.77000 1.27300 25.87200
H  14.77200 0.48200 31.38500
H  15.68900 3.88700 33.99300
H  16.63600 4.21000 32.54200
H  17.32800 3.19000 33.71500
Mg 9.94200 48.39000 26.33200
C  7.88800 48.20900 29.16100
C  12.47200 49.30400 28.16900
C  11.64900 48.23500 23.49700
C  6.89600 47.70500 24.39000
N  10.10800 48.75500 28.41700
C  9.21100 48.68600 29.44600
C  9.90100 48.96700 30.73400
C  11.11300 49.87100 30.34600
C  11.26700 49.33000 28.84300
C  10.89700 51.36200 30.55400
C  10.14400 47.80000 31.70100
C  9.41100 47.92100 33.07600
H  9.57400 46.75800 34.05700
N  11.83700 48.68200 25.94500
C  12.79200 48.99900 26.83000
C  14.11200 48.88500 26.27700
C  13.91000 48.41900 24.94000
C  12.45000 48.46900 24.69900
C  15.40900 49.10000 27.07000
C  14.89700 47.90300 23.95300
O  14.57600 47.41800 22.86800
C  16.34300 47.84900 24.41800
N  9.31400 48.22200 24.23200
C  10.30300 48.11500 23.33600
C  9.66400 47.84000 21.91800
C  8.14200 47.69600 22.18400
C  8.10600 47.81200 23.69700
C  10.13000 48.76500 20.72900
C  7.39900 46.48900 21.61400
C  7.50200 46.31400 20.08100
N  7.80900 48.10900 26.63700
C  6.74300 47.82100 25.78100
C  5.59600 47.51300 26.58400
C  6.10100 47.50800 27.88000
C  7.36500 47.90900 27.85100
C  4.27900 47.06600 26.12400
C  5.56300 47.38300 29.23700
O  4.47000 47.06800 29.65400
C  6.82300 47.76000 30.12400
C  7.09600 46.55800 30.90700
O  7.83800 45.61200 30.62400
O  6.26200 46.66700 32.01700
C  6.41400 45.48800 32.92800
H  13.31900 49.55200 28.81100
H  12.21900 47.99900 22.59600
H  6.04500 47.29900 23.83900
H  9.15800 49.68100 31.09300
H  11.98500 49.54900 30.91500
H  10.29700 51.72600 29.72000
H  11.84300 51.89400 30.45300
H  10.56400 51.55800 31.57300
H  11.22700 47.72000 31.79400
H  9.77600 46.93600 31.14700
H  8.34300 48.11100 32.96800
H  9.76900 48.78000 33.64300
H  15.16000 49.02900 28.12900
H  15.80200 50.07900 26.79700
H  16.23700 48.43200 26.83400
H  16.48100 47.18600 25.27200
H  16.71700 48.86600 24.53500
H  16.89700 47.40400 23.59200
H  10.05100 46.83500 21.75100
H  7.64000 48.64000 21.97400
H  9.26100 49.31200 20.36300
H  10.65600 48.16000 19.99200
H  10.83800 49.50000 21.11300
H  6.34100 46.67900 21.79300
H  7.74400 45.57700 22.10200
H  6.64200 46.85000 19.68100
H  7.50800 45.23400 19.93000
H  8.46700 46.69600 19.74800
H  3.71600 47.87400 25.65600
H  3.70300 46.57600 26.90900
H  4.47600 46.21900 25.46700
H  6.42600 48.54000 30.77400
H  6.96900 45.63900 33.85300
H  6.89700 44.62900 32.46100
H  5.39200 45.24400 33.21800

