158

Mg -1.85000 34.41600 26.76700
C  -3.46200 32.72200 29.40400
C  -0.33600 36.38100 28.96400
C  -0.63400 35.97600 24.16200
C  -3.68800 32.26900 24.49500
N  -1.94700 34.50300 28.97100
C  -2.62900 33.77400 29.85800
C  -2.27700 34.22900 31.29000
C  -1.41600 35.51400 31.07800
C  -1.20400 35.46200 29.54300
C  -2.09800 36.84400 31.61200
C  -1.44500 33.14000 32.05900
C  -1.36600 33.36500 33.55100
H  -1.91800 32.34900 34.54700
N  -0.81100 36.09700 26.59700
C  -0.15700 36.69400 27.58300
C  0.72000 37.70200 27.04500
C  0.66400 37.60700 25.68700
C  -0.33500 36.53600 25.38700
C  1.56200 38.56400 27.88800
C  1.34100 38.49500 24.59600
O  0.98900 38.58400 23.43100
C  2.39400 39.51400 24.90400
N  -2.22500 34.28400 24.66400
C  -1.52300 34.98600 23.76300
C  -1.74600 34.55700 22.25700
C  -2.68200 33.29400 22.45000
C  -2.82400 33.22300 24.01900
C  -2.51300 35.73500 21.36500
C  -2.04300 31.89300 21.95100
C  -0.57400 31.63900 22.54200
N  -3.31800 32.70300 26.87500
C  -3.93000 31.97500 25.87800
C  -4.76400 30.99200 26.53600
C  -4.68300 31.28900 27.93000
C  -3.69400 32.24800 28.10100
C  -5.57700 29.90200 25.84000
C  -5.03900 30.87500 29.19100
O  -5.72100 29.94700 29.65600
C  -4.29400 31.77100 30.23200
C  -5.29200 32.27800 31.24000
O  -6.18200 33.09000 30.93200
O  -5.15400 31.67600 32.43400
C  -6.13000 31.97800 33.52600
H  0.21600 36.89000 29.75600
H  -0.03100 36.44200 23.38000
H  -4.09700 31.51100 23.82300
H  -3.17400 34.45700 31.86600
H  -0.44400 35.41100 31.56200
H  -2.17900 37.55700 30.79200
H  -1.58700 37.36900 32.42000
H  -3.14200 36.75700 31.91300
H  -0.45500 33.19500 31.60700
H  -1.94400 32.19400 31.84500
H  -1.65900 34.38300 33.80900
H  -0.29200 33.36900 33.73600
H  1.49800 38.24900 28.93000
H  1.28000 39.60400 27.72600
H  2.52400 38.36500 27.41600
H  3.31400 39.03200 25.23700
H  1.91400 40.08400 25.70000
H  2.63800 40.12700 24.03700
H  -0.73900 34.42600 21.86200
H  -3.68600 33.41700 22.04300
H  -3.27700 36.12300 22.03800
H  -2.77800 35.16800 20.47200
H  -1.84700 36.55700 21.10400
H  -2.11900 31.98100 20.86700
H  -2.68200 31.02800 22.13100
H  -0.56200 31.96200 23.58300
H  0.11500 32.23600 21.94300
H  -0.22000 30.61800 22.69100
H  -5.95200 29.15200 26.53800
H  -5.03400 29.52000 24.97600
H  -6.47600 30.39000 25.46400
H  -3.74300 30.93900 30.67100
H  -6.94200 31.25200 33.58600
H  -6.61500 32.93600 33.34400
H  -5.57800 32.02600 34.46400
Mg -10.25800 16.92000 42.28300
C  -6.77200 16.45600 42.02500
C  -9.95700 19.99300 40.80800
C  -13.61700 17.02100 42.09900
C  -10.50500 13.45700 43.09300
N  -8.49600 18.06600 41.54900
C  -7.19100 17.76400 41.69900
C  -6.30800 18.87400 41.23000
C  -7.35600 19.94800 40.79500
C  -8.70300 19.29000 40.94200
C  -7.26200 21.31800 41.51200
C  -5.28900 18.63900 40.11000
C  -5.56900 17.63200 38.87800
H  -5.21100 18.11000 37.48400
N  -11.61600 18.35200 41.67800
C  -11.27700 19.58700 41.08200
C  -12.52500 20.29000 40.86400
C  -13.64200 19.47400 41.30200
C  -12.96400 18.20200 41.70700
C  -12.59200 21.70000 40.24600
C  -15.10600 19.87200 41.23100
O  -15.36900 20.93600 40.65400
C  -16.17200 18.98300 41.79500
N  -11.88100 15.42800 42.59300
C  -13.13800 15.78900 42.50200
C  -14.13100 14.58500 42.72800
C  -13.08200 13.48000 43.21400
C  -11.75800 14.13600 42.92500
C  -15.29800 14.89300 43.76900
C  -13.22200 12.01000 42.67700
C  -12.70400 10.92000 43.66600
N  -8.97800 15.23500 42.48900
C  -9.24100 13.93500 42.84000
C  -7.98200 13.24700 43.14100
C  -6.95000 14.26800 42.85900
C  -7.63900 15.40400 42.43400
C  -7.68000 11.77200 43.53200
C  -5.52900 14.49500 42.89600
O  -4.71200 13.68000 43.26800
C  -5.34300 15.94000 42.23200
C  -4.41000 16.71400 43.10900
O  -3.43200 17.27800 42.78400
O  -4.93700 16.69400 44.34300
C  -4.20000 17.57100 45.35900
H  -9.91400 20.94500 40.27500
H  -14.70900 17.01800 42.05900
H  -10.45900 12.44200 43.49400
H  -5.76300 19.20400 42.11500
H  -7.15300 20.27100 39.77400
H  -6.91200 22.05700 40.79100
H  -6.53900 21.10800 42.30100
H  -8.21400 21.62400 41.94400
H  -4.39400 18.33700 40.65400
H  -5.03400 19.66200 39.83300
H  -6.62900 17.37700 38.87700
H  -5.00700 16.71700 39.06600
H  -13.20600 21.70600 39.34600
H  -11.64900 22.04900 39.82600
H  -12.85200 22.50500 40.93400
H  -16.27400 18.14200 41.10900
H  -17.07100 19.59700 41.73300
H  -15.79700 18.70200 42.77900
H  -14.53900 14.22700 41.78200
H  -13.28400 13.54900 44.28300
H  -15.93400 14.02400 43.93600
H  -15.94800 15.71500 43.47000
H  -14.86100 15.08000 44.74900
H  -12.65800 11.85800 41.75700
H  -14.20100 11.63400 42.38100
H  -12.17700 11.38100 44.50100
H  -12.04400 10.17400 43.22300
H  -13.39000 10.25200 44.18700
H  -6.87000 11.83200 44.25900
H  -7.45000 11.16800 42.65500
H  -8.61300 11.39100 43.94800
H  -4.74000 15.69400 41.35800
H  -4.01600 17.03700 46.29100
H  -4.78900 18.43800 45.65800
H  -3.22600 17.98100 45.09000

