158

Mg -1.46100 17.77700 26.97600
C  -2.00300 15.83300 29.78400
C  -2.18500 20.53000 29.03800
C  -1.71700 19.82400 24.26500
C  -2.09500 14.99900 24.91900
N  -2.02500 18.16600 29.17200
C  -1.98300 17.18800 30.14900
C  -2.14400 17.78500 31.57300
C  -2.63500 19.25300 31.24900
C  -2.28700 19.35800 29.71100
C  -4.19300 19.60400 31.49700
C  -0.93800 17.75800 32.51500
C  -1.45500 17.56800 34.04100
H  -0.49200 16.78400 34.86900
N  -1.66800 19.86400 26.68700
C  -1.96300 20.81600 27.66500
C  -1.93100 22.13700 27.02600
C  -1.66000 21.86500 25.72500
C  -1.67300 20.46500 25.46900
C  -2.15300 23.41200 27.66100
C  -1.20700 22.83400 24.58800
O  -0.88000 22.60900 23.45200
C  -1.31300 24.32300 24.95800
N  -1.91100 17.39800 24.91900
C  -1.73700 18.40700 24.02500
C  -1.75300 17.86800 22.52200
C  -1.83200 16.30400 22.76700
C  -1.99900 16.17000 24.29000
C  -2.89800 18.51500 21.72300
C  -0.65800 15.53000 22.18800
C  0.74700 15.77600 22.82400
N  -1.82800 15.76900 27.24500
C  -2.03500 14.72600 26.33200
C  -2.22300 13.52100 27.05600
C  -2.19600 13.90300 28.46300
C  -1.92700 15.25900 28.49400
C  -2.34100 12.13600 26.47700
C  -2.35000 13.36200 29.80100
O  -2.62900 12.24100 30.20600
C  -2.37800 14.67900 30.73600
C  -1.35000 14.35200 31.77200
O  -0.15500 14.61000 31.66700
O  -1.89800 13.76500 32.94700
C  -0.91700 13.30500 33.94400
H  -2.45000 21.37500 29.67800
H  -1.73300 20.43800 23.36200
H  -2.33300 14.14200 24.28600
H  -3.05300 17.33000 31.96600
H  -2.07400 19.95000 31.87200
H  -4.27300 20.22700 32.38800
H  -4.68300 18.65300 31.70600
H  -4.67900 20.15700 30.69300
H  -0.39200 18.68400 32.33800
H  -0.20100 16.97700 32.32600
H  -2.51500 17.32200 34.09400
H  -1.40500 18.56300 34.48200
H  -1.23600 23.98300 27.80300
H  -2.38800 23.17600 28.69900
H  -2.97500 24.01000 27.26600
H  -2.37700 24.55300 25.02200
H  -0.85700 24.84000 24.11400
H  -0.67200 24.63300 25.78300
H  -0.79500 18.18800 22.11200
H  -2.79600 15.97800 22.37800
H  -3.80700 17.93100 21.86600
H  -2.66000 18.53700 20.66000
H  -3.14000 19.49200 22.14100
H  -0.86800 15.72000 21.13500
H  -0.90800 14.48000 22.33800
H  0.67800 16.25300 23.80100
H  1.35100 16.28300 22.07100
H  1.25200 14.82500 22.99300
H  -1.40100 11.58900 26.55800
H  -2.61600 12.14100 25.42200
H  -3.09800 11.63300 27.07800
H  -3.31100 14.77800 31.29100
H  -0.38000 12.49000 33.45800
H  -1.42200 12.86600 34.80500
H  -0.19600 14.04800 34.28500
Mg 47.89000 15.57900 28.44300
C  45.77600 15.29700 31.28700
C  50.27600 17.14500 30.47100
C  49.86400 16.25100 25.65800
C  45.27700 14.40900 26.44300
N  47.97100 16.25100 30.57600
C  46.93400 15.98600 31.56200
C  47.47300 16.47700 32.88600
C  48.65300 17.43800 32.48400
C  49.04100 16.88400 31.09400
C  48.33400 18.97200 32.48900
C  47.90300 15.21100 33.73400
C  48.11400 15.44700 35.26000
H  48.02300 16.85700 35.89000
N  49.86300 16.34200 28.12700
C  50.63000 16.91800 29.11600
C  51.99400 17.25800 28.55900
C  51.86400 17.13800 27.12400
C  50.50600 16.50900 26.90700
C  53.17400 17.87600 29.30800
C  52.86600 17.39900 26.00100
O  52.63000 17.31300 24.77600
C  54.27500 17.85200 26.35700
N  47.58200 15.38700 26.40400
C  48.51200 15.82500 25.47000
C  47.90700 15.59500 24.06200
C  46.63300 14.82800 24.36800
C  46.44000 14.89100 25.85200
C  47.76800 16.82800 23.16300
C  46.57700 13.33600 23.87800
C  47.04100 12.19900 24.81700
N  46.02500 14.91800 28.78600
C  45.11700 14.42800 27.83800
C  44.00700 13.82700 28.61200
C  44.15400 14.22900 29.94800
C  45.44300 14.88600 30.02400
C  42.80300 13.19900 27.98000
C  43.51600 14.30300 31.31000
O  42.40000 14.01600 31.65600
C  44.63700 14.87300 32.27200
C  44.01500 15.89700 33.13500
O  43.79300 17.00900 32.76800
O  43.63100 15.38900 34.30800
C  42.72500 16.22800 35.04300
H  51.04900 17.54400 31.13200
H  50.43900 16.52900 24.77200
H  44.61500 13.85300 25.77600
H  46.70900 16.99600 33.46400
H  49.51400 17.36900 33.14800
H  48.79500 19.44300 33.35800
H  47.26700 19.18100 32.57500
H  48.77600 19.42100 31.60000
H  48.83100 14.83500 33.30500
H  47.14600 14.43200 33.63500
H  49.10700 15.05400 35.47700
H  47.36400 14.88100 35.81200
H  52.98400 17.85700 30.38100
H  53.33200 18.89700 28.96200
H  54.05500 17.25100 29.16200
H  54.14400 18.83400 26.81200
H  54.96800 17.95600 25.52200
H  54.68600 17.05000 26.97100
H  48.62800 15.00200 23.49900
H  45.75600 15.27800 23.90300
H  46.71800 17.09800 23.04700
H  48.17800 16.62500 22.17300
H  48.36000 17.63500 23.59400
H  47.16300 13.22900 22.96500
H  45.55100 13.06900 23.62500
H  46.18800 11.64900 25.21400
H  47.60400 12.62400 25.64800
H  47.58100 11.44200 24.24900
H  41.86500 13.43800 28.48100
H  42.93100 12.12300 27.85700
H  42.63200 13.54000 26.95900
H  45.09100 14.17000 32.97000
H  41.85500 16.30800 34.39100
H  43.04300 17.21300 35.38300
H  42.32800 15.68300 35.89900

