158

Mg 30.64600 58.06200 40.74700
C  27.89600 55.80100 39.89200
C  32.71200 55.59700 39.67700
C  32.92500 60.36200 40.84700
C  28.05400 60.43100 41.38900
N  30.34900 55.96100 39.80600
C  29.15800 55.26300 39.56000
C  29.50300 54.07900 38.66900
C  30.97500 53.88200 38.95700
C  31.37900 55.22600 39.51600
C  31.43400 52.65100 39.86000
C  29.11200 54.32600 37.17700
C  28.13500 53.33100 36.56100
H  27.01800 53.81600 35.61900
N  32.67500 57.92500 40.43500
C  33.35900 56.80000 40.08600
C  34.75500 57.11000 40.10900
C  34.89400 58.52300 40.32100
C  33.47000 59.05400 40.46900
C  35.88100 56.14200 39.68600
C  36.13000 59.36800 40.27300
O  37.24000 58.90800 40.17800
C  35.97400 60.85700 40.39600
N  30.48000 60.16300 41.01000
C  31.64100 60.84000 41.09600
C  31.27400 62.37800 41.42900
C  29.72600 62.30300 41.73200
C  29.37800 60.87600 41.32300
C  32.09600 63.07000 42.55600
C  28.90800 63.46500 40.99700
C  27.73300 64.05100 41.78100
N  28.43600 58.18900 40.61400
C  27.59800 59.16300 40.94200
C  26.22500 58.72100 40.85500
C  26.28700 57.39700 40.44600
C  27.63600 57.08300 40.36600
C  25.03800 59.64500 41.06100
C  25.53700 56.20100 40.11800
O  24.31900 55.94300 40.14900
C  26.54300 55.11400 39.61700
C  26.34400 53.91400 40.40400
O  26.39300 53.74800 41.62200
O  26.23100 52.82100 39.56700
C  25.67100 51.61600 40.27400
H  33.41500 54.88800 39.23500
H  33.62900 61.18800 40.96600
H  27.31800 61.22600 41.52700
H  28.94900 53.24400 39.09900
H  31.50400 53.83100 38.00500
H  30.61100 52.07100 40.27800
H  32.00000 53.02800 40.71200
H  32.02300 51.94600 39.27400
H  30.03100 54.25500 36.59300
H  28.73400 55.34700 37.13300
H  27.66300 52.81000 37.39500
H  28.64000 52.46700 36.13000
H  36.66400 56.67300 39.14400
H  35.52800 55.35300 39.02200
H  36.28800 55.65100 40.56900
H  35.51100 61.12800 41.34500
H  35.45800 61.16400 39.48600
H  36.94400 61.32700 40.23200
H  31.33000 62.91800 40.48400
H  29.44600 62.43400 42.77700
H  32.65900 63.91200 42.15200
H  32.86500 62.41500 42.96500
H  31.41500 63.50100 43.29000
H  28.56500 63.13400 40.01600
H  29.52900 64.32600 40.74600
H  28.09600 65.00800 42.15700
H  27.39300 63.48600 42.64900
H  26.91100 64.17300 41.07600
H  25.25900 60.71200 41.09500
H  24.69100 59.50900 42.08500
H  24.22000 59.55400 40.34700
H  26.45600 54.78800 38.58000
H  26.59500 51.09300 40.52300
H  25.06400 51.04700 39.57000
H  25.11600 51.78500 41.19700
Mg -5.52700 24.83900 25.53400
C  -3.90000 26.20400 28.39100
C  -7.25700 22.68900 27.81300
C  -6.98600 23.48000 22.85800
C  -3.44000 26.80000 23.49400
N  -5.41900 24.34000 27.76900
C  -4.84700 25.21000 28.66300
C  -5.22700 24.79800 30.10300
C  -5.99700 23.41500 29.93100
C  -6.25800 23.47300 28.41500
C  -5.24600 22.05200 30.36600
C  -6.17900 25.91900 30.68400
C  -6.20000 26.14100 32.19100
H  -5.38900 25.11700 33.00000
N  -7.02400 23.37400 25.41700
C  -7.70800 22.71400 26.41600
C  -8.83900 21.93600 25.76600
C  -8.72900 22.18600 24.39100
C  -7.61000 23.03900 24.15400
C  -9.83400 21.15300 26.59300
C  -9.75200 21.57300 23.29100
O  -9.56100 21.83100 22.11200
C  -10.92000 20.76800 23.62200
N  -5.32500 25.06400 23.51000
C  -5.93200 24.27900 22.53600
C  -5.28000 24.39200 21.19200
C  -4.22200 25.54800 21.36700
C  -4.30800 25.85700 22.91300
C  -4.87700 23.03700 20.56500
C  -4.45700 26.80000 20.43200
C  -3.99800 26.62100 19.00200
N  -3.95000 26.19600 25.76300
C  -3.23700 26.96200 24.87200
C  -2.36900 27.88000 25.62400
C  -2.64500 27.63300 27.00100
C  -3.56700 26.63400 27.05800
C  -1.39300 28.90400 24.98700
C  -2.26300 28.10300 28.29300
O  -1.44400 28.99500 28.65500
C  -3.04200 27.09800 29.32800
C  -2.08300 26.36600 30.17800
O  -1.43400 25.41700 29.83800
O  -1.99800 26.89600 31.44100
C  -1.23900 26.10800 32.33700
H  -7.96600 22.14700 28.44200
H  -7.47900 23.09200 21.96400
H  -2.76100 27.35900 22.84700
H  -4.34900 24.54000 30.69500
H  -6.96700 23.42300 30.42900
H  -6.01600 21.39200 30.76400
H  -4.48000 22.25400 31.11400
H  -4.75500 21.57600 29.51600
H  -7.22600 25.74000 30.44000
H  -5.83400 26.89100 30.33200
H  -7.18000 26.22800 32.66000
H  -5.67900 27.08200 32.37300
H  -10.84100 21.10600 26.17800
H  -9.88100 21.72600 27.51900
H  -9.46300 20.15400 26.82300
H  -11.54000 20.54800 22.75300
H  -11.59900 21.39300 24.20100
H  -10.59600 19.84400 24.10200
H  -6.09300 24.72300 20.54700
H  -3.22200 25.17900 21.13600
H  -5.58400 22.26200 20.86300
H  -3.85500 22.73400 20.78900
H  -4.91700 23.03700 19.47600
H  -3.83200 27.58200 20.86300
H  -5.50500 27.09900 20.45600
H  -3.05300 27.16400 18.98300
H  -4.59100 27.10600 18.22700
H  -3.82500 25.56700 18.78500
H  -1.96800 29.46800 24.25300
H  -0.45000 28.59800 24.53300
H  -1.08700 29.67500 25.69500
H  -3.67600 27.68400 29.99300
H  -0.19300 26.03100 32.04100
H  -1.68800 25.12200 32.21600
H  -1.38600 26.21400 33.41200

