158

Mg 8.87000 4.31900 27.11600
C  9.89400 2.76900 29.95600
C  6.55000 6.05300 29.06000
C  7.66900 5.70100 24.21300
C  10.38600 1.80900 25.17100
N  8.25400 4.31500 29.19200
C  8.97100 3.72500 30.21700
C  8.47700 4.08000 31.58600
C  7.15900 4.85900 31.29100
C  7.32400 5.10100 29.77500
C  5.90300 3.99900 31.62900
C  9.43000 4.92700 32.43000
C  9.30300 4.65100 33.94000
H  10.57100 4.41100 34.80600
N  7.41500 5.80500 26.72400
C  6.56100 6.40000 27.62600
C  5.86000 7.41600 27.00400
C  6.16200 7.32500 25.57300
C  7.16700 6.29200 25.42600
C  4.87000 8.26000 27.78500
C  5.46700 8.03000 24.47400
O  5.74300 7.89900 23.29100
C  4.42200 9.14400 24.80900
N  9.08900 3.88500 24.94700
C  8.50200 4.63100 23.96200
C  8.77000 4.00800 22.53100
C  9.71300 2.83500 22.92400
C  9.72000 2.75900 24.42000
C  7.50700 3.63200 21.83600
C  11.15000 3.09200 22.40700
C  11.97300 1.96200 21.77400
N  10.06500 2.68300 27.42000
C  10.60700 1.77500 26.54000
C  11.32800 0.80400 27.31800
C  11.15400 1.20900 28.71100
C  10.32700 2.32300 28.65400
C  12.20200 -0.28300 26.91300
C  11.44700 0.86500 30.14000
O  12.14400 0.03200 30.64300
C  10.79800 2.04500 31.05600
C  10.15400 1.36900 32.20000
O  9.21500 0.57600 32.11300
O  10.89600 1.53600 33.34300
C  10.20200 0.92400 34.50800
H  5.90300 6.64200 29.71400
H  7.19100 5.99400 23.27600
H  10.86000 0.95200 24.68800
H  8.26500 3.08600 31.98000
H  6.97400 5.74800 31.89400
H  5.49100 4.42200 32.54500
H  6.12100 2.96600 31.89900
H  5.19500 3.94500 30.80200
H  9.14700 5.97800 32.35900
H  10.45100 4.90100 32.05000
H  8.64800 3.78000 33.92900
H  8.64300 5.38500 34.40200
H  3.91100 8.00600 27.33300
H  5.09100 9.32500 27.84500
H  4.91400 8.06300 28.85700
H  4.59100 9.66800 25.74900
H  3.46900 8.61900 24.88300
H  4.24200 9.88600 24.03100
H  9.19900 4.88900 22.05400
H  9.39500 1.92700 22.41000
H  7.53500 2.68100 21.30300
H  7.08700 4.43800 21.23500
H  6.77200 3.61000 22.64000
H  11.68600 3.53500 23.24600
H  11.24700 3.81200 21.59500
H  11.38700 1.17900 21.29300
H  12.56900 1.52700 22.57600
H  12.60300 2.39400 20.99700
H  12.69800 0.04200 25.99800
H  11.66800 -1.19700 26.64800
H  12.96700 -0.41900 27.67700
H  11.66900 2.53700 31.48800
H  10.22800 -0.16500 34.53600
H  9.16300 1.24500 34.57800
H  10.80500 1.26400 35.35100
Mg 47.10600 24.77000 28.02600
C  48.03400 27.02000 30.63000
C  46.52700 22.46800 30.50500
C  46.82900 22.41200 25.69000
C  48.24300 27.09300 25.73200
N  47.16600 24.89300 30.31100
C  47.51600 25.86100 31.19400
C  47.33300 25.44400 32.66900
C  46.84600 23.99100 32.53900
C  46.91000 23.74700 31.01200
C  47.62400 22.93900 33.44800
C  46.33600 26.37900 33.37800
C  45.56500 25.85800 34.60600
H  45.53800 26.92900 35.78500
N  46.65800 22.70700 28.11100
C  46.51900 21.99200 29.24600
C  46.33100 20.64900 28.94900
C  46.25600 20.54300 27.46400
C  46.58000 21.91500 26.96300
C  46.21200 19.58000 30.00200
C  46.09300 19.33500 26.51100
O  46.21600 19.44400 25.30700
C  45.75800 17.95200 27.08000
N  47.50400 24.74000 26.03900
C  47.28700 23.67900 25.23600
C  47.43700 24.01500 23.74500
C  47.72200 25.59400 23.82400
C  47.81800 25.80400 25.29900
C  48.49300 23.26800 22.85700
C  46.61500 26.43800 23.07900
C  46.14100 25.85800 21.67900
N  47.87600 26.72400 28.05500
C  48.33500 27.49600 27.04000
C  48.91400 28.70300 27.59500
C  48.76700 28.55500 29.02100
C  48.15100 27.28200 29.22100
C  49.74500 29.79900 26.84500
C  49.03900 29.23500 30.29400
O  49.60600 30.27300 30.56500
C  48.47500 28.22200 31.36400
C  49.31900 28.02500 32.60100
O  50.40000 27.35100 32.71800
O  48.83500 28.78900 33.66600
C  49.47000 28.56400 34.97300
H  46.29800 21.84400 31.37100
H  46.84500 21.68600 24.87400
H  48.53700 27.84400 24.99600
H  48.29400 25.55100 33.17200
H  45.79100 23.85200 32.77500
H  47.82500 23.33100 34.44500
H  48.51400 22.57000 32.93800
H  47.04000 22.03000 33.58800
H  45.63800 26.84000 32.67900
H  46.93300 27.21100 33.75100
H  46.04700 24.95800 34.98800
H  44.51400 25.78800 34.32600
H  45.30400 18.99500 29.85600
H  46.38500 19.89100 31.03200
H  46.99800 18.84500 29.83200
H  45.68000 17.20400 26.29100
H  44.74100 18.16000 27.41300
H  46.47000 17.64100 27.84400
H  46.43100 23.97500 23.32800
H  48.62300 25.91500 23.30200
H  49.28500 23.91800 22.48400
H  48.08400 22.80600 21.95800
H  48.84200 22.44700 23.48300
H  46.98200 27.45600 22.95500
H  45.81300 26.47100 23.81600
H  45.16000 25.38600 21.73000
H  46.81000 25.12700 21.22500
H  46.10900 26.64200 20.92300
H  49.94200 29.49100 25.81800
H  50.71100 29.96700 27.32100
H  49.25600 30.76500 26.72300
H  47.63000 28.87800 31.57300
H  50.27400 29.27200 35.17700
H  49.89700 27.56200 35.00000
H  48.75300 28.77200 35.76700

