158

Mg 48.87100 34.82400 26.52500
C  46.79700 33.23000 28.89200
C  48.97800 37.56100 28.52800
C  50.58000 36.42300 24.08700
C  48.16100 32.18000 24.23900
N  48.00600 35.21900 28.64100
C  47.24600 34.44100 29.39800
C  47.05700 35.11900 30.77600
C  47.41000 36.65300 30.39900
C  48.23100 36.47400 29.13600
C  46.24000 37.69500 30.35600
C  47.90100 34.41300 31.95800
C  48.58400 35.30000 33.04300
H  47.62900 36.09100 34.03300
N  49.65900 36.67900 26.35600
C  49.66100 37.68400 27.30400
C  50.44200 38.85100 26.78600
C  51.03700 38.44200 25.55900
C  50.47500 37.09700 25.31000
C  50.47700 40.25200 27.39500
C  52.06800 39.12800 24.61800
O  52.44400 38.70000 23.51400
C  52.63700 40.42500 25.10800
N  49.02100 34.52900 24.39300
C  49.92400 35.27200 23.63700
C  50.14100 34.78100 22.18000
C  49.55900 33.30400 22.37900
C  48.91600 33.27900 23.76000
C  49.46800 35.63700 21.00300
C  50.50200 32.14600 22.06400
C  50.46100 31.67200 20.61600
N  47.71700 33.02600 26.61400
C  47.53400 32.11800 25.55000
C  46.56500 31.14300 26.05200
C  46.21700 31.55400 27.36400
C  46.99500 32.66200 27.64200
C  46.12100 29.96100 25.32500
C  45.38700 31.20400 28.53200
O  44.53600 30.32700 28.72200
C  45.69900 32.31900 29.54700
C  46.15200 31.63000 30.82300
O  47.28200 31.19500 31.04200
O  45.14200 31.72100 31.72600
C  45.41400 31.58200 33.19200
H  48.94100 38.44100 29.17300
H  51.03900 36.92300 23.23100
H  48.05200 31.23900 23.69500
H  46.00100 35.00800 31.02100
H  48.06700 37.03300 31.18100
H  46.60200 38.66200 30.70500
H  45.30000 37.50500 30.87500
H  46.06100 37.96200 29.31400
H  48.77900 33.95700 31.49900
H  47.31100 33.65400 32.47200
H  49.28200 35.94000 32.50300
H  49.28500 34.75100 33.67100
H  49.70700 40.32300 28.16400
H  50.25500 41.03100 26.66600
H  51.50100 40.48000 27.68900
H  53.30100 40.68200 24.28300
H  53.22800 40.18600 25.99200
H  51.86100 41.18900 25.15900
H  51.21100 34.74400 21.97200
H  48.77700 33.34600 21.62100
H  49.97800 36.59700 21.08500
H  48.40900 35.84600 21.15500
H  49.65700 35.05200 20.10200
H  50.23800 31.37300 22.78600
H  51.50600 32.53100 22.24200
H  50.08900 30.64800 20.62500
H  51.43000 31.67300 20.11700
H  49.74300 32.20100 19.98900
H  46.05600 30.20100 24.26400
H  45.10400 29.71200 25.62800
H  46.82000 29.15500 25.55200
H  44.77900 32.90200 29.59600
H  46.38900 31.14200 33.39900
H  44.69600 30.91000 33.66300
H  45.42300 32.48400 33.80400
Mg 15.96600 52.60000 26.46400
C  17.90100 50.65700 28.88300
C  13.89500 53.28500 28.95900
C  13.95800 53.58300 24.10800
C  18.01900 51.06100 24.02200
N  15.87400 51.82200 28.71400
C  16.77000 51.28700 29.46300
C  16.49700 51.51100 30.93800
C  14.97800 51.95000 30.90700
C  14.87400 52.32400 29.44500
C  13.97100 50.90200 31.40400
C  17.47300 52.49100 31.54600
C  17.52400 52.70700 33.06400
H  16.72200 51.77400 33.96900
N  14.27900 53.41000 26.55300
C  13.60500 53.78100 27.70400
C  12.53500 54.72900 27.32300
C  12.39400 54.63500 25.92800
C  13.55200 53.83500 25.47700
C  11.79100 55.64600 28.36900
C  11.29000 55.15500 25.09400
O  11.17300 54.80700 23.86700
C  10.13700 55.91800 25.60900
N  16.00400 52.23600 24.26700
C  15.07000 52.86100 23.55400
C  15.43500 52.74100 21.99200
C  16.75300 51.97200 22.04300
C  16.92500 51.76600 23.48900
C  14.35200 52.03300 21.08600
C  17.92700 52.68600 21.24600
C  19.11200 51.76800 20.86300
N  17.63600 51.15100 26.41500
C  18.39100 50.79100 25.31700
C  19.50000 49.97600 25.83100
C  19.34300 49.92200 27.20300
C  18.22500 50.64300 27.51600
C  20.50500 49.17200 25.07800
C  19.96200 49.30800 28.41900
O  20.97700 48.62200 28.60400
C  19.05100 49.90700 29.55300
C  18.64700 48.89300 30.54900
O  17.89600 47.97400 30.28000
O  19.27000 49.20200 31.75900
C  18.94400 48.32800 32.87700
H  13.24500 53.75300 29.70100
H  13.30200 54.00600 23.34400
H  18.68900 50.51700 23.35300
H  16.76300 50.67300 31.58300
H  14.80900 52.82800 31.53000
H  14.39500 49.91200 31.57500
H  13.21400 50.79800 30.62700
H  13.54400 51.33700 32.30700
H  17.42500 53.44800 31.02700
H  18.43400 52.04800 31.28200
H  17.38100 53.78000 33.19500
H  18.54900 52.57400 33.40900
H  11.05500 55.01600 28.86700
H  11.30800 56.54900 27.99300
H  12.55600 55.93800 29.08800
H  9.40400 56.34000 24.92100
H  10.42200 56.80900 26.16700
H  9.48500 55.34400 26.26800
H  15.61800 53.78100 21.71800
H  16.71400 50.92900 21.72800
H  13.51900 51.75000 21.73000
H  14.90100 51.19400 20.65700
H  14.02400 52.70200 20.29100
H  18.24600 53.49200 21.90600
H  17.51500 53.19900 20.37700
H  18.93400 50.75000 21.20800
H  20.07700 52.25900 20.99200
H  18.97300 51.52200 19.81000
H  21.35900 48.98800 25.72900
H  20.82100 49.70100 24.17900
H  20.14800 48.18600 24.78100
H  19.75000 50.61400 30.00100
H  17.87700 48.10900 32.88900
H  19.25900 48.65100 33.86900
H  19.30700 47.30500 32.77400

