158

Mg 9.72600 47.47100 26.37700
C  7.97700 47.57800 29.34600
C  12.42500 48.51200 28.06200
C  11.38900 47.50900 23.46900
C  6.72500 46.82300 24.55700
N  10.08300 48.18800 28.43200
C  9.23300 48.13600 29.51500
C  10.01100 48.46200 30.87500
C  11.16200 49.34200 30.21200
C  11.25600 48.65400 28.78000
C  10.86200 50.98800 30.18400
C  10.47500 47.29200 31.73300
C  10.03100 47.38600 33.24400
H  10.02700 46.21200 34.19700
N  11.64100 47.76100 25.90600
C  12.66000 48.00500 26.77800
C  13.90100 47.93200 26.06700
C  13.64500 47.63600 24.69800
C  12.14200 47.64800 24.60900
C  15.22700 48.02100 26.70200
C  14.58700 47.49300 23.53000
O  14.26400 47.49600 22.35900
C  16.02100 47.56800 23.74800
N  9.13500 47.14500 24.29600
C  10.00400 47.45800 23.30500
C  9.32700 47.29600 21.86200
C  7.86400 46.80900 22.30100
C  7.85000 46.99400 23.81800
C  9.29000 48.55900 21.01400
C  7.43200 45.40500 21.85400
C  8.31600 44.11900 22.16400
N  7.68400 47.38700 26.76700
C  6.60200 47.06600 25.97300
C  5.46200 46.94200 26.77800
C  6.00200 47.00200 28.11800
C  7.33900 47.34400 28.07700
C  4.10700 46.55200 26.36100
C  5.62400 46.88400 29.54000
O  4.56200 46.63500 30.05100
C  6.94700 47.17400 30.34800
C  7.29700 45.90700 31.01100
O  8.03600 45.02900 30.54500
O  6.65300 45.85600 32.17900
C  6.98400 44.66400 33.03600
H  13.28100 48.86400 28.64300
H  11.94100 47.37600 22.53600
H  5.76500 46.64300 24.06800
H  9.29500 49.07000 31.42800
H  12.09000 49.22600 30.77200
H  10.04300 51.21500 30.86700
H  10.72400 51.25800 29.13700
H  11.77100 51.46500 30.54900
H  11.56200 47.21900 31.77100
H  10.13100 46.35200 31.30100
H  9.03400 47.82400 33.21700
H  10.73800 48.07100 33.71100
H  15.21100 48.10900 27.78900
H  15.73000 48.91900 26.34300
H  15.82100 47.13700 26.47100
H  16.17100 48.62400 23.97400
H  16.57400 47.39300 22.82500
H  16.18000 46.79200 24.49700
H  9.77500 46.46600 21.31500
H  7.07700 47.50000 21.99900
H  10.05200 48.41400 20.24800
H  9.50500 49.46200 21.58600
H  8.31800 48.62100 20.52500
H  7.33800 45.42200 20.76800
H  6.38600 45.22800 22.10600
H  9.20000 44.40600 22.73500
H  8.57000 43.61000 21.23400
H  7.85000 43.41100 22.85000
H  3.52900 46.51100 27.28400
H  4.12700 45.66800 25.72400
H  3.72900 47.36100 25.73700
H  6.63000 47.85100 31.14200
H  7.87800 44.98600 33.57100
H  7.14600 43.69100 32.57200
H  6.19400 44.54200 33.77700
Mg -11.20300 16.46200 42.03500
C  -7.93000 14.95500 41.58400
C  -9.87700 19.27200 40.60600
C  -14.23300 17.47300 41.63700
C  -12.23300 13.35100 43.16100
N  -9.09400 16.95800 41.10500
C  -7.95300 16.25700 41.09100
C  -6.84800 17.07700 40.56400
C  -7.38700 18.55400 40.70000
C  -8.89200 18.25200 40.79200
C  -6.94500 19.49700 41.88900
C  -6.42300 16.68800 39.07000
C  -4.83700 16.36500 38.97200
H  -4.10800 16.75100 37.63900
N  -11.98000 18.23700 41.36500
C  -11.34800 19.29000 40.78700
C  -12.22200 20.34500 40.33200
C  -13.50600 19.76100 40.52300
C  -13.27300 18.41900 41.17000
C  -11.69500 21.59700 39.65000
C  -14.86500 20.49600 40.26400
O  -14.83500 21.62500 39.72400
C  -16.20800 19.89100 40.63700
N  -12.93300 15.53400 42.31700
C  -14.07700 16.17400 42.16200
C  -15.30200 15.33200 42.54200
C  -14.58600 14.22600 43.37500
C  -13.20100 14.29600 42.80900
C  -16.41100 16.06100 43.32200
C  -15.28600 12.86100 43.03600
C  -15.72000 11.97700 44.21700
N  -10.27200 14.47700 42.30800
C  -10.86500 13.30700 42.82000
C  -9.84500 12.30500 43.02500
C  -8.64800 12.91900 42.52600
C  -8.97400 14.24800 42.13700
C  -10.13300 10.94600 43.62400
C  -7.22000 12.69900 42.28400
O  -6.45800 11.76000 42.51200
C  -6.65900 14.07500 41.81900
C  -5.78500 14.62600 42.89700
O  -6.10100 14.98200 44.04500
O  -4.51500 14.88100 42.33200
C  -3.59100 15.59100 43.22200
H  -9.39000 20.22400 40.38500
H  -15.26500 17.82800 41.66000
H  -12.63300 12.42200 43.57300
H  -5.96000 16.99700 41.19100
H  -7.18000 19.05200 39.75300
H  -6.99100 18.98900 42.85300
H  -7.62000 20.35200 41.87700
H  -5.93800 19.73400 41.54600
H  -6.58300 17.36700 38.23200
H  -6.78600 15.71000 38.75400
H  -4.67500 15.29200 39.07600
H  -4.20300 16.85400 39.71200
H  -12.00600 22.42300 40.29000
H  -12.10000 21.78900 38.65600
H  -10.62600 21.67200 39.45000
H  -17.06800 20.51100 40.38600
H  -16.35500 19.87600 41.71700
H  -16.39900 18.92500 40.17000
H  -15.57200 14.95400 41.55600
H  -14.69700 14.44900 44.43600
H  -16.98500 15.32800 43.88800
H  -16.99700 16.64500 42.61200
H  -16.07200 16.78700 44.06200
H  -14.60300 12.34500 42.36000
H  -16.17800 12.98600 42.42200
H  -16.78000 11.73300 44.14400
H  -15.54200 12.44300 45.18700
H  -15.25500 10.99500 44.13000
H  -9.15900 10.45900 43.67800
H  -10.77600 10.30300 43.02400
H  -10.58600 11.13200 44.59800
H  -6.15800 13.90700 40.86500
H  -3.10100 14.89900 43.90700
H  -4.08600 16.27200 43.91500
H  -2.80000 16.21000 42.80000

