158

Mg 2.95200 -1.58900 45.41200
C  6.34800 -1.14700 44.96900
C  2.34200 0.82100 42.95300
C  -0.42600 -2.40500 45.26000
C  3.58700 -4.60700 47.20100
N  4.14000 -0.52600 44.03000
C  5.56300 -0.50800 44.02600
C  6.09400 0.38200 42.85800
C  4.81600 1.23700 42.53500
C  3.70000 0.52300 43.26100
C  4.94300 2.73900 42.92600
C  6.45000 -0.55100 41.53800
C  7.81000 -0.19400 41.00200
H  8.14200 0.04400 39.52600
N  1.18400 -0.84800 44.42600
C  1.18100 0.18700 43.53800
C  -0.17900 0.51600 43.10900
C  -1.02500 -0.43000 43.78400
C  -0.13400 -1.24500 44.58300
C  -0.52400 1.72400 42.27700
C  -2.55100 -0.58600 43.68600
O  -3.16100 0.11200 42.92100
C  -3.41500 -1.58400 44.44500
N  1.73800 -3.25500 46.20400
C  0.39900 -3.35400 46.01200
C  -0.15800 -4.54700 46.75900
C  1.16200 -5.40500 47.02000
C  2.26000 -4.34600 46.83800
C  -0.93300 -4.21900 48.06900
C  1.20600 -6.64300 45.98900
C  0.52000 -7.91400 46.44700
N  4.62600 -2.58900 46.18000
C  4.72800 -3.76700 46.85600
C  6.09800 -4.03600 47.05100
C  6.78600 -3.00100 46.40700
C  5.86400 -2.16800 45.78200
C  6.66300 -5.22400 47.77800
C  8.07200 -2.51100 46.11600
O  9.15600 -2.89800 46.55600
C  7.90000 -1.23300 45.18200
C  8.58200 -0.02800 45.87800
O  9.52400 -0.03400 46.72800
O  7.89400 1.04200 45.50800
C  8.04300 2.26000 46.35300
H  2.24500 1.53200 42.12900
H  -1.40500 -2.83200 45.03600
H  3.80200 -5.45000 47.86100
H  6.95500 0.93300 43.23400
H  4.61900 1.24300 41.46300
H  5.92900 3.00300 43.30800
H  4.20400 2.99400 43.68500
H  4.81600 3.28400 41.99000
H  5.63900 -0.48700 40.81200
H  6.59000 -1.58300 41.86200
H  8.44300 -1.03000 41.29900
H  8.17500 0.73200 41.44800
H  -0.52800 1.41200 41.23300
H  0.24300 2.47700 42.45900
H  -1.56300 1.98600 42.47700
H  -3.20200 -1.52000 45.51200
H  -3.31500 -2.62200 44.12800
H  -4.46300 -1.29200 44.38900
H  -0.77400 -5.19400 46.13400
H  1.17300 -5.80200 48.03500
H  -1.84500 -4.81500 48.01900
H  -1.15700 -3.18100 47.82000
H  -0.37400 -4.48800 48.96500
H  2.24800 -6.90300 45.80200
H  0.75200 -6.38000 45.03400
H  -0.16100 -8.26300 45.67000
H  0.04800 -7.82400 47.42500
H  1.29700 -8.66300 46.60200
H  7.65800 -5.11200 48.21000
H  6.67700 -6.02100 47.03500
H  5.98800 -5.51400 48.58300
H  8.35300 -1.55600 44.24500
H  8.40200 1.93700 47.33000
H  7.05600 2.67700 46.55700
H  8.78300 2.92900 45.91400
Mg -0.19000 7.58200 25.17600
C  1.05200 9.56300 27.80600
C  0.03200 4.81900 27.21800
C  -0.98500 5.69300 22.56400
C  0.57000 10.23400 22.98500
N  0.57700 7.24100 27.27100
C  0.64400 8.21100 28.23600
C  0.63000 7.57100 29.64300
C  0.64600 6.04300 29.27800
C  0.43500 6.00800 27.77700
C  1.96100 5.24400 29.69400
C  -0.58400 8.02200 30.40800
C  -0.43400 7.94000 31.97000
H  0.88000 7.51900 32.59700
N  -0.66500 5.55100 24.99100
C  -0.56400 4.49900 25.91300
C  -1.19900 3.35700 25.46800
C  -1.37500 3.62600 24.03300
C  -0.97300 4.98300 23.79800
C  -1.41400 2.18700 26.46500
C  -1.88300 2.66500 23.02900
O  -2.19200 3.03400 21.87800
C  -2.16600 1.25800 23.39000
N  0.09800 7.78600 22.98400
C  -0.50700 6.93000 22.14600
C  -0.74000 7.59800 20.79600
C  -0.04000 8.97700 20.88300
C  0.23700 9.04500 22.39300
C  -0.19000 6.71100 19.57400
C  -0.83700 10.13600 20.38400
C  -2.10000 10.52600 21.23600
N  0.58200 9.56600 25.28000
C  0.78400 10.54500 24.35900
C  1.17500 11.79500 25.04500
C  1.33800 11.41400 26.35100
C  1.02500 10.03400 26.44600
C  1.38200 13.12300 24.35500
C  1.67700 11.92000 27.66800
O  1.99800 13.00800 28.02600
C  1.48500 10.74600 28.68500
C  2.68600 10.53400 29.58000
O  3.43100 9.62100 29.46000
O  2.69600 11.45400 30.60700
C  3.83400 11.44700 31.52200
H  -0.06100 4.04700 27.98500
H  -1.41400 5.22600 21.67500
H  0.78700 11.07900 22.32800
H  1.53700 7.83200 30.18900
H  -0.14300 5.48400 29.78100
H  2.73600 5.80800 30.21300
H  2.32500 4.83900 28.75000
H  1.68200 4.43300 30.36700
H  -1.44700 7.38800 30.20600
H  -0.86400 9.05700 30.21300
H  -1.17100 7.21500 32.31400
H  -0.62900 8.90600 32.43600
H  -0.68900 1.40300 26.24800
H  -2.45200 1.85700 26.49800
H  -1.27100 2.54500 27.48400
H  -1.40800 0.75000 23.98500
H  -2.40300 0.66400 22.50700
H  -3.11500 1.29500 23.92400
H  -1.81700 7.74500 20.72700
H  0.90600 9.02400 20.34300
H  -0.96800 6.02400 19.24000
H  0.52300 5.98200 19.96000
H  0.24300 7.28300 18.75300
H  -1.14800 10.00000 19.34800
H  -0.19100 11.00200 20.24100
H  -2.99100 10.69000 20.63000
H  -1.79600 11.50700 21.60200
H  -2.44900 10.03600 22.14400
H  0.52300 13.52300 23.81600
H  2.14400 13.07200 23.57700
H  1.80000 13.90600 24.98700
H  0.67200 10.98600 29.37000
H  4.73400 11.45700 30.90800
H  3.77800 10.53400 32.11600
H  3.78500 12.29700 32.20200

