158

Mg 3.03800 -2.29000 45.20700
C  6.37900 -1.66300 44.75400
C  2.22300 0.01000 42.91400
C  -0.01900 -3.48500 45.30200
C  4.06400 -4.99300 47.34400
N  4.19700 -0.93000 43.92500
C  5.54400 -0.83300 43.96200
C  5.95700 0.42400 43.06900
C  4.54500 1.07700 42.82600
C  3.61000 0.02900 43.24100
C  4.26200 2.39900 43.60200
C  6.82100 -0.04500 41.83000
C  8.18200 0.63100 41.61900
H  8.45500 1.09000 40.16800
N  1.35400 -1.86200 44.13000
C  1.21800 -0.87400 43.28200
C  -0.14800 -0.80100 42.84700
C  -0.87700 -1.75200 43.57600
C  0.18700 -2.37700 44.42700
C  -0.68100 0.25900 42.01600
C  -2.38100 -2.08800 43.46800
O  -3.02700 -1.59800 42.53300
C  -3.19200 -3.10300 44.27700
N  2.19900 -4.00400 46.14400
C  0.88100 -4.23800 46.07600
C  0.43800 -5.58300 46.69600
C  1.72500 -5.94900 47.40500
C  2.75600 -4.93900 46.97800
C  -0.89200 -5.60300 47.49200
C  2.06600 -7.47200 47.25000
C  1.95800 -8.35500 48.46100
N  4.84300 -3.17600 45.97200
C  5.13700 -4.27100 46.80700
C  6.59000 -4.43300 46.96300
C  7.09500 -3.33900 46.25700
C  5.98800 -2.69200 45.62700
C  7.31500 -5.43700 47.76500
C  8.35400 -2.66600 45.89700
O  9.46100 -2.91000 46.31500
C  7.95800 -1.50000 44.98100
C  8.11900 -0.26400 45.75400
O  7.76700 -0.11100 46.92400
O  8.69200 0.71400 44.98000
C  8.98800 1.97500 45.64600
H  2.03900 0.79600 42.17900
H  -1.01400 -3.93300 45.33000
H  4.40100 -5.87100 47.90000
H  6.46300 1.09500 43.76300
H  4.37000 1.19600 41.75700
H  5.28100 2.68700 43.86300
H  3.64800 2.13600 44.46400
H  3.79900 3.13400 42.94400
H  6.18200 0.13100 40.96400
H  6.98000 -1.11400 41.96900
H  8.99400 -0.00200 41.97600
H  8.15600 1.55500 42.19600
H  -0.69500 -0.12100 40.99400
H  -0.24000 1.25300 42.08500
H  -1.68100 0.47500 42.39300
H  -3.15600 -2.93200 45.35300
H  -2.80200 -4.09700 44.05700
H  -4.24300 -3.05900 43.99300
H  0.38900 -6.12300 45.75100
H  1.55300 -5.72400 48.45800
H  -1.42400 -6.54200 47.33900
H  -1.48200 -4.70200 47.32400
H  -0.61100 -5.64100 48.54400
H  3.07100 -7.56900 46.84000
H  1.39400 -8.07000 46.63400
H  2.84200 -8.37100 49.09900
H  1.71300 -9.35900 48.11400
H  1.18200 -7.88800 49.06700
H  8.38900 -5.27600 47.86000
H  6.96600 -6.41800 47.44200
H  6.89500 -5.35500 48.76800
H  8.52200 -1.51100 44.04900
H  8.07400 2.55500 45.76800
H  9.78800 2.41400 45.05000
H  9.47800 1.85500 46.61200
Mg 10.36600 47.29800 25.92000
C  8.36700 47.64300 28.80400
C  12.95900 48.48900 27.66400
C  12.17400 47.07900 23.10300
C  7.38200 46.61900 24.02900
N  10.47600 48.20900 27.87700
C  9.60400 48.18200 28.93300
C  10.23700 48.73400 30.15300
C  11.56200 49.30700 29.68800
C  11.72100 48.65100 28.30500
C  11.60700 50.85600 29.64300
C  10.58400 47.68500 31.31000
C  10.19700 48.00700 32.76400
H  10.01200 46.92000 33.81800
N  12.34700 47.55800 25.46900
C  13.26600 47.97500 26.43900
C  14.56500 47.84900 25.94300
C  14.39400 47.41600 24.56500
C  12.95900 47.26200 24.31100
C  15.84900 48.14800 26.67300
C  15.50600 47.18200 23.48200
O  15.23400 46.70000 22.38800
C  16.91800 47.53000 23.90800
N  9.81600 47.14700 23.79800
C  10.82900 47.08500 22.85500
C  10.20200 46.77300 21.52300
C  8.67600 46.52100 21.84400
C  8.57900 46.76400 23.34000
C  10.50100 47.88400 20.41000
C  8.19600 45.08500 21.57400
C  8.76000 43.99600 22.52000
N  8.22900 47.17300 26.30100
C  7.22400 46.77100 25.44200
C  6.05500 46.52400 26.30200
C  6.43700 46.86800 27.65900
C  7.81200 47.19700 27.56800
C  4.68200 46.19100 25.88100
C  6.01700 46.99200 28.98900
O  4.94800 46.71300 29.44900
C  7.32900 47.35300 29.81200
C  7.62600 46.27100 30.83100
O  8.09500 45.20000 30.58100
O  7.15200 46.59800 32.08200
C  7.08900 45.43200 32.97400
H  13.77000 48.80800 28.32200
H  12.74800 46.92800 22.18600
H  6.53400 46.25500 23.44400
H  9.63600 49.52200 30.60500
H  12.38700 49.07200 30.36000
H  10.58900 51.24500 29.66200
H  12.13200 51.29300 28.79300
H  12.09700 51.19700 30.55400
H  11.63400 47.41600 31.42400
H  10.19200 46.70100 31.05600
H  9.23800 48.52000 32.70200
H  11.03000 48.64900 33.05100
H  16.64900 47.41000 26.61800
H  15.69600 48.18100 27.75200
H  16.22100 49.10500 26.30800
H  17.19200 48.53200 24.24000
H  17.51500 47.39900 23.00600
H  17.33700 46.83100 24.63200
H  10.65400 45.83700 21.19300
H  8.00300 47.19800 21.31800
H  11.14800 48.71200 20.70000
H  9.57400 48.38300 20.13000
H  10.87600 47.40400 19.50600
H  8.51600 44.77700 20.57800
H  7.10700 45.05900 21.61700
H  7.94100 43.56400 23.09600
H  9.60600 44.43100 23.05100
H  9.13900 43.19200 21.88800
H  4.18000 47.12300 25.62300
H  4.16300 45.54300 26.58800
H  4.68000 45.67500 24.92000
H  7.11200 48.31500 30.27700
H  6.18500 44.83400 32.86000
H  7.14100 45.78300 34.00500
H  7.91400 44.75400 32.75600

