158

Mg 47.46500 15.54100 28.40600
C  45.05900 15.26700 30.98000
C  49.40500 17.23400 30.55000
C  49.44800 16.14300 25.80700
C  45.01000 14.33100 26.17500
N  47.17400 16.23800 30.48900
C  46.22700 15.89400 31.37200
C  46.61800 16.15400 32.81500
C  47.85200 17.02700 32.64400
C  48.22400 16.84300 31.17800
C  47.67400 18.48400 33.10300
C  46.83100 14.79400 33.58200
C  46.11100 14.69700 35.00200
H  46.15300 15.87500 35.95200
N  49.22600 16.44500 28.21100
C  49.89100 17.02200 29.23300
C  51.20200 17.60000 28.70000
C  51.24500 17.27200 27.26300
C  49.92900 16.65600 27.01800
C  52.14400 18.30300 29.65900
C  52.37800 17.51100 26.25400
O  52.26000 17.18900 25.05000
C  53.67500 18.07100 26.67600
N  47.14700 15.49100 26.28200
C  48.20600 15.64900 25.46600
C  47.85300 15.19200 24.04000
C  46.51800 14.50900 24.20400
C  46.17700 14.80700 25.67200
C  47.81300 16.34300 22.93300
C  46.57600 12.99300 23.84500
C  45.48700 12.62500 22.82000
N  45.47100 14.86800 28.52900
C  44.63200 14.41600 27.51600
C  43.29900 14.04400 28.12600
C  43.44700 14.23500 29.50500
C  44.73300 14.84000 29.66100
C  42.15000 13.30700 27.50600
C  42.89200 14.12700 30.78800
O  41.86200 13.55100 31.08600
C  43.78200 14.85100 31.77100
C  43.11900 16.04800 32.38700
O  43.40900 17.23000 32.17700
O  42.32700 15.61500 33.33700
C  41.77300 16.57600 34.29300
H  50.01200 17.77700 31.27700
H  50.08200 16.36300 24.94500
H  44.42400 13.85500 25.38600
H  45.81000 16.67100 33.33300
H  48.71700 16.77900 33.26000
H  46.84100 18.61400 33.79400
H  47.43900 19.12900 32.25700
H  48.59600 18.76600 33.61400
H  47.89400 14.59500 33.71500
H  46.61300 13.95500 32.92100
H  46.55100 13.89900 35.60100
H  45.08800 14.37000 34.81700
H  52.68400 19.05600 29.08600
H  52.82800 17.65900 30.21200
H  51.57100 18.94000 30.33300
H  53.66000 19.05000 27.15400
H  54.28500 18.14000 25.77500
H  54.05500 17.34900 27.39900
H  48.72700 14.62000 23.72800
H  45.72500 15.01500 23.65300
H  46.89600 16.91500 22.78800
H  48.23200 15.91400 22.02300
H  48.62400 16.96600 23.30900
H  46.62800 12.41800 24.77000
H  47.47700 12.72900 23.29100
H  44.53300 13.13600 22.95200
H  45.28600 11.55900 22.92800
H  45.84700 12.67700 21.79300
H  42.55500 12.34900 27.18000
H  41.71000 13.89900 26.70400
H  41.41200 13.13000 28.28900
H  44.03600 14.19900 32.60600
H  42.48400 17.31500 34.66400
H  41.34500 16.03800 35.13900
H  40.96000 17.16100 33.86400
Mg 46.55800 23.98300 28.22800
C  47.28200 26.24600 30.93400
C  45.90200 21.63600 30.72200
C  46.20000 21.82900 25.90700
C  48.16900 26.18200 26.17700
N  46.52800 23.92100 30.59700
C  46.83200 25.00800 31.39900
C  46.56100 24.65600 32.85900
C  46.49700 23.11300 32.85800
C  46.30200 22.81700 31.34000
C  47.70600 22.33400 33.40600
C  45.34000 25.45000 33.34900
C  45.37100 26.06900 34.74500
H  46.11900 25.28500 35.88700
N  46.04000 22.06800 28.28800
C  45.77200 21.28000 29.37100
C  45.25100 20.04600 28.90500
C  45.26900 20.11000 27.44300
C  45.91600 21.28200 27.14700
C  44.96500 18.90700 29.83000
C  44.66200 19.10800 26.42600
O  44.55000 19.37500 25.23800
C  43.86500 17.93000 26.90400
N  47.19300 24.01400 26.32500
C  46.78800 23.06500 25.50600
C  47.18600 23.25900 24.00400
C  47.78400 24.73400 24.15000
C  47.80000 24.96000 25.67900
C  48.23300 22.20500 23.51000
C  47.09500 25.91000 23.35900
C  45.89800 26.54500 24.04600
N  47.47800 25.92400 28.47200
C  48.03800 26.69100 27.49600
C  48.33700 27.92200 28.07400
C  48.04600 27.88200 29.44100
C  47.52800 26.57300 29.65900
C  48.99900 29.09200 27.31500
C  48.10500 28.59100 30.70900
O  48.52800 29.66000 30.99200
C  47.49100 27.61200 31.69600
C  48.30300 27.53400 32.98000
O  49.22800 26.74500 33.23300
O  47.80200 28.49200 33.82600
C  48.15500 28.29200 35.27400
H  45.63500 20.87700 31.46000
H  45.96400 21.31100 24.97400
H  48.70300 26.79300 25.44500
H  47.37500 24.99900 33.49700
H  45.62100 22.82500 33.43900
H  48.42200 23.05400 33.80300
H  48.18300 21.73000 32.63300
H  47.39600 21.69200 34.23000
H  44.41000 24.88400 33.30000
H  45.16000 26.23200 32.61200
H  44.31500 26.10700 35.01200
H  45.68000 27.10700 34.61500
H  45.12100 17.94300 29.34400
H  43.90400 18.96300 30.07600
H  45.58400 18.90000 30.72800
H  44.53800 17.20300 27.36000
H  43.31700 17.53000 26.05200
H  43.11600 18.32100 27.59200
H  46.29100 23.33900 23.38700
H  48.84100 24.76100 23.88700
H  48.96300 21.91600 24.26600
H  48.78300 22.57600 22.64500
H  47.55000 21.39500 23.25500
H  46.80100 25.58500 22.36100
H  47.88600 26.65500 23.27400
H  45.40200 25.92700 24.79500
H  45.11000 26.86300 23.36300
H  46.22900 27.49800 24.45900
H  48.36200 29.40600 26.48800
H  50.00300 28.86400 26.95700
H  48.97500 29.94300 27.99500
H  46.47400 27.97400 31.85300
H  48.42900 27.25900 35.49000
H  47.29300 28.62000 35.85400
H  48.92700 29.03400 35.47800

