158

Mg 1.68300 -1.46100 44.39900
C  5.03700 -0.70000 44.02300
C  0.93800 1.43900 42.73900
C  -1.57700 -2.62700 43.99300
C  2.56800 -4.64900 45.62900
N  2.85500 0.04900 43.28300
C  4.20000 0.26300 43.44000
C  4.63400 1.63600 42.97200
C  3.31800 2.34100 42.69800
C  2.24400 1.20900 43.00200
C  3.02800 3.61100 43.61100
C  5.68900 1.79400 41.79100
C  5.38600 0.94800 40.55300
H  6.21200 1.30700 39.29200
N  -0.15800 -0.59000 43.58600
C  -0.20000 0.61900 43.00100
C  -1.63700 0.88400 42.70500
C  -2.34700 -0.33900 43.01800
C  -1.35400 -1.31800 43.59700
C  -2.06100 2.14500 42.03000
C  -3.93700 -0.53300 42.86900
O  -4.67600 0.27400 42.26500
C  -4.59800 -1.76000 43.43800
N  0.57800 -3.37500 44.93200
C  -0.73700 -3.59300 44.67800
C  -1.12000 -5.04500 44.98600
C  0.27600 -5.71000 45.39600
C  1.20600 -4.45800 45.40500
C  -2.13900 -5.24800 46.08900
C  0.75100 -6.86900 44.53400
C  1.69900 -6.68500 43.33800
N  3.40600 -2.49100 44.78200
C  3.66300 -3.78000 45.36200
C  5.08600 -4.00800 45.41300
C  5.69500 -2.82100 44.95300
C  4.63100 -1.95800 44.52000
C  5.78700 -5.21800 45.94400
C  6.93100 -2.03300 44.76900
O  8.10000 -2.27900 45.03200
C  6.51200 -0.61900 44.28700
C  6.87300 0.45300 45.22700
O  6.36600 0.68300 46.29300
O  7.93400 1.14300 44.67800
C  8.50600 2.23300 45.52200
H  0.71600 2.46900 42.45400
H  -2.57300 -3.00200 43.74900
H  2.68600 -5.64000 46.07100
H  5.12500 2.07700 43.83900
H  3.28000 2.51100 41.62200
H  3.89300 3.81100 44.24300
H  2.16600 3.57800 44.27700
H  2.73900 4.41800 42.93800
H  6.69000 1.68600 42.20900
H  5.61300 2.85900 41.57000
H  4.35100 0.87800 40.21800
H  5.53300 -0.09400 40.83700
H  -2.78700 1.92100 41.24900
H  -1.23200 2.54400 41.44700
H  -2.36800 2.92800 42.72400
H  -5.68600 -1.70000 43.43300
H  -4.30500 -1.96400 44.46800
H  -4.56700 -2.60900 42.75400
H  -1.49100 -5.49600 44.06500
H  0.35900 -5.95500 46.45500
H  -1.78200 -5.94400 46.84800
H  -3.06200 -5.56600 45.60500
H  -2.47400 -4.31600 46.54400
H  -0.08700 -7.48800 44.21200
H  1.29000 -7.45700 45.27600
H  1.63100 -5.69800 42.88100
H  1.53500 -7.57200 42.72500
H  2.73200 -6.80500 43.66500
H  5.91300 -5.97600 45.17100
H  5.20600 -5.62300 46.77200
H  6.68700 -4.96800 46.50600
H  7.08700 -0.37300 43.39500
H  7.75400 2.93300 45.88500
H  9.30600 2.70900 44.95400
H  8.85300 1.70300 46.40900
Mg -5.25000 25.55400 25.43900
C  -3.89100 26.64300 28.43400
C  -7.25900 23.40600 27.24900
C  -6.07800 24.03000 22.57800
C  -2.51300 27.09300 23.79700
N  -5.43000 25.04400 27.62900
C  -4.91700 25.72900 28.67900
C  -5.49500 25.20000 30.01500
C  -6.39500 24.02200 29.64100
C  -6.42400 24.19600 28.07400
C  -5.89800 22.59700 29.97300
C  -6.12000 26.30900 31.00600
C  -5.92400 26.06300 32.53300
H  -5.47200 24.76100 33.19100
N  -6.65800 24.07800 25.01200
C  -7.34500 23.36300 25.87700
C  -8.27700 22.58400 25.18600
C  -8.04400 22.86500 23.78100
C  -6.84300 23.68900 23.73600
C  -9.43100 21.64800 25.77200
C  -8.68300 22.24400 22.50800
O  -8.34000 22.45200 21.36600
C  -9.84200 21.36300 22.67200
N  -4.44200 25.59500 23.44400
C  -5.04100 24.89900 22.38900
C  -4.17600 25.10300 21.11400
C  -3.18000 26.21000 21.50200
C  -3.36200 26.30300 23.03500
C  -3.57100 23.80200 20.61500
C  -3.34000 27.62100 20.80200
C  -2.46600 28.00100 19.59600
N  -3.64900 26.92100 25.91800
C  -2.55800 27.47200 25.17600
C  -1.71100 28.22500 26.05000
C  -2.21100 27.90400 27.38000
C  -3.34400 27.14200 27.20800
C  -0.56400 29.10600 25.67400
C  -1.96000 28.06500 28.80600
O  -1.02900 28.60700 29.39000
C  -3.07100 27.27000 29.57100
C  -2.43000 26.25900 30.57600
O  -1.89200 25.16000 30.25300
O  -2.43400 26.82100 31.82300
C  -1.67100 26.09700 32.83700
H  -8.02500 22.84800 27.79100
H  -6.29200 23.58700 21.60300
H  -1.69400 27.65300 23.33900
H  -4.64700 24.85000 30.60300
H  -7.34700 24.26600 30.11300
H  -5.80200 21.85800 29.17800
H  -6.66400 22.22500 30.65400
H  -4.97800 22.59700 30.55700
H  -7.19600 26.30900 30.82900
H  -5.58800 27.24500 30.84100
H  -6.87300 26.32600 32.99900
H  -5.23500 26.79800 32.95100
H  -9.62300 21.65500 26.84500
H  -9.34300 20.62400 25.40900
H  -10.34100 22.05300 25.33000
H  -10.62400 21.88400 23.22500
H  -9.51700 20.41100 23.09200
H  -10.31400 21.13200 21.71600
H  -4.87400 25.49100 20.37200
H  -2.20300 25.88000 21.15000
H  -2.52300 23.71100 20.89900
H  -3.75300 23.73400 19.54300
H  -4.04300 22.90600 21.01800
H  -3.20000 28.48600 21.45100
H  -4.36300 27.65100 20.42600
H  -2.06200 29.01300 19.58900
H  -2.94700 27.76200 18.64700
H  -1.62000 27.31700 19.51500
H  -0.34900 28.85400 24.63500
H  0.23400 28.77800 26.34000
H  -0.75700 30.17700 25.74300
H  -3.69900 27.99400 30.08900
H  -0.79300 26.71700 33.02100
H  -1.24800 25.13900 32.53600
H  -2.29700 26.05200 33.72800

