158

Mg 9.34100 48.31200 26.04200
C  6.75200 48.66100 28.56000
C  11.62900 49.62900 28.17000
C  11.54300 48.26900 23.46100
C  6.71200 47.62900 23.74800
N  9.21100 48.87300 28.16100
C  8.06900 48.98100 28.98900
C  8.49100 49.42300 30.45800
C  9.99400 49.98900 30.21600
C  10.33200 49.43100 28.77400
C  10.16000 51.54100 30.29100
C  8.42800 48.38000 31.57700
C  8.91300 48.82000 32.94800
H  8.23800 48.28600 34.21100
N  11.36100 48.76600 25.85900
C  12.08900 49.31800 26.86400
C  13.40600 49.50000 26.33300
C  13.47500 48.89400 25.07700
C  12.08700 48.61600 24.74100
C  14.51200 50.14800 27.10500
C  14.72200 48.61700 24.16200
O  14.57300 47.89300 23.16600
C  16.11100 49.14000 24.56200
N  9.15400 48.07400 23.91000
C  10.20900 48.00000 23.15100
C  9.87000 47.61700 21.62500
C  8.36800 47.30800 21.74000
C  8.03800 47.63500 23.23700
C  10.23300 48.58300 20.47500
C  8.00000 45.87000 21.32800
C  8.27900 44.82400 22.42600
N  7.14600 48.15400 26.06300
C  6.25200 47.93000 25.02100
C  4.95300 47.98300 25.62100
C  5.04600 48.26700 26.99900
C  6.43000 48.29100 27.25400
C  3.59600 47.77100 24.84500
C  4.35000 48.44700 28.31700
O  3.14100 48.38600 28.63100
C  5.47400 48.75600 29.34800
C  5.24900 47.86000 30.47600
O  5.88000 46.82600 30.64900
O  4.42100 48.46900 31.35000
C  4.20200 47.66800 32.52500
H  12.44800 49.95400 28.81500
H  12.28500 48.23100 22.66000
H  5.90100 47.40500 23.05200
H  7.86600 50.30200 30.61800
H  10.71200 49.57800 30.92600
H  10.09400 51.94300 29.28000
H  11.11100 51.77800 30.76700
H  9.33000 51.93100 30.88000
H  8.76800 47.39500 31.25600
H  7.35800 48.24500 31.72900
H  8.81700 49.90000 33.05100
H  9.90900 48.41400 33.12500
H  14.09000 50.90900 27.76100
H  15.28900 50.67600 26.55300
H  14.98600 49.35000 27.67800
H  16.90200 48.70900 23.94800
H  16.25700 48.88000 25.61000
H  16.14400 50.22600 24.47300
H  10.45400 46.70000 21.54200
H  7.84000 48.06700 21.16300
H  11.09600 49.16600 20.79600
H  9.43700 49.24800 20.14300
H  10.64600 47.96000 19.68100
H  8.59100 45.61000 20.45000
H  6.96800 45.91300 20.97900
H  7.34900 44.31100 22.66900
H  8.74200 45.21800 23.33100
H  8.93700 44.15600 21.87000
H  3.40800 46.70100 24.76000
H  3.78600 48.24200 23.88100
H  2.79200 48.34900 25.30000
H  5.33300 49.78900 29.66600
H  3.60700 48.25300 33.22700
H  5.14400 47.48900 33.04200
H  3.80500 46.71000 32.19100
Mg -10.65200 40.24600 39.53900
C  -9.21300 36.98900 38.86800
C  -7.82400 41.60600 38.28200
C  -12.25200 43.10500 39.36300
C  -13.56300 38.56500 40.55700
N  -8.82000 39.39700 38.68200
C  -8.41000 38.06900 38.44800
C  -6.95800 37.99400 37.92100
C  -6.53100 39.40700 38.52100
C  -7.76600 40.23400 38.39000
C  -5.97000 39.34700 40.00200
C  -6.88500 37.88200 36.35900
C  -6.16600 36.66000 35.82700
H  -6.85800 35.91300 34.72500
N  -10.08300 42.12600 38.93800
C  -8.83600 42.54600 38.49700
C  -8.83200 43.94800 38.37900
C  -10.08300 44.42000 38.69300
C  -10.86600 43.22300 39.03700
C  -7.53600 44.73000 37.93000
C  -10.57400 45.81700 38.52400
O  -9.78300 46.61100 38.13200
C  -11.95700 46.35700 38.81500
N  -12.63000 40.76100 39.83900
C  -13.08500 42.04500 39.69300
C  -14.49700 42.21100 40.17700
C  -14.90200 40.73500 40.46400
C  -13.64600 39.97700 40.30800
C  -14.56500 43.00000 41.41600
C  -15.95500 40.22500 39.47300
C  -17.37400 40.15600 40.00900
N  -11.25200 38.16900 39.88500
C  -12.45600 37.69200 40.30000
C  -12.32100 36.23500 40.60300
C  -11.13500 35.93800 39.95300
C  -10.51600 37.15000 39.52400
C  -13.26800 35.30000 41.26900
C  -10.21800 34.83400 39.53800
O  -10.36700 33.64800 39.70900
C  -8.99400 35.48200 38.79800
C  -7.77500 35.00800 39.45700
O  -7.35700 35.51300 40.53900
O  -7.12300 34.00700 38.69800
C  -5.77800 33.68900 39.21100
H  -6.88900 41.93200 37.82100
H  -12.78400 44.05500 39.44100
H  -14.51200 38.09900 40.82900
H  -6.41800 37.16200 38.37300
H  -5.86100 39.97800 37.87900
H  -6.76500 39.67500 40.67100
H  -5.14900 40.05400 40.12300
H  -5.75400 38.31300 40.27100
H  -6.29600 38.73100 36.01200
H  -7.87900 37.82700 35.91500
H  -6.01200 35.87800 36.57100
H  -5.21100 36.90800 35.36400
H  -7.52000 44.91200 36.85600
H  -6.67400 44.12000 38.20100
H  -7.39400 45.66200 38.47800
H  -12.60600 46.08500 37.98300
H  -11.76200 47.42500 38.72000
H  -12.26700 45.96900 39.78600
H  -15.09900 42.71000 39.41800
H  -15.26600 40.62800 41.48600
H  -13.84300 42.53700 42.08800
H  -15.57600 43.08700 41.81400
H  -14.47900 44.08500 41.35200
H  -15.79700 39.22100 39.08000
H  -15.94000 40.96900 38.67700
H  -17.85600 39.28800 39.55900
H  -17.99000 41.03800 39.83400
H  -17.41300 40.02600 41.09000
H  -13.29200 35.52500 42.33500
H  -12.93700 34.30500 40.97100
H  -14.22700 35.35800 40.75500
H  -8.90300 35.18800 37.75200
H  -5.73000 33.71600 40.29900
H  -4.97400 34.38900 38.98000
H  -5.51400 32.66100 38.96300

