158

Mg -2.28900 16.64500 25.66100
C  -2.52300 14.50500 28.39800
C  -4.07500 18.92500 27.49500
C  -2.23600 18.68100 23.03000
C  -1.40700 13.89300 23.57800
N  -3.06300 16.71600 27.76600
C  -2.96500 15.74300 28.75000
C  -3.54500 16.23000 30.11300
C  -4.30700 17.49800 29.70700
C  -3.78100 17.75200 28.23300
C  -5.83200 17.15500 29.54500
C  -2.39900 16.50000 31.14700
C  -2.41400 15.69000 32.46400
H  -2.52500 16.42000 33.80200
N  -2.82600 18.65400 25.42800
C  -3.60000 19.40100 26.24900
C  -3.73100 20.72000 25.70500
C  -3.15400 20.70600 24.35700
C  -2.67700 19.29100 24.23500
C  -4.39600 21.85700 26.46000
C  -3.11000 21.78600 23.35900
O  -2.55500 21.62300 22.26100
C  -3.65200 23.29800 23.58300
N  -1.88600 16.26800 23.57900
C  -1.84900 17.36900 22.73400
C  -1.28000 16.98900 21.35600
C  -1.00000 15.45600 21.53600
C  -1.35700 15.15400 23.03900
C  -2.27700 17.11100 20.16500
C  0.43900 15.22800 21.15600
C  1.49600 15.71200 22.28500
N  -2.07700 14.60700 25.87200
C  -1.81000 13.57900 24.91900
C  -1.94700 12.29300 25.57200
C  -2.12500 12.59700 26.94500
C  -2.26100 13.99900 27.06900
C  -1.88200 10.96100 24.95000
C  -2.30000 12.06700 28.30700
O  -2.31400 10.91800 28.65900
C  -2.49800 13.28700 29.26600
C  -1.38700 13.23300 30.17000
O  -0.30400 13.77000 30.05300
O  -1.71600 12.38900 31.16200
C  -0.84000 12.21000 32.32500
H  -4.80200 19.49900 28.07400
H  -2.14800 19.39200 22.20600
H  -1.21500 13.11300 22.83900
H  -4.30800 15.52200 30.43800
H  -4.20300 18.36100 30.36500
H  -6.01200 16.46100 28.72400
H  -6.42100 18.06100 29.40800
H  -6.24300 16.91200 30.52500
H  -2.42000 17.55000 31.43900
H  -1.37800 16.30700 30.81800
H  -1.45200 15.19000 32.57400
H  -3.18900 14.92800 32.54200
H  -5.48600 21.85200 26.42800
H  -4.03100 22.88200 26.38500
H  -4.06500 21.78700 27.49600
H  -3.44700 24.04400 22.81500
H  -3.09100 23.68600 24.43300
H  -4.71000 23.43800 23.80200
H  -0.40000 17.62500 21.25400
H  -1.67900 14.84800 20.93700
H  -3.23500 17.36600 20.62000
H  -2.42900 16.25300 19.51000
H  -1.84000 17.96100 19.64100
H  0.82700 15.76600 20.29200
H  0.44700 14.16600 20.91100
H  0.98400 15.91500 23.22500
H  1.99000 16.60600 21.90400
H  2.27200 14.95900 22.41900
H  -0.82700 10.71300 24.83300
H  -2.33500 11.03300 23.96100
H  -2.29500 10.30700 25.71700
H  -3.39800 13.26300 29.88000
H  0.02800 11.60500 32.06400
H  -1.26400 11.69600 33.18800
H  -0.47400 13.20200 32.58900
Mg -9.26600 18.43000 42.54400
C  -5.84600 18.10700 42.65200
C  -8.92800 21.79400 41.59100
C  -12.58700 18.52100 41.62100
C  -9.57700 14.95500 42.72400
N  -7.64900 19.78100 42.03700
C  -6.29500 19.38100 42.16000
C  -5.37900 20.62800 42.10700
C  -6.39200 21.81600 42.16000
C  -7.73700 21.08400 41.86900
C  -6.43200 22.60700 43.48900
C  -4.58100 20.75900 40.76600
C  -5.35800 20.83000 39.44900
H  -4.90700 19.99300 38.25300
N  -10.58500 20.02000 41.83300
C  -10.27100 21.29600 41.50600
C  -11.44800 21.99000 41.06600
C  -12.52600 21.05900 41.10800
C  -11.95400 19.78800 41.55900
C  -11.43600 23.51200 40.69200
C  -13.93900 21.35400 40.54000
O  -14.18700 22.46800 40.03900
C  -15.01600 20.33000 40.41600
N  -10.87600 16.90300 42.16100
C  -12.15300 17.23600 41.92100
C  -13.13300 15.97900 41.91600
C  -12.13600 14.81100 42.36900
C  -10.78600 15.56000 42.53100
C  -14.40700 16.20000 42.75400
C  -12.04600 13.50400 41.47300
C  -12.51600 12.17700 42.19700
N  -8.00400 16.80600 42.66800
C  -8.26800 15.46800 42.88600
C  -7.04300 14.73700 43.12000
C  -6.07300 15.73900 43.12200
C  -6.71900 16.98000 42.87100
C  -6.88900 13.23200 43.29000
C  -4.64900 16.01000 43.18000
O  -3.67200 15.24300 43.19400
C  -4.45600 17.60300 43.03300
C  -3.82900 18.11400 44.25300
O  -2.70400 18.46000 44.38300
O  -4.68600 17.98100 45.32700
C  -4.10600 18.53000 46.62000
H  -8.74400 22.84700 41.36400
H  -13.64000 18.55200 41.33400
H  -9.69500 13.93200 43.09000
H  -4.76000 20.56300 43.00200
H  -6.19400 22.54100 41.37100
H  -5.67900 22.15900 44.13800
H  -7.34700 22.42600 44.05200
H  -6.27600 23.66900 43.29900
H  -3.78600 20.01400 40.72600
H  -4.09000 21.72700 40.85600
H  -5.39800 21.87600 39.14500
H  -6.29700 20.35300 39.73200
H  -11.87100 23.70500 39.71100
H  -10.41500 23.87300 40.81600
H  -12.09100 24.04300 41.38200
H  -15.33600 20.02800 41.41300
H  -14.65200 19.49200 39.82100
H  -15.82300 20.74500 39.81300
H  -13.47000 15.79100 40.89600
H  -12.49400 14.46500 43.33800
H  -14.56700 17.19700 43.16400
H  -14.33900 15.43000 43.52300
H  -15.25200 16.07500 42.07700
H  -10.98500 13.48100 41.22400
H  -12.69700 13.70900 40.62300
H  -12.90100 11.46000 41.47100
H  -13.35100 12.40300 42.86000
H  -11.80600 11.64800 42.83300
H  -6.31500 12.81700 42.46200
H  -7.84700 12.71200 43.30900
H  -6.41900 12.93700 44.22800
H  -3.72400 17.86600 42.26900
H  -3.14100 18.09300 46.87800
H  -4.83100 18.44800 47.43000
H  -3.94600 19.60500 46.53800

