158

Mg 46.27600 24.62600 27.92600
C  47.45700 26.72200 30.29700
C  45.16700 22.43100 30.40600
C  45.29100 22.52800 25.54100
C  47.70700 26.69500 25.38100
N  46.38900 24.54500 30.06100
C  46.79500 25.63200 30.89000
C  46.40500 25.48800 32.39400
C  45.75000 24.03300 32.36600
C  45.74400 23.57700 30.85500
C  46.31900 23.00000 33.38200
C  45.69300 26.66200 33.11100
C  44.91000 26.34700 34.34300
H  45.33100 26.92300 35.71700
N  45.45300 22.73100 27.99700
C  44.99800 22.03800 29.05300
C  44.50100 20.78500 28.65700
C  44.60600 20.69400 27.24300
C  45.15400 22.02600 26.90800
C  43.99300 19.76000 29.65400
C  44.43200 19.51300 26.25300
O  44.48200 19.54700 25.02200
C  43.95700 18.19700 26.80100
N  46.61000 24.50700 25.72600
C  45.83600 23.67300 25.08800
C  45.76500 24.12100 23.51200
C  46.63800 25.42200 23.42600
C  47.00200 25.60400 24.89300
C  46.24300 23.05000 22.50600
C  45.69000 26.59800 22.98300
C  45.49400 26.63600 21.43900
N  47.43200 26.29200 27.81100
C  47.94000 27.01800 26.73500
C  48.68300 28.18800 27.23300
C  48.42300 28.09900 28.64600
C  47.70700 26.90300 28.89300
C  49.39400 29.23100 26.47100
C  48.64100 28.79700 29.80700
O  49.13100 29.94300 29.90100
C  47.97800 27.97500 30.96100
C  48.95500 27.78300 32.07300
O  49.85300 26.94400 32.17300
O  48.65400 28.68700 33.04000
C  49.52800 28.67600 34.26200
H  44.80800 21.78600 31.21000
H  44.79400 21.90200 24.79700
H  48.04500 27.46500 24.68500
H  47.40000 25.47100 32.83800
H  44.70100 24.15100 32.63700
H  46.74500 22.17500 32.81100
H  45.66000 22.61800 34.16200
H  47.20800 23.35700 33.90300
H  45.13900 27.26100 32.38800
H  46.48700 27.32600 33.45200
H  44.86600 25.25800 34.37600
H  43.86700 26.55400 34.10200
H  43.07700 19.36800 29.21200
H  43.76100 20.19700 30.62500
H  44.76600 19.00700 29.80900
H  44.60600 17.84200 27.60200
H  44.11800 17.44700 26.02700
H  42.91800 18.27800 27.12000
H  44.68300 24.12200 23.38100
H  47.54200 25.30200 22.83000
H  46.79100 22.24200 22.99100
H  46.80200 23.43100 21.65100
H  45.41500 22.46700 22.10200
H  46.01500 27.61100 23.22100
H  44.71100 26.49300 23.45000
H  45.71500 25.70500 20.91800
H  45.97500 27.49300 20.96800
H  44.44200 26.81200 21.21500
H  50.46600 29.07200 26.59100
H  49.17200 30.23900 26.82300
H  49.12900 29.24200 25.41400
H  47.10300 28.56100 31.24400
H  50.53600 28.63600 33.84900
H  49.39300 27.78100 34.87000
H  49.39200 29.53300 34.92200
Mg 30.29300 59.18800 38.58000
C  27.45200 57.31900 38.06200
C  32.21500 56.50500 37.86200
C  32.95000 61.25100 38.39000
C  28.25600 62.03900 39.11400
N  29.85600 57.17000 38.01500
C  28.62900 56.59200 37.93200
C  28.79100 55.12200 37.51300
C  30.28100 54.82100 37.96200
C  30.85000 56.27500 37.97100
C  30.31300 54.17900 39.38900
C  28.56500 54.89700 35.97300
C  29.18300 55.86900 34.94600
H  28.19900 56.77100 34.15400
N  32.20900 58.95500 38.05800
C  32.91300 57.73700 37.95400
C  34.29400 57.89900 37.68600
C  34.47500 59.36700 37.67800
C  33.18600 59.96500 37.99200
C  35.29800 56.75500 37.42100
C  35.86400 60.02000 37.22600
O  36.80900 59.23700 36.99900
C  36.03700 61.53400 36.99400
N  30.53700 61.42400 38.75000
C  31.79300 61.90900 38.73600
C  31.69100 63.43700 38.96200
C  30.19300 63.65700 39.48100
C  29.61500 62.28900 39.22600
C  32.85400 64.02200 39.95000
C  29.45000 64.90800 38.92800
C  28.64900 65.78200 39.82100
N  28.23300 59.62600 38.69700
C  27.53000 60.78600 38.91100
C  26.05700 60.57400 38.79400
C  25.98900 59.19700 38.52300
C  27.32200 58.68800 38.38000
C  24.96100 61.63800 38.99200
C  25.08300 58.08300 38.30500
O  23.88000 58.05600 38.24000
C  26.03300 56.80800 37.97200
C  25.60300 55.58700 38.79600
O  25.48100 55.53800 40.00700
O  25.18200 54.62000 37.97800
C  24.17600 53.64900 38.55300
H  32.87900 55.63900 37.88600
H  33.77100 61.96600 38.46900
H  27.66000 62.93200 39.31200
H  28.09600 54.44300 38.00600
H  30.83900 54.22800 37.23700
H  29.32400 54.10200 39.84100
H  30.74800 54.90900 40.07100
H  30.75600 53.18300 39.38400
H  27.47800 54.94400 35.90300
H  28.96700 53.92000 35.70300
H  29.64600 55.24300 34.18300
H  29.96500 56.52000 35.33700
H  35.53800 56.61800 36.36600
H  34.87500 55.82500 37.80100
H  36.21000 56.76300 38.01800
H  37.06000 61.80400 36.72900
H  35.83600 61.94100 37.98400
H  35.29600 61.69700 36.21200
H  31.75700 63.88500 37.97100
H  30.30500 63.78400 40.55800
H  33.60700 64.36600 39.24100
H  33.31200 63.19300 40.48900
H  32.40900 64.73900 40.64100
H  28.85700 64.64600 38.05200
H  30.16400 65.50400 38.35900
H  29.04600 66.79500 39.75500
H  28.58500 65.36100 40.82400
H  27.58100 65.74200 39.60600
H  25.33800 62.57600 39.40000
H  24.18400 61.30700 39.68000
H  24.43900 62.00800 38.10900
H  25.85700 56.56000 36.92500
H  24.63100 52.97700 39.28100
H  23.89400 53.06600 37.67600
H  23.36300 54.14800 39.08100

