158

Mg 0.73400 7.51300 25.34100
C  1.43000 9.58500 28.16800
C  1.44600 4.79200 27.28700
C  0.08600 5.76000 22.81000
C  0.88400 10.45200 23.42700
N  1.43500 7.22000 27.52100
C  1.40100 8.13800 28.55600
C  1.49400 7.48600 29.94500
C  1.69200 5.96500 29.58100
C  1.60700 6.00300 28.04800
C  3.02700 5.34200 30.10600
C  0.32100 7.78800 30.91500
C  0.58400 8.09400 32.44900
H  1.63200 7.19200 33.06000
N  0.72800 5.52500 25.06400
C  1.04600 4.53300 25.98300
C  0.71400 3.22000 25.39300
C  0.34200 3.58200 24.03500
C  0.37800 4.98000 23.92400
C  0.97600 1.94800 26.17300
C  -0.04700 2.66400 22.87400
O  -0.44600 2.94700 21.73600
C  0.09900 1.20300 23.09100
N  0.63200 8.06100 23.29400
C  0.24700 7.07100 22.46400
C  -0.38000 7.70900 21.15300
C  0.00800 9.21600 21.25900
C  0.54400 9.31900 22.69700
C  -0.10800 6.99400 19.75200
C  -1.24700 10.23800 21.06700
C  -0.98400 11.38000 20.12700
N  1.15000 9.52400 25.68200
C  1.18500 10.61100 24.76200
C  1.59300 11.81400 25.48400
C  1.63800 11.44700 26.82200
C  1.35000 10.09000 26.86900
C  1.72000 13.20500 24.90400
C  1.73600 11.99100 28.16200
O  2.10300 13.09100 28.55400
C  1.67400 10.74700 29.13800
C  2.91100 10.67900 29.85000
O  3.99000 10.38400 29.40000
O  2.71100 10.95100 31.20500
C  3.84900 10.72400 32.08200
H  1.49300 3.84400 27.82700
H  -0.27200 5.20900 21.93800
H  0.87500 11.39600 22.87900
H  2.42900 7.91300 30.30700
H  0.82200 5.37300 29.86500
H  2.86400 4.42100 30.66700
H  3.60900 6.05700 30.68800
H  3.73500 5.02200 29.34200
H  -0.26400 6.86900 30.93300
H  -0.30900 8.61300 30.58300
H  -0.27400 7.91500 33.09700
H  0.88600 9.13500 32.56700
H  0.11300 1.29500 26.04800
H  1.05100 2.07400 27.25300
H  1.85600 1.41400 25.81400
H  -0.50200 0.85100 23.92900
H  1.13600 0.96000 23.32400
H  -0.32100 0.66500 22.24100
H  -1.44000 7.56400 21.36500
H  0.80300 9.44800 20.55000
H  0.80400 6.42600 19.93000
H  0.07900 7.78900 19.03000
H  -0.93500 6.31700 19.53400
H  -1.62100 10.63100 22.01200
H  -2.11900 9.84100 20.54700
H  -1.44000 11.25100 19.14600
H  0.09800 11.51400 20.14500
H  -1.53200 12.22900 20.53500
H  0.86800 13.57800 24.33600
H  2.66600 13.16900 24.36300
H  1.92600 13.80200 25.79200
H  0.84300 10.88600 29.83000
H  3.50300 10.23700 32.99400
H  4.25700 11.67800 32.41400
H  4.66200 10.19200 31.58700
Mg 43.71000 4.40100 47.42400
C  41.58200 7.08200 46.90600
C  41.00900 2.20300 47.11700
C  45.85600 1.80200 47.24300
C  46.44900 6.58700 47.26400
N  41.55600 4.64600 46.88800
C  40.85900 5.87100 46.72400
C  39.36000 5.56500 46.34800
C  39.30500 4.02100 46.53900
C  40.69800 3.58400 46.77400
C  38.25300 3.57600 47.66200
C  39.07700 5.98900 44.87600
C  37.85300 6.89100 44.59500
H  37.21200 6.64100 43.21000
N  43.43400 2.37000 47.27600
C  42.26000 1.65900 47.34400
C  42.50400 0.24500 47.20600
C  43.89100 0.09900 47.21100
C  44.47200 1.48000 47.19200
C  41.41500 -0.69600 47.20100
C  44.63000 -1.19600 47.03600
O  44.07300 -2.26700 46.76100
C  46.11800 -1.36200 47.14600
N  45.79100 4.19300 47.25600
C  46.44000 3.03700 47.30000
C  47.94100 3.16100 47.56600
C  48.15200 4.68500 47.51000
C  46.75200 5.19700 47.29400
C  48.71800 2.36500 48.72100
C  49.20500 5.13900 46.37800
C  50.68100 5.28500 46.73000
N  43.94000 6.42700 47.25200
C  45.10700 7.13800 47.16200
C  44.75300 8.51900 47.06400
C  43.36600 8.56600 47.02700
C  42.94400 7.24900 47.07900
C  45.72800 9.67800 46.83400
C  42.23000 9.43000 46.88800
O  42.19500 10.62900 46.89600
C  41.00500 8.49300 46.82000
C  40.07800 9.06000 47.88100
O  40.00800 8.66800 49.04200
O  39.16700 9.94600 47.27800
C  38.14600 10.62200 48.08300
H  40.16700 1.55800 46.85900
H  46.55000 0.96900 47.36800
H  47.17800 7.40000 47.23700
H  38.79500 6.15800 47.06600
H  38.86700 3.56900 45.64900
H  37.55000 4.37500 47.89600
H  38.85300 3.34000 48.54000
H  37.79400 2.67800 47.24800
H  39.10200 5.13300 44.20300
H  39.90100 6.66100 44.63800
H  38.06900 7.95900 44.64000
H  37.12900 6.67700 45.38000
H  41.72300 -1.64400 46.76000
H  40.55600 -0.41400 46.59300
H  41.12100 -0.78900 48.24700
H  46.51600 -0.82000 46.28800
H  46.43400 -2.39900 47.26100
H  46.38100 -0.95400 48.12200
H  48.42800 2.81800 46.65300
H  48.49000 5.02500 48.48800
H  49.34600 1.62300 48.22800
H  48.05900 1.92100 49.46700
H  49.48600 3.03200 49.11300
H  48.95400 6.16400 46.10700
H  49.11100 4.45000 45.53900
H  50.97900 4.27500 47.01100
H  50.80300 5.83300 47.66400
H  51.25300 5.76800 45.93800
H  45.09000 10.54500 47.00300
H  46.08000 9.76200 45.80600
H  46.50800 9.82200 47.58200
H  40.64700 8.59000 45.79500
H  37.82400 9.95500 48.88300
H  37.24500 10.65400 47.47100
H  38.59700 11.55500 48.41900

