158

Mg -2.24600 17.16100 25.73300
C  -2.59700 14.90900 28.37100
C  -3.11800 19.69100 27.82300
C  -2.34300 19.14900 23.08100
C  -2.02900 14.36100 23.54000
N  -2.78100 17.23400 27.88300
C  -2.81000 16.28000 28.76100
C  -3.28100 16.72800 30.15500
C  -3.50600 18.27800 29.93900
C  -3.16300 18.44000 28.45400
C  -4.91200 18.78100 30.42500
C  -2.17500 16.53600 31.33800
C  -2.33200 17.38000 32.61600
H  -2.25500 16.68500 33.96300
N  -2.41100 19.18900 25.49500
C  -2.73300 20.06700 26.50100
C  -2.58800 21.37900 25.97500
C  -2.33800 21.24300 24.60400
C  -2.35500 19.79000 24.33100
C  -2.51500 22.65600 26.84100
C  -2.02800 22.35800 23.54300
O  -1.82500 22.08100 22.34600
C  -1.73800 23.72300 24.01800
N  -2.22000 16.82900 23.60100
C  -2.16700 17.83500 22.68100
C  -2.17200 17.30100 21.23100
C  -2.14300 15.71700 21.42200
C  -2.14900 15.57300 22.95400
C  -3.25700 17.84600 20.21500
C  -1.31000 14.89200 20.49100
C  0.12200 14.46600 20.99200
N  -2.26100 15.01700 25.83400
C  -2.06800 14.02700 24.90600
C  -1.98000 12.72600 25.63300
C  -2.28700 13.00200 26.97400
C  -2.35400 14.45100 27.04300
C  -1.88700 11.35200 24.94300
C  -2.38200 12.54200 28.33200
O  -2.11600 11.39800 28.78600
C  -2.53200 13.68700 29.31700
C  -1.31700 13.66700 30.20200
O  -0.15800 13.90700 29.83100
O  -1.66100 13.29000 31.44100
C  -0.54100 13.04100 32.36500
H  -3.24100 20.55400 28.48100
H  -2.45200 19.80300 22.21300
H  -1.90700 13.57500 22.79100
H  -4.20200 16.18300 30.36000
H  -2.78300 18.89200 30.47700
H  -5.39700 19.22900 29.55800
H  -4.81300 19.60500 31.13200
H  -5.70200 18.09500 30.73100
H  -1.20400 16.89200 30.99500
H  -2.36000 15.50800 31.64800
H  -3.36000 17.73600 32.53900
H  -1.57600 18.16500 32.59500
H  -2.52300 22.39800 27.90000
H  -3.21700 23.39200 26.44800
H  -1.51300 23.07800 26.76700
H  -0.81900 23.66400 24.60200
H  -2.61900 23.94400 24.61900
H  -1.56700 24.45500 23.22800
H  -1.17600 17.46400 20.82000
H  -3.10100 15.20800 21.31300
H  -3.92700 17.02400 19.96000
H  -2.81500 18.19700 19.28200
H  -3.79900 18.66700 20.68400
H  -1.37800 15.50600 19.59300
H  -1.92100 14.04300 20.18200
H  0.23400 13.39600 20.81300
H  0.24900 14.62200 22.06300
H  0.94300 14.98200 20.49400
H  -0.84500 11.15500 25.19500
H  -1.97700 11.41600 23.85900
H  -2.55000 10.59800 25.36700
H  -3.43600 13.46300 29.88400
H  -0.54300 13.84100 33.10600
H  0.47700 12.79000 32.06800
H  -0.97600 12.18700 32.88400
Mg 8.89900 3.19600 27.42500
C  10.44000 1.59900 30.19900
C  7.52100 5.48300 29.61700
C  7.49300 4.66900 24.80500
C  10.39200 0.86600 25.27400
N  8.95800 3.47800 29.69400
C  9.69900 2.75400 30.61200
C  9.49900 3.24900 32.02500
C  8.51500 4.38700 31.78200
C  8.29700 4.50700 30.31300
C  7.15800 4.17800 32.50500
C  10.78500 3.67200 32.77300
C  10.68200 4.67100 33.94100
H  11.53000 4.31300 35.18400
N  7.64800 4.81800 27.24400
C  7.20700 5.67200 28.21300
C  6.35300 6.68400 27.67700
C  6.33800 6.39700 26.31300
C  7.18800 5.23100 26.06600
C  5.76100 7.79900 28.50500
C  5.67300 7.21800 25.25600
O  5.59100 6.80800 24.09300
C  4.95000 8.45900 25.48700
N  9.01500 2.79700 25.31200
C  8.24100 3.53300 24.49400
C  8.52800 3.04600 22.98400
C  9.58200 1.93500 23.10500
C  9.66800 1.85100 24.62700
C  7.30300 2.67100 22.20700
C  10.97100 2.30000 22.37600
C  11.91800 1.13900 22.14300
N  10.11500 1.53300 27.60900
C  10.64900 0.69800 26.65400
C  11.40800 -0.33400 27.32300
C  11.35700 0.02400 28.69000
C  10.58400 1.15300 28.81800
C  12.15400 -1.45500 26.69200
C  11.71600 -0.44400 30.04600
O  12.24000 -1.48500 30.41400
C  11.24600 0.60600 31.01600
C  10.54500 0.05800 32.16800
O  9.50100 -0.56600 32.11000
O  11.23000 0.27000 33.37400
C  10.58300 -0.21400 34.60700
H  7.15800 6.26500 30.28700
H  7.05200 5.11100 23.91000
H  10.93400 0.08200 24.74100
H  8.97000 2.43800 32.52600
H  8.94700 5.29900 32.19500
H  6.40500 3.94000 31.75300
H  6.77000 5.11600 32.90100
H  7.31000 3.41800 33.27100
H  11.27900 4.14200 31.92300
H  11.38900 2.84500 33.14500
H  9.65200 4.87900 34.23000
H  11.15900 5.54100 33.49000
H  6.31800 8.71200 28.29200
H  5.57200 7.68000 29.57100
H  4.77100 8.02600 28.11000
H  4.59100 8.83600 24.52900
H  5.62000 9.20100 25.92100
H  4.07100 8.34400 26.12100
H  9.00900 3.86800 22.45400
H  9.28300 0.98000 22.67200
H  7.30600 3.30800 21.32200
H  6.41700 2.65800 22.84200
H  7.50100 1.65500 21.86600
H  11.41700 2.93500 23.14200
H  10.72500 2.86000 21.47300
H  11.54700 0.12100 22.26200
H  12.76700 1.12600 22.82600
H  12.32500 1.21400 21.13400
H  11.48900 -2.07900 26.09500
H  12.66100 -2.16000 27.35000
H  12.86800 -1.09300 25.95200
H  12.06400 1.22100 31.38900
H  10.91400 0.55200 35.30800
H  10.98300 -1.15300 34.98900
H  9.49400 -0.19900 34.65000

