158

Mg 53.57200 23.41400 44.63400
C  51.15800 25.78400 43.90600
C  51.69300 21.06700 43.00900
C  56.08200 21.08300 45.02000
C  55.78700 25.89400 45.33800
N  51.74500 23.42800 43.66800
C  50.91600 24.52200 43.39900
C  49.79700 24.17200 42.37300
C  49.76500 22.60700 42.59400
C  51.18600 22.36100 43.06600
C  48.66500 22.14600 43.51400
C  50.30000 24.44400 40.93100
C  49.33200 24.66200 39.78500
H  49.90200 25.20800 38.49300
N  53.82100 21.31900 44.28900
C  52.91600 20.56900 43.51800
C  53.38800 19.15600 43.54000
C  54.65100 19.13200 44.20400
C  54.90400 20.54000 44.57900
C  52.54200 18.05800 43.02000
C  55.43900 17.89800 44.32300
O  55.25900 16.85900 43.73400
C  56.72900 17.93600 45.25300
N  55.61600 23.42100 45.07400
C  56.49500 22.39600 45.27500
C  57.94100 22.85700 45.66500
C  57.79400 24.36900 45.51700
C  56.28100 24.58600 45.30400
C  58.54400 22.35600 46.99100
C  58.75400 25.09400 44.43300
C  58.98600 26.63800 44.36800
N  53.49000 25.45000 44.90200
C  54.47500 26.34300 45.15900
C  53.80500 27.65700 45.24300
C  52.58100 27.52600 44.69300
C  52.39600 26.11600 44.57200
C  54.44900 28.95100 45.69900
C  51.27400 28.17000 44.31000
O  50.92100 29.36500 44.41100
C  50.30800 27.09900 43.80200
C  49.90100 27.58200 42.46300
O  50.52500 27.88000 41.46300
O  48.55900 27.63900 42.49300
C  47.76600 27.91300 41.28000
H  51.14600 20.30600 42.45000
H  56.86200 20.32700 44.91100
H  56.43600 26.73400 45.59400
H  48.85200 24.62700 42.66900
H  49.74800 22.17300 41.59400
H  47.90100 22.90300 43.69200
H  48.97000 21.69600 44.45900
H  48.08400 21.45700 42.90200
H  50.95800 23.60800 40.69400
H  50.93400 25.33100 40.93900
H  48.51800 25.28000 40.16200
H  49.00400 23.62900 39.66700
H  52.50000 17.22800 43.72400
H  52.78900 17.63700 42.04500
H  51.47500 18.27300 43.07500
H  56.45200 18.60200 46.07000
H  57.63000 18.13600 44.67300
H  56.72500 16.92500 45.66000
H  58.58000 22.55300 44.83600
H  57.93000 24.93600 46.43800
H  58.02800 22.85800 47.80900
H  59.59600 22.61100 47.12000
H  58.45800 21.27100 47.05100
H  58.27400 24.87600 43.47800
H  59.67000 24.51600 44.31700
H  59.97100 26.97200 44.69200
H  58.39400 26.95300 45.22800
H  58.73500 27.03400 43.38400
H  55.30600 29.27900 45.11100
H  54.68300 29.08900 46.75500
H  53.71400 29.70000 45.40400
H  49.41100 27.07100 44.42000
H  48.19500 27.45900 40.38800
H  47.58200 28.98700 41.23400
H  46.87000 27.32400 41.47400
Mg -11.32800 39.09200 41.86200
C  -9.80300 36.02900 40.83000
C  -8.71000 40.82000 40.36200
C  -12.91500 41.87300 42.53200
C  -14.14200 37.16800 42.78000
N  -9.55500 38.48300 40.72500
C  -9.12200 37.20600 40.50700
C  -7.75500 37.26900 39.83100
C  -7.33000 38.75800 39.88700
C  -8.60500 39.42500 40.40500
C  -6.14500 38.99400 40.91200
C  -7.83400 36.78400 38.37000
C  -6.73900 35.70000 37.91400
H  -5.83100 36.17600 36.81000
N  -10.91100 41.11000 41.55800
C  -9.76900 41.57600 40.95400
C  -9.79300 43.02800 41.09800
C  -11.00000 43.46500 41.74400
C  -11.63800 42.13600 42.04900
C  -8.73200 43.85200 40.47100
C  -11.46100 44.87800 42.11500
O  -10.70300 45.77100 41.87000
C  -12.75700 45.19700 42.77100
N  -13.34200 39.46100 42.28500
C  -13.72700 40.71200 42.64600
C  -15.13100 40.77700 43.02300
C  -15.61500 39.28200 42.96300
C  -14.29000 38.53600 42.58400
C  -15.33500 41.36000 44.46800
C  -16.84900 39.02800 41.93600
C  -18.18800 38.63600 42.44000
N  -11.78700 36.95700 42.03300
C  -13.01800 36.42600 42.40000
C  -12.87000 34.93000 42.20500
C  -11.57700 34.70500 41.65600
C  -11.03700 35.95300 41.52000
C  -13.84200 33.89500 42.48300
C  -10.56400 33.79300 41.13800
O  -10.60700 32.59200 41.12200
C  -9.29500 34.61600 40.64600
C  -8.21900 34.33300 41.63600
O  -8.01500 34.74300 42.77200
O  -7.43700 33.48300 40.93600
C  -6.33900 32.80700 41.59900
H  -7.80400 41.40600 40.19500
H  -13.50400 42.76600 42.75300
H  -15.04100 36.62400 43.07800
H  -7.06500 36.67100 40.42600
H  -6.94600 39.01000 38.89800
H  -5.53300 39.82800 40.56900
H  -5.52800 38.10400 41.03300
H  -6.43300 39.17300 41.94800
H  -7.66200 37.57700 37.64300
H  -8.78400 36.27300 38.21100
H  -7.29500 34.81800 37.59500
H  -6.22000 35.29900 38.78500
H  -7.78400 43.44600 40.82300
H  -8.69000 44.89700 40.77800
H  -8.85600 43.70900 39.39800
H  -13.56800 45.03800 42.06100
H  -12.65200 46.26400 42.97100
H  -12.90700 44.62900 43.68900
H  -15.54300 41.41500 42.24100
H  -15.75400 38.87500 43.96400
H  -16.03800 40.78700 45.07200
H  -15.74200 42.35100 44.26700
H  -14.49100 41.72400 45.05300
H  -16.45000 38.29900 41.23100
H  -16.99300 39.91200 41.31400
H  -18.55200 37.68600 42.04900
H  -18.99300 39.23600 42.01500
H  -18.29500 38.57000 43.52300
H  -13.58900 32.96200 41.98100
H  -14.79800 34.22400 42.07400
H  -14.02400 33.66900 43.53400
H  -8.98300 34.48900 39.60900
H  -6.37600 32.86000 42.68700
H  -5.39600 33.27500 41.31600
H  -6.38400 31.75300 41.32500

