158

Mg -1.77900 17.55400 27.07200
C  -2.34200 15.24100 29.83200
C  -2.63000 20.04100 29.35800
C  -1.76800 19.65400 24.56000
C  -1.62700 14.76700 25.03800
N  -2.33100 17.70400 29.35500
C  -2.36200 16.62200 30.27600
C  -2.62700 17.12500 31.71000
C  -3.02700 18.56400 31.49300
C  -2.66700 18.83100 30.04000
C  -4.62600 18.70000 31.67600
C  -1.42800 16.77300 32.67900
C  -0.99700 17.70700 33.90400
H  -0.87000 16.91800 35.23200
N  -1.96000 19.54400 27.03600
C  -2.32600 20.35800 28.03300
C  -2.48200 21.69100 27.45300
C  -2.09300 21.63300 26.14700
C  -1.94400 20.22500 25.82800
C  -2.92400 23.00700 28.22400
C  -1.89200 22.70700 25.09900
O  -1.40900 22.57400 23.97500
C  -2.00700 24.16900 25.53400
N  -1.55400 17.23800 25.09300
C  -1.59700 18.27100 24.22300
C  -1.41200 17.79100 22.78900
C  -1.17800 16.26100 22.96800
C  -1.49800 16.03200 24.44200
C  -2.66700 18.10900 21.88200
C  0.30800 15.78900 22.70300
C  1.35200 16.58600 23.48500
N  -1.87700 15.46500 27.33700
C  -1.78000 14.41900 26.39700
C  -2.05300 13.16400 27.03200
C  -2.20600 13.48300 28.39800
C  -2.16400 14.85600 28.49700
C  -2.05800 11.91100 26.22900
C  -2.47500 12.76200 29.70700
O  -2.69600 11.63100 30.07400
C  -2.60500 13.98500 30.72700
C  -1.47400 13.66200 31.68500
O  -0.20600 13.85200 31.53800
O  -2.03000 13.09100 32.77500
C  -1.17100 12.62200 33.78500
H  -2.80900 20.88500 30.02700
H  -1.88800 20.40000 23.77100
H  -1.63200 13.95500 24.30800
H  -3.43500 16.49000 32.07200
H  -2.54500 19.31300 32.12200
H  -5.04300 17.70600 31.84200
H  -4.99600 18.88300 30.66700
H  -4.91000 19.41900 32.44400
H  -0.56800 16.76500 32.00800
H  -1.54500 15.79800 33.15100
H  -1.56100 18.61200 34.12900
H  0.08100 17.84600 33.81600
H  -2.12700 23.74400 28.31800
H  -3.22400 22.66600 29.21500
H  -3.81200 23.40500 27.73200
H  -2.99200 24.39500 25.94200
H  -1.95600 24.73300 24.60300
H  -1.13900 24.31600 26.17600
H  -0.60400 18.31900 22.28200
H  -1.96300 15.63600 22.54200
H  -2.32100 18.43200 20.90000
H  -3.29000 18.95500 22.17200
H  -3.36200 17.27300 21.79800
H  0.50800 15.87200 21.63400
H  0.50600 14.72500 22.83200
H  0.83700 17.32100 24.10300
H  2.01300 16.93000 22.69000
H  1.89200 15.83900 24.06700
H  -1.38300 12.09500 25.39300
H  -3.06700 11.70200 25.87200
H  -1.83200 11.11500 26.93900
H  -3.54900 14.09500 31.26100
H  -1.74800 11.90300 34.36700
H  -0.97900 13.53200 34.35300
H  -0.20300 12.30500 33.39500
Mg 24.96300 -4.20900 45.45200
C  26.55200 -1.59000 43.78900
C  22.32100 -3.75000 43.27700
C  23.97800 -7.27900 46.28200
C  28.07200 -4.89100 47.22200
N  24.51100 -2.76800 43.78600
C  25.27400 -1.82000 43.28700
C  24.61600 -1.10700 42.11700
C  23.12100 -1.61600 42.15100
C  23.29400 -2.82400 43.12300
C  21.97200 -0.71400 42.73100
C  25.38300 -1.45300 40.76000
C  25.73100 -0.26200 39.78100
H  25.88500 -0.47400 38.29100
N  23.28700 -5.25500 45.05500
C  22.29700 -4.87400 44.15500
C  21.20200 -5.83400 44.24700
C  21.61200 -6.85600 45.06200
C  22.99600 -6.53300 45.53600
C  19.82000 -5.64700 43.54200
C  20.72500 -8.01400 45.46900
O  19.55200 -8.17700 44.94500
C  21.15200 -8.98800 46.47400
N  25.91800 -5.90200 46.65500
C  25.23600 -7.02500 46.79100
C  26.03100 -8.18200 47.43200
C  27.36100 -7.36800 47.75700
C  27.12200 -5.93300 47.21100
C  25.39000 -8.83500 48.65700
C  28.63100 -7.99600 47.08700
C  29.77400 -8.43200 47.95400
N  26.90500 -3.29400 45.64600
C  27.99800 -3.70100 46.38700
C  29.10200 -2.84200 46.03100
C  28.50200 -1.95100 45.11000
C  27.25500 -2.34800 44.79700
C  30.43900 -2.57300 46.72300
C  28.75600 -0.83200 44.25300
O  29.75000 -0.11900 44.22400
C  27.51900 -0.55300 43.37000
C  27.03700 0.82100 43.76700
O  26.22900 1.10600 44.64700
O  27.68200 1.76100 42.94000
C  27.07700 3.10200 42.91500
H  21.52100 -3.65300 42.54100
H  23.67900 -8.31000 46.48200
H  29.00100 -5.32200 47.60100
H  24.68800 -0.04000 42.32900
H  22.62900 -1.97400 41.24600
H  22.29900 0.24100 42.32000
H  21.95800 -0.71300 43.82000
H  21.02400 -0.95100 42.24700
H  24.76600 -2.13100 40.17000
H  26.27200 -2.02700 41.02000
H  26.67200 0.15600 40.13800
H  24.91000 0.44600 39.88900
H  19.59100 -6.53500 42.95200
H  19.98000 -4.87700 42.78800
H  18.97000 -5.35600 44.15900
H  22.03100 -9.58500 46.23000
H  20.27700 -9.63700 46.51000
H  21.32000 -8.57400 47.46800
H  26.26200 -8.91900 46.66200
H  27.50800 -7.13100 48.81100
H  24.33700 -8.55800 48.61100
H  25.97800 -8.51400 49.51700
H  25.47700 -9.91900 48.58000
H  29.01300 -7.27300 46.36700
H  28.21100 -8.82300 46.51400
H  29.47000 -8.56900 48.99200
H  30.53900 -7.65600 47.96800
H  30.13900 -9.41300 47.65000
H  31.11100 -3.43000 46.69800
H  30.27700 -2.14200 47.71000
H  30.87700 -1.71700 46.20900
H  27.90800 -0.52100 42.35300
H  26.02400 3.02900 42.64300
H  27.49500 3.75600 42.15000
H  27.17000 3.63600 43.86000

