158

Mg 1.83200 -2.24400 44.46600
C  5.19500 -1.42800 43.68800
C  0.87100 0.43900 42.53400
C  -1.42200 -3.27300 44.68000
C  2.99300 -5.29000 45.72600
N  2.91500 -0.80000 43.09300
C  4.28600 -0.62100 43.07700
C  4.60500 0.73500 42.40600
C  3.21700 1.31100 42.00600
C  2.30000 0.33500 42.63100
C  3.06600 2.79500 42.59200
C  5.52300 0.42500 41.22200
C  6.77800 1.32600 41.06800
H  6.77700 2.18000 39.72700
N  -0.07000 -1.51200 43.78600
C  -0.20000 -0.42500 42.92700
C  -1.53600 -0.15400 42.70500
C  -2.27300 -1.19200 43.44100
C  -1.21700 -2.08400 43.96100
C  -2.08300 0.99100 41.90500
C  -3.83700 -1.28000 43.56900
O  -4.67300 -0.54100 43.02900
C  -4.34800 -2.15500 44.65900
N  0.89400 -4.09700 45.02700
C  -0.47400 -4.17100 45.15400
C  -0.76900 -5.50500 45.94900
C  0.63000 -6.17700 46.06900
C  1.57900 -5.14400 45.54800
C  -1.51700 -5.34700 47.30200
C  0.78300 -7.50200 45.20500
C  1.42000 -8.71900 45.89600
N  3.67500 -3.19400 44.68600
C  4.01500 -4.40500 45.29800
C  5.47000 -4.52900 45.38500
C  5.96200 -3.35000 44.81100
C  4.84200 -2.66800 44.30500
C  6.22700 -5.68000 45.99300
C  7.16600 -2.62100 44.50800
O  8.35100 -2.84100 44.64600
C  6.70000 -1.33400 43.91000
C  6.98600 -0.11600 44.82000
O  6.33100 0.21600 45.81200
O  8.04400 0.63900 44.29900
C  8.33500 1.90300 45.03100
H  0.52100 1.34500 42.03400
H  -2.43400 -3.63900 44.86500
H  3.47700 -6.10000 46.27500
H  5.06200 1.35000 43.18100
H  2.98900 1.49500 40.95600
H  3.58800 2.86300 43.54600
H  2.04400 2.96800 42.92900
H  3.31200 3.47400 41.77500
H  4.85100 0.36400 40.36600
H  5.84000 -0.61700 41.26100
H  7.72300 0.78400 41.08900
H  6.75500 2.17800 41.74700
H  -3.16300 1.13100 41.94700
H  -1.77700 1.02000 40.85900
H  -1.62100 1.91500 42.25200
H  -5.32600 -1.88400 45.05800
H  -3.71100 -2.18600 45.54200
H  -4.21800 -3.15500 44.24400
H  -1.50100 -6.08400 45.38600
H  0.96000 -6.38000 47.08800
H  -1.18500 -4.39900 47.72400
H  -1.16600 -6.13900 47.96300
H  -2.59100 -5.34800 47.11600
H  1.43400 -7.23800 44.37200
H  -0.16100 -7.81900 44.76200
H  1.24600 -9.59100 45.26500
H  1.02100 -8.76200 46.91000
H  2.47900 -8.57200 46.10500
H  7.23100 -5.30700 46.19500
H  6.36400 -6.47100 45.25500
H  5.85600 -6.03500 46.95400
H  7.27100 -1.27600 42.98300
H  8.91800 1.71400 45.93300
H  7.36700 2.34600 45.26500
H  8.85400 2.66600 44.45100
Mg 48.06100 34.92200 27.49500
C  46.10800 33.30300 29.88900
C  48.11100 37.65100 29.61000
C  49.57800 36.76500 25.07700
C  47.60300 32.32000 25.21600
N  47.31000 35.30600 29.43700
C  46.62100 34.48700 30.36300
C  46.75400 35.01300 31.79100
C  46.95600 36.48800 31.58500
C  47.47600 36.47000 30.07100
C  45.65500 37.29100 31.83000
C  47.89300 34.36600 32.73500
C  47.55800 34.08800 34.23800
H  46.62600 35.01200 34.92700
N  48.74400 36.98500 27.33900
C  48.74500 37.92500 28.37300
C  49.36100 39.11300 27.91100
C  49.76600 38.87400 26.60800
C  49.31900 37.51100 26.24100
C  49.51600 40.36800 28.84800
C  50.53800 39.82500 25.64900
O  50.84900 39.53100 24.48600
C  51.03100 41.15100 26.21200
N  48.52800 34.59100 25.42400
C  49.12200 35.50200 24.64000
C  49.33700 34.91700 23.14600
C  48.92100 33.43700 23.30900
C  48.37100 33.44100 24.76500
C  48.56300 35.66000 22.05100
C  50.11300 32.51900 23.24000
C  50.82000 32.33200 21.92600
N  47.09500 33.13600 27.51800
C  47.03100 32.16200 26.53400
C  46.20200 31.05300 27.05400
C  45.78000 31.51500 28.33400
C  46.35100 32.76300 28.61600
C  45.81800 29.77600 26.25900
C  45.00700 31.11600 29.52000
O  44.44600 30.12400 29.86700
C  45.01200 32.34200 30.50500
C  45.14900 31.86000 31.85800
O  46.05800 31.15000 32.20600
O  44.22600 32.44300 32.63500
C  44.15600 31.94300 34.02600
H  48.08800 38.44100 30.36400
H  50.18500 37.31000 24.35100
H  47.60400 31.50700 24.48800
H  45.79900 34.92000 32.30800
H  47.69500 36.92100 32.25900
H  46.03700 38.17000 32.34700
H  45.01600 36.71100 32.49600
H  45.17100 37.64700 30.92000
H  48.70600 35.09000 32.68400
H  48.23000 33.42200 32.30600
H  48.54700 34.25300 34.66600
H  47.22800 33.05100 34.30500
H  49.40800 40.16800 29.91400
H  48.77800 41.13900 28.62600
H  50.50800 40.82000 28.86100
H  50.14700 41.65200 26.60600
H  51.64200 41.62600 25.44400
H  51.62700 41.00800 27.11300
H  50.40300 34.88100 22.92100
H  48.14200 33.17500 22.59300
H  48.26400 36.66700 22.34100
H  47.66300 35.16000 21.69400
H  49.37200 35.72700 21.32300
H  49.63200 31.55600 23.41400
H  50.77300 32.74800 24.07600
H  50.32600 32.95200 21.17700
H  50.74700 31.31400 21.54300
H  51.89700 32.47300 22.02000
H  46.10300 28.88000 26.81000
H  46.24200 29.76900 25.25500
H  44.73800 29.73700 26.11700
H  44.05700 32.86400 30.45900
H  43.49100 31.08900 34.15500
H  43.72700 32.75100 34.61900
H  45.10200 31.63700 34.47400

