158

Mg 25.40900 1.54400 30.74400
C  27.59300 1.37300 33.45800
C  22.74600 1.97000 33.03500
C  23.21000 1.45500 28.11300
C  28.05800 0.83900 28.63400
N  25.15500 1.63800 32.98500
C  26.21000 1.69800 33.81300
C  25.71600 1.96000 35.22900
C  24.17400 2.13200 35.16500
C  24.00000 2.01700 33.63000
C  23.35000 0.95800 35.80200
C  26.47800 3.15600 35.92800
C  27.34200 2.87900 37.10200
H  27.18600 3.84200 38.27400
N  23.30100 1.65200 30.58500
C  22.39400 1.85000 31.59800
C  21.03300 1.93700 31.10200
C  21.17200 1.83200 29.66200
C  22.57600 1.65700 29.40300
C  19.78500 2.26600 31.91900
C  20.14100 1.85800 28.59700
O  20.26900 1.68700 27.38900
C  18.75100 1.93600 29.02400
N  25.57600 1.09000 28.70900
C  24.57400 1.18800 27.79900
C  25.13500 1.17100 26.34300
C  26.65000 1.09200 26.51200
C  26.83000 1.06600 28.02400
C  24.57800 -0.03100 25.61500
C  27.44600 2.22800 25.84500
C  28.46900 1.65500 24.87700
N  27.40900 1.14000 30.95500
C  28.35500 0.85800 30.00700
C  29.59200 0.56000 30.62000
C  29.28800 0.75300 31.99200
C  27.95800 1.07200 32.13500
C  30.97800 0.22200 30.06200
C  29.96600 0.73400 33.32400
O  31.12700 0.38600 33.56900
C  28.80900 1.10400 34.30700
C  28.67300 0.02900 35.28500
O  27.96800 -0.96500 35.14200
O  29.45000 0.23600 36.36300
C  29.18800 -0.71300 37.48500
H  22.00400 2.47300 33.65900
H  22.63400 1.68900 27.21600
H  28.98700 0.82800 28.05900
H  26.00200 1.02900 35.71900
H  23.92700 3.15000 35.46800
H  22.94700 0.28700 35.04300
H  22.50400 1.40600 36.32300
H  23.93700 0.39700 36.52900
H  25.79200 3.94300 36.24100
H  27.12100 3.56500 35.14900
H  28.36200 2.96000 36.72500
H  27.29100 1.88200 37.53900
H  19.77800 3.35000 32.03900
H  19.89100 1.88500 32.93500
H  18.84700 1.80200 31.61400
H  18.62500 1.01000 29.58500
H  18.13100 1.99700 28.13000
H  18.68300 2.82500 29.65200
H  24.81500 2.06000 25.80000
H  26.97200 0.09600 26.20900
H  24.40800 -0.89100 26.26300
H  25.28900 -0.28200 24.82800
H  23.71700 0.36500 25.07700
H  27.89600 2.78800 26.66500
H  26.79000 2.88400 25.27200
H  28.87800 0.69300 25.18500
H  29.30200 2.32400 25.08900
H  28.16700 1.66200 23.83000
H  31.19600 0.98200 29.31200
H  31.02700 -0.76500 29.60100
H  31.79500 0.18100 30.78300
H  29.21500 2.01700 34.74300
H  28.96200 -1.74800 37.22900
H  28.38100 -0.26400 38.06300
H  30.06200 -0.69400 38.13500
Mg -5.88400 25.33100 25.52800
C  -4.13200 26.88700 28.27900
C  -7.21100 23.21300 27.67700
C  -6.73800 23.53500 22.82100
C  -3.55600 27.22500 23.42400
N  -5.61300 25.03600 27.85800
C  -5.05900 25.91600 28.73600
C  -5.55600 25.73700 30.12200
C  -6.35000 24.39200 29.95100
C  -6.42100 24.18400 28.40800
C  -5.75800 23.25700 30.85400
C  -6.38500 26.92200 30.70000
C  -6.36400 27.10900 32.22100
H  -5.76200 25.99500 33.11000
N  -7.07700 23.74300 25.26500
C  -7.39300 22.86800 26.32600
C  -8.14600 21.81700 25.72800
C  -8.09900 21.86400 24.33800
C  -7.28500 23.05400 24.04800
C  -8.83700 20.76900 26.53700
C  -8.61000 20.99600 23.24700
O  -8.59100 21.26700 22.07600
C  -9.28100 19.68800 23.70400
N  -5.25500 25.40700 23.45300
C  -5.91000 24.61300 22.54100
C  -5.33000 24.88300 21.12600
C  -4.42000 26.15800 21.26100
C  -4.43000 26.29000 22.80500
C  -4.80800 23.69700 20.30600
C  -4.81900 27.36600 20.39100
C  -4.09200 27.53400 19.05500
N  -4.27000 26.89900 25.69200
C  -3.47300 27.55800 24.77900
C  -2.57600 28.45200 25.48300
C  -2.82100 28.22700 26.84000
C  -3.79800 27.31700 26.91700
C  -1.56600 29.42200 24.94400
C  -2.39000 28.54800 28.18600
O  -1.52900 29.36000 28.50400
C  -3.27100 27.64700 29.17300
C  -2.31700 26.75400 29.93600
O  -1.61000 25.85300 29.45600
O  -2.34000 27.09900 31.30400
C  -1.48500 26.33700 32.14100
H  -7.59700 22.58300 28.48000
H  -7.04200 22.94800 21.95100
H  -2.88300 27.70700 22.71300
H  -4.71800 25.56400 30.79700
H  -7.42100 24.54500 30.07700
H  -5.50800 22.42100 30.20100
H  -6.55000 23.07100 31.57900
H  -4.82100 23.54100 31.33400
H  -7.46500 26.78300 30.64200
H  -6.11000 27.85600 30.21000
H  -7.42100 27.14500 32.48400
H  -5.88900 28.07400 32.39600
H  -9.88200 20.87500 26.24400
H  -8.97600 21.01400 27.59000
H  -8.35500 19.80100 26.40000
H  -9.42600 19.12200 22.78400
H  -10.24400 19.92600 24.15600
H  -8.65400 19.23300 24.47100
H  -6.23700 25.10900 20.56600
H  -3.41000 25.81100 21.04400
H  -4.96700 22.74000 20.80300
H  -3.76200 23.70300 20.00200
H  -5.34500 23.71600 19.35800
H  -4.62800 28.32000 20.88300
H  -5.90000 27.42200 20.26400
H  -4.81500 27.67300 18.25100
H  -3.44000 26.67700 18.88400
H  -3.51700 28.43600 19.26500
H  -2.14200 30.22400 24.48200
H  -0.86100 28.83800 24.35200
H  -1.05000 29.85900 25.79900
H  -3.77700 28.34700 29.83700
H  -0.51700 26.43900 31.65000
H  -1.71800 25.27400 32.20200
H  -1.33900 26.78300 33.12500

