158

Mg 1.98900 -1.30700 43.58600
C  5.43700 -1.40300 42.88200
C  1.78700 1.55100 41.76700
C  -1.30300 -1.85300 43.25700
C  2.31900 -4.71900 44.60600
N  3.41000 -0.11800 42.36500
C  4.77000 -0.28500 42.29700
C  5.42000 0.73600 41.26700
C  4.30500 1.84800 41.29700
C  3.10100 1.13000 41.91900
C  4.70200 3.13100 42.09600
C  5.75500 0.12700 39.81600
C  7.03800 0.67500 39.11800
H  6.93500 1.22000 37.71200
N  0.40500 -0.15400 42.82300
C  0.55900 1.01100 42.16000
C  -0.75000 1.64400 41.96900
C  -1.68700 0.54500 42.07500
C  -0.89300 -0.56100 42.66800
C  -0.95700 3.01100 41.37800
C  -3.13600 0.58600 41.70000
O  -3.61900 1.58400 41.18700
C  -3.96700 -0.68200 41.85300
N  0.68800 -3.14200 43.75600
C  -0.65700 -2.88600 43.83700
C  -1.33500 -4.09600 44.43600
C  -0.20000 -5.00900 44.98300
C  1.00500 -4.27200 44.46600
C  -2.45700 -3.82600 45.47500
C  -0.23400 -6.52700 44.41100
C  0.24000 -7.70700 45.31800
N  3.52100 -2.71300 43.93000
C  3.49200 -4.07700 44.19000
C  4.85900 -4.46000 44.52400
C  5.66200 -3.47300 43.96100
C  4.79800 -2.41800 43.64600
C  5.24900 -5.78400 45.11200
C  7.04900 -3.15700 43.55800
O  8.11700 -3.73000 43.74600
C  6.88400 -1.85100 42.70900
C  7.87200 -0.75100 43.27200
O  8.93000 -0.46800 42.78500
O  7.41400 -0.30000 44.40900
C  8.08200 0.80300 45.08800
H  1.77100 2.57600 41.39000
H  -2.37200 -1.98600 43.43000
H  2.34900 -5.70400 45.07700
H  6.41300 0.95600 41.66000
H  4.09800 2.11700 40.26100
H  4.03600 3.35700 42.92900
H  4.57500 3.97900 41.42200
H  5.71700 3.20700 42.48300
H  5.00200 0.42200 39.08500
H  6.03800 -0.92400 39.88000
H  7.80800 -0.09700 39.13800
H  7.51600 1.45500 39.71100
H  -0.17100 3.68500 41.71900
H  -1.87200 3.56000 41.60300
H  -0.80700 2.93100 40.30200
H  -4.94700 -0.36900 41.49300
H  -4.11100 -0.85600 42.91900
H  -3.50800 -1.55600 41.39000
H  -1.75200 -4.65300 43.59700
H  -0.18100 -5.09300 46.06900
H  -2.30800 -2.84700 45.92900
H  -2.48900 -4.56900 46.27200
H  -3.33900 -3.89300 44.83800
H  0.30700 -6.53900 43.46500
H  -1.29100 -6.69700 44.20600
H  -0.58900 -8.38500 45.11600
H  0.11600 -7.47400 46.37600
H  1.20300 -8.04200 44.93400
H  5.13600 -6.51300 44.31000
H  4.74200 -6.07100 46.03300
H  6.30300 -5.90300 45.36500
H  7.29700 -2.03700 41.71700
H  7.85300 1.78000 44.66300
H  9.11800 0.51800 45.27100
H  7.69200 0.90800 46.10100
Mg 9.61700 49.04200 24.11400
C  7.25100 49.70700 26.46900
C  12.13500 50.20500 26.39400
C  12.06500 48.48200 21.80900
C  7.20300 47.97400 21.89500
N  9.65600 50.05100 26.17700
C  8.51400 50.03400 26.97900
C  8.90600 50.46800 28.43800
C  10.38400 51.04900 28.21000
C  10.78000 50.35300 26.85800
C  10.51800 52.57400 28.24800
C  8.69500 49.31300 29.47500
C  9.38500 49.46200 30.88200
H  8.49000 49.55800 32.05200
N  11.76200 49.24500 24.16900
C  12.55300 49.63200 25.22000
C  13.92600 49.69400 24.81000
C  14.01000 49.27600 23.40500
C  12.55800 48.97300 23.07600
C  15.09900 50.04700 25.65700
C  15.20600 49.04300 22.53300
O  15.05500 48.91200 21.31600
C  16.57300 48.90100 23.05600
N  9.59600 48.37400 22.09900
C  10.73600 48.17100 21.40500
C  10.55000 47.56200 20.05000
C  8.94600 47.42100 20.00500
C  8.49600 47.97000 21.40800
C  11.15200 48.35200 18.94000
C  8.60000 45.90800 19.72300
C  8.44300 44.95100 20.92800
N  7.60300 48.87000 24.07900
C  6.72200 48.45100 23.14500
C  5.36900 48.55600 23.68800
C  5.54400 49.06800 24.98700
C  6.91100 49.21600 25.18600
C  4.11300 48.14800 22.96800
C  4.80000 49.47500 26.17300
O  3.60700 49.46100 26.43800
C  5.86100 49.75300 27.19200
C  5.72500 48.64600 28.20500
O  6.20100 47.50300 28.07500
O  5.12900 49.16700 29.34700
C  4.82600 48.15000 30.28200
H  12.80000 50.66200 27.12900
H  12.81400 48.23200 21.05500
H  6.55900 47.49600 21.15300
H  8.31000 51.29600 28.82200
H  11.02400 50.69500 29.01800
H  9.56200 53.09400 28.18700
H  11.25900 52.91100 27.52300
H  10.94800 52.90200 29.19400
H  9.11600 48.46000 28.94300
H  7.62000 49.26000 29.64200
H  10.02600 50.34400 30.86700
H  10.14100 48.67800 30.93000
H  14.82200 50.14400 26.70600
H  15.47200 51.02800 25.36000
H  15.90200 49.31900 25.53900
H  16.54800 48.01000 23.68300
H  16.84900 49.81900 23.57600
H  17.29100 48.74800 22.25000
H  11.11900 46.63900 20.15800
H  8.42400 47.96200 19.21600
H  11.29000 49.34500 19.36600
H  10.31300 48.34200 18.24400
H  12.09300 48.00900 18.51100
H  9.42500 45.50400 19.13500
H  7.67000 45.77900 19.16900
H  8.50200 45.42500 21.90700
H  9.13000 44.10500 20.92900
H  7.40500 44.62100 20.96900
H  3.47800 47.61200 23.67300
H  4.38300 47.38800 22.23500
H  3.54600 48.97200 22.53500
H  5.70900 50.76400 27.57000
H  4.17800 47.42100 29.79600
H  4.23100 48.56200 31.09700
H  5.74600 47.67800 30.62700

