158

Mg 0.16800 7.99800 26.55900
C  0.81900 10.16700 29.32900
C  0.20900 5.30400 29.08600
C  -0.05200 5.71200 24.23600
C  0.63300 10.53400 24.36000
N  0.55400 7.78600 28.94900
C  0.60800 8.85200 29.76300
C  0.38600 8.46100 31.23600
C  0.35200 6.85400 31.16500
C  0.44000 6.59600 29.62600
C  1.36400 6.11500 32.02300
C  -0.92400 9.04800 31.92000
C  -0.77500 9.20000 33.49000
H  -1.46400 8.14900 34.35700
N  0.03300 5.86300 26.65800
C  0.05600 4.96600 27.68400
C  -0.10500 3.68500 27.16900
C  -0.14000 3.70800 25.76700
C  -0.08400 5.15300 25.51100
C  -0.23700 2.44100 27.99300
C  -0.15900 2.57500 24.68700
O  -0.08200 2.78400 23.47000
C  -0.29500 1.23700 25.13300
N  0.40000 8.11400 24.55900
C  0.07200 7.04200 23.85300
C  -0.00400 7.45700 22.32700
C  -0.14400 8.99700 22.41300
C  0.30300 9.29300 23.86600
C  1.27800 6.99800 21.55200
C  -1.49400 9.61800 22.14400
C  -1.53600 10.43100 20.87800
N  0.80400 9.91100 26.69400
C  0.88700 10.83600 25.70200
C  1.24900 12.16600 26.25600
C  1.12500 11.92500 27.65000
C  0.86100 10.55500 27.90500
C  1.46600 13.41600 25.55500
C  1.11400 12.58300 28.90300
O  1.27800 13.76100 29.21900
C  0.89800 11.50400 30.02800
C  2.00400 11.56500 31.05200
O  3.12800 11.20600 30.86500
O  1.48300 11.94300 32.22600
C  2.48300 12.37100 33.28500
H  0.24400 4.47600 29.79700
H  0.01200 5.02700 23.38700
H  0.65100 11.33900 23.62200
H  1.34300 8.75500 31.66700
H  -0.63600 6.66000 31.58200
H  1.67800 6.74300 32.85600
H  2.20700 5.85500 31.38400
H  0.79800 5.27200 32.42000
H  -1.73800 8.35600 31.70900
H  -1.12000 9.98200 31.39300
H  -1.20400 10.15100 33.80500
H  0.29600 9.10800 33.67300
H  -1.08400 1.83700 27.66700
H  -0.60100 2.69200 28.98900
H  0.68700 1.86400 27.95700
H  0.65200 0.95700 25.59400
H  -0.42700 0.64300 24.22900
H  -1.25400 1.07800 25.62500
H  -0.83700 6.94800 21.84300
H  0.54900 9.41900 21.68500
H  1.11700 6.15900 20.87400
H  2.17500 6.82300 22.14600
H  1.48500 7.78200 20.82400
H  -1.76900 10.18000 23.03700
H  -2.27700 8.87900 21.97800
H  -1.26700 9.93100 19.94800
H  -1.01000 11.37900 20.99300
H  -2.55800 10.73300 20.64800
H  2.30800 13.93400 26.01500
H  0.52500 13.94900 25.68600
H  1.69500 13.32100 24.49400
H  -0.01100 11.75400 30.57500
H  2.94000 11.54300 33.82700
H  2.17000 12.97400 34.13800
H  3.28400 12.83900 32.71300
Mg 36.09400 48.83700 24.57400
C  36.52000 47.23700 27.67400
C  34.21700 51.21500 25.99500
C  35.47600 49.85900 21.53000
C  37.86300 45.90800 23.04500
N  35.34200 49.09200 26.61700
C  35.73900 48.42500 27.69600
C  35.26700 49.18200 28.93600
C  34.32500 50.32400 28.42300
C  34.64600 50.22300 26.91600
C  32.82600 50.04700 28.74100
C  36.43200 49.68000 29.85700
C  36.42400 49.13900 31.29600
H  34.97900 49.00300 31.92000
N  35.06000 50.39000 23.88000
C  34.41300 51.33800 24.58800
C  33.93300 52.36300 23.73900
C  34.27500 52.02900 22.43900
C  35.03500 50.73400 22.56200
C  33.50700 53.68200 24.27500
C  34.07200 52.76800 21.12800
O  34.79800 52.46300 20.21400
C  33.14600 53.88300 21.04100
N  36.66500 48.02700 22.63700
C  36.23100 48.68100 21.49400
C  36.74000 48.06800 20.23900
C  37.68300 46.87200 20.68600
C  37.39900 46.95400 22.24800
C  35.58500 47.61300 19.32800
C  39.15600 46.93200 20.29500
C  39.97700 48.09600 20.74300
N  36.90700 46.88700 25.16600
C  37.59000 45.82600 24.42300
C  37.80300 44.74700 25.35000
C  37.50100 45.26100 26.61200
C  36.97600 46.58600 26.45100
C  38.55900 43.48800 25.09900
C  37.61500 45.06600 28.04800
O  38.06100 44.07100 28.65500
C  37.01700 46.27500 28.71900
C  35.83500 45.82300 29.67300
O  34.71500 45.65600 29.25900
O  36.25400 45.48300 30.91300
C  35.24800 44.76100 31.72400
H  33.75400 52.09200 26.45100
H  35.26100 50.09700 20.48600
H  38.46500 45.05200 22.73300
H  34.61700 48.44900 29.41300
H  34.62300 51.24000 28.93400
H  32.55000 49.08000 29.16200
H  32.36700 50.13900 27.75700
H  32.47100 50.83200 29.40800
H  36.57200 50.76100 29.85400
H  37.32500 49.21600 29.43800
H  36.99200 49.91300 31.81100
H  37.04300 48.24500 31.37600
H  33.94300 54.40400 23.58500
H  33.74500 53.92300 25.31200
H  32.42900 53.75800 24.13700
H  32.23400 53.78500 21.62900
H  32.80300 53.77000 20.01300
H  33.61800 54.85100 21.20600
H  37.32600 48.72900 19.60000
H  37.28500 45.90100 20.39200
H  34.64100 47.83800 19.82300
H  35.67500 46.53700 19.18200
H  35.52900 47.95800 18.29600
H  39.19400 46.93900 19.20500
H  39.69700 46.01300 20.51700
H  40.76600 47.73900 21.40500
H  39.36500 48.78400 21.32700
H  40.43800 48.66100 19.93300
H  39.62000 43.62600 24.89000
H  38.11300 42.93600 24.27200
H  38.43300 42.88000 25.99500
H  37.80300 46.73600 29.31600
H  35.34500 45.28800 32.67300
H  35.52100 43.70700 31.77800
H  34.18000 44.81900 31.51700

