158

Mg 46.22600 44.23300 43.51400
C  42.97200 43.42600 43.54000
C  47.13200 40.99700 42.64100
C  49.35300 45.38000 42.50500
C  45.43500 47.62800 44.16200
N  45.13300 42.48000 43.02200
C  43.82600 42.30600 43.17100
C  43.39500 40.91900 42.80200
C  44.71600 40.11800 42.86400
C  45.78800 41.27200 42.85800
C  44.91000 39.07300 44.07600
C  42.39000 40.82400 41.54800
C  42.76100 41.83700 40.39700
H  42.30800 41.61900 38.95200
N  47.97500 43.31200 42.78800
C  48.13700 42.02100 42.55400
C  49.48900 41.75300 42.03200
C  50.19300 42.96900 42.12800
C  49.17200 44.01100 42.44500
C  49.96900 40.35200 41.56400
C  51.69100 43.20200 41.96900
O  52.49800 42.31600 41.77600
C  52.38300 44.54500 41.97400
N  47.19500 46.30200 43.15600
C  48.49200 46.45200 42.79200
C  48.93600 47.97400 42.77900
C  47.74800 48.70700 43.50100
C  46.76200 47.48100 43.70500
C  50.29100 48.20900 43.47100
C  47.16800 50.02700 42.77500
C  47.13200 51.35600 43.54500
N  44.54900 45.34600 43.94700
C  44.34000 46.66200 44.17500
C  42.89200 46.89600 44.43300
C  42.34500 45.61600 44.19300
C  43.37600 44.72100 43.88000
C  42.29000 48.27000 44.67600
C  41.16000 44.88300 44.14800
O  40.01300 45.28500 44.32400
C  41.44500 43.35900 43.74400
C  41.02800 42.57700 44.93000
O  40.23600 41.59600 44.87400
O  41.74500 42.95000 46.07800
C  41.20300 42.46700 47.34300
H  47.36400 39.93900 42.50200
H  50.27700 45.54800 41.94600
H  45.18700 48.67400 44.35300
H  42.76300 40.61000 43.63600
H  44.86300 39.52200 41.96400
H  45.73500 39.29500 44.75200
H  45.04500 38.07400 43.66300
H  43.93000 38.98700 44.54500
H  41.32600 40.73000 41.76500
H  42.45900 39.86100 41.04200
H  43.83800 41.98100 40.48500
H  42.18600 42.74100 40.59600
H  49.95800 39.67900 42.42100
H  50.98300 40.51600 41.19700
H  49.35500 40.04300 40.71900
H  52.01700 45.14500 42.80700
H  52.08200 45.11400 41.09500
H  53.47200 44.49800 42.01000
H  48.82300 48.18400 41.71600
H  48.16200 48.97100 44.47500
H  50.57800 47.34100 44.06300
H  50.37700 49.18200 43.95500
H  51.14300 48.20900 42.79100
H  46.14200 49.85500 42.44900
H  47.80600 50.24200 41.91800
H  47.50900 52.16100 42.91400
H  47.75400 51.26300 44.43600
H  46.11200 51.66800 43.77000
H  42.16300 48.74300 43.70200
H  42.84800 49.00600 45.25500
H  41.30700 48.10900 45.11800
H  40.93700 43.02000 42.84100
H  41.85900 42.83300 48.13300
H  41.09300 41.38200 47.33600
H  40.20900 42.85800 47.56100
Mg 8.56200 48.48900 25.25000
C  6.33100 48.55600 28.11900
C  11.00000 49.40100 27.43400
C  10.44000 48.40500 22.68000
C  5.60200 48.15200 23.24200
N  8.59100 48.92600 27.59100
C  7.64800 48.73100 28.52700
C  8.14100 49.28100 29.90000
C  9.55600 49.96500 29.53900
C  9.76500 49.31400 28.10200
C  9.68800 51.53100 29.62800
C  8.22300 48.18200 30.93400
C  7.58100 48.62100 32.22900
H  7.55400 47.61200 33.42400
N  10.51900 48.60600 25.07900
C  11.36700 49.04600 26.07600
C  12.73400 49.18400 25.49600
C  12.61500 48.82900 24.14500
C  11.18100 48.55500 23.91300
C  13.93800 49.74400 26.30100
C  13.67800 48.72000 23.13500
O  13.36700 48.43000 21.98900
C  15.07400 49.03900 23.37300
N  8.04300 48.24000 23.21000
C  9.06100 48.17000 22.36600
C  8.51900 47.91900 20.87900
C  7.02200 47.47800 21.22800
C  6.82500 47.91000 22.63700
C  8.70400 49.10500 19.90200
C  6.83600 45.91800 21.06900
C  5.69900 45.52200 20.09600
N  6.48200 48.50400 25.51100
C  5.46100 48.29500 24.64400
C  4.18500 48.30800 25.34800
C  4.52200 48.34900 26.65100
C  5.91300 48.48900 26.76000
C  2.86500 48.13100 24.75900
C  3.85800 48.43100 27.94000
O  2.68400 48.33000 28.25800
C  5.07300 48.54900 29.00700
C  4.86100 47.36200 29.94100
O  5.48800 46.30400 29.82000
O  3.97000 47.62600 30.95100
C  3.84300 46.60700 32.00100
H  11.77200 49.70100 28.14600
H  11.03800 48.51700 21.77300
H  4.70800 48.18100 22.61600
H  7.39400 50.03900 30.13400
H  10.38700 49.60600 30.14500
H  8.76600 52.10800 29.69500
H  10.27800 51.93600 28.80500
H  10.25900 51.75000 30.53000
H  9.26300 48.05200 31.23400
H  7.72800 47.34900 30.43600
H  6.54700 48.82000 31.94500
H  7.95800 49.61400 32.47200
H  13.68400 49.97100 27.33600
H  14.20800 50.65100 25.76000
H  14.72600 48.99200 26.25200
H  15.24200 50.08800 23.61800
H  15.63400 48.71800 22.49500
H  15.44800 48.42400 24.19100
H  9.15600 47.10900 20.52500
H  6.35900 48.10000 20.62600
H  8.97900 50.07000 20.33000
H  7.79600 49.18300 19.30400
H  9.52700 48.77500 19.26800
H  6.63100 45.51700 22.06200
H  7.72700 45.46500 20.63500
H  5.63600 46.35600 19.39700
H  4.76000 45.41500 20.64000
H  5.81900 44.52400 19.67500
H  2.45700 47.18700 25.11900
H  2.77600 48.14800 23.67200
H  2.29400 48.96100 25.17400
H  4.97900 49.48300 29.56100
H  4.41100 45.68100 31.91100
H  2.77000 46.42400 32.05900
H  4.11000 47.08400 32.94400

