158

Mg 40.13100 9.78100 29.07700
C  42.23800 10.68700 31.75400
C  37.92500 8.54700 31.22000
C  38.26500 8.81000 26.44800
C  42.66500 10.79300 26.91100
N  40.21400 9.55400 31.22000
C  40.97600 10.18700 32.10700
C  40.40600 10.13900 33.57100
C  39.05100 9.38100 33.32200
C  39.04900 9.07200 31.81800
C  38.96300 8.06600 34.11200
C  40.27900 11.51500 34.31300
C  39.46300 11.45300 35.63900
H  40.34800 11.72700 36.87400
N  38.28400 8.82200 28.88900
C  37.54500 8.37300 29.87200
C  36.47200 7.56100 29.33000
C  36.54400 7.72300 27.97600
C  37.72600 8.46000 27.72100
C  35.46000 6.78900 30.19300
C  35.58400 7.23400 26.92700
O  35.83600 7.21600 25.72900
C  34.33800 6.60600 27.35100
N  40.44600 9.60000 26.91900
C  39.55100 9.28700 26.04200
C  39.99900 9.45400 24.55700
C  41.27700 10.34300 24.79900
C  41.51300 10.23800 26.30000
C  40.32300 8.06400 23.96000
C  41.18200 11.77200 24.18700
C  39.83900 12.56700 24.48400
N  42.10500 10.54200 29.22800
C  42.97500 10.98800 28.28000
C  44.14200 11.67100 28.93100
C  43.81500 11.58800 30.28000
C  42.60500 10.88000 30.39800
C  45.29100 12.24800 28.25700
C  44.32200 11.95200 31.56100
O  45.35800 12.52000 31.87300
C  43.24000 11.48800 32.57600
C  43.83100 10.54100 33.53700
O  44.26400 9.41700 33.33200
O  43.85100 11.03700 34.83800
C  43.91800 10.03300 35.92500
H  37.22800 8.08000 31.91900
H  37.60000 8.60300 25.60700
H  43.32000 11.15800 26.11700
H  41.02900 9.53600 34.23200
H  38.24900 10.02300 33.68700
H  39.75600 7.89100 34.84000
H  39.14000 7.22900 33.43600
H  37.92300 7.95600 34.41800
H  39.84800 12.34300 33.75000
H  41.29000 11.87000 34.51300
H  38.87500 10.53900 35.73200
H  38.72700 12.25400 35.57400
H  34.43600 7.16100 30.21500
H  35.85400 6.72900 31.20700
H  35.43400 5.75400 29.85100
H  33.76000 7.31100 27.94800
H  34.48200 5.71800 27.96700
H  33.65500 6.35300 26.54000
H  39.25900 9.97700 23.95200
H  42.15900 9.81300 24.43900
H  39.66900 7.85600 23.11300
H  40.31000 7.19700 24.62100
H  41.38900 7.96200 23.75900
H  41.40900 11.68100 23.12500
H  41.98200 12.31900 24.68500
H  39.29700 12.77300 23.56100
H  39.93400 13.58700 24.85600
H  39.20000 12.00200 25.16300
H  45.00800 12.79800 27.35900
H  46.01600 11.44000 28.16100
H  45.46400 13.04300 28.98200
H  42.80200 12.41500 32.94800
H  44.86200 9.49000 35.89100
H  43.17200 9.29500 35.63000
H  43.64000 10.41000 36.90900
Mg -5.68600 24.26200 25.54900
C  -4.23000 26.03800 28.18700
C  -7.54600 22.47300 27.83700
C  -6.79700 22.39000 22.97200
C  -3.85400 26.24900 23.28600
N  -5.78100 24.26900 27.70300
C  -5.15700 25.08800 28.59900
C  -5.64400 24.79900 30.12900
C  -6.20500 23.31000 29.94600
C  -6.56100 23.35300 28.40000
C  -5.25900 22.14100 30.33000
C  -6.71300 25.83700 30.58500
C  -6.58400 26.41500 31.95300
H  -5.92800 25.50400 32.98600
N  -7.05400 22.66300 25.43000
C  -7.78600 22.08200 26.48500
C  -8.63800 21.02200 25.96500
C  -8.54800 21.11500 24.52900
C  -7.45300 22.05900 24.25100
C  -9.44800 20.24800 26.87600
C  -9.32200 20.42800 23.39100
O  -9.14700 20.64400 22.20400
C  -10.46400 19.43300 23.72900
N  -5.42300 24.33900 23.49200
C  -5.99700 23.39700 22.66000
C  -5.55200 23.68300 21.14100
C  -5.10800 25.09300 21.29700
C  -4.70800 25.22100 22.75700
C  -4.43500 22.71000 20.68000
C  -6.07600 26.23700 20.92300
C  -5.50000 27.16400 19.87100
N  -4.30000 25.87200 25.64100
C  -3.67900 26.56900 24.66800
C  -2.70100 27.47300 25.31300
C  -2.91300 27.33700 26.65800
C  -3.88500 26.31400 26.85400
C  -1.68900 28.25300 24.53000
C  -2.53700 27.90900 28.00900
O  -1.90400 28.86600 28.37200
C  -3.42400 27.01500 29.06500
C  -2.46900 26.32900 29.95900
O  -1.88700 25.27400 29.69200
O  -2.30500 27.08300 31.13300
C  -1.36900 26.56100 32.16300
H  -8.10500 21.91900 28.59400
H  -7.08500 21.85400 22.06500
H  -3.25600 26.82400 22.57600
H  -4.82800 24.75200 30.85000
H  -7.18200 23.13300 30.39600
H  -4.30000 22.48900 30.71500
H  -5.04200 21.61800 29.39900
H  -5.82300 21.52300 31.02900
H  -7.74200 25.49700 30.47300
H  -6.60900 26.69300 29.91800
H  -7.63700 26.50200 32.22200
H  -6.02000 27.34700 31.90400
H  -9.11700 19.23300 27.09700
H  -10.49600 20.16900 26.59000
H  -9.46300 20.70100 27.86700
H  -11.28300 20.01500 24.15000
H  -9.95700 18.72100 24.38000
H  -10.81300 18.92900 22.82800
H  -6.47800 23.56400 20.58000
H  -4.19700 25.30400 20.73600
H  -4.88900 22.33600 19.76200
H  -4.21400 21.94900 21.42800
H  -3.48200 23.18100 20.43700
H  -6.35500 26.81800 21.80200
H  -7.02600 25.78200 20.64300
H  -4.70900 27.75600 20.33300
H  -6.25000 27.88600 19.54900
H  -5.07400 26.76900 18.94900
H  -0.93400 27.62800 24.05300
H  -1.20000 28.88600 25.27100
H  -2.12000 28.92800 23.79000
H  -4.00800 27.61000 29.76700
H  -1.78000 26.81700 33.13900
H  -0.40900 27.05700 32.02100
H  -1.19300 25.49800 31.99700

