158

Mg -2.34800 16.60300 25.91700
C  -2.90400 14.60600 28.81800
C  -3.34900 19.38100 27.84500
C  -2.53300 18.50300 23.14700
C  -2.08400 13.77400 24.04900
N  -3.01800 16.92500 28.12800
C  -3.16400 15.97900 29.09200
C  -3.60000 16.62600 30.41200
C  -4.11800 18.04500 29.92000
C  -3.48900 18.13600 28.49100
C  -5.64600 18.10900 29.90600
C  -2.43700 16.74400 31.45400
C  -2.89800 17.17800 32.82600
H  -2.77300 16.00400 33.86700
N  -2.67100 18.64800 25.56300
C  -2.79100 19.66200 26.53600
C  -2.56000 20.93000 25.93400
C  -2.41400 20.69700 24.49800
C  -2.57000 19.22500 24.30400
C  -2.52800 22.24300 26.80000
C  -2.08400 21.66600 23.38500
O  -2.08400 21.44000 22.21400
C  -1.96100 23.10100 23.77700
N  -2.50200 16.17300 23.91300
C  -2.48800 17.12500 22.90000
C  -2.35500 16.50200 21.47800
C  -1.90800 14.98800 21.84500
C  -2.19900 14.93700 23.36100
C  -3.64300 16.65700 20.60400
C  -0.51300 14.55700 21.56000
C  0.57000 15.12200 22.45300
N  -2.38900 14.61600 26.34300
C  -2.24000 13.51200 25.43000
C  -2.35400 12.33900 26.06500
C  -2.54000 12.67000 27.43200
C  -2.55800 14.08600 27.51600
C  -2.14500 10.99400 25.45200
C  -2.69700 12.07500 28.74200
O  -2.53100 10.93200 29.14800
C  -3.05300 13.35800 29.68200
C  -2.11400 13.38600 30.82900
O  -0.96400 13.83700 30.87100
O  -2.61000 12.56900 31.83000
C  -1.91900 12.21400 33.08400
H  -3.74700 20.23200 28.40100
H  -2.34300 18.99500 22.19000
H  -1.98400 12.87400 23.44000
H  -4.38200 16.01600 30.86600
H  -3.69700 18.90300 30.44500
H  -5.90100 18.44800 28.90200
H  -6.04200 18.81800 30.63300
H  -6.12500 17.14100 30.05400
H  -1.71300 17.46000 31.06700
H  -1.96700 15.76200 31.50700
H  -3.94300 17.48200 32.77000
H  -2.31700 18.04900 33.13100
H  -2.59500 22.09700 27.87800
H  -3.43400 22.75700 26.47700
H  -1.66200 22.82200 26.47800
H  -1.90400 23.70300 22.87000
H  -0.99800 23.20700 24.27800
H  -2.75400 23.50600 24.40500
H  -1.55600 16.93300 20.87600
H  -2.61700 14.30700 21.37500
H  -4.27700 15.78500 20.76200
H  -3.39600 16.73800 19.54600
H  -4.14100 17.61500 20.75600
H  -0.41000 14.84600 20.51400
H  -0.54800 13.49500 21.31700
H  0.15600 15.63500 23.32100
H  1.12600 15.85600 21.87000
H  1.21500 14.32600 22.82700
H  -2.06600 10.21800 26.21300
H  -1.21700 10.96200 24.88100
H  -2.94700 10.72500 24.76400
H  -4.03000 13.37200 30.16300
H  -1.13500 12.97000 33.11000
H  -1.41900 11.24800 33.01100
H  -2.67800 12.36800 33.85200
Mg 25.66900 -0.42600 29.45500
C  27.43900 -0.18800 32.60100
C  22.75700 0.04200 31.18400
C  24.24900 -0.92100 26.56600
C  28.91100 -0.63300 27.99000
N  25.20200 0.06200 31.60400
C  26.06700 0.15700 32.68700
C  25.22700 0.46800 33.99500
C  23.75300 0.37400 33.55800
C  23.91300 0.09700 32.01600
C  22.82200 -0.51900 34.36300
C  25.60700 1.85500 34.60200
C  26.37200 1.83700 35.98100
H  25.83800 2.83400 36.94700
N  23.82900 -0.33400 28.93400
C  22.70100 -0.29500 29.77400
C  21.51700 -0.35800 28.93200
C  21.97400 -0.62800 27.63100
C  23.40500 -0.64100 27.68900
C  20.06800 -0.04400 29.43800
C  21.18100 -0.80500 26.31100
O  21.68700 -0.87200 25.18400
C  19.69800 -1.09400 26.41000
N  26.45700 -0.73500 27.58600
C  25.67700 -0.86500 26.57400
C  26.48500 -1.01300 25.25400
C  27.91700 -0.61400 25.68500
C  27.78800 -0.73000 27.16800
C  26.45700 -2.38200 24.51700
C  28.22600 0.81600 25.30900
C  27.28800 1.84200 25.95600
N  27.77200 -0.57400 30.16400
C  28.95600 -0.57600 29.42400
C  30.05400 -0.63200 30.34200
C  29.56000 -0.44600 31.66900
C  28.14100 -0.39700 31.46200
C  31.52100 -0.66500 29.93800
C  29.88400 -0.31800 33.00100
O  30.92600 -0.27400 33.61800
C  28.49500 -0.09800 33.62500
C  28.22800 -1.03700 34.72300
O  27.62000 -2.13600 34.65500
O  28.78700 -0.61900 35.95600
C  28.79900 -1.32000 37.19800
H  21.80100 0.22700 31.67700
H  23.90500 -1.09600 25.54400
H  29.86500 -0.73900 27.47000
H  25.51300 -0.32700 34.68300
H  23.39800 1.40200 33.62900
H  21.93800 0.06800 34.61400
H  23.30000 -0.85500 35.28300
H  22.47200 -1.35200 33.75300
H  24.76300 2.53800 34.70500
H  26.30700 2.32800 33.91300
H  27.40600 2.15900 35.86000
H  26.38300 0.80800 36.34200
H  19.54000 -0.99500 29.36200
H  19.65200 0.72300 28.78500
H  20.08500 0.30200 30.47200
H  19.51200 -1.90600 27.11300
H  19.24200 -1.40300 25.46900
H  19.12500 -0.21800 26.71300
H  26.13700 -0.21800 24.59500
H  28.67600 -1.32800 25.36500
H  26.80300 -3.22300 25.11700
H  27.30400 -2.41700 23.83100
H  25.52800 -2.57000 23.97900
H  28.19500 0.93200 24.22600
H  29.23900 1.07000 25.62000
H  27.66500 2.11900 26.94100
H  26.28900 1.41000 26.01500
H  27.28800 2.71500 25.30300
H  32.10500 -0.06400 30.63500
H  31.66400 -0.32900 28.91100
H  31.70300 -1.73100 30.07600
H  28.48000 0.90400 34.05200
H  29.50700 -2.11700 36.97000
H  27.81100 -1.77300 37.28100
H  29.08200 -0.57200 37.93900

