158

Mg -10.14500 40.06000 43.56000
C  -8.94600 36.98100 42.41500
C  -7.35600 41.50700 42.11500
C  -11.50600 43.18900 43.97400
C  -13.24800 38.52900 44.31000
N  -8.35300 39.29400 42.47400
C  -7.99000 37.95600 42.20100
C  -6.67200 37.84900 41.46900
C  -6.05600 39.26400 41.73500
C  -7.28400 40.11600 42.13000
C  -4.84300 39.26300 42.79500
C  -6.84600 37.47700 39.98000
C  -5.82400 36.42600 39.35000
H  -4.76700 36.94300 38.26700
N  -9.43300 42.05100 43.16100
C  -8.28300 42.42200 42.56500
C  -8.14300 43.83300 42.39700
C  -9.33900 44.37800 43.02900
C  -10.21300 43.23300 43.42000
C  -6.96700 44.50600 41.74900
C  -9.61700 45.87100 43.12600
O  -8.83800 46.71000 42.65200
C  -10.90600 46.43300 43.73600
N  -12.00300 40.73200 44.26600
C  -12.33700 42.06200 44.29900
C  -13.88500 42.17200 44.56700
C  -14.24500 40.76000 45.09100
C  -13.12500 39.94000 44.49900
C  -14.20000 43.31700 45.53300
C  -15.66500 40.36400 44.59300
C  -15.82200 39.95600 43.09700
N  -10.94600 38.13200 43.55100
C  -12.22600 37.66300 43.79700
C  -12.32700 36.23800 43.50300
C  -11.05700 35.99200 43.01000
C  -10.25100 37.14400 42.97700
C  -13.57100 35.42600 43.53400
C  -10.26800 34.94400 42.49700
O  -10.60700 33.68900 42.37600
C  -8.85400 35.53700 41.99700
C  -7.71300 34.75600 42.53900
O  -7.33800 34.57400 43.71800
O  -7.05200 34.16200 41.56200
C  -6.29300 33.00600 41.94500
H  -6.38900 41.97300 41.91500
H  -12.04600 44.13800 43.95000
H  -14.14800 37.97700 44.59000
H  -5.96400 37.09600 41.81400
H  -5.63100 39.57600 40.78200
H  -5.10800 38.53400 43.56000
H  -4.83300 40.25700 43.24300
H  -3.91900 39.06900 42.24800
H  -6.73400 38.42800 39.45900
H  -7.85900 37.10900 39.81900
H  -6.51300 35.70600 38.90900
H  -5.17300 35.87400 40.02800
H  -7.10100 45.52900 41.39800
H  -6.54500 44.07100 40.84300
H  -6.11800 44.62300 42.42300
H  -11.81600 46.19600 43.18500
H  -10.90900 47.51300 43.87700
H  -10.97700 46.12000 44.77800
H  -14.26100 42.37100 43.56400
H  -14.08800 40.60400 46.15800
H  -13.33300 43.91500 45.81400
H  -14.73600 42.89700 46.38500
H  -14.88200 44.03000 45.07100
H  -16.37400 41.13600 44.89300
H  -16.07200 39.47900 45.08100
H  -16.01400 40.89300 42.57500
H  -16.49200 39.09600 43.06800
H  -14.88000 39.52500 42.75800
H  -13.39700 34.35400 43.43700
H  -14.15100 35.70000 42.65300
H  -14.12500 35.48200 44.47100
H  -8.76900 35.52400 40.91100
H  -6.93400 32.44100 42.62200
H  -5.36500 33.23100 42.46900
H  -6.08100 32.48500 41.01200
Mg -2.43800 35.42800 26.25200
C  -3.69600 33.51500 28.91400
C  -1.18100 37.72700 28.54900
C  -1.22100 37.21600 23.75000
C  -3.86100 33.16300 24.09100
N  -2.47500 35.58700 28.46400
C  -3.01900 34.67700 29.32600
C  -2.83200 35.08600 30.82000
C  -1.92500 36.42100 30.62400
C  -1.85800 36.61400 29.12100
C  -2.31600 37.67200 31.39300
C  -2.28100 34.02500 31.79500
C  -1.25500 34.43300 32.82700
H  -1.21500 33.59700 34.10900
N  -1.28400 37.21400 26.13000
C  -0.83300 37.92900 27.20200
C  -0.02900 39.04300 26.72600
C  -0.01000 38.95000 25.26300
C  -0.79300 37.69400 25.00300
C  0.69700 40.01800 27.68200
C  0.69800 39.80900 24.15000
O  0.58800 39.58000 22.97400
C  1.49600 40.93800 24.61700
N  -2.83300 35.44700 24.23700
C  -2.13000 36.28400 23.44800
C  -2.45000 35.99000 22.02800
C  -3.01700 34.57200 22.05100
C  -3.25000 34.27800 23.53400
C  -3.36200 37.11500 21.55100
C  -2.09800 33.47800 21.32300
C  -0.64700 33.32700 21.81800
N  -3.60600 33.71800 26.41600
C  -4.10300 32.86000 25.42100
C  -4.79100 31.75400 25.99300
C  -4.64700 31.97500 27.37600
C  -3.88700 33.16100 27.58300
C  -5.31400 30.55700 25.25100
C  -4.95900 31.44700 28.62000
O  -5.68000 30.49100 28.89300
C  -4.30900 32.42200 29.66800
C  -5.43800 32.87900 30.59600
O  -6.39700 33.56500 30.25300
O  -5.24400 32.28700 31.84000
C  -6.31800 32.57600 32.82600
H  -0.76600 38.31700 29.36900
H  -0.83600 37.70800 22.85400
H  -4.23600 32.44000 23.36400
H  -3.76000 35.45600 31.25400
H  -0.96200 36.11100 31.03100
H  -3.10200 37.53000 32.13500
H  -2.50100 38.52600 30.74100
H  -1.54700 37.93300 32.11900
H  -1.75400 33.20300 31.31100
H  -3.17000 33.60300 32.26400
H  -1.46900 35.46900 33.08800
H  -0.30800 34.16600 32.35600
H  -0.08200 40.78000 27.67100
H  1.70800 40.28700 27.37500
H  0.81300 39.49500 28.63200
H  0.84900 41.57300 25.22200
H  1.87700 41.54800 23.79800
H  2.38200 40.55300 25.12300
H  -1.54900 36.07600 21.42200
H  -3.99600 34.46400 21.58400
H  -4.42500 36.89100 21.46000
H  -3.07500 37.44100 20.55100
H  -3.22500 38.03300 22.12300
H  -1.93600 33.72400 20.27300
H  -2.54000 32.49100 21.45200
H  -0.39200 34.15400 22.48000
H  0.09300 33.36800 21.01900
H  -0.47600 32.38300 22.33400
H  -5.41200 29.70000 25.91700
H  -4.57500 30.22800 24.52100
H  -6.17900 30.77300 24.62300
H  -3.61600 31.75800 30.18400
H  -5.87500 33.25500 33.55400
H  -6.61100 31.56700 33.11800
H  -7.18700 33.17200 32.54700

