158

Mg 30.92000 58.23400 40.06000
C  28.15800 56.52400 38.87400
C  32.90700 55.59700 39.13500
C  33.52300 60.24200 40.47300
C  28.86100 61.19600 40.24800
N  30.59500 56.28900 38.97400
C  29.38100 55.74800 38.78200
C  29.48600 54.18300 38.45600
C  31.05700 53.87200 38.74500
C  31.61500 55.36400 38.96800
C  31.15300 52.92200 39.91500
C  29.00600 53.75300 37.01100
C  29.73100 54.53500 35.82700
H  28.75600 55.36300 34.96000
N  32.92400 57.93200 39.89900
C  33.53100 56.81900 39.52200
C  34.96200 57.03800 39.51200
C  35.20700 58.35900 39.87300
C  33.89300 58.90100 40.16600
C  36.05000 56.01800 39.29800
C  36.60300 59.01100 39.97900
O  37.58500 58.34000 39.67100
C  36.82900 60.35700 40.52400
N  31.14300 60.48600 40.37600
C  32.38000 60.99500 40.56500
C  32.31600 62.49900 40.95500
C  30.75900 62.80400 40.75200
C  30.19800 61.40600 40.53200
C  32.93500 62.89900 42.34500
C  30.39500 63.75000 39.58700
C  30.32600 65.26500 39.79300
N  28.88600 58.75300 39.83400
C  28.28700 59.95500 39.88000
C  26.92700 59.75200 39.66600
C  26.77700 58.42500 39.34500
C  28.04700 57.86400 39.28500
C  25.79300 60.78600 39.68400
C  25.86100 57.32500 38.94800
O  24.61600 57.28200 38.78900
C  26.74200 56.05800 38.77100
C  26.51800 54.94700 39.76000
O  27.17500 54.71200 40.79600
O  25.56100 54.06400 39.27200
C  25.21400 52.98500 40.20700
H  33.47300 54.66700 39.04100
H  34.40200 60.86000 40.66600
H  28.18600 62.05200 40.30800
H  28.89900 53.66700 39.21500
H  31.61000 53.41400 37.92600
H  30.19300 52.69200 40.37700
H  31.62600 53.49900 40.71000
H  31.67500 52.00100 39.65300
H  27.94100 53.77700 36.78000
H  29.34300 52.72400 36.88700
H  30.22700 53.83700 35.15300
H  30.37100 55.28600 36.29000
H  36.73600 56.35600 38.52100
H  35.72300 54.97900 39.25600
H  36.66700 56.04100 40.19600
H  36.31600 60.55000 41.46600
H  36.60000 61.04600 39.71100
H  37.89900 60.42300 40.72000
H  32.79500 63.16300 40.23600
H  30.38200 63.25200 41.67200
H  32.21400 62.98600 43.15800
H  33.62800 63.73400 42.24800
H  33.59100 62.07000 42.61000
H  29.48100 63.43500 39.08400
H  31.09300 63.53300 38.77900
H  29.50400 65.71200 39.23400
H  31.23600 65.73900 39.42400
H  30.06800 65.44900 40.83600
H  26.20700 61.75300 39.39800
H  25.38300 60.86300 40.69100
H  25.08500 60.45400 38.92500
H  26.55000 55.69300 37.76200
H  24.40600 53.36100 40.83500
H  26.05900 52.63900 40.80300
H  24.94500 52.17500 39.52900
Mg -10.39200 17.49200 40.96000
C  -6.69400 17.52700 40.62800
C  -10.17700 20.80600 40.25500
C  -13.64400 17.35200 40.21600
C  -10.21800 13.97400 41.07600
N  -8.56200 18.97100 40.59200
C  -7.22900 18.81200 40.49600
C  -6.51300 20.14100 40.13100
C  -7.57800 21.19500 40.50000
C  -8.87400 20.27000 40.47400
C  -7.39700 21.85700 41.86600
C  -5.98300 20.18200 38.62100
C  -4.55700 19.88500 38.37400
H  -4.33300 18.90600 37.29300
N  -11.76100 18.87600 40.42600
C  -11.50700 20.21600 40.17800
C  -12.72600 20.87500 39.88400
C  -13.76600 19.89300 39.87100
C  -13.06700 18.61200 40.12000
C  -12.66100 22.36800 39.44300
C  -15.26800 20.18700 39.61500
O  -15.69200 21.30200 39.55800
C  -16.28300 19.07500 39.60600
N  -11.78300 15.82500 40.73500
C  -13.06000 16.08700 40.52600
C  -13.84600 14.74800 40.43100
C  -12.72800 13.70800 40.82500
C  -11.45600 14.52700 40.83000
C  -15.09000 14.71300 41.28000
C  -12.52900 12.58800 39.74700
C  -13.74000 11.66800 39.51200
N  -8.82800 16.03500 40.99300
C  -9.00100 14.63100 41.07000
C  -7.67600 13.98000 41.10100
C  -6.73600 15.06900 41.05000
C  -7.52100 16.30000 40.87300
C  -7.30800 12.47400 41.15500
C  -5.31200 15.52000 41.17800
O  -4.34500 14.90700 41.53000
C  -5.23900 17.08100 40.85400
C  -4.50900 17.86200 41.81700
O  -3.45300 18.45100 41.60700
O  -5.18800 17.80500 43.02100
C  -4.59000 18.50100 44.21100
H  -10.11900 21.89000 40.38100
H  -14.70500 17.31100 39.96200
H  -10.14200 12.88500 41.10500
H  -5.64400 20.25300 40.77900
H  -7.75500 21.96400 39.74800
H  -6.43200 21.61900 42.31400
H  -8.27800 21.68200 42.48300
H  -7.28300 22.93400 41.74600
H  -6.10200 21.23300 38.35900
H  -6.65700 19.55300 38.04000
H  -3.99400 19.39700 39.17000
H  -3.98500 20.75100 38.04100
H  -13.63200 22.77100 39.15500
H  -12.01300 22.61000 38.60000
H  -12.26200 22.95100 40.27200
H  -16.02700 18.54500 38.68800
H  -17.23700 19.58900 39.49200
H  -16.14800 18.49700 40.51900
H  -14.11000 14.72700 39.37300
H  -12.92400 13.26500 41.80100
H  -15.96700 14.72400 40.63300
H  -15.04100 15.58700 41.93000
H  -15.17300 13.75100 41.78700
H  -11.71600 11.91600 40.02200
H  -12.29000 13.06900 38.79900
H  -13.98400 11.63000 38.45000
H  -14.62600 11.89900 40.10300
H  -13.60900 10.63300 39.82900
H  -6.89700 12.04300 40.24200
H  -8.17100 11.86900 41.43500
H  -6.55300 12.29500 41.92000
H  -4.79300 17.16000 39.86300
H  -5.41500 18.51700 44.92300
H  -4.05200 19.41300 43.95600
H  -3.77500 17.91900 44.64300

