158

Mg 8.47800 4.04100 27.19700
C  9.43500 2.21200 30.15900
C  6.27800 5.81400 29.24900
C  7.40200 5.35400 24.43600
C  10.30100 1.70600 25.40500
N  7.99500 4.03700 29.47200
C  8.56100 3.26300 30.43900
C  8.25800 3.79900 31.82500
C  7.08700 4.82300 31.55700
C  7.02900 4.88800 29.96000
C  5.73800 4.62200 32.23500
C  9.44800 4.52100 32.41100
C  10.07700 3.87700 33.62500
H  10.37200 4.76100 34.81500
N  7.14100 5.46400 26.91900
C  6.30500 6.05200 27.85300
C  5.63200 7.13600 27.16700
C  6.04700 7.11800 25.82000
C  6.91600 5.92900 25.67000
C  4.62400 8.01100 27.86200
C  5.75800 8.19900 24.71900
O  6.22800 8.14200 23.57100
C  4.73800 9.30500 24.86200
N  8.77200 3.51700 25.18400
C  8.27500 4.29600 24.20300
C  8.80000 3.91100 22.77600
C  9.79800 2.76000 23.15900
C  9.65700 2.70400 24.65100
C  7.77000 3.64100 21.67200
C  11.29500 2.92900 22.73000
C  12.01000 1.84000 21.83300
N  9.52100 2.21100 27.60400
C  10.32200 1.41500 26.77900
C  11.16800 0.56000 27.50800
C  10.81000 0.82700 28.88200
C  9.84500 1.86300 28.82500
C  12.14400 -0.41100 26.84000
C  11.00600 0.49800 30.30300
O  11.67600 -0.35300 30.83900
C  10.20900 1.40400 31.11200
C  9.31300 0.69100 32.08000
O  8.18300 0.42100 31.98100
O  10.05000 0.43400 33.17800
C  9.20000 0.06000 34.35500
H  5.76000 6.43800 29.98000
H  7.10000 5.82900 23.50000
H  10.91100 0.99500 24.84500
H  7.82800 3.08800 32.53000
H  7.37000 5.83000 31.86300
H  5.79000 3.79800 32.94800
H  4.91500 4.38700 31.56000
H  5.39900 5.58000 32.62900
H  9.23700 5.57000 32.62100
H  10.16400 4.56900 31.59000
H  11.03200 3.53500 33.22900
H  9.52000 3.03900 34.04400
H  4.40700 7.65000 28.86700
H  3.64600 7.99900 27.38100
H  4.92800 9.05700 27.83400
H  4.54300 9.91000 23.97600
H  5.32400 9.99100 25.47300
H  3.80100 9.12400 25.39000
H  9.43000 4.74300 22.46300
H  9.38700 1.86300 22.69600
H  6.76100 3.64800 22.08500
H  7.77100 2.60700 21.32700
H  7.89300 4.33200 20.83800
H  11.94500 2.99100 23.60200
H  11.34800 3.87300 22.18800
H  12.74500 2.25300 21.14200
H  11.26500 1.34300 21.21300
H  12.38800 1.00400 22.42100
H  12.69400 -0.02300 25.98300
H  11.53400 -1.26500 26.54700
H  12.81500 -0.90100 27.54600
H  10.80800 2.06400 31.74000
H  8.54300 0.87100 34.67000
H  9.86100 -0.36900 35.10700
H  8.53100 -0.76500 34.10700
Mg -10.91700 16.82700 40.90100
C  -7.43600 16.29500 40.47800
C  -10.30300 20.15200 39.98400
C  -14.22400 17.48800 40.73200
C  -11.38200 13.44600 40.81200
N  -9.08400 18.07700 40.27500
C  -7.74300 17.64900 40.35200
C  -6.74900 18.81400 40.13100
C  -7.72400 20.05800 40.45900
C  -9.12500 19.42400 40.20800
C  -7.48400 20.72300 41.86300
C  -6.21000 18.78200 38.71900
C  -4.67100 18.53500 38.45500
H  -4.32700 17.72200 37.20200
N  -12.13100 18.64900 40.52200
C  -11.70000 19.79300 40.03600
C  -12.76000 20.70600 39.69100
C  -13.91700 19.99900 40.09000
C  -13.45500 18.65300 40.44800
C  -12.54100 22.18000 39.22900
C  -15.31500 20.59100 40.10000
O  -15.46000 21.80200 39.85500
C  -16.57800 19.81000 40.40300
N  -12.57400 15.64700 40.81600
C  -13.82900 16.17300 40.84100
C  -14.82400 14.93000 40.98600
C  -13.88600 13.68400 40.62000
C  -12.52800 14.24400 40.79800
C  -15.50400 14.98700 42.37100
C  -14.11000 13.20900 39.14800
C  -14.18800 14.13000 37.98000
N  -9.68200 15.18800 40.85000
C  -10.01600 13.84700 40.84800
C  -8.84300 12.98500 40.69900
C  -7.83000 13.95900 40.55600
C  -8.40000 15.27700 40.64700
C  -8.90400 11.51200 40.75600
C  -6.42300 14.11700 40.39700
O  -5.59700 13.29300 40.02800
C  -6.10300 15.56400 40.43000
C  -5.18400 15.78500 41.57900
O  -4.27800 16.59900 41.52300
O  -5.45000 14.91600 42.65900
C  -4.37200 14.91200 43.74800
H  -10.12300 21.18200 39.66800
H  -15.30200 17.48900 40.55900
H  -11.60700 12.38700 40.67300
H  -5.91200 18.87700 40.82600
H  -7.55500 20.85300 39.73400
H  -6.86700 20.04500 42.45200
H  -8.46900 20.52900 42.28700
H  -7.08000 21.73500 41.89000
H  -6.59700 19.70800 38.29300
H  -6.71200 17.97100 38.19200
H  -4.21900 18.10100 39.34800
H  -4.24900 19.53700 38.37500
H  -11.71900 22.23300 38.51500
H  -12.21100 22.76500 40.08800
H  -13.50400 22.54100 38.86700
H  -16.71700 19.16400 39.53600
H  -17.42200 20.49700 40.46800
H  -16.41100 19.28000 41.34100
H  -15.63600 14.92700 40.25900
H  -14.08200 12.76800 41.17800
H  -16.57100 15.19200 42.27400
H  -15.00800 15.87400 42.76500
H  -15.22300 14.15200 43.01300
H  -14.86900 12.42600 39.14600
H  -13.21600 12.62400 38.92900
H  -13.26600 14.23800 37.40900
H  -14.49700 15.14500 38.22900
H  -15.02400 13.73600 37.40100
H  -8.02500 10.91600 40.51100
H  -9.72400 11.09600 40.17000
H  -8.99600 11.23300 41.80600
H  -5.46300 15.78700 39.57600
H  -4.83300 14.87000 44.73500
H  -3.84900 15.86600 43.82100
H  -3.73500 14.04200 43.58900

