158

Mg 35.23700 1.02900 29.58500
C  33.23900 2.48900 32.06600
C  37.83200 0.97600 32.03700
C  37.18500 -0.23100 27.30300
C  32.60700 1.52400 27.27200
N  35.57100 1.94900 31.80500
C  34.51700 2.22500 32.60200
C  35.03300 2.31800 34.04600
C  36.59300 2.06700 33.93600
C  36.66900 1.59500 32.52200
C  37.61400 3.17600 34.28900
C  34.23800 1.45400 35.03700
C  34.13100 1.88200 36.53500
H  34.52900 3.26400 37.01900
N  37.34200 0.48600 29.62600
C  38.12600 0.39000 30.71400
C  39.40200 0.01700 30.21400
C  39.26100 -0.37000 28.87400
C  37.89100 -0.06100 28.55600
C  40.61500 0.06600 31.09800
C  40.26800 -0.73200 27.86000
O  40.00800 -0.84000 26.70500
C  41.64800 -1.01600 28.25800
N  34.98400 0.82200 27.55100
C  35.94600 0.18900 26.83600
C  35.42000 -0.02600 25.36500
C  34.03100 0.48600 25.38100
C  33.83600 0.90900 26.83800
C  36.33700 0.63000 24.29800
C  32.92600 -0.51600 24.95600
C  32.52000 -1.57500 26.01300
N  33.36700 1.90700 29.53300
C  32.37200 2.03000 28.59100
C  31.23600 2.69100 29.09700
C  31.52800 2.88500 30.50900
C  32.85200 2.40600 30.70200
C  29.89500 2.97000 28.34700
C  30.97000 3.27100 31.74100
O  29.83500 3.55900 32.11300
C  32.01600 2.97000 32.88000
C  32.18700 4.29900 33.61700
O  32.81900 5.23400 33.13700
O  31.38200 4.22400 34.74400
C  31.32300 5.46200 35.46200
H  38.55800 0.75800 32.82300
H  37.65600 -0.82500 26.51700
H  31.86100 1.64100 26.48300
H  34.75200 3.35400 34.23600
H  36.85100 1.20600 34.55300
H  38.60100 3.03200 33.85000
H  37.78700 3.14000 35.36500
H  37.12900 4.12900 34.07600
H  34.68200 0.45900 35.00300
H  33.28100 1.42700 34.51600
H  34.51800 1.18500 37.27900
H  33.07800 1.78500 36.79900
H  40.50100 0.74700 31.94100
H  41.42500 0.60000 30.60200
H  40.99200 -0.93100 31.32500
H  42.20500 -0.11400 28.51300
H  42.12700 -1.40000 27.35700
H  41.58600 -1.77100 29.04100
H  35.36000 -1.09200 25.14600
H  33.84500 1.35900 24.75600
H  36.65200 -0.14200 23.59600
H  37.24600 0.90100 24.83600
H  36.01500 1.52100 23.76000
H  33.37000 -0.97200 24.07100
H  32.04800 0.05000 24.64300
H  32.43000 -2.50600 25.45300
H  31.53500 -1.32700 26.40900
H  33.13100 -1.65200 26.91300
H  29.69700 2.29700 27.51200
H  29.82900 3.95000 27.87400
H  29.03300 2.79400 28.99100
H  31.68500 2.18400 33.55800
H  30.48100 6.07800 35.14400
H  32.22900 6.06400 35.39000
H  31.33000 5.22300 36.52500
Mg -4.82400 24.85700 26.56700
C  -3.12400 26.41700 29.20400
C  -6.36500 22.79600 28.97900
C  -6.79700 23.50200 24.13400
C  -3.15200 26.64000 24.31200
N  -4.77600 24.67600 28.79900
C  -4.11100 25.52000 29.66100
C  -4.35200 25.15000 31.18300
C  -5.22300 23.82400 31.01700
C  -5.50000 23.75700 29.51800
C  -4.49400 22.56700 31.55200
C  -5.08300 26.45200 31.78700
C  -5.98000 26.17000 33.00500
H  -5.47000 25.08100 33.98700
N  -6.29400 23.24200 26.53600
C  -6.72800 22.48700 27.60500
C  -7.71200 21.51400 27.07300
C  -7.96500 21.89200 25.75700
C  -6.98500 22.85300 25.43300
C  -8.37000 20.43100 27.96500
C  -9.08800 21.36200 24.80400
O  -9.17500 21.73900 23.62400
C  -10.06900 20.31000 25.25700
N  -4.89300 24.91700 24.43200
C  -5.89600 24.40100 23.63000
C  -5.75100 24.77300 22.13000
C  -4.67600 25.86500 22.28000
C  -4.21100 25.82300 23.81100
C  -5.45200 23.57500 21.19600
C  -5.03500 27.26600 21.69200
C  -5.26200 27.41700 20.15200
N  -3.39400 26.21600 26.68400
C  -2.75700 26.81000 25.66100
C  -1.67300 27.61800 26.14000
C  -1.78300 27.50900 27.52900
C  -2.89800 26.71900 27.82500
C  -0.75500 28.38000 25.34700
C  -1.26300 27.94800 28.76800
O  -0.27400 28.69500 28.81300
C  -2.17000 27.30400 29.96300
C  -1.28900 26.53600 30.89900
O  -0.55300 25.60400 30.56300
O  -1.33700 26.94300 32.14600
C  -0.36200 26.47100 33.13900
H  -6.87200 22.25300 29.77900
H  -7.35200 23.15000 23.26200
H  -2.54600 27.19900 23.59600
H  -3.42600 24.90700 31.70300
H  -6.17600 23.79100 31.54300
H  -3.45800 22.48600 31.22400
H  -4.98300 21.62300 31.31400
H  -4.47400 22.64300 32.63900
H  -5.77700 26.89700 31.07500
H  -4.40800 27.27900 32.00800
H  -7.01000 25.97500 32.70600
H  -5.94400 27.03800 33.66300
H  -8.36800 19.50700 27.38700
H  -9.32700 20.79200 28.34100
H  -7.70700 20.23900 28.80800
H  -10.83100 20.11800 24.50300
H  -10.69700 20.50600 26.12600
H  -9.57900 19.35900 25.46900
H  -6.68300 25.27000 21.86100
H  -3.85100 25.55500 21.63900
H  -4.90300 22.79800 21.72800
H  -4.86300 23.93700 20.35300
H  -6.37400 23.17000 20.77800
H  -4.23700 27.97200 21.92200
H  -5.96700 27.57200 22.16800
H  -6.29200 27.71100 19.95000
H  -5.10100 26.44600 19.68500
H  -4.56000 28.20000 19.86700
H  -1.22300 29.09500 24.67100
H  -0.09900 27.87500 24.63800
H  -0.24800 29.00700 26.08100
H  -2.73300 28.01900 30.56200
H  0.59300 26.26500 32.65500
H  -0.72200 25.59100 33.67200
H  -0.18100 27.40000 33.67900

