158

Mg 8.31700 3.35000 27.82800
C  9.75900 1.87900 30.44700
C  6.39900 5.32900 29.78500
C  6.87500 4.75900 24.97600
C  9.94300 1.10900 25.61000
N  7.96500 3.45600 29.89300
C  8.80100 2.93400 30.85100
C  8.57400 3.46900 32.28300
C  7.44600 4.50700 32.04700
C  7.19100 4.43000 30.47800
C  6.11800 4.34700 32.85900
C  9.88900 3.94400 32.94600
C  9.67900 4.90100 34.01900
H  10.65000 4.76100 35.23000
N  6.74700 4.71300 27.47100
C  6.07300 5.41100 28.40500
C  5.18000 6.29500 27.77600
C  5.33200 6.22900 26.34800
C  6.33100 5.19800 26.19900
C  4.33600 7.33800 28.54000
C  4.63300 6.92700 25.23700
O  4.91400 6.71800 24.04800
C  3.38700 7.70000 25.53100
N  8.46000 2.97500 25.58700
C  7.67500 3.65600 24.70000
C  7.89400 3.09900 23.25600
C  9.01600 2.00000 23.43900
C  9.16600 2.02000 24.91400
C  6.60100 2.53300 22.55300
C  10.43200 2.54800 22.93600
C  10.57800 2.08100 21.51200
N  9.49300 1.79500 27.94300
C  10.16200 0.97200 27.01700
C  10.95800 -0.04100 27.66300
C  10.85300 0.33500 29.03200
C  9.94800 1.43400 29.11400
C  11.58200 -1.25600 27.08500
C  11.31000 -0.00000 30.39000
O  12.07700 -0.85200 30.78600
C  10.68400 1.02300 31.29900
C  9.99300 0.37300 32.45400
O  8.95500 -0.22300 32.40900
O  10.69900 0.53700 33.60300
C  9.95300 0.08700 34.83200
H  6.00600 6.13400 30.41000
H  6.42000 5.09300 24.04100
H  10.53900 0.60200 24.84800
H  8.19300 2.66600 32.91400
H  7.82400 5.51000 32.24800
H  5.27500 4.09400 32.21500
H  5.85000 5.28000 33.35500
H  6.23600 3.63900 33.68000
H  10.53700 4.46000 32.23700
H  10.45700 3.12800 33.39400
H  8.64200 4.85000 34.34900
H  9.74700 5.95700 33.75600
H  4.43600 8.35000 28.14700
H  4.51600 7.42900 29.61100
H  3.35400 6.90900 28.34200
H  2.96200 7.95300 24.56000
H  3.72700 8.61100 26.02200
H  2.72700 7.08200 26.13900
H  8.23500 3.81400 22.50700
H  8.70900 0.99800 23.13800
H  6.72200 1.54400 22.11100
H  6.18200 3.14900 21.75800
H  5.81000 2.55600 23.30200
H  11.15800 1.97000 23.50900
H  10.71000 3.59900 23.01700
H  9.69200 1.48800 21.28600
H  11.41300 1.38100 21.51400
H  10.76200 2.95500 20.88700
H  11.36200 -2.07400 27.77100
H  12.62900 -0.99400 26.93000
H  11.14200 -1.36500 26.09400
H  11.42900 1.71400 31.69300
H  9.31800 -0.79700 34.76200
H  9.18900 0.84400 35.00800
H  10.65900 0.00700 35.65800
Mg 24.82800 -6.79100 47.28300
C  27.23900 -4.51900 46.16600
C  22.74600 -5.61100 44.86700
C  22.99200 -9.51600 47.75800
C  27.40300 -8.33300 49.31600
N  25.04600 -5.37100 45.59400
C  26.02700 -4.43600 45.46600
C  25.73800 -3.41800 44.38000
C  24.22500 -3.54700 44.26800
C  23.98000 -4.90000 44.88600
C  23.40000 -2.47300 45.09500
C  26.44100 -3.72900 43.05800
C  27.33200 -2.70000 42.34300
H  27.06700 -2.32700 40.81400
N  23.05900 -7.44600 46.57200
C  22.35000 -6.79200 45.56200
C  21.05500 -7.43700 45.51600
C  21.06300 -8.58600 46.38500
C  22.39100 -8.56500 46.98100
C  19.87800 -6.95900 44.64100
C  19.91600 -9.47800 46.69400
O  18.76800 -9.27800 46.12600
C  20.04300 -10.43200 47.76900
N  25.06400 -8.48300 48.58500
C  24.11700 -9.53300 48.41600
C  24.37000 -10.59500 49.49200
C  25.81500 -10.27600 49.99000
C  26.13800 -8.97800 49.24100
C  23.26400 -10.62500 50.60900
C  26.79300 -11.50300 49.84100
C  28.04000 -11.47400 50.70800
N  26.90800 -6.42700 47.85100
C  27.77900 -7.13600 48.65000
C  29.05100 -6.50900 48.59700
C  28.83900 -5.45300 47.64200
C  27.56700 -5.45800 47.18700
C  30.27000 -6.78700 49.46600
C  29.53300 -4.36700 47.00800
O  30.63500 -3.90900 47.16000
C  28.51200 -3.72800 45.98300
C  28.35300 -2.30600 46.28800
O  27.63400 -1.87400 47.19400
O  28.83700 -1.63000 45.21900
C  28.50000 -0.19000 45.36900
H  22.03000 -5.12400 44.20300
H  22.61400 -10.54000 47.76000
H  28.28100 -8.78600 49.78000
H  26.01600 -2.40500 44.66900
H  23.83800 -3.42900 43.25600
H  23.00400 -2.92700 46.00400
H  22.52100 -2.14800 44.53800
H  23.95600 -1.58700 45.40300
H  25.61700 -4.06700 42.42900
H  27.20900 -4.48100 43.23800
H  28.35200 -3.08400 42.34700
H  27.34100 -1.77600 42.92200
H  19.78000 -7.70900 43.85600
H  20.06900 -5.96900 44.22700
H  18.96300 -6.76300 45.20000
H  20.65900 -11.24400 47.38100
H  19.06100 -10.87900 47.92500
H  20.41900 -9.92400 48.65600
H  24.18200 -11.56600 49.03400
H  25.90100 -10.00000 51.04100
H  22.39000 -10.08200 50.24700
H  23.58000 -10.26900 51.59000
H  22.93200 -11.61900 50.90700
H  27.18800 -11.38100 48.83200
H  26.32700 -12.48800 49.88800
H  28.94400 -11.38300 50.10700
H  28.00400 -12.31200 51.40500
H  27.96300 -10.58000 51.32600
H  30.97500 -5.97300 49.63700
H  30.85900 -7.61900 49.08000
H  30.05000 -7.12200 50.48000
H  29.14100 -3.81700 45.09700
H  27.45600 -0.03600 45.64200
H  28.57100 0.22200 44.36200
H  29.10400 0.32500 46.11600

