158

Mg -1.98100 16.98000 27.23700
C  -2.51500 14.86800 29.93500
C  -2.64300 19.61500 29.18700
C  -1.85900 18.95500 24.36300
C  -2.14000 14.16300 25.03100
N  -2.46800 17.22700 29.29200
C  -2.48100 16.21400 30.24900
C  -2.63400 16.84700 31.73300
C  -2.75100 18.40800 31.44500
C  -2.73600 18.42700 29.86500
C  -4.04600 19.07300 31.94600
C  -1.51200 16.31000 32.70100
C  -1.18000 17.29300 33.86000
H  -0.41300 16.68100 35.07100
N  -2.17900 18.99300 26.84500
C  -2.41000 19.93900 27.82300
C  -2.23600 21.28500 27.22300
C  -2.02200 21.11100 25.81000
C  -1.96600 19.60400 25.60700
C  -2.44900 22.59900 28.00300
C  -1.75000 22.20500 24.84200
O  -1.42800 21.97600 23.73700
C  -1.69700 23.72800 25.26400
N  -2.09500 16.61800 25.01500
C  -1.92200 17.62300 24.07100
C  -2.05000 17.12500 22.61000
C  -1.99100 15.59100 22.81600
C  -2.04100 15.43200 24.34300
C  -3.34100 17.63300 21.81800
C  -0.69900 14.88100 22.16600
C  0.70500 15.23900 22.65300
N  -2.14500 14.90600 27.37600
C  -2.20100 13.88900 26.45600
C  -2.38700 12.66700 27.11300
C  -2.54600 12.90400 28.49200
C  -2.33900 14.31800 28.57400
C  -2.54500 11.33900 26.38900
C  -2.70900 12.33700 29.81600
O  -2.85600 11.18000 30.15500
C  -2.76900 13.61900 30.82800
C  -1.64900 13.31000 31.85000
O  -0.45900 13.57100 31.64400
O  -2.04100 12.82300 33.08800
C  -1.08400 12.75600 34.23600
H  -2.65600 20.43900 29.90300
H  -1.85600 19.63400 23.50800
H  -2.31000 13.26900 24.42900
H  -3.56300 16.42200 32.11300
H  -1.83600 18.90900 31.76300
H  -3.68900 19.91400 32.54100
H  -4.66400 18.38700 32.52400
H  -4.73600 19.46300 31.19700
H  -0.59100 16.08500 32.16500
H  -1.85300 15.44200 33.26500
H  -2.01500 17.94900 34.10500
H  -0.48500 17.98700 33.38500
H  -1.71600 23.37500 27.78100
H  -2.45300 22.35400 29.06500
H  -3.42800 22.96700 27.69600
H  -1.77000 24.39600 24.40600
H  -0.74200 23.90000 25.76000
H  -2.56300 23.97700 25.87700
H  -1.11500 17.33900 22.09200
H  -2.90700 15.14200 22.43100
H  -3.89100 18.12600 22.62000
H  -3.88800 16.79800 21.38100
H  -3.09600 18.28000 20.97500
H  -0.89800 15.12000 21.12200
H  -0.93400 13.81600 22.16100
H  0.68700 16.15700 23.24000
H  1.47400 15.25300 21.88000
H  1.08400 14.43800 23.28700
H  -2.73600 11.51100 25.33000
H  -3.21000 10.62300 26.87200
H  -1.55900 10.87500 26.38100
H  -3.66200 13.61300 31.45400
H  -0.53800 13.69800 34.30200
H  -0.33400 11.98400 34.06800
H  -1.52900 12.50300 35.19800
Mg 30.76000 57.84500 39.43100
C  27.77100 55.94700 38.66500
C  32.60400 55.14700 38.60500
C  33.37100 59.79900 39.81400
C  28.59900 60.61100 40.00200
N  30.16600 55.83800 38.58700
C  28.91500 55.25200 38.47300
C  29.07300 53.72400 38.29700
C  30.62600 53.49200 38.32500
C  31.18600 54.91600 38.60200
C  31.21600 52.50300 39.35000
C  28.49800 53.10500 36.91500
C  29.06300 53.78700 35.63300
H  28.08500 54.21200 34.54200
N  32.75600 57.52700 39.27700
C  33.30400 56.32600 39.01400
C  34.69400 56.45400 39.18900
C  34.96700 57.80300 39.49300
C  33.67700 58.47600 39.52400
C  35.60700 55.33300 38.88800
C  36.37900 58.45500 39.68400
O  37.37300 57.78700 39.50300
C  36.57800 59.89000 39.95700
N  30.95400 59.94800 39.68600
C  32.17900 60.53500 39.80600
C  32.00100 62.08800 39.77400
C  30.50100 62.20800 40.21500
C  29.97100 60.79100 39.97500
C  33.04900 62.87700 40.70100
C  29.77500 63.31100 39.32600
C  28.81000 64.22900 40.13500
N  28.63000 58.31700 39.33600
C  27.96300 59.40200 39.77900
C  26.48600 59.10100 39.67200
C  26.38700 57.76000 39.34700
C  27.70200 57.33200 39.13000
C  25.42600 60.15600 39.83300
C  25.44000 56.67900 39.12200
O  24.24500 56.61100 39.18500
C  26.34400 55.40100 38.68300
C  26.24500 54.42300 39.87100
O  27.07000 54.29800 40.80800
O  25.14600 53.62800 39.69700
C  24.93200 52.51400 40.61000
H  33.26000 54.32200 38.31800
H  34.16200 60.54200 39.93400
H  28.02600 61.52600 40.16300
H  28.70400 53.15100 39.14800
H  31.05400 53.22100 37.36000
H  31.37000 53.04100 40.28600
H  32.18200 52.21000 38.94100
H  30.64700 51.59300 39.54200
H  27.42200 52.96600 37.01800
H  28.88900 52.08900 36.86600
H  29.68100 53.06600 35.09700
H  29.69300 54.62700 35.92500
H  35.67400 55.01900 37.84600
H  35.27200 54.54600 39.56400
H  36.65800 55.48800 39.13100
H  37.61400 60.03500 39.65100
H  36.52800 60.06700 41.03200
H  36.05900 60.54200 39.25500
H  31.98700 62.49800 38.76400
H  30.51400 62.52000 41.25900
H  33.44200 62.21800 41.47500
H  32.46300 63.59400 41.27600
H  33.88000 63.39100 40.21700
H  29.11800 62.82600 38.60400
H  30.37500 63.90900 38.64000
H  29.04700 65.28700 40.02400
H  28.87700 63.92000 41.17800
H  27.79400 64.19000 39.74200
H  24.39000 59.82100 39.89500
H  25.57100 60.86100 39.01500
H  25.78100 60.63000 40.74800
H  26.03800 54.86400 37.78500
H  24.52600 52.83700 41.56800
H  25.88500 52.02000 40.79800
H  24.31700 51.77000 40.10300

