158

Mg 1.52400 -1.94300 44.16900
C  4.92100 -1.05900 43.70500
C  0.75300 1.06500 42.60500
C  -1.61000 -3.04700 43.94400
C  2.65600 -5.19700 44.98000
N  2.69000 -0.17900 43.27700
C  4.10500 -0.03200 43.23900
C  4.54600 1.26700 42.58900
C  3.15900 2.06100 42.51300
C  2.08000 0.95400 42.84500
C  2.93600 3.33100 43.36200
C  5.18800 0.96500 41.26500
C  6.64100 1.55700 41.11500
H  6.64800 2.54400 39.90800
N  -0.19800 -1.15700 43.34800
C  -0.31700 0.10300 42.73600
C  -1.61400 0.27500 42.17200
C  -2.41600 -0.90000 42.51700
C  -1.44300 -1.78100 43.31600
C  -1.94900 1.35700 41.23500
C  -3.80700 -1.15900 42.10500
O  -4.35500 -0.22800 41.48400
C  -4.49900 -2.46500 42.45300
N  0.71300 -3.84100 44.39200
C  -0.68000 -3.99500 44.42400
C  -1.14700 -5.48400 44.66500
C  0.27000 -6.11700 44.88500
C  1.27000 -4.96400 44.84400
C  -2.06400 -5.72500 45.93200
C  0.46200 -7.26600 43.80200
C  0.01100 -8.69200 44.23800
N  3.43700 -2.96100 44.52400
C  3.75500 -4.25800 44.83200
C  5.17800 -4.39700 44.89400
C  5.62800 -3.14500 44.62900
C  4.55200 -2.32700 44.26300
C  5.80600 -5.70600 45.20700
C  6.81900 -2.44000 44.48000
O  7.98400 -2.79600 44.70300
C  6.40600 -1.01700 43.96300
C  6.78000 0.09600 44.88600
O  6.10600 0.43800 45.78400
O  7.91000 0.76200 44.47900
C  8.37600 2.02100 45.17800
H  0.62200 2.06100 42.17700
H  -2.68100 -3.25100 43.88300
H  3.01200 -6.17500 45.31000
H  5.22200 1.81200 43.24800
H  2.85400 2.37800 41.51500
H  3.97600 3.62700 43.50500
H  2.47900 3.15800 44.33600
H  2.45000 4.18300 42.88700
H  4.57900 1.34000 40.44200
H  5.21300 -0.09200 40.99900
H  7.35100 0.74100 40.98000
H  6.89900 2.04800 42.05400
H  -2.30200 0.95400 40.28600
H  -1.13300 2.00700 40.91800
H  -2.67700 1.98700 41.74600
H  -5.45200 -2.54600 41.93100
H  -4.63900 -2.54900 43.53000
H  -3.92900 -3.28600 42.01700
H  -1.57400 -5.73700 43.69500
H  0.42400 -6.63800 45.83000
H  -3.09100 -5.53500 45.62200
H  -1.64800 -5.04500 46.67500
H  -2.08100 -6.71100 46.39500
H  1.51300 -7.28900 43.51500
H  -0.00900 -6.90000 42.89000
H  -0.71100 -9.07900 43.51900
H  -0.46100 -8.67500 45.22000
H  0.86100 -9.37000 44.31400
H  5.58200 -6.36300 44.36700
H  5.47500 -6.08200 46.17500
H  6.85300 -5.48200 45.41100
H  6.92700 -0.85600 43.01900
H  8.18900 2.94800 44.63700
H  9.45500 2.06300 45.32600
H  7.88400 2.07900 46.14900
Mg 24.12100 -6.03000 46.08300
C  26.24700 -3.69100 44.39500
C  21.61000 -4.88800 43.96900
C  22.38000 -8.82700 46.74600
C  26.99900 -7.44100 47.54900
N  23.95100 -4.50100 44.53600
C  24.92100 -3.65200 43.96500
C  24.39700 -2.63400 43.00500
C  22.84500 -2.82200 43.10700
C  22.77400 -4.19300 43.91100
C  22.17700 -1.65300 43.79800
C  24.84800 -2.86800 41.55800
C  25.29600 -1.62700 40.79200
H  24.54900 -1.28500 39.44400
N  22.18700 -6.78100 45.44700
C  21.34200 -6.14200 44.60600
C  20.03900 -6.90300 44.59300
C  20.22600 -8.07800 45.43600
C  21.66100 -7.90900 45.96100
C  18.95900 -6.35000 43.82000
C  19.23000 -9.19000 45.79600
O  18.12000 -9.09100 45.31000
C  19.41900 -10.35700 46.66600
N  24.60800 -7.87400 47.04900
C  23.73000 -8.89400 47.21500
C  24.25400 -10.04800 48.12900
C  25.68000 -9.44200 48.47200
C  25.79000 -8.19100 47.61300
C  23.42800 -10.44900 49.41700
C  26.86300 -10.42100 48.37300
C  27.98500 -10.40200 49.45200
N  26.20900 -5.57100 46.19400
C  27.21200 -6.29300 46.75500
C  28.40300 -5.50700 46.63300
C  28.13400 -4.55800 45.64900
C  26.78300 -4.66200 45.36800
C  29.73400 -5.81500 47.20300
C  28.67100 -3.53000 44.79000
O  29.79100 -3.05900 44.63100
C  27.42600 -2.91000 43.97300
C  27.29700 -1.49000 44.31200
O  26.99200 -1.08700 45.42700
O  27.56400 -0.69700 43.18600
C  27.56200 0.76700 43.45600
H  20.85600 -4.43500 43.32200
H  21.70000 -9.67600 46.84200
H  27.84400 -7.75300 48.16600
H  24.64100 -1.63900 43.37900
H  22.44300 -2.99200 42.10800
H  22.25500 -0.78700 43.14100
H  22.45900 -1.47000 44.83500
H  21.09700 -1.79500 43.82200
H  24.19000 -3.54700 41.01600
H  25.82600 -3.32800 41.41700
H  26.37200 -1.52900 40.64700
H  25.20100 -0.76200 41.44800
H  19.41500 -6.21000 42.84000
H  18.60700 -5.38700 44.18800
H  18.12000 -7.01400 43.61100
H  18.46200 -10.87800 46.69600
H  19.52200 -9.97900 47.68300
H  20.18700 -11.00200 46.23800
H  24.47200 -10.90600 47.49300
H  25.59700 -9.07100 49.49300
H  22.43700 -9.99800 49.47300
H  23.92400 -10.50400 50.38600
H  23.19300 -11.48000 49.15300
H  27.30400 -10.22400 47.39600
H  26.35900 -11.38600 48.43600
H  28.89700 -10.28800 48.86600
H  27.97000 -11.39700 49.89500
H  27.79000 -9.67400 50.24000
H  29.84400 -6.90000 47.22500
H  29.65600 -5.38600 48.20100
H  30.44600 -5.19600 46.65600
H  27.57300 -3.08800 42.90800
H  28.28300 1.08200 44.21000
H  26.53300 0.94500 43.76900
H  27.74700 1.23900 42.49200

