158

Mg -0.23600 7.66900 27.12300
C  0.88300 9.95000 29.53200
C  -0.41700 5.15900 29.32700
C  -1.06800 5.55600 24.61200
C  0.61600 10.11400 24.58900
N  0.07200 7.58500 29.17500
C  0.50100 8.67700 29.98500
C  0.27900 8.28200 31.46400
C  0.09900 6.69300 31.31600
C  -0.10900 6.44700 29.86300
C  1.16600 5.85900 32.01000
C  -0.97100 9.03200 32.11700
C  -1.03300 9.11100 33.69900
H  0.14100 8.62400 34.58700
N  -0.81900 5.61900 26.96300
C  -0.79000 4.74200 28.02800
C  -1.28400 3.44600 27.60900
C  -1.40700 3.50900 26.24700
C  -1.07200 4.92600 25.86500
C  -1.56200 2.22700 28.55000
C  -1.61000 2.36100 25.21800
O  -1.47500 2.58900 24.02500
C  -1.93700 1.00000 25.70000
N  -0.02700 7.78900 24.88400
C  -0.61600 6.79000 24.14800
C  -0.86300 7.15500 22.69900
C  -0.33500 8.61500 22.62200
C  0.12100 8.89900 24.09300
C  -0.18000 6.19800 21.77000
C  -1.18300 9.78300 22.03600
C  -0.45300 10.94500 21.26900
N  0.71000 9.56300 27.01400
C  0.92300 10.44700 25.96300
C  1.43800 11.74300 26.52400
C  1.33700 11.57700 27.89300
C  0.93800 10.26600 28.19200
C  1.77900 12.95500 25.76000
C  1.48300 12.34200 29.04600
O  1.67600 13.55300 29.27800
C  1.21700 11.29900 30.21800
C  2.31400 11.29300 31.16300
O  3.32500 10.63500 31.03000
O  2.01700 12.05600 32.27900
C  2.88600 11.92900 33.50700
H  -0.60600 4.43200 30.12000
H  -1.46500 4.86800 23.86300
H  0.82200 10.90900 23.86800
H  1.20000 8.44100 32.02700
H  -0.81600 6.36000 31.80600
H  0.58200 5.27000 32.71700
H  1.95200 6.44400 32.48800
H  1.49000 5.05800 31.34500
H  -1.77500 8.35400 31.83100
H  -1.29700 9.98400 31.69800
H  -1.96700 8.61100 33.95500
H  -0.99200 10.18900 33.85400
H  -1.68800 2.63300 29.55300
H  -0.78700 1.48800 28.75500
H  -2.49400 1.71200 28.31600
H  -2.15700 0.30800 24.88700
H  -2.79500 1.13400 26.35900
H  -1.01300 0.63000 26.14600
H  -1.92400 7.27600 22.48100
H  0.62800 8.63700 22.11200
H  0.36300 5.41300 22.29400
H  0.44800 6.76100 21.07900
H  -1.00500 5.77200 21.19900
H  -1.71900 10.16400 22.90500
H  -1.92500 9.29900 21.40000
H  -0.76500 10.85000 20.22900
H  0.62000 10.82500 21.41900
H  -0.67300 11.85600 21.82500
H  1.24100 13.76600 26.25100
H  1.40500 12.81600 24.74500
H  2.83500 13.22500 25.75700
H  0.25800 11.58300 30.65000
H  3.86700 11.50000 33.30400
H  2.31900 11.42800 34.29100
H  3.11100 12.94300 33.83700
Mg 24.96600 2.01800 30.43700
C  27.39900 1.56900 32.99300
C  22.55500 2.08900 32.86200
C  22.66000 1.88600 28.05000
C  27.41900 1.26100 28.05400
N  24.99700 1.74900 32.67100
C  26.11000 1.76000 33.51800
C  25.63400 2.13500 34.98100
C  24.10500 2.09400 34.84600
C  23.83600 1.97800 33.37800
C  23.41000 0.97200 35.69100
C  26.32400 3.47900 35.34100
C  27.25800 3.54900 36.57200
H  26.62900 4.40100 37.74700
N  22.90800 1.93700 30.49000
C  22.07400 1.94800 31.55700
C  20.70600 1.97100 31.14300
C  20.69400 1.82400 29.73000
C  22.13200 1.85800 29.34300
C  19.61400 2.08800 32.18300
C  19.56600 1.67300 28.76200
O  19.69700 1.56600 27.56100
C  18.07900 1.77800 29.15500
N  25.10600 1.61300 28.32000
C  23.97500 1.76200 27.57000
C  24.27200 1.86900 26.14100
C  25.85000 1.55600 26.07000
C  26.17600 1.47800 27.51600
C  23.53900 0.95200 25.12300
C  26.63800 2.59000 25.28300
C  27.45100 2.15300 24.00900
N  26.97200 1.63200 30.47800
C  27.86200 1.26000 29.37700
C  29.15800 0.91500 29.99700
C  28.98700 1.11600 31.39600
C  27.71600 1.46400 31.59400
C  30.39100 0.51600 29.28700
C  29.81700 1.14800 32.58600
O  31.00300 1.02600 32.75400
C  28.70400 1.40000 33.72300
C  28.62500 0.39800 34.73000
O  28.30100 -0.75700 34.54600
O  28.98600 0.89800 35.96300
C  28.76600 0.08900 37.07400
H  21.75800 2.17800 33.60300
H  22.07300 1.94100 27.13100
H  28.31700 1.13200 27.44500
H  25.94900 1.36800 35.68800
H  23.61800 2.99800 35.21100
H  23.17700 0.17100 34.98900
H  22.56200 1.40400 36.22100
H  24.07600 0.60900 36.47400
H  25.53200 4.20200 35.53700
H  26.95900 3.86900 34.54600
H  28.19700 4.00100 36.25300
H  27.46900 2.56800 36.99700
H  19.83500 2.25400 33.23700
H  19.01900 1.18500 32.04900
H  19.02400 2.92900 31.82100
H  17.72900 0.93100 29.74500
H  17.40600 1.91300 28.30900
H  18.00600 2.62500 29.83700
H  24.17400 2.94900 26.02400
H  26.19200 0.57500 25.74000
H  22.47000 1.10300 25.27800
H  23.94000 -0.03100 25.37000
H  23.77600 1.24600 24.10000
H  27.23500 3.06300 26.06300
H  25.97400 3.33500 24.84500
H  27.01500 2.65300 23.14400
H  27.38900 1.07800 23.84300
H  28.50900 2.38500 24.13200
H  30.34600 0.59700 28.20100
H  30.67000 -0.51800 29.49300
H  31.11400 1.24200 29.66000
H  28.85700 2.35200 34.23200
H  29.71000 0.20900 37.60400
H  28.76100 -0.96600 36.79800
H  27.88800 0.33700 37.67000

