158

Mg -2.13300 17.29600 26.52200
C  -2.50600 15.04000 29.26200
C  -2.65900 19.78800 28.70200
C  -1.77900 19.26100 23.94900
C  -1.94500 14.48400 24.41900
N  -2.59200 17.34900 28.75200
C  -2.66200 16.35000 29.68300
C  -3.16200 16.88800 31.03600
C  -3.15300 18.43900 30.82100
C  -2.71000 18.55700 29.31700
C  -4.56700 19.08800 31.11600
C  -2.50500 16.32200 32.26800
C  -2.82800 16.97200 33.58000
H  -2.13000 16.30600 34.79800
N  -2.09200 19.28800 26.35300
C  -2.38700 20.16000 27.35700
C  -2.18100 21.46400 26.78300
C  -1.85500 21.35100 25.43500
C  -1.85200 19.93200 25.19900
C  -2.29800 22.73700 27.68200
C  -1.40600 22.55300 24.42300
O  -0.94100 22.28500 23.27500
C  -1.45800 23.92700 24.87000
N  -1.93000 16.90600 24.47500
C  -1.84700 17.92500 23.62800
C  -1.91400 17.50200 22.16900
C  -1.89900 15.90700 22.29000
C  -1.87600 15.72800 23.83400
C  -3.22000 18.09700 21.55900
C  -0.69000 15.18500 21.59400
C  0.67300 15.07700 22.33800
N  -2.14300 15.14800 26.73700
C  -2.08000 14.16300 25.80400
C  -2.25300 12.88600 26.38600
C  -2.44600 13.12300 27.76200
C  -2.35500 14.54800 27.93800
C  -2.26500 11.60200 25.60900
C  -2.70800 12.55600 29.05700
O  -2.82600 11.37500 29.35600
C  -2.74200 13.77300 30.00100
C  -1.68100 13.48200 30.97100
O  -0.51000 13.86400 30.90500
O  -2.15600 12.59300 31.88900
C  -1.25200 12.01900 32.85100
H  -2.83000 20.61300 29.39700
H  -1.68700 19.91400 23.07800
H  -2.04900 13.69000 23.67700
H  -4.15900 16.45600 31.12000
H  -2.34700 18.87500 31.41200
H  -5.23600 18.27900 31.41100
H  -4.90800 19.56500 30.19800
H  -4.46300 19.92100 31.81100
H  -1.42000 16.22900 32.25400
H  -2.77200 15.27600 32.42000
H  -3.90000 16.80800 33.69100
H  -2.64100 18.04600 33.56900
H  -1.29000 23.02900 27.98000
H  -2.82400 22.61700 28.62900
H  -2.98200 23.47300 27.26000
H  -1.07200 24.68000 24.18400
H  -0.93900 23.99500 25.82600
H  -2.53100 24.11600 24.89600
H  -0.96100 17.85800 21.77700
H  -2.81500 15.41100 21.97000
H  -3.62900 18.94700 22.10600
H  -3.89900 17.25200 21.44800
H  -3.05700 18.47500 20.55000
H  -0.46500 15.74600 20.68700
H  -0.88600 14.17600 21.23100
H  1.01600 14.04800 22.23100
H  0.58400 15.31600 23.39800
H  1.27100 15.88500 21.91700
H  -1.53900 11.53200 24.79900
H  -3.24100 11.64300 25.12400
H  -2.28000 10.76800 26.31000
H  -3.72500 13.84100 30.46700
H  -1.63700 11.11200 33.31700
H  -1.08900 12.74100 33.65200
H  -0.32100 11.87700 32.30200
Mg -12.60000 16.35900 42.54800
C  -9.57900 14.70000 41.95700
C  -11.35600 19.02200 41.00700
C  -15.79900 17.66500 42.79300
C  -14.03600 13.16100 43.53800
N  -10.75400 16.71200 41.37200
C  -9.60500 15.94500 41.48500
C  -8.38000 16.69700 40.93200
C  -8.95500 18.14900 40.89100
C  -10.45300 17.95600 41.14900
C  -8.33500 19.20900 41.98800
C  -7.88700 16.15000 39.56300
C  -6.43500 15.80700 39.37700
H  -6.03000 14.75400 38.34500
N  -13.48800 18.07700 42.02400
C  -12.71700 19.07300 41.34100
C  -13.62500 20.15700 41.05700
C  -14.88800 19.85600 41.58300
C  -14.82300 18.46800 42.17400
C  -13.19900 21.46800 40.38100
C  -16.06800 20.75300 41.42100
O  -15.99100 21.91400 40.94100
C  -17.46600 20.32300 41.88600
N  -14.72200 15.44700 42.84300
C  -15.79600 16.32700 43.03900
C  -17.02900 15.47800 43.66100
C  -16.30700 14.15000 44.10400
C  -14.94700 14.24500 43.44900
C  -17.72800 16.26900 44.86100
C  -17.06300 12.83700 43.93600
C  -16.98500 11.90200 45.10500
N  -12.01800 14.32000 42.69100
C  -12.70700 13.20100 43.21300
C  -11.72100 12.11300 43.30300
C  -10.51800 12.66200 42.87800
C  -10.69000 14.00100 42.48100
C  -11.96200 10.74800 43.80200
C  -9.14000 12.34600 42.55600
O  -8.38100 11.31900 42.72700
C  -8.48200 13.72800 42.02000
C  -7.38600 14.07900 43.01200
O  -7.62500 14.57100 44.13700
O  -6.15600 13.89700 42.45900
C  -5.07800 14.54200 43.19500
H  -10.87200 19.86100 40.50200
H  -16.70300 18.17400 43.13300
H  -14.38200 12.23700 44.00600
H  -7.61200 16.62700 41.70300
H  -8.83200 18.58600 39.90000
H  -8.93200 19.76200 42.71200
H  -7.76000 19.92900 41.40600
H  -7.57100 18.67800 42.55600
H  -8.10100 16.90800 38.81000
H  -8.48900 15.25800 39.39400
H  -6.08300 15.47300 40.35200
H  -5.96900 16.72600 39.02100
H  -12.20400 21.42200 39.93900
H  -13.27100 22.38200 40.97000
H  -13.82100 21.63300 39.50200
H  -17.76300 20.31400 42.93500
H  -17.53100 19.28000 41.57800
H  -18.21600 20.90000 41.34500
H  -17.70000 15.26300 42.82900
H  -16.12900 14.39600 45.15100
H  -16.97200 16.94000 45.26800
H  -17.91800 15.51800 45.62900
H  -18.64800 16.73200 44.50400
H  -16.58100 12.34900 43.09000
H  -18.08100 13.08100 43.63100
H  -17.94200 11.65700 45.56400
H  -16.27900 12.27900 45.84600
H  -16.57300 10.98500 44.68300
H  -11.00000 10.27900 44.00800
H  -12.47400 10.13000 43.06500
H  -12.54000 10.79500 44.72500
H  -8.03600 13.63900 41.03000
H  -5.24100 15.61600 43.11500
H  -4.10000 14.37100 42.74500
H  -4.99300 14.10800 44.19200

