158

Mg -1.67000 17.04900 26.33300
C  -2.03500 14.90600 29.05500
C  -2.11000 19.64200 28.42800
C  -1.92000 19.08100 23.53700
C  -1.68800 14.34300 24.12400
N  -2.35100 17.23800 28.52900
C  -2.22000 16.24000 29.48400
C  -2.35900 16.67300 30.87600
C  -2.47300 18.23700 30.63800
C  -2.32100 18.42400 29.11000
C  -3.72000 18.90900 31.25300
C  -1.09600 16.38700 31.79900
C  -0.80500 17.15500 33.07300
H  -0.93100 16.40700 34.29500
N  -1.79200 19.02700 26.03300
C  -1.99300 19.96400 27.04500
C  -2.02800 21.24900 26.46300
C  -1.82700 21.11900 25.10000
C  -1.94900 19.69600 24.82700
C  -2.27500 22.59400 27.24100
C  -1.54700 22.21200 24.06000
O  -1.70000 22.07400 22.81400
C  -0.98500 23.53100 24.45700
N  -1.75300 16.72800 24.04400
C  -1.78700 17.71300 23.18600
C  -1.85800 17.14600 21.79100
C  -1.38700 15.67300 21.91900
C  -1.49900 15.51000 23.47000
C  -3.27700 17.32300 21.18200
C  -0.07200 15.31300 21.16600
C  1.14600 15.60600 21.91500
N  -1.92000 15.07500 26.50800
C  -1.79800 14.06300 25.56200
C  -1.75500 12.75800 26.22300
C  -1.83000 13.08600 27.60300
C  -1.92900 14.49700 27.71100
C  -1.71900 11.41800 25.53300
C  -1.93100 12.53200 28.94800
O  -1.85600 11.36800 29.27300
C  -1.96900 13.66700 29.94500
C  -0.67100 13.55200 30.70200
O  0.36900 13.93000 30.28900
O  -0.84700 12.99000 31.98700
C  0.31100 12.97500 32.83200
H  -2.07200 20.49200 29.11400
H  -1.98700 19.74100 22.67000
H  -1.56800 13.52200 23.41400
H  -3.32800 16.30900 31.21800
H  -1.65700 18.69900 31.19400
H  -4.08000 19.56200 30.45800
H  -3.48700 19.40800 32.19400
H  -4.61000 18.30600 31.43400
H  -0.14000 16.34600 31.27700
H  -1.29100 15.36100 32.11100
H  -1.41900 18.05200 33.15600
H  0.24000 17.46200 33.02100
H  -2.83000 22.28200 28.12500
H  -2.87200 23.20900 26.56900
H  -1.36300 23.08400 27.58200
H  -0.25600 23.49900 25.26700
H  -1.82600 24.17500 24.71300
H  -0.47100 24.05000 23.64800
H  -1.14800 17.60100 21.10000
H  -2.15800 14.98600 21.57300
H  -3.25000 17.63900 20.13900
H  -3.82300 18.11600 21.69200
H  -3.71500 16.32500 21.18800
H  0.00700 15.86300 20.22900
H  -0.12400 14.25600 20.90600
H  0.89600 16.31600 22.70400
H  1.92000 16.18000 21.40400
H  1.51600 14.68000 22.35500
H  -1.31400 11.42400 24.52100
H  -2.71000 10.97200 25.44600
H  -1.13100 10.76200 26.17400
H  -2.78800 13.51000 30.64600
H  0.92000 12.14800 32.46700
H  -0.09000 12.79100 33.82800
H  0.80200 13.94700 32.80500
Mg 30.67000 59.56800 38.69600
C  27.72600 58.24100 37.39800
C  32.27300 56.68300 37.84300
C  33.70100 61.10000 38.93500
C  29.06600 62.61400 39.20000
N  30.14900 57.71900 37.56600
C  28.84300 57.39500 37.34600
C  28.82000 55.93900 36.87400
C  30.06100 55.34700 37.67300
C  30.89500 56.64200 37.69100
C  29.55200 54.84500 39.08200
C  28.85700 55.87600 35.29500
C  27.87400 54.87500 34.54700
H  27.09000 55.31300 33.29500
N  32.72400 58.94600 38.47600
C  33.20200 57.71300 38.13300
C  34.60800 57.59300 38.08400
C  35.11900 58.90200 38.41800
C  33.85000 59.73600 38.67100
C  35.42700 56.31700 37.76900
C  36.59200 59.29100 38.50400
O  37.45800 58.43200 38.25000
C  37.03900 60.64900 38.91800
N  31.27500 61.54600 39.01100
C  32.58600 61.98500 38.99200
C  32.70400 63.52700 39.23100
C  31.19300 63.92200 39.42600
C  30.44700 62.57500 39.21200
C  33.57300 63.94900 40.43400
C  30.70000 65.13500 38.54300
C  29.80800 66.19700 39.25500
N  28.67200 60.30600 38.58200
C  28.19300 61.55000 38.79500
C  26.73700 61.47800 38.72000
C  26.50900 60.17400 38.17300
C  27.76200 59.54200 38.01800
C  25.82000 62.63900 38.77600
C  25.45500 59.27400 37.66600
O  24.26500 59.42800 37.52300
C  26.23200 58.05400 37.08100
C  25.59300 56.84600 37.77700
O  25.60900 56.53700 38.96400
O  24.95600 56.06000 36.83800
C  24.55400 54.67800 37.24500
H  32.65800 55.68000 37.64900
H  34.63600 61.66300 38.90100
H  28.52600 63.55100 39.35300
H  27.89900 55.48500 37.23800
H  30.54900 54.65400 36.98900
H  29.75900 55.65500 39.78200
H  30.08600 53.92600 39.32200
H  28.47900 54.66900 39.00300
H  29.83900 55.47500 35.04400
H  28.85000 56.90300 34.92700
H  27.19100 54.56900 35.33900
H  28.50600 54.01400 34.32700
H  36.16100 56.59400 37.01200
H  34.76100 55.65900 37.21200
H  35.74300 55.85000 38.70100
H  38.12500 60.60900 39.00600
H  36.62400 61.01600 39.85600
H  36.92500 61.35700 38.09700
H  33.02900 64.00400 38.30700
H  30.97400 64.00600 40.49100
H  33.07500 64.81900 40.86300
H  34.60700 64.21100 40.21000
H  33.45100 63.09100 41.09500
H  30.11400 64.63900 37.76900
H  31.50700 65.67600 38.04900
H  29.90000 66.04000 40.33000
H  28.77100 65.92400 39.05800
H  30.13900 67.20600 39.00600
H  25.40000 62.74800 37.77700
H  26.34100 63.57900 38.95800
H  25.01600 62.48300 39.49500
H  25.99700 58.12000 36.01900
H  23.66000 54.67200 37.86800
H  25.33200 54.30800 37.91300
H  24.44300 54.19500 36.27400

