158

Mg 37.12200 49.17100 24.98200
C  37.53700 47.27000 27.97200
C  35.81500 51.67000 26.89400
C  36.20500 50.74000 22.18500
C  38.29900 46.36800 23.20000
N  36.51700 49.33000 27.13000
C  36.95100 48.54200 28.18800
C  36.68200 49.15800 29.58500
C  36.04600 50.59600 29.15800
C  36.14000 50.51900 27.63100
C  34.61500 50.83500 29.64900
C  37.99500 49.41700 30.40400
C  37.87400 49.67400 31.95400
H  36.53600 49.63600 32.64400
N  36.13500 51.04700 24.56200
C  35.83000 51.95500 25.52500
C  35.29800 53.10300 24.83100
C  35.30600 52.83900 23.43000
C  35.89500 51.49000 23.33400
C  34.87000 54.35100 25.57600
C  34.87300 53.76600 22.24400
O  34.92900 53.38800 21.06900
C  34.51500 55.17900 22.43300
N  37.18300 48.65900 23.02600
C  36.74400 49.42600 22.01900
C  36.96900 48.84000 20.62300
C  37.69200 47.50100 20.97200
C  37.75300 47.49800 22.46200
C  35.70700 48.71600 19.75300
C  39.16800 47.41500 20.36900
C  40.11300 48.47200 20.89500
N  37.75300 47.20000 25.44000
C  38.22600 46.22300 24.58500
C  38.69800 45.10500 25.41000
C  38.32800 45.46200 26.70100
C  37.78000 46.74600 26.69700
C  39.24800 43.82100 25.01000
C  38.38000 45.03800 28.10600
O  38.73200 43.99000 28.61500
C  37.63000 46.14800 28.97300
C  36.24700 45.68300 29.35300
O  35.36300 45.26500 28.62600
O  36.15400 45.80400 30.71700
C  34.86500 45.46800 31.34700
H  35.40400 52.46200 27.52400
H  35.95400 51.27300 21.26500
H  38.83300 45.54200 22.72400
H  35.97600 48.58400 30.18500
H  36.73200 51.33300 29.57500
H  34.21300 49.99100 30.21000
H  34.05200 51.08100 28.74900
H  34.64700 51.76500 30.21700
H  38.58800 50.23000 29.98500
H  38.50300 48.47700 30.19200
H  38.27800 50.68000 32.06600
H  38.51100 48.93400 32.43900
H  35.63700 55.10400 25.39700
H  35.00100 54.20600 26.64800
H  33.87100 54.64800 25.25500
H  34.37900 55.67200 21.47100
H  35.35100 55.71600 22.88200
H  33.67200 55.07700 23.11600
H  37.71200 49.36400 20.02100
H  37.32600 46.51400 20.68900
H  35.21700 47.78800 20.05000
H  35.81600 48.64400 18.67100
H  34.97000 49.48200 19.99300
H  39.08100 47.52000 19.28800
H  39.61500 46.43500 20.54000
H  40.99600 48.02100 21.34800
H  39.72400 49.05300 21.73000
H  40.41000 49.17700 20.11800
H  39.40100 43.71100 23.93600
H  38.70500 42.91100 25.26800
H  40.23000 43.73100 25.47400
H  38.28000 46.43300 29.80000
H  34.99400 44.42400 31.63200
H  33.91800 45.49400 30.80700
H  34.81100 46.03900 32.27400
Mg 10.78300 46.76700 25.88200
C  8.61400 47.04300 28.45200
C  13.23100 48.46300 27.83700
C  13.02600 46.35300 23.41900
C  8.11300 45.91300 23.66000
N  10.86000 47.66000 27.88800
C  9.87500 47.51700 28.90100
C  10.32600 48.15100 30.24900
C  11.51200 49.07000 29.71500
C  11.94800 48.35100 28.40800
C  11.11100 50.58400 29.52300
C  10.86900 47.02300 31.21600
C  10.08300 47.02400 32.53900
H  10.23800 45.69400 33.37400
N  12.86700 47.13800 25.79200
C  13.57200 47.78100 26.68700
C  14.93600 47.63800 26.37600
C  15.04300 47.03200 25.09200
C  13.60600 46.87900 24.72500
C  16.03800 48.21200 27.27900
C  16.27600 46.61700 24.17100
O  16.11000 46.13900 23.08600
C  17.63900 46.87000 24.66200
N  10.55100 46.20700 23.78200
C  11.69700 46.08000 23.00000
C  11.28400 45.51900 21.60600
C  9.75800 45.41800 21.67300
C  9.40000 45.92500 23.09900
C  11.77200 46.45300 20.42800
C  9.13900 44.07500 21.17200
C  9.13400 43.03400 22.25700
N  8.79900 46.48400 26.00000
C  7.80700 46.15000 25.06100
C  6.54900 46.14400 25.74100
C  6.84300 46.53000 27.03900
C  8.21100 46.62600 27.17500
C  5.22700 46.07000 25.04200
C  6.17000 46.81400 28.25000
O  4.98500 46.85800 28.54800
C  7.35200 46.96500 29.23700
C  7.45100 45.87900 30.16900
O  8.24500 44.94200 30.08200
O  6.60700 46.13800 31.24300
C  6.50300 45.11700 32.27600
H  13.88800 49.19700 28.30900
H  13.71000 46.10200 22.60600
H  7.26600 45.83000 22.97600
H  9.49600 48.71900 30.66900
H  12.33300 49.05600 30.43200
H  11.52200 51.12300 30.37600
H  10.02200 50.55600 29.57600
H  11.15200 50.90700 28.48300
H  11.89100 47.28000 31.49300
H  10.77900 45.99200 30.87500
H  9.01800 47.06700 32.31100
H  10.46900 47.80900 33.19000
H  15.72600 48.39700 28.30700
H  16.48900 49.12000 26.88000
H  16.67500 47.33500 27.39500
H  17.70600 47.90800 24.98700
H  18.36700 46.58900 23.90100
H  17.64500 46.18600 25.51000
H  11.91400 44.64900 21.41800
H  9.34700 46.25300 21.10500
H  11.72600 47.50300 20.71800
H  11.01500 46.23700 19.67400
H  12.80300 46.28200 20.11900
H  9.72200 43.62300 20.36900
H  8.15300 44.31200 20.77200
H  9.78200 43.33600 23.08000
H  9.65900 42.13800 21.92400
H  8.13500 42.68200 22.51500
H  4.44900 45.84100 25.77000
H  5.25900 45.33200 24.23900
H  4.94400 46.97300 24.50200
H  7.28000 47.88200 29.82100
H  6.60500 44.08300 31.94900
H  5.49900 45.32700 32.64500
H  7.19900 45.21000 33.11000

