158

Mg 8.85900 3.37300 27.73800
C  9.74700 1.74900 30.69900
C  7.21800 5.70800 29.65200
C  7.48800 4.58100 24.87000
C  10.15200 0.62100 25.86800
N  8.67900 3.79000 29.99200
C  9.13900 2.95400 31.02000
C  8.75300 3.50300 32.36800
C  7.92700 4.81500 31.97000
C  7.94400 4.81700 30.46100
C  6.45800 4.86400 32.57000
C  9.92000 3.66500 33.44600
C  9.62600 4.75900 34.49000
H  10.03400 4.52700 35.98300
N  7.65900 4.96200 27.30500
C  7.02600 5.83200 28.22900
C  6.25600 6.79300 27.58700
C  6.40000 6.52600 26.16900
C  7.28100 5.33000 26.04500
C  5.55400 7.84600 28.36300
C  5.88900 7.38200 25.01300
O  6.11600 7.08800 23.84200
C  5.26500 8.74500 25.30000
N  8.76300 2.64800 25.71900
C  8.17300 3.41400 24.69800
C  8.39100 2.70800 23.33900
C  9.19000 1.42500 23.68800
C  9.42100 1.58500 25.18000
C  7.08200 2.43300 22.57100
C  10.47100 1.27300 22.82400
C  10.41000 0.35000 21.59100
N  9.78300 1.61100 28.15700
C  10.25800 0.59600 27.31200
C  10.99900 -0.33900 28.06000
C  10.82600 0.12400 29.36600
C  9.97700 1.23900 29.36900
C  11.79900 -1.41000 27.59100
C  11.15300 -0.17800 30.71300
O  11.89500 -0.99100 31.19400
C  10.51700 0.86600 31.58100
C  9.69800 0.27900 32.60000
O  8.67100 -0.36700 32.38700
O  10.33700 0.44200 33.81800
C  9.76100 -0.32700 34.96700
H  6.78600 6.52600 30.23200
H  6.96000 4.89600 23.96800
H  10.57500 -0.20900 25.29800
H  8.01700 2.80700 32.77000
H  8.41500 5.72900 32.31000
H  5.89900 5.28900 31.73700
H  6.34300 5.62100 33.34600
H  6.05100 3.87300 32.77500
H  10.79500 4.06100 32.93000
H  10.18700 2.77900 34.02200
H  8.56300 4.97300 34.38500
H  10.16100 5.69900 34.35500
H  4.53400 7.81500 27.98000
H  5.94900 8.83600 28.13600
H  5.51700 7.80400 29.45200
H  4.41100 8.59400 25.96100
H  4.81500 9.10400 24.37500
H  5.97000 9.50500 25.63600
H  8.88800 3.37100 22.63000
H  8.68200 0.47700 23.51300
H  7.08100 2.97400 21.62400
H  6.25900 2.55300 23.27500
H  7.14200 1.37900 22.30100
H  11.31000 1.00800 23.46600
H  10.84200 2.18400 22.35500
H  10.20800 0.81900 20.62800
H  9.76400 -0.52600 21.64700
H  11.43200 -0.02900 21.58600
H  12.30400 -1.11500 26.67100
H  11.05200 -2.18800 27.43100
H  12.61200 -1.61600 28.28800
H  11.28300 1.52300 31.99500
H  8.89600 0.19800 35.37400
H  10.57600 -0.41800 35.68500
H  9.48700 -1.32900 34.63700
Mg 47.18000 34.62400 27.39600
C  45.68000 33.36000 30.47900
C  48.12200 37.47300 29.35400
C  48.58700 35.83100 24.66300
C  45.89700 31.99200 25.77500
N  47.14400 35.17300 29.78900
C  46.36200 34.59500 30.77100
C  46.51600 35.33900 32.08300
C  47.03500 36.74500 31.62800
C  47.49700 36.48000 30.16200
C  46.14100 38.02000 31.87500
C  47.52300 34.62400 33.08700
C  47.17700 34.73700 34.61800
H  46.77600 36.09200 35.11000
N  48.16200 36.42200 27.01100
C  48.47100 37.43800 27.91800
C  49.23100 38.41000 27.23600
C  49.45600 37.94300 25.91300
C  48.72800 36.66200 25.84200
C  49.77900 39.73800 27.87900
C  50.20300 38.51900 24.77600
O  50.34500 38.00900 23.66500
C  50.84200 39.92800 24.88000
N  47.09900 34.02500 25.41400
C  47.81500 34.66800 24.40600
C  47.85900 33.84500 23.13500
C  46.96300 32.59600 23.47800
C  46.63000 32.83100 24.99400
C  47.49700 34.73100 21.93400
C  47.68800 31.28700 23.39300
C  46.87300 30.06700 22.89300
N  46.12000 32.96600 27.91200
C  45.69600 31.96300 27.15300
C  44.95300 30.95000 27.91000
C  44.86900 31.48900 29.16800
C  45.65000 32.68000 29.18700
C  44.37600 29.65800 27.32000
C  44.42000 31.26800 30.54700
O  43.80800 30.35500 31.02800
C  44.60500 32.63100 31.30200
C  44.87600 32.37100 32.69400
O  45.79800 31.80100 33.14300
O  43.77100 32.90800 33.40700
C  43.55900 32.27500 34.71600
H  48.37800 38.39200 29.88500
H  49.24000 36.02500 23.80900
H  45.40700 31.20300 25.20100
H  45.54100 35.41800 32.56400
H  47.97900 37.04100 32.08600
H  45.61700 38.29500 30.95900
H  46.66700 38.91700 32.19900
H  45.46500 37.77800 32.69500
H  48.58300 34.83300 32.94500
H  47.51900 33.58400 32.76100
H  48.06000 34.54400 35.22800
H  46.28600 34.14600 34.82700
H  49.43100 39.70100 28.91100
H  49.38300 40.63300 27.40000
H  50.85700 39.81100 28.02200
H  51.64000 39.83200 25.61600
H  50.15200 40.73700 25.12100
H  51.19800 40.21200 23.89000
H  48.87700 33.52200 22.91800
H  46.05700 32.63000 22.87300
H  48.41100 34.97800 21.39500
H  47.04300 35.68400 22.20400
H  46.85500 34.19900 21.23100
H  47.99800 30.96800 24.38800
H  48.54600 31.45800 22.74300
H  47.48900 29.39300 22.29800
H  45.95000 30.32300 22.37400
H  46.53500 29.36600 23.65700
H  44.17000 29.07400 28.21700
H  45.12900 29.10500 26.75900
H  43.50700 29.77800 26.67300
H  43.68200 33.20600 31.23500
H  43.89000 31.23800 34.65700
H  42.49300 32.25000 34.94200
H  44.01600 32.85600 35.51700

