158

Mg -2.20800 17.48400 26.57900
C  -2.65300 14.78100 28.83800
C  -3.16200 19.62200 28.97000
C  -2.62500 19.85100 24.04900
C  -2.06400 15.08900 23.91200
N  -2.93300 17.16200 28.74100
C  -2.91900 16.02300 29.47900
C  -3.19000 16.33100 30.97800
C  -3.48200 17.90000 30.87100
C  -3.14400 18.29200 29.42900
C  -4.85200 18.24400 31.44400
C  -2.04200 15.93000 31.89700
C  -1.86400 16.72900 33.20400
H  -1.48000 15.89600 34.48700
N  -2.64000 19.48000 26.56700
C  -2.97100 20.20000 27.70000
C  -3.35700 21.47800 27.31300
C  -3.24900 21.65200 25.87300
C  -2.81500 20.28400 25.40600
C  -3.90200 22.56300 28.23700
C  -3.42700 22.77500 24.84100
O  -3.35200 22.75500 23.62300
C  -3.92300 24.01500 25.46800
N  -2.28700 17.46900 24.31000
C  -2.39600 18.57600 23.57800
C  -2.16800 18.30400 22.08700
C  -1.70100 16.79700 22.07500
C  -2.03400 16.40800 23.47900
C  -3.48000 18.54100 21.20500
C  -0.22100 16.62000 21.70100
C  0.05000 16.00400 20.37000
N  -2.34600 15.43800 26.39300
C  -2.18300 14.62200 25.26600
C  -2.23700 13.19300 25.65800
C  -2.35000 13.20100 27.09300
C  -2.45500 14.60200 27.44600
C  -2.33000 12.02100 24.72400
C  -2.55900 12.29000 28.23500
O  -2.63300 11.06800 28.34200
C  -2.80900 13.35500 29.40100
C  -2.05000 12.80700 30.50400
O  -0.77700 12.80900 30.65100
O  -2.84200 12.10400 31.38200
C  -2.22800 11.54400 32.62600
H  -3.22200 20.35000 29.78200
H  -2.89700 20.50400 23.21600
H  -2.00300 14.29600 23.16300
H  -4.07600 15.79300 31.31500
H  -2.75100 18.43600 31.47700
H  -5.54600 17.40700 31.36900
H  -5.31100 19.07800 30.91200
H  -4.90400 18.57600 32.48100
H  -1.13100 16.09500 31.32100
H  -2.08900 14.87400 32.16300
H  -2.78900 17.24200 33.46500
H  -0.96000 17.33900 33.19800
H  -3.37600 23.50700 28.09800
H  -3.79700 22.24200 29.27300
H  -4.96500 22.76800 28.11200
H  -4.74200 23.66400 26.09600
H  -4.40100 24.66700 24.73700
H  -3.22000 24.60000 26.06200
H  -1.39300 18.98900 21.74200
H  -2.38300 16.27000 21.40700
H  -3.24400 19.20200 20.37100
H  -4.14100 19.26300 21.68500
H  -3.90600 17.62000 20.80700
H  0.21100 15.95800 22.45200
H  0.35000 17.54800 21.73700
H  0.90600 16.45700 19.86800
H  -0.81800 15.93100 19.71500
H  0.41700 14.98000 20.43200
H  -3.26800 11.96900 24.17100
H  -2.35500 11.09900 25.30300
H  -1.54300 11.96400 23.97200
H  -3.86400 13.32700 29.67600
H  -1.64200 12.29400 33.15800
H  -1.49200 10.78300 32.36900
H  -2.95800 11.07600 33.28700
Mg 17.61600 -0.90300 27.60300
C  16.35900 0.98500 30.20400
C  19.49500 -2.67600 29.94400
C  18.87900 -2.52000 24.97000
C  15.95000 1.25400 25.34500
N  17.97600 -0.72600 29.81800
C  17.24000 0.01400 30.70800
C  17.62400 -0.21400 32.18000
C  18.88700 -1.19000 31.98800
C  18.79400 -1.56000 30.52700
C  20.27700 -0.60800 32.42100
C  16.46300 -0.76800 33.07600
C  16.48500 -0.52400 34.62500
H  17.74700 0.16200 35.19900
N  18.98400 -2.37400 27.43300
C  19.54400 -3.09600 28.51900
C  20.31500 -4.25400 27.98600
C  20.03300 -4.34400 26.65500
C  19.23200 -3.09100 26.29300
C  21.09800 -5.22100 28.95700
C  20.30700 -5.39900 25.58800
O  19.74800 -5.42800 24.50000
C  21.35000 -6.50600 25.80300
N  17.68400 -0.45300 25.44900
C  18.19300 -1.41900 24.58300
C  17.79600 -1.10600 23.16600
C  16.93300 0.14300 23.27600
C  16.77400 0.31000 24.80200
C  18.94500 -1.03100 22.13400
C  15.61900 -0.04400 22.58600
C  14.53700 -0.94200 23.25000
N  16.33600 0.79000 27.66400
C  15.71300 1.53300 26.67000
C  14.82300 2.54300 27.28100
C  15.04600 2.32500 28.65700
C  15.95400 1.24000 28.83100
C  13.94700 3.60300 26.69100
C  14.70300 2.74700 29.97400
O  13.96600 3.66400 30.26100
C  15.53600 1.95700 31.03400
C  16.37000 2.91900 31.76300
O  17.46200 3.30600 31.41800
O  15.63900 3.34900 32.82400
C  16.37500 4.44300 33.51600
H  19.98500 -3.38600 30.61400
H  19.35600 -3.14500 24.21300
H  15.36600 1.74000 24.56100
H  17.85000 0.73000 32.67700
H  18.76200 -2.09200 32.58700
H  20.16800 0.45000 32.65900
H  20.93700 -0.54000 31.55700
H  20.70900 -1.10500 33.29000
H  16.34500 -1.83600 32.89600
H  15.53700 -0.28700 32.76100
H  16.35700 -1.51200 35.06700
H  15.63800 0.12000 34.86000
H  20.82300 -6.26300 28.79400
H  20.93400 -5.05700 30.02200
H  22.13600 -5.09600 28.64900
H  21.82500 -6.52500 26.78400
H  22.20300 -6.40300 25.13200
H  20.77100 -7.40900 25.60800
H  17.11100 -1.88900 22.84000
H  17.47200 0.98400 22.83900
H  19.88700 -1.30400 22.61100
H  19.01900 -0.09200 21.58700
H  18.72800 -1.74800 21.34300
H  15.72500 -0.34600 21.54400
H  15.16800 0.94800 22.59400
H  13.68900 -0.26800 23.36800
H  14.75100 -1.40500 24.21400
H  14.29500 -1.73900 22.54700
H  14.44200 3.81900 25.74500
H  14.10300 4.41000 27.40800
H  12.88100 3.40200 26.58700
H  14.83600 1.55700 31.76900
H  17.33200 4.16000 33.95600
H  15.80900 4.85300 34.35200
H  16.69000 5.27400 32.88500

