158

Mg 46.44200 25.75500 28.66400
C  47.23900 27.76100 31.48600
C  45.57200 23.26800 31.04100
C  45.78900 23.85900 26.21700
C  48.23100 28.00100 26.58600
N  46.33400 25.62700 31.11000
C  46.65000 26.55800 31.97200
C  46.38200 26.04600 33.36900
C  46.16600 24.47400 33.17000
C  45.98400 24.42000 31.69300
C  47.41700 23.66200 33.83100
C  45.28200 26.82600 34.05200
C  45.33200 27.34000 35.54300
H  45.96700 26.44900 36.65600
N  45.67500 23.84400 28.70100
C  45.31700 22.98400 29.70700
C  44.62800 21.77500 29.09000
C  44.62500 22.01200 27.66200
C  45.36200 23.28600 27.48700
C  44.16000 20.63900 29.88400
C  44.15200 21.04200 26.53800
O  44.39100 21.17000 25.32200
C  43.22600 19.89600 26.87600
N  47.03200 25.89000 26.75100
C  46.53200 24.94500 25.87100
C  47.12200 25.17800 24.42800
C  47.65300 26.64800 24.61400
C  47.68700 26.86300 26.07600
C  48.19000 24.09000 24.10900
C  46.53000 27.62200 24.05200
C  46.88400 29.05000 23.82900
N  47.53600 27.53600 28.89600
C  48.25900 28.23500 27.95800
C  48.75600 29.37000 28.60300
C  48.41500 29.21900 29.95300
C  47.71700 28.07400 30.09300
C  49.44300 30.57300 27.97000
C  48.55300 29.81600 31.25800
O  49.22700 30.76300 31.68500
C  47.76700 28.95500 32.26400
C  48.76200 28.62500 33.37000
O  49.92100 28.15700 33.22000
O  48.10900 28.90200 34.53600
C  48.81200 28.51200 35.73300
H  45.21900 22.46900 31.69600
H  45.54100 23.20200 25.38100
H  48.61700 28.69900 25.84000
H  47.29600 26.29400 33.90900
H  45.30600 24.01700 33.66000
H  47.07200 22.83000 34.44500
H  47.90500 24.32300 34.54600
H  48.02400 23.28100 33.01000
H  44.42600 26.15500 33.97300
H  44.96100 27.56100 33.31400
H  44.30300 27.56300 35.82500
H  45.91300 28.26100 35.49000
H  43.16400 20.27400 29.63600
H  44.38900 20.64000 30.95000
H  44.75600 19.80500 29.51200
H  43.79500 19.20300 27.49600
H  42.90400 19.36700 25.97900
H  42.33400 20.15300 27.44700
H  46.33900 25.00300 23.69000
H  48.68100 26.85900 24.31800
H  47.87200 23.57100 23.20400
H  48.08600 23.39700 24.94400
H  49.15800 24.54700 23.90600
H  45.74500 27.70700 24.80300
H  46.16000 27.18600 23.12400
H  46.54500 29.26100 22.81500
H  47.93600 29.32000 23.73300
H  46.44300 29.74600 24.54400
H  49.49100 31.37000 28.71100
H  49.03200 30.86300 27.00300
H  50.47800 30.31000 27.74900
H  46.96400 29.54400 32.70700
H  49.75400 29.04100 35.87600
H  48.96200 27.43400 35.79400
H  48.02900 28.77900 36.44300
Mg 27.01000 50.69700 26.62500
C  24.85000 51.58800 29.24100
C  29.39500 49.80200 29.00800
C  29.02300 49.91900 24.17600
C  24.66200 51.90400 24.34000
N  27.07900 50.80900 28.82000
C  26.00700 50.93400 29.70000
C  26.40400 50.63900 31.18600
C  27.95900 50.40700 31.04700
C  28.14200 50.26200 29.49900
C  28.87500 51.39000 31.76500
C  25.58400 49.42100 31.85100
C  24.57400 49.76100 33.01800
H  24.63100 48.99700 34.32400
N  28.91600 49.95700 26.63700
C  29.77400 49.67700 27.67000
C  31.01100 49.27700 27.20700
C  30.95600 49.29700 25.77300
C  29.55400 49.76600 25.47000
C  32.15200 48.88400 28.07500
C  32.04900 49.07900 24.70500
O  31.89800 49.18500 23.44700
C  33.48300 48.82400 25.11900
N  26.84500 50.90300 24.55700
C  27.80900 50.44700 23.72200
C  27.34400 50.35300 22.25700
C  25.96900 51.02200 22.39100
C  25.81600 51.26200 23.86200
C  28.29800 50.96100 21.23000
C  24.77400 50.18900 21.83300
C  25.00300 49.53700 20.36600
N  25.15100 51.66500 26.70600
C  24.35700 52.07100 25.68000
C  23.19300 52.71200 26.26200
C  23.38100 52.54800 27.66600
C  24.58400 51.95000 27.84600
C  22.04000 53.32500 25.58400
C  22.74200 52.76300 28.97200
O  21.73100 53.39300 29.30900
C  23.61600 52.07600 30.02100
C  23.93000 53.14200 30.88600
O  24.60400 54.16700 30.60000
O  23.59400 52.77700 32.16000
C  24.31200 53.65700 33.11500
H  30.11500 49.51500 29.77700
H  29.71800 49.73600 23.35300
H  23.80100 52.06200 23.68700
H  26.20000 51.48200 31.84700
H  28.17000 49.39800 31.40100
H  28.29000 52.26800 32.04100
H  29.69700 51.73700 31.14000
H  29.28100 50.97700 32.68900
H  26.23600 48.61000 32.17700
H  24.94500 49.03600 31.05600
H  23.63100 49.66100 32.48100
H  24.55200 50.82400 33.25800
H  32.12300 49.09600 29.14400
H  32.92900 49.59300 27.79100
H  32.60100 47.92300 27.82300
H  34.09800 48.48300 24.28600
H  33.47700 47.95300 25.77400
H  33.82300 49.68300 25.69800
H  27.14400 49.32300 21.95800
H  25.97700 51.98000 21.87200
H  28.88100 50.20400 20.70600
H  29.06200 51.65800 21.57500
H  27.78900 51.54300 20.46200
H  23.83300 50.73800 21.81700
H  24.60900 49.37800 22.54200
H  25.01900 48.45400 20.49200
H  25.95400 49.80900 19.90800
H  24.21300 49.76500 19.65100
H  22.06000 54.40400 25.43100
H  21.14100 53.03500 26.12800
H  21.91600 52.91700 24.58100
H  23.03100 51.27900 30.48100
H  25.19500 53.06700 33.36200
H  23.68200 53.67200 34.00400
H  24.56900 54.68300 32.85000

