158

Mg 47.53300 15.28000 27.61800
C  45.36200 15.17500 30.12800
C  49.81600 17.07400 29.48400
C  49.74200 15.40200 24.92900
C  45.14200 13.56900 25.54700
N  47.51900 16.22100 29.53400
C  46.53800 15.89700 30.49500
C  47.00900 16.36500 31.87600
C  48.20500 17.27300 31.53800
C  48.60100 16.76100 30.10200
C  47.98500 18.73600 31.36600
C  47.19400 15.30700 33.05400
C  47.16800 15.87600 34.45600
H  48.31700 15.53500 35.35700
N  49.50000 16.17800 27.24200
C  50.26500 16.86600 28.20100
C  51.49600 17.27100 27.62800
C  51.48600 16.90300 26.28200
C  50.22700 16.05700 26.10500
C  52.62900 18.07000 28.37200
C  52.54100 17.08700 25.22400
O  52.46100 16.44600 24.21100
C  53.77200 17.95700 25.34200
N  47.42900 14.68900 25.52200
C  48.52900 14.80700 24.64000
C  48.26600 14.06800 23.31400
C  46.87600 13.35100 23.64000
C  46.37600 13.97100 24.90500
C  48.20300 15.05800 22.15800
C  46.94600 11.83700 23.75600
C  47.81800 11.05000 22.77900
N  45.59500 14.64000 27.69200
C  44.78800 13.92800 26.90700
C  43.58400 13.67800 27.53400
C  43.76700 14.12900 28.82000
C  45.03600 14.66900 28.88100
C  42.42700 12.90800 27.02900
C  43.20400 14.17300 30.13500
O  42.11300 13.82900 30.50300
C  44.21600 14.80300 31.03700
C  43.71400 15.93000 31.83600
O  43.48400 17.06700 31.42400
O  43.65700 15.54900 33.16400
C  43.10700 16.41500 34.18300
H  50.49300 17.54500 30.19900
H  50.35600 15.38900 24.02600
H  44.42600 12.93000 25.02600
H  46.21900 17.02500 32.23400
H  49.11100 17.04300 32.09800
H  47.74200 19.00200 30.33800
H  48.83600 19.35000 31.66500
H  47.13400 19.00800 31.99100
H  48.13800 14.77800 32.92100
H  46.50400 14.52400 32.73800
H  46.26300 15.44700 34.88600
H  47.00600 16.92500 34.20900
H  52.79300 19.05000 27.92500
H  53.48500 17.39600 28.36700
H  52.51200 18.26600 29.43800
H  53.60200 18.99300 25.63300
H  54.15800 17.93600 24.32300
H  54.47300 17.52600 26.05800
H  49.09200 13.36100 23.23100
H  46.20100 13.67300 22.84700
H  47.18800 15.36200 21.90300
H  48.66100 14.61300 21.27500
H  48.78200 15.95400 22.38000
H  45.92800 11.44700 23.73700
H  47.42100 11.58600 24.70400
H  48.66000 10.55700 23.26400
H  48.33000 11.64800 22.02400
H  47.26500 10.24000 22.30500
H  42.40300 12.81100 25.94300
H  41.59400 13.38500 27.54500
H  42.46200 11.96100 27.56800
H  44.53000 13.99900 31.70400
H  43.86200 16.85700 34.83300
H  42.43700 15.80500 34.79000
H  42.50500 17.19800 33.72200
Mg 8.59800 47.73800 25.08700
C  6.49200 47.78600 27.88900
C  11.16100 48.82200 27.21000
C  10.68400 47.95500 22.38700
C  5.94000 47.31000 22.98000
N  8.74200 48.31700 27.38500
C  7.76800 48.12400 28.30400
C  8.32500 48.42400 29.75300
C  9.78600 48.88400 29.43700
C  9.93900 48.71900 27.88400
C  10.18600 50.25300 30.06700
C  8.10900 47.24500 30.74900
C  9.10000 47.02500 31.94300
H  8.41100 46.42000 33.22300
N  10.65200 48.30300 24.78900
C  11.53000 48.67500 25.75100
C  12.82600 48.74300 25.15700
C  12.74600 48.43200 23.80600
C  11.28200 48.27500 23.59900
C  14.03700 49.13000 26.03700
C  13.80600 48.48100 22.80900
O  13.62700 48.21700 21.62800
C  15.30800 48.45400 23.19800
N  8.29700 47.77200 22.87600
C  9.36300 47.69400 22.00600
C  8.83400 47.23800 20.61000
C  7.27800 47.00800 20.85000
C  7.11900 47.33000 22.30900
C  9.40300 48.13900 19.43100
C  6.93000 45.61400 20.43400
C  5.50300 45.36300 19.88200
N  6.68900 47.46800 25.34500
C  5.66100 47.43300 24.39900
C  4.34400 47.43700 25.04100
C  4.68500 47.38700 26.37900
C  6.08900 47.43500 26.52100
C  2.94800 47.46600 24.36000
C  4.07800 47.35200 27.71100
O  2.87800 47.27700 27.98600
C  5.23600 47.58400 28.74300
C  5.16100 46.42400 29.72700
O  5.41900 45.25600 29.47200
O  4.65100 46.84800 30.94500
C  4.26400 45.75300 31.84300
H  11.93700 49.15700 27.90100
H  11.38100 47.78300 21.56400
H  5.03400 47.16700 22.38700
H  7.79600 49.29500 30.14000
H  10.48900 48.12500 29.77900
H  9.31100 50.86500 30.28300
H  10.83800 50.75100 29.35000
H  10.81800 49.94500 30.90000
H  8.14100 46.31000 30.19000
H  7.12200 47.45800 31.16000
H  9.53400 48.00300 32.15300
H  9.96400 46.42500 31.65700
H  13.86600 49.33800 27.09300
H  14.37400 50.09700 25.66200
H  14.86300 48.43700 26.19300
H  15.72200 49.29100 23.76200
H  15.91400 48.27100 22.31100
H  15.46400 47.59200 23.84700
H  9.34100 46.29400 20.41000
H  6.73300 47.67600 20.18300
H  8.57900 48.76600 19.08900
H  9.73800 47.50000 18.61400
H  10.32800 48.61400 19.75900
H  6.86000 44.97400 21.31300
H  7.60700 45.26200 19.65600
H  5.51700 44.52300 19.18800
H  4.98400 46.23300 19.48200
H  4.95900 45.04400 20.77200
H  2.43400 46.57300 24.71500
H  3.06500 47.31000 23.28800
H  2.37400 48.38000 24.51500
H  5.13500 48.54700 29.24200
H  3.67300 46.18900 32.64900
H  5.08100 45.25800 32.36700
H  3.56500 45.06700 31.36400

