158

Mg 26.05900 -0.49100 29.04200
C  28.02000 -0.33000 31.85400
C  23.21900 0.06200 31.12200
C  24.07000 -0.62200 26.28000
C  28.73900 -1.45200 27.09300
N  25.71000 -0.29600 31.18700
C  26.69200 -0.09100 32.12800
C  26.13600 0.14100 33.56200
C  24.54300 0.31700 33.23100
C  24.43600 -0.03600 31.80300
C  23.49700 -0.29900 34.22100
C  26.93100 1.23300 34.33400
C  26.23600 1.99400 35.42700
H  27.06000 2.10600 36.76800
N  23.96100 -0.37900 28.73600
C  23.00800 -0.16200 29.74300
C  21.72400 -0.15200 29.05000
C  21.97000 -0.26800 27.67300
C  23.38600 -0.37600 27.49500
C  20.48700 -0.10000 29.77800
C  20.99600 -0.09100 26.50100
O  21.36300 -0.08600 25.36100
C  19.58400 0.00200 26.74800
N  26.35000 -0.79700 27.07900
C  25.36800 -0.80900 26.11500
C  25.89400 -0.93100 24.66200
C  27.42500 -1.12100 24.89700
C  27.55000 -1.12900 26.44900
C  25.28700 -2.09700 23.80500
C  28.36800 -0.12300 24.17700
C  28.83400 1.17200 24.91100
N  28.01100 -0.96800 29.39800
C  29.03200 -1.30100 28.47300
C  30.26400 -1.39400 29.23000
C  29.87700 -0.99800 30.55300
C  28.51700 -0.73700 30.55800
C  31.59200 -1.72400 28.54200
C  30.33700 -0.84300 31.84300
O  31.48300 -0.97800 32.24200
C  29.24100 -0.39200 32.79400
C  29.16600 -1.48700 33.91100
O  28.59800 -2.55500 33.73900
O  29.71000 -0.95500 35.12300
C  29.41900 -1.89500 36.23800
H  22.33200 0.33500 31.69800
H  23.51600 -0.72600 25.34500
H  29.56500 -1.57900 26.39100
H  26.30600 -0.70400 34.22800
H  24.32800 1.38000 33.34600
H  22.76300 -1.00600 33.83400
H  22.93200 0.51300 34.67700
H  24.12800 -0.68400 35.02200
H  27.47800 1.87800 33.64700
H  27.79000 0.78300 34.83100
H  25.33000 1.44800 35.69000
H  25.99900 3.00700 35.10200
H  20.10100 -1.08600 29.51800
H  19.88700 0.78000 29.54700
H  20.66200 -0.12600 30.85400
H  18.92700 0.30200 25.93100
H  19.52600 0.74600 27.54300
H  19.26500 -0.97700 27.10500
H  25.75700 -0.04300 24.04600
H  27.61700 -2.16900 24.66800
H  26.06400 -2.53700 23.17900
H  24.57000 -1.55200 23.19100
H  24.75900 -2.82100 24.42600
H  27.97400 0.20100 23.21300
H  29.28100 -0.71600 24.11700
H  28.18900 1.39000 25.76300
H  28.86300 2.06600 24.28900
H  29.82700 1.01800 25.33300
H  31.71300 -1.34400 27.52700
H  31.75200 -2.79900 28.45800
H  32.41800 -1.30700 29.11900
H  29.49700 0.58900 33.19400
H  28.50200 -1.50100 36.67700
H  30.21100 -1.79500 36.98000
H  29.30300 -2.94300 35.96000
Mg 7.06100 54.12400 41.21900
C  6.36800 50.64500 41.09200
C  10.10600 53.54100 39.86600
C  7.05400 57.33700 40.17000
C  3.75800 54.42900 42.28400
N  8.00500 52.28700 40.41100
C  7.53400 50.97800 40.38300
C  8.61200 50.04300 39.78800
C  9.97300 50.90900 39.85700
C  9.33900 52.31100 40.06500
C  11.01100 50.56500 41.00900
C  8.36500 49.36200 38.38200
C  7.36700 50.00600 37.45000
H  7.38600 49.62400 35.97000
N  8.41700 55.34100 40.21800
C  9.65700 54.91500 39.88500
C  10.52500 56.00600 39.56500
C  9.62800 57.16500 39.56800
C  8.29700 56.64200 39.96000
C  12.07000 55.84000 39.35200
C  9.91500 58.53500 39.17400
O  11.07100 58.92400 39.05500
C  8.88500 59.66300 39.02300
N  5.51200 55.67200 41.02400
C  5.83200 56.94200 40.72600
C  4.66400 57.92400 41.05200
C  3.54200 56.91300 41.58500
C  4.29700 55.59100 41.61400
C  5.02300 59.15200 41.96900
C  2.21000 56.70100 40.67400
C  0.83200 56.87200 41.35100
N  5.45600 52.85000 41.75300
C  4.29200 53.14200 42.30900
C  3.66600 51.96400 42.84200
C  4.43600 50.98900 42.25500
C  5.53700 51.53400 41.66300
C  2.38000 51.87800 43.58400
C  4.54600 49.55900 42.23800
O  3.77500 48.67900 42.60900
C  5.88100 49.20900 41.49500
C  5.71300 48.20400 40.44300
O  5.07900 48.39600 39.41300
O  6.29100 47.07800 40.91600
C  6.18800 45.92200 40.05000
H  11.16400 53.35000 39.67400
H  6.99500 58.39500 39.90600
H  2.71800 54.39500 42.61300
H  8.84300 49.27400 40.52600
H  10.44500 50.98500 38.87700
H  10.92900 49.63800 41.57700
H  11.05000 51.49300 41.58100
H  11.90400 50.44100 40.39600
H  8.03800 48.34300 38.58900
H  9.27800 49.28700 37.79000
H  7.51100 51.07800 37.59100
H  6.33100 49.81900 37.73000
H  12.19100 55.57800 38.30100
H  12.39700 54.95700 39.90200
H  12.59200 56.76400 39.60100
H  8.42800 59.86600 39.99200
H  8.13700 59.55900 38.23700
H  9.47600 60.56700 38.87300
H  4.44600 58.38600 40.09000
H  3.16700 57.12200 42.58600
H  6.07100 59.18900 42.26900
H  4.29300 59.04600 42.77100
H  4.87400 60.08300 41.42100
H  2.14900 55.74900 40.14600
H  2.12500 57.46600 39.90200
H  0.24500 57.65300 40.86900
H  0.86500 57.15300 42.40400
H  0.26000 55.95100 41.24200
H  2.37600 51.09700 44.34400
H  1.61700 51.70600 42.82400
H  2.17100 52.81700 44.09500
H  6.33900 48.77800 42.38500
H  5.25200 45.86300 39.49500
H  6.28600 45.01600 40.64800
H  7.00600 45.84400 39.33400

