158

Mg 41.30600 9.57600 29.94900
C  42.66400 10.66800 33.01300
C  38.89500 7.86800 31.72200
C  40.38500 8.20100 27.00900
C  44.25000 10.76800 28.35600
N  40.96900 9.19000 32.16200
C  41.52200 9.88200 33.22700
C  40.68700 9.76600 34.46200
C  39.53700 8.78000 33.99800
C  39.77800 8.59200 32.50600
C  39.33900 7.41800 34.78600
C  40.19800 11.03800 35.18100
C  40.31300 10.99800 36.71300
H  40.73700 12.20800 37.62400
N  39.74200 8.27600 29.44400
C  38.79700 7.67400 30.32400
C  37.86200 6.91800 29.49500
C  38.23100 7.06600 28.09600
C  39.52300 7.82500 28.10300
C  36.60000 6.30700 30.01400
C  37.39600 6.78500 26.85300
O  37.72400 7.18900 25.76900
C  36.26300 5.89600 27.05000
N  42.15900 9.55500 27.93600
C  41.56400 8.92200 26.90800
C  42.43000 9.07900 25.58800
C  43.44300 10.21800 26.02900
C  43.30800 10.21500 27.54900
C  42.98900 7.67700 25.20200
C  43.06700 11.69600 25.47400
C  41.59000 12.13600 25.53400
N  42.97900 10.59900 30.49800
C  44.05400 11.01900 29.70200
C  44.81200 11.97000 30.54100
C  44.37000 11.76500 31.83900
C  43.23600 10.90600 31.76100
C  46.01500 12.75900 30.02100
C  44.72700 11.95900 33.19600
O  45.74800 12.47400 33.71900
C  43.50900 11.46900 34.02300
C  43.97800 10.55500 35.09800
O  44.77800 9.64000 34.93500
O  43.55500 11.04500 36.33900
C  44.09100 10.42700 37.53700
H  38.11200 7.41000 32.33000
H  40.04500 7.97500 25.99700
H  45.04300 11.31100 27.83900
H  41.33900 9.19000 35.11900
H  38.55600 9.25600 34.00900
H  38.32400 7.09200 35.01000
H  39.88800 7.45300 35.72700
H  39.94500 6.69800 34.23500
H  39.13800 11.15400 34.95700
H  40.76600 11.86800 34.76200
H  40.64700 10.01900 37.05600
H  39.24600 10.96600 36.93400
H  36.71600 5.23900 29.83000
H  35.68400 6.63800 29.52600
H  36.60000 6.40900 31.09900
H  35.76900 5.53000 26.15000
H  35.50200 6.41000 27.63700
H  36.57600 4.94300 27.47700
H  41.72700 9.42900 24.83300
H  44.49400 10.05700 25.79200
H  43.00400 6.93900 26.00400
H  43.98200 7.84700 24.78500
H  42.33200 7.22500 24.46000
H  43.24100 11.64200 24.39900
H  43.67300 12.45100 25.97700
H  41.54400 13.20400 25.74500
H  41.14200 11.63900 26.39400
H  41.10000 11.86000 24.60000
H  46.00100 12.66400 28.93500
H  46.98300 12.38800 30.36000
H  45.91300 13.78500 30.37300
H  42.92200 12.33100 34.33900
H  43.31400 10.57700 38.28700
H  45.01000 10.84700 37.94500
H  44.14000 9.36600 37.29100
Mg 54.13400 24.45100 45.43500
C  51.58300 26.51100 44.59300
C  52.26800 21.68500 44.20700
C  56.83000 22.48200 45.22900
C  56.10400 27.11000 46.36900
N  52.37400 24.19000 44.33700
C  51.38200 25.15400 44.26700
C  50.18100 24.62600 43.54900
C  50.12800 23.16400 43.87900
C  51.68800 22.98200 44.17300
C  49.22200 22.78800 45.06700
C  50.12500 24.96500 42.03000
C  51.40400 25.29800 41.37600
H  52.31900 24.15400 40.94900
N  54.48800 22.31600 45.01000
C  53.58500 21.36200 44.49900
C  54.29100 20.14000 44.34100
C  55.59100 20.32100 44.59500
C  55.73800 21.75200 44.94900
C  53.51900 18.95600 43.72800
C  56.72200 19.27200 44.48200
O  56.35900 18.14900 44.11700
C  58.14100 19.49800 44.88400
N  56.16500 24.77400 45.53800
C  57.02300 23.78100 45.61100
C  58.44800 24.30800 45.94800
C  58.26300 25.80900 46.33600
C  56.78000 25.93500 46.05300
C  59.23400 23.43700 46.97800
C  59.23000 26.78200 45.50100
C  60.35700 27.43900 46.23900
N  53.96500 26.41900 45.34100
C  54.76800 27.40600 45.99500
C  53.98900 28.61500 46.15200
C  52.76800 28.32100 45.53900
C  52.78800 26.99500 45.18700
C  54.35800 29.86700 46.89000
C  51.37400 28.85000 45.27200
O  50.94100 29.95800 45.43300
C  50.65000 27.71100 44.43900
C  50.55800 28.25600 43.04900
O  51.46900 28.81300 42.45000
O  49.30700 28.03200 42.49500
C  49.26400 28.47800 41.08400
H  51.51300 20.93700 43.95600
H  57.80200 21.98800 45.29800
H  56.72300 27.85800 46.86900
H  49.31700 25.06900 44.04600
H  49.89400 22.60300 42.97400
H  49.90000 22.64700 45.90800
H  48.65300 21.89800 44.80000
H  48.51000 23.55400 45.37600
H  49.40700 25.77300 41.89000
H  49.74900 24.15500 41.40500
H  51.93300 26.07000 41.93400
H  51.20500 25.69100 40.37900
H  53.93800 18.88800 42.72400
H  52.44600 19.12600 43.63900
H  53.57200 18.06900 44.36000
H  58.67200 18.54800 44.85000
H  58.07400 19.81600 45.92500
H  58.60000 20.26200 44.25600
H  59.05400 24.33400 45.04200
H  58.39400 25.93700 47.41100
H  58.53600 22.71900 47.40800
H  59.46100 23.98500 47.89300
H  60.04000 22.82000 46.58100
H  58.68400 27.64600 45.12300
H  59.51400 26.32300 44.55400
H  60.42500 27.12300 47.28000
H  60.18200 28.51500 46.25300
H  61.28600 27.26600 45.69700
H  53.86000 29.75900 47.85300
H  53.98500 30.77700 46.41900
H  55.42900 29.93700 47.07600
H  49.65400 27.51900 44.83600
H  50.11800 27.99400 40.61100
H  49.23000 29.56800 41.06300
H  48.36500 27.97000 40.73700

