158

Mg 24.16500 -6.76100 47.40100
C  26.69500 -4.52600 46.34000
C  22.07300 -5.34800 45.22000
C  22.11900 -9.45800 47.86600
C  26.68900 -8.56600 49.14900
N  24.43000 -5.22500 45.87800
C  25.45900 -4.38800 45.66800
C  25.20400 -3.35300 44.65200
C  23.63300 -3.43600 44.46800
C  23.31500 -4.74800 45.21700
C  22.77800 -2.20000 44.75500
C  26.01800 -3.57800 43.31600
C  26.47400 -2.32600 42.53800
H  25.74000 -1.96000 41.21400
N  22.30500 -7.29300 46.77300
C  21.62700 -6.54200 45.87100
C  20.37300 -7.23400 45.51700
C  20.32500 -8.37200 46.30000
C  21.65800 -8.47300 47.02400
C  19.41200 -6.80200 44.49100
C  19.08600 -9.29200 46.33200
O  18.04900 -8.95300 45.82800
C  18.99300 -10.59000 47.10300
N  24.47300 -8.89100 48.17800
C  23.35700 -9.65400 48.47100
C  23.66700 -10.83900 49.37300
C  25.12100 -10.53400 49.78700
C  25.51400 -9.32500 48.90100
C  22.57500 -11.11700 50.47700
C  26.12700 -11.77300 49.73600
C  26.85800 -11.95900 51.07500
N  26.20700 -6.54500 47.81500
C  27.07400 -7.28500 48.63000
C  28.40600 -6.59300 48.77600
C  28.27200 -5.47600 47.90300
C  26.97300 -5.52100 47.29300
C  29.59900 -7.02600 49.64700
C  28.87600 -4.23400 47.34300
O  29.87200 -3.68200 47.65300
C  27.95400 -3.74100 46.22100
C  27.64000 -2.28800 46.42600
O  26.96900 -1.77700 47.30200
O  28.27100 -1.56200 45.45900
C  28.30600 -0.09900 45.62600
H  21.36500 -4.82700 44.57300
H  21.38900 -10.24100 48.08100
H  27.44500 -9.05000 49.77100
H  25.52000 -2.36400 44.98200
H  23.31800 -3.79800 43.49000
H  23.34100 -1.51000 45.38400
H  21.92100 -2.50200 45.35700
H  22.38800 -1.71000 43.86200
H  25.39600 -4.27200 42.75000
H  26.89100 -4.21900 43.43900
H  27.53200 -2.42900 42.29600
H  26.39900 -1.48000 43.22200
H  18.52800 -6.33500 44.92600
H  19.18000 -7.63000 43.82100
H  19.87100 -6.11700 43.77800
H  18.01500 -10.99100 46.83600
H  19.09500 -10.24200 48.13100
H  19.74700 -11.31400 46.79500
H  23.55900 -11.75600 48.79500
H  25.22900 -10.03600 50.75100
H  21.82600 -10.32700 50.44700
H  23.21300 -11.15900 51.36000
H  21.99000 -12.03000 50.36600
H  26.84500 -11.67500 48.92200
H  25.63200 -12.71900 49.51600
H  26.30700 -12.75700 51.57100
H  26.81000 -11.03800 51.65700
H  27.88300 -12.21000 50.80200
H  29.95300 -6.37200 50.44400
H  30.46800 -7.24000 49.02500
H  29.24400 -7.95600 50.09000
H  28.47700 -3.89800 45.27800
H  28.03500 0.18200 46.64300
H  27.54700 0.36300 44.99400
H  29.32000 0.25700 45.44300
Mg 49.52300 45.47000 42.37600
C  45.96100 45.69600 41.51500
C  49.17600 42.16900 41.43800
C  52.70900 45.44000 42.09400
C  49.46600 48.93600 42.78900
N  47.70500 44.06500 41.49400
C  46.40900 44.40400 41.22100
C  45.75400 43.20400 40.55000
C  46.69100 42.10400 41.04600
C  47.90800 42.81700 41.30000
C  46.27000 41.27000 42.26700
C  45.60000 43.41600 39.04200
C  44.59600 42.52100 38.27500
H  44.97100 41.74700 36.96200
N  50.78400 43.96800 41.95400
C  50.50500 42.65700 41.60100
C  51.75900 41.93200 41.61700
C  52.83300 42.88000 41.65300
C  52.13600 44.17200 41.92600
C  51.77500 40.45300 41.65600
C  54.34800 42.61800 41.63900
O  54.82800 41.50300 41.39900
C  55.30300 43.81600 41.95000
N  50.89900 46.98800 42.47300
C  52.26200 46.72200 42.49200
C  53.10500 48.03800 42.65100
C  51.99200 49.14800 42.84300
C  50.66300 48.32600 42.74600
C  54.18800 47.98200 43.80800
C  52.13000 50.25700 41.65600
C  51.87000 51.68600 42.15400
N  48.10900 47.06600 42.27700
C  48.26700 48.38600 42.54800
C  46.95400 49.01600 42.48700
C  46.03400 48.06200 42.03200
C  46.75200 46.86000 41.90300
C  46.65800 50.49600 42.68100
C  44.64200 47.82700 41.66000
O  43.74000 48.68100 41.63800
C  44.59400 46.29300 41.21200
C  43.55900 45.48700 41.80500
O  42.81700 44.71300 41.21200
O  43.37200 45.83100 43.07800
C  42.12900 45.37200 43.84500
H  49.11400 41.09100 41.27200
H  53.79400 45.53400 42.02200
H  49.35600 50.02200 42.81500
H  44.73300 42.94200 40.82900
H  47.00700 41.39900 40.27700
H  47.12200 41.09400 42.92300
H  46.06300 40.30200 41.81100
H  45.31800 41.61000 42.67800
H  46.58900 43.44500 38.58500
H  45.12900 44.39400 38.94400
H  43.77800 43.19000 38.00600
H  44.07900 41.88000 38.98900
H  51.47700 40.05800 42.62700
H  52.69000 40.00300 41.27200
H  51.08400 40.05400 40.91400
H  56.28800 43.37100 42.08600
H  54.90600 44.15100 42.90800
H  55.41000 44.50300 41.11100
H  53.67100 48.27900 41.75100
H  51.98400 49.55400 43.85500
H  55.18400 48.18500 43.41500
H  54.35500 47.02500 44.30400
H  53.93100 48.56300 44.69400
H  51.30600 49.98700 40.99600
H  53.05000 50.29600 41.07300
H  51.09700 52.07800 41.49300
H  52.78300 52.28000 42.20600
H  51.66500 51.72000 43.22400
H  47.50500 50.92100 43.21900
H  45.82000 50.52600 43.37700
H  46.40100 51.12600 41.83000
H  44.39300 46.29900 40.14000
H  41.21000 45.75500 43.40300
H  42.15200 45.72300 44.87700
H  42.01900 44.29800 43.69000

