158

Mg 46.68600 24.95700 28.62300
C  47.39700 27.13500 31.29200
C  45.36900 22.75300 30.80200
C  46.55700 22.65300 26.11600
C  48.12100 27.19800 26.48000
N  46.45800 24.95400 30.82100
C  46.76300 25.98200 31.69900
C  46.21100 25.59800 33.11000
C  45.49200 24.19200 32.89600
C  45.79700 23.88300 31.43200
C  45.85800 23.13300 33.91000
C  45.27400 26.63900 33.84100
C  45.80500 27.19400 35.16400
H  44.82400 27.29400 36.32500
N  46.21400 22.93300 28.48800
C  45.54800 22.24400 29.47700
C  45.35700 20.85400 29.02200
C  45.76900 20.80500 27.67500
C  46.20900 22.15300 27.33600
C  44.62600 19.87200 29.91500
C  45.80800 19.65000 26.63900
O  46.12200 19.77700 25.44500
C  45.34200 18.26700 27.16600
N  47.25500 24.94700 26.55600
C  47.10000 23.87800 25.75900
C  47.64700 24.18800 24.36100
C  47.80700 25.74200 24.39500
C  47.68200 26.02600 25.87800
C  49.00500 23.41100 24.14800
C  46.76100 26.46600 23.61400
C  46.93200 26.66000 22.13900
N  47.56600 26.78300 28.78800
C  48.06800 27.63200 27.81900
C  48.50300 28.90000 28.35800
C  48.29500 28.70900 29.70800
C  47.69500 27.39700 29.97200
C  49.20300 30.00100 27.71400
C  48.45000 29.37200 31.02000
O  48.88500 30.46400 31.39300
C  47.81700 28.40200 32.00700
C  48.78300 28.25500 33.13100
O  49.78200 27.50000 33.14000
O  48.48300 29.10300 34.17400
C  49.14100 28.70300 35.42800
H  44.90600 22.17300 31.60400
H  46.64000 21.99300 25.24900
H  48.48000 27.91400 25.73800
H  47.08200 25.45400 33.75000
H  44.40300 24.14300 32.92400
H  45.22500 22.24800 33.84400
H  45.74700 23.57300 34.90200
H  46.89500 22.82700 33.77200
H  44.40200 26.09100 34.19800
H  45.03400 27.44200 33.14400
H  46.29000 28.16800 35.10200
H  46.57400 26.48500 35.47300
H  43.57000 19.86200 29.64600
H  44.74100 20.17600 30.95500
H  45.00500 18.85100 29.95900
H  45.42000 17.60000 26.30800
H  44.35900 18.14700 27.62300
H  46.07300 18.08700 27.95400
H  47.03700 23.85200 23.52200
H  48.78200 26.08400 24.04600
H  49.86100 24.07200 24.01100
H  49.04300 22.58200 23.44200
H  49.19200 22.93800 25.11200
H  46.75900 27.47100 24.03600
H  45.75300 26.06000 23.69500
H  47.76200 26.04200 21.79600
H  47.21000 27.69500 21.93800
H  46.07500 26.33000 21.55200
H  49.43500 29.56200 26.74400
H  50.11000 30.33400 28.21700
H  48.51900 30.84600 27.63700
H  46.95700 28.93400 32.41400
H  50.16300 29.07600 35.37500
H  49.10000 27.63700 35.65100
H  48.66900 29.20200 36.27500
Mg 47.21500 34.98300 27.43900
C  45.66800 33.25100 30.12700
C  47.52300 37.75400 29.40300
C  48.65100 36.66400 24.93200
C  46.49100 32.35600 25.43200
N  46.64900 35.43500 29.50700
C  46.17200 34.54400 30.48600
C  46.37500 35.22000 31.90200
C  46.44300 36.66300 31.49400
C  46.89400 36.64100 30.09300
C  45.09100 37.42500 31.53900
C  47.60500 34.76000 32.67700
C  47.40900 34.63500 34.19100
H  46.39300 35.45800 34.90600
N  48.14600 36.96800 27.18600
C  48.16500 37.91900 28.16100
C  48.93400 39.07400 27.77300
C  49.27100 38.77800 26.40200
C  48.75200 37.43900 26.13500
C  49.06900 40.34000 28.56700
C  50.08800 39.62200 25.45200
O  50.49600 39.11600 24.39800
C  50.65700 41.00200 25.83600
N  47.53100 34.55600 25.52300
C  48.15100 35.39700 24.66300
C  47.95300 34.98200 23.16500
C  47.59000 33.45900 23.34500
C  47.13200 33.46000 24.84100
C  46.99700 35.88700 22.34700
C  48.70300 32.39700 22.97400
C  48.31100 31.33500 22.01100
N  46.26800 33.17700 27.71400
C  46.06000 32.19400 26.77400
C  45.47200 30.99000 27.34700
C  45.23100 31.44200 28.71900
C  45.79800 32.74100 28.82700
C  45.09400 29.70200 26.74400
C  44.67600 31.10300 30.05800
O  44.16200 29.99700 30.29100
C  44.74600 32.35200 30.93400
C  45.16300 31.86600 32.26900
O  46.27700 31.44900 32.52400
O  44.07500 31.71100 33.03500
C  44.18600 31.37300 34.48500
H  47.60500 38.63300 30.04600
H  49.07000 37.22000 24.09100
H  46.27300 31.55900 24.71800
H  45.53600 34.91700 32.52800
H  47.17900 37.15300 32.13100
H  44.34800 36.79100 32.02300
H  44.87800 37.86100 30.56300
H  45.24100 38.19700 32.29400
H  48.57000 35.22300 32.47000
H  47.73900 33.75600 32.27500
H  48.38300 34.91500 34.59500
H  47.28400 33.59100 34.47700
H  50.11000 40.63400 28.43900
H  48.81700 40.11900 29.60500
H  48.46900 41.15900 28.17100
H  51.37500 41.29000 25.06800
H  51.29400 40.78600 26.69300
H  49.94000 41.80800 25.99600
H  48.90900 35.01800 22.64200
H  46.71700 33.14300 22.77400
H  47.59700 36.73800 22.02800
H  46.18300 36.33700 22.91600
H  46.65000 35.38900 21.44100
H  48.96200 32.03200 23.96800
H  49.48600 33.02800 22.55400
H  47.22900 31.20900 21.95800
H  48.76100 30.39200 22.32100
H  48.79400 31.62400 21.07800
H  45.46300 29.61300 25.72200
H  44.04300 29.42200 26.81500
H  45.64700 28.96800 27.33000
H  43.80100 32.89200 30.87000
H  43.75300 32.22700 35.00600
H  45.20600 31.27300 34.85700
H  43.63000 30.47500 34.75200

