158

Mg 46.93500 17.30600 28.17300
C  45.20400 17.06800 31.18000
C  49.19900 19.47600 29.71300
C  48.18600 18.12200 25.22200
C  44.18700 15.69300 26.62200
N  47.09500 18.32700 30.21600
C  46.40700 17.79400 31.32200
C  47.13300 18.28700 32.66000
C  48.38400 19.05500 32.09100
C  48.22100 18.96100 30.56500
C  48.62500 20.39600 32.70500
C  47.47900 17.15600 33.69000
C  46.90200 17.26400 35.06500
H  46.60400 18.64500 35.56500
N  48.54500 18.51100 27.54800
C  49.45100 19.24000 28.37200
C  50.52600 19.77000 27.53800
C  50.15000 19.56800 26.19600
C  48.92400 18.71800 26.23400
C  51.71600 20.36600 28.10200
C  50.91800 19.91000 24.92700
O  50.49500 19.71700 23.81600
C  52.33200 20.49500 25.06400
N  46.24000 16.95200 26.18000
C  47.06500 17.35000 25.11500
C  46.58200 16.62800 23.78600
C  45.28200 15.89100 24.27200
C  45.21100 16.18500 25.76700
C  46.52600 17.60600 22.61100
C  45.29400 14.32500 23.95400
C  46.30200 13.42700 24.82200
N  45.08700 16.57400 28.69500
C  44.09000 15.96000 27.97800
C  42.99200 15.51900 28.86500
C  43.43000 15.94000 30.11800
C  44.67000 16.59900 29.96400
C  41.67000 14.92100 28.42200
C  43.10900 15.88500 31.61500
O  42.09000 15.53500 32.21800
C  44.23600 16.72200 32.29700
C  43.64700 17.96400 32.92000
O  43.40400 19.04300 32.40700
O  43.18300 17.59900 34.17400
C  42.36500 18.59600 34.87100
H  50.12100 19.83700 30.17400
H  48.75100 18.23100 24.29400
H  43.35900 15.15400 26.15700
H  46.45500 18.98000 33.15700
H  49.22700 18.41600 32.35400
H  47.77200 20.67900 33.32200
H  48.74500 21.03400 31.83000
H  49.45500 20.40100 33.41200
H  48.53500 16.88700 33.65000
H  47.06200 16.25200 33.24700
H  47.59600 16.77100 35.74600
H  45.92400 16.80700 34.92200
H  52.60500 19.75800 27.93600
H  51.72100 20.45700 29.18900
H  51.86700 21.31200 27.58100
H  52.94300 19.88600 25.73000
H  52.24700 21.55700 25.29500
H  52.81300 20.42100 24.08800
H  47.32200 15.85800 23.56700
H  44.39100 16.24600 23.75300
H  46.61100 18.58700 23.07700
H  45.55400 17.42600 22.15100
H  47.40400 17.37500 22.00800
H  45.83600 14.30900 23.00800
H  44.32100 13.84400 23.85400
H  46.80700 12.68500 24.20300
H  45.70700 12.88400 25.55600
H  47.14900 13.93900 25.27800
H  40.96100 14.99800 29.24600
H  41.81200 13.89600 28.07700
H  41.30500 15.38000 27.50200
H  44.70600 16.15500 33.10000
H  41.47700 18.02600 35.14200
H  42.05300 19.48200 34.31800
H  42.93900 18.87600 35.75500
Mg 42.77900 42.30900 27.01600
C  41.75000 44.45200 29.67600
C  43.68900 40.13200 29.52400
C  44.40800 40.51500 24.55100
C  42.50000 44.97400 24.75400
N  42.73000 42.29200 29.40100
C  42.12000 43.23200 30.20400
C  42.00800 42.73200 31.64300
C  42.82100 41.31700 31.57800
C  43.11000 41.21200 30.11200
C  44.10300 41.26500 32.60400
C  40.52900 42.61400 32.11000
C  40.07900 43.45000 33.28200
H  39.46300 42.75100 34.51100
N  43.83500 40.57400 27.07200
C  44.04100 39.76100 28.21000
C  44.68100 38.56400 27.70900
C  44.99300 38.77600 26.28800
C  44.42400 40.02500 25.91500
C  44.98700 37.35900 28.57200
C  45.81400 37.85600 25.37100
O  46.26100 38.20800 24.28000
C  46.28300 36.50500 25.84000
N  43.18500 42.58800 24.91900
C  43.84400 41.68600 24.06700
C  43.97900 42.22200 22.66200
C  43.19900 43.63200 22.72400
C  42.88800 43.75000 24.20000
C  45.41100 42.40500 22.13000
C  41.90500 43.71900 21.85400
C  40.98800 42.48300 21.77600
N  42.18600 44.28200 27.15300
C  42.13800 45.25500 26.11000
C  41.56700 46.43600 26.72300
C  41.33600 46.16600 28.04300
C  41.77700 44.84100 28.28600
C  41.21500 47.64700 25.96700
C  40.87800 46.71900 29.25100
O  40.34000 47.77100 29.41700
C  41.06800 45.59400 30.43600
C  41.90700 46.22700 31.42500
O  43.04100 46.46000 31.34800
O  41.06700 46.82500 32.39300
C  41.60000 47.88300 33.20200
H  43.93100 39.32200 30.21500
H  44.82800 40.02900 23.66900
H  42.26500 45.80100 24.08000
H  42.46000 43.57200 32.17100
H  42.18800 40.47800 31.86600
H  44.08800 42.05000 33.35900
H  44.96900 41.32400 31.94500
H  44.13000 40.27300 33.05500
H  40.31900 41.59400 32.43200
H  39.98500 42.78500 31.18100
H  39.19000 43.91500 32.85800
H  40.78200 44.22500 33.58900
H  44.35100 37.34300 29.45700
H  46.03600 37.27100 28.85700
H  44.90400 36.41400 28.03500
H  46.97200 36.01800 25.15100
H  45.45500 35.82200 26.03000
H  46.90900 36.61200 26.72600
H  43.42700 41.53500 22.02000
H  43.86500 44.40400 22.33900
H  45.62300 43.45400 21.92200
H  45.56800 41.82000 21.22300
H  46.10300 42.12500 22.92400
H  42.30900 43.84800 20.84900
H  41.30900 44.61800 22.00800
H  41.08700 41.63700 22.45700
H  40.98800 41.92800 20.83700
H  39.94900 42.80900 21.82100
H  41.16300 48.47200 26.67600
H  40.24400 47.58800 25.47500
H  42.01700 47.91800 25.28000
H  40.06000 45.36400 30.78300
H  42.11600 47.31500 33.97600
H  40.85900 48.57900 33.59500
H  42.32200 48.51500 32.68400

