158

Mg 17.47600 -1.36600 27.56500
C  16.35700 0.77900 30.00400
C  19.54000 -2.90200 30.03500
C  18.57300 -3.55500 25.16400
C  15.59800 0.31100 25.24400
N  17.93500 -0.98400 29.70600
C  17.27100 -0.23000 30.54300
C  17.52700 -0.45400 32.01200
C  18.63500 -1.59100 31.96000
C  18.76700 -1.85200 30.46400
C  19.93300 -1.29300 32.64100
C  16.25300 -0.77400 32.93900
C  16.02800 0.15600 34.21400
H  17.22100 0.55200 34.93400
N  18.92900 -2.89300 27.58200
C  19.63000 -3.39600 28.68500
C  20.45800 -4.47700 28.25500
C  20.21200 -4.69900 26.83500
C  19.21700 -3.65700 26.46200
C  21.53500 -5.03700 29.13300
C  20.86300 -5.57100 25.82500
O  20.71300 -5.41100 24.64300
C  21.84200 -6.65500 26.20400
N  17.25300 -1.53500 25.47100
C  17.77300 -2.50700 24.76200
C  17.01900 -2.53600 23.32500
C  15.90200 -1.45100 23.55000
C  16.28500 -0.81900 24.82300
C  18.02300 -2.36100 22.16300
C  14.42500 -1.94000 23.46700
C  13.60300 -1.12600 22.47300
N  16.30700 0.30300 27.56000
C  15.54200 0.88700 26.53800
C  14.73700 1.92300 27.07900
C  15.00900 1.93800 28.41500
C  15.98500 0.93800 28.66200
C  13.87200 2.83800 26.25000
C  14.75500 2.67000 29.64400
O  13.91300 3.59900 29.82000
C  15.51500 1.91600 30.70900
C  16.43800 2.84600 31.38600
O  17.54800 3.02700 30.98800
O  15.78200 3.48500 32.46300
C  16.60300 4.63100 32.93800
H  20.15700 -3.49200 30.71600
H  18.58700 -4.47400 24.57400
H  14.85400 0.72900 24.56200
H  17.99400 0.41100 32.48300
H  18.19900 -2.52100 32.32600
H  20.69700 -1.30500 31.86400
H  20.07500 -2.04100 33.42000
H  19.97300 -0.28100 33.04300
H  16.16300 -1.81200 33.25900
H  15.41100 -0.51100 32.29900
H  15.44200 -0.36200 34.97300
H  15.48400 1.07300 33.98800
H  20.86700 -5.68800 29.69800
H  22.05500 -4.42700 29.87100
H  22.33000 -5.48000 28.53300
H  21.97000 -7.38000 25.40000
H  21.31600 -7.16000 27.01500
H  22.77900 -6.32400 26.65000
H  16.59100 -3.52700 23.16800
H  16.05900 -0.67800 22.79800
H  18.34300 -3.34400 21.81700
H  18.92900 -1.78000 22.33500
H  17.33200 -1.96600 21.41800
H  14.01900 -1.93700 24.47800
H  14.32600 -2.97400 23.13700
H  14.14800 -0.22400 22.19600
H  12.71200 -0.78800 23.00200
H  13.20800 -1.56500 21.55600
H  12.83300 2.51000 26.28000
H  14.24400 2.83500 25.22500
H  13.81800 3.86200 26.62000
H  14.82500 1.50700 31.44700
H  15.92100 4.99400 33.70700
H  16.78900 5.42600 32.21600
H  17.48600 4.27500 33.46800
Mg 17.44000 52.61000 26.25700
C  18.96300 51.34300 29.10400
C  14.85100 53.88000 28.18100
C  16.01500 53.54100 23.36500
C  19.92800 50.88900 24.42300
N  16.98700 52.55100 28.38700
C  17.77400 51.96900 29.40900
C  17.18800 52.38700 30.81500
C  15.79700 52.97500 30.40900
C  15.86900 53.18900 28.89600
C  14.60300 52.14500 30.79300
C  18.14500 53.44900 31.46900
C  18.31000 53.37400 32.99700
H  17.09200 53.04800 33.91800
N  15.72600 53.70400 25.81400
C  14.82300 54.14200 26.76600
C  13.91700 54.95900 26.09100
C  14.25300 54.96300 24.63200
C  15.36200 54.07500 24.54100
C  12.89500 55.72500 26.87400
C  13.53800 55.60300 23.49500
O  13.98300 55.51500 22.38200
C  12.41700 56.51500 23.76700
N  17.79400 52.12100 24.14400
C  17.12300 52.76000 23.17800
C  17.71400 52.51200 21.72600
C  19.18800 51.96000 22.21000
C  19.02100 51.63600 23.67500
C  16.91000 51.62400 20.78500
C  20.35400 53.01100 22.01900
C  21.64900 52.49000 21.44100
N  19.12400 51.36400 26.62300
C  19.94100 50.71000 25.77200
C  20.89000 49.91400 26.51600
C  20.52200 50.12900 27.83600
C  19.41800 50.99400 27.84700
C  22.02700 49.02900 26.05200
C  20.84300 49.82800 29.20000
O  21.72000 49.24100 29.84300
C  19.84300 50.66900 30.07400
C  19.21000 49.78600 31.03200
O  18.33500 49.01000 30.71400
O  19.79100 49.87600 32.31000
C  19.04200 49.14600 33.32100
H  13.99000 54.19100 28.77600
H  15.68500 53.91500 22.39400
H  20.68300 50.42900 23.78200
H  17.04800 51.51300 31.45100
H  15.57000 53.91700 30.90900
H  13.99800 52.74200 31.47500
H  14.95100 51.32900 31.42700
H  14.15800 51.77900 29.86800
H  17.73800 54.44100 31.27400
H  19.02500 53.60500 30.84500
H  18.76100 54.29400 33.37100
H  19.18500 52.73100 33.09900
H  12.12600 55.08200 27.30500
H  12.44200 56.53200 26.29900
H  13.36900 56.12500 27.77000
H  11.56900 56.03900 24.26100
H  12.12600 56.92600 22.80000
H  12.82600 57.31300 24.38700
H  17.83000 53.48800 21.25500
H  19.48900 51.08000 21.64100
H  15.98200 51.18000 21.14700
H  17.59300 50.82000 20.51000
H  16.62200 52.20100 19.90600
H  20.46500 53.56900 22.94800
H  19.93600 53.66700 21.25500
H  21.92200 53.17100 20.63500
H  21.42900 51.46900 21.12600
H  22.43500 52.60100 22.18800
H  22.69500 49.11800 26.90900
H  22.39300 49.38500 25.08900
H  21.72300 47.99100 25.91800
H  20.31100 51.41300 30.71900
H  17.96500 49.30200 33.37200
H  19.53300 49.30900 34.28000
H  19.22500 48.08400 33.15800

