158

Mg 47.77200 16.45900 28.70800
C  45.45500 15.80300 31.19000
C  49.41500 18.60700 30.81200
C  49.89600 17.15500 26.21800
C  45.73900 14.77400 26.42200
N  47.41300 17.21200 30.71500
C  46.44700 16.73300 31.61400
C  46.65700 17.21000 33.02600
C  47.78900 18.30700 32.83300
C  48.24700 18.05400 31.39100
C  47.27500 19.81100 32.99100
C  47.11900 16.00700 33.98900
C  46.75400 16.08000 35.47900
H  47.90000 16.03700 36.52000
N  49.41700 17.75400 28.54900
C  49.98500 18.54600 29.55200
C  51.15500 19.17900 29.07100
C  51.39800 18.62800 27.76000
C  50.21300 17.78600 27.47100
C  52.04800 20.18700 29.85600
C  52.59700 18.75600 26.83900
O  52.68000 18.20100 25.73000
C  53.76200 19.58200 27.29900
N  47.76000 16.09600 26.54700
C  48.83500 16.37400 25.78100
C  48.68500 15.83700 24.34800
C  47.39500 14.92000 24.44600
C  46.94400 15.19900 25.85900
C  48.49800 17.03400 23.35800
C  47.55100 13.48100 24.02900
C  47.47400 12.33900 25.04300
N  46.00500 15.52900 28.74200
C  45.26800 14.88600 27.73100
C  44.01800 14.35500 28.30500
C  44.04800 14.66900 29.67500
C  45.27100 15.31200 29.87700
C  42.90400 13.63100 27.53100
C  43.27600 14.64600 30.85800
O  42.14600 14.37300 31.11400
C  44.27800 15.32700 31.93200
C  43.51300 16.33000 32.70600
O  43.16400 17.36700 32.25400
O  43.40600 15.91900 34.04400
C  42.50900 16.83300 34.83900
H  49.89700 19.18800 31.60200
H  50.70300 17.15900 25.48200
H  45.09400 14.20000 25.75400
H  45.79100 17.79700 33.33300
H  48.62200 18.29600 33.53500
H  46.19400 19.94500 32.98700
H  47.67100 20.36600 32.14000
H  47.78200 20.13500 33.90000
H  48.20600 15.99900 33.92200
H  46.73600 15.04700 33.64100
H  46.15000 15.20700 35.72700
H  46.13500 16.97600 35.51800
H  51.39000 20.59800 30.62100
H  52.24600 20.97000 29.12500
H  52.88300 19.60300 30.24600
H  53.50600 20.64000 27.34000
H  54.55800 19.38700 26.58100
H  54.05900 19.23800 28.29000
H  49.60500 15.33900 24.04200
H  46.54700 15.30400 23.87900
H  49.06200 16.80600 22.45300
H  48.87100 17.96700 23.78000
H  47.46200 17.05700 23.01900
H  48.49700 13.39700 23.49400
H  46.73400 13.20600 23.36300
H  46.93700 12.64700 25.94000
H  48.45000 11.97300 25.36000
H  46.86900 11.47100 24.77700
H  42.82200 12.62800 27.94800
H  43.17400 13.35200 26.51200
H  41.92700 14.11500 27.55200
H  44.65800 14.61600 32.66600
H  42.50900 16.41600 35.84600
H  41.46300 16.82500 34.53100
H  42.97500 17.81500 34.91200
Mg -4.83700 25.27200 26.21600
C  -2.99900 27.17200 28.37900
C  -5.61100 23.13100 28.90400
C  -6.64500 23.36500 24.07000
C  -3.55600 27.20600 23.52000
N  -4.58100 25.31200 28.40700
C  -3.80800 26.20900 29.07200
C  -3.85700 25.96100 30.59300
C  -4.51100 24.55100 30.71700
C  -4.88100 24.25400 29.24300
C  -3.60900 23.45700 31.35100
C  -4.72600 27.15700 31.23000
C  -4.58900 27.63700 32.68900
H  -4.11700 26.62000 33.67000
N  -5.90400 23.50700 26.47400
C  -6.15600 22.81400 27.64300
C  -6.94200 21.63100 27.34500
C  -7.44100 21.81200 26.00400
C  -6.65400 22.91500 25.46500
C  -7.37400 20.64000 28.42900
C  -8.48100 21.05100 25.26300
O  -8.91600 21.38200 24.14800
C  -9.16600 19.81600 25.90300
N  -5.10600 25.35400 24.10100
C  -5.88900 24.40600 23.48800
C  -5.78800 24.56400 22.02300
C  -4.91500 25.84900 21.81200
C  -4.44900 26.17700 23.25000
C  -5.25700 23.27600 21.31200
C  -5.59800 27.16800 21.30500
C  -4.76000 27.93700 20.30100
N  -3.48700 26.87300 25.91400
C  -3.07300 27.51100 24.80900
C  -1.98600 28.39200 25.25200
C  -1.92900 28.30900 26.60700
C  -2.82400 27.33500 26.99700
C  -1.24400 29.36600 24.35500
C  -1.37200 28.80700 27.81700
O  -0.55100 29.67300 27.95200
C  -2.02900 28.14200 28.97700
C  -1.03600 27.50100 29.81700
O  -0.05400 26.87600 29.36300
O  -1.32300 27.67600 31.16500
C  -0.21500 27.07500 31.96000
H  -5.73500 22.35200 29.65900
H  -7.15300 22.71700 23.35300
H  -3.19400 27.63500 22.58300
H  -2.84000 25.84100 30.96800
H  -5.44600 24.48800 31.27400
H  -3.93600 23.10800 32.33100
H  -2.59700 23.81400 31.54000
H  -3.63900 22.67600 30.59100
H  -5.78300 26.94800 31.06700
H  -4.30800 28.00300 30.68400
H  -5.60900 27.97100 32.88000
H  -3.83100 28.41500 32.60400
H  -7.26100 19.71900 27.85800
H  -8.40700 20.90900 28.65100
H  -6.86500 20.67900 29.39200
H  -9.50300 19.95900 26.93000
H  -8.38800 19.06500 25.76500
H  -10.04900 19.60300 25.30100
H  -6.79400 24.76300 21.65300
H  -4.03800 25.60700 21.21200
H  -4.82200 22.62600 22.07100
H  -4.44900 23.51600 20.62100
H  -6.05000 22.70300 20.83100
H  -5.74200 27.96500 22.03400
H  -6.48100 26.91400 20.71900
H  -4.65800 28.99400 20.54700
H  -5.45400 27.96600 19.46100
H  -3.80800 27.49600 20.00600
H  -1.67400 29.47700 23.35900
H  -0.18400 29.12700 24.27600
H  -1.28200 30.39900 24.70000
H  -2.43200 28.93100 29.61200
H  0.72300 27.47500 31.57600
H  -0.24600 25.98900 31.87700
H  -0.25300 27.46200 32.97900

