158

Mg 16.57800 52.85600 26.53100
C  18.46400 51.12300 28.83100
C  14.28600 53.54400 28.92500
C  14.88000 54.46800 24.14700
C  18.93300 51.83000 24.06900
N  16.33400 52.34300 28.65400
C  17.31500 51.71000 29.36600
C  17.07200 51.87400 30.84000
C  15.55600 52.34900 30.90000
C  15.28400 52.70600 29.42200
C  14.61300 51.24600 31.44300
C  18.14900 52.85000 31.38000
C  18.49900 52.56400 32.86600
H  17.40300 51.97000 33.76800
N  14.88300 53.90900 26.51800
C  14.08600 54.04600 27.62600
C  13.03400 54.94100 27.25800
C  13.13500 55.24400 25.91500
C  14.36900 54.55700 25.46400
C  11.89000 55.43800 28.23900
C  12.25500 56.04900 24.98900
O  12.52000 56.17700 23.82900
C  10.91700 56.70700 25.46800
N  16.94600 53.23700 24.41400
C  16.06100 53.93000 23.69200
C  16.51600 54.02800 22.27800
C  17.86400 53.29300 22.20700
C  17.94900 52.73400 23.64400
C  15.45300 53.50300 21.20800
C  19.18600 54.13100 21.77700
C  19.03600 55.66800 21.46100
N  18.32900 51.73400 26.38700
C  19.17800 51.41100 25.32300
C  20.28500 50.60900 25.79800
C  19.96300 50.41400 27.22100
C  18.81800 51.14300 27.50300
C  21.32800 49.92600 24.98700
C  20.46600 49.76700 28.41000
O  21.43800 49.10400 28.58400
C  19.57600 50.39000 29.59300
C  19.11300 49.15500 30.31600
O  18.60300 48.20800 29.80300
O  19.41100 49.35200 31.64300
C  19.01500 48.23800 32.53600
H  13.49600 53.84600 29.61600
H  14.42300 54.99300 23.30600
H  19.61200 51.49100 23.28400
H  17.10200 50.84000 31.18400
H  15.40500 53.29400 31.42100
H  13.78800 51.76300 31.93400
H  15.13500 50.60300 32.15200
H  14.13000 50.61800 30.69400
H  17.56700 53.76800 31.46400
H  19.00700 52.95600 30.71600
H  18.75900 53.54400 33.26500
H  19.45800 52.04500 32.86100
H  12.01600 56.52000 28.27100
H  11.82200 55.05500 29.25700
H  10.87100 55.21200 27.92400
H  11.05100 57.32900 26.35400
H  10.18100 55.91200 25.58800
H  10.59900 57.33500 24.63600
H  16.62900 55.07300 21.98800
H  17.76300 52.38700 21.61000
H  15.63100 54.23000 20.41500
H  14.43500 53.60200 21.58500
H  15.72800 52.49200 20.90800
H  19.56400 53.63900 20.88000
H  19.85800 54.09000 22.63400
H  19.96800 55.97400 20.98500
H  18.98900 56.19300 22.41500
H  18.19400 55.89700 20.80700
H  21.20200 48.84400 25.01700
H  22.25600 50.13300 25.52000
H  21.47600 50.31900 23.98100
H  20.21300 50.97100 30.26100
H  17.93500 48.16100 32.41400
H  19.13700 48.58700 33.56200
H  19.58300 47.39000 32.15400
Mg -4.43000 25.47500 26.24000
C  -3.32700 27.11700 29.09600
C  -6.22300 23.41800 28.19600
C  -4.78900 23.41900 23.59800
C  -2.07800 27.41700 24.43800
N  -4.60400 25.22100 28.38000
C  -4.15500 26.03900 29.37100
C  -4.65100 25.63000 30.76100
C  -5.32300 24.25700 30.44200
C  -5.39900 24.26700 28.90000
C  -4.62200 22.93700 31.06100
C  -5.54900 26.68500 31.42900
C  -6.73800 26.22300 32.24600
H  -6.43700 25.16100 33.26800
N  -5.49800 23.73900 25.87300
C  -6.20700 23.07100 26.83300
C  -6.99100 22.02000 26.17800
C  -6.66300 22.14000 24.82400
C  -5.57600 23.08900 24.69900
C  -8.11200 21.28700 26.86100
C  -7.23100 21.37200 23.68500
O  -6.70200 21.42000 22.56700
C  -8.38700 20.35400 23.79200
N  -3.31000 25.33400 24.39000
C  -3.82000 24.47700 23.45800
C  -3.02400 24.70200 22.13400
C  -2.19600 25.98100 22.33100
C  -2.62900 26.28900 23.79500
C  -2.20100 23.48700 21.65600
C  -2.41200 27.24800 21.33200
C  -1.10300 27.84100 20.83300
N  -3.16600 27.05200 26.62000
C  -2.30400 27.78500 25.79900
C  -1.59500 28.78300 26.54800
C  -2.04400 28.61900 27.86600
C  -2.95100 27.54500 27.82600
C  -0.66300 29.77400 26.10400
C  -2.02800 29.12800 29.22700
O  -1.58400 30.18300 29.69900
C  -2.82300 28.09600 30.11700
C  -1.81500 27.56800 31.06600
O  -0.73400 26.99600 30.79400
O  -2.30000 27.77500 32.32000
C  -1.64600 27.10200 33.39400
H  -6.83800 22.71500 28.76200
H  -5.01900 22.94800 22.64000
H  -1.34100 28.05200 23.94100
H  -3.79200 25.54600 31.42700
H  -6.37700 24.32100 30.71400
H  -4.13000 22.51800 30.18300
H  -5.33400 22.26000 31.53200
H  -3.87900 23.26700 31.78700
H  -5.79200 27.44300 30.68400
H  -4.86800 27.19900 32.10800
H  -7.58500 25.96300 31.61200
H  -7.08900 27.16200 32.67400
H  -7.97800 20.22400 26.66300
H  -9.05500 21.47300 26.34600
H  -8.36900 21.48900 27.90100
H  -9.32600 20.83300 24.07100
H  -8.10200 19.63100 24.55600
H  -8.56400 19.74700 22.90400
H  -3.87100 24.95600 21.49700
H  -1.13400 25.82000 22.51800
H  -2.79900 22.78900 21.07000
H  -1.87900 22.97100 22.56000
H  -1.31000 23.75600 21.08900
H  -2.82100 28.09900 21.87500
H  -3.07900 26.98300 20.51200
H  -0.98600 28.83200 21.27300
H  -1.12700 27.97500 19.75200
H  -0.27400 27.22000 21.17200
H  -1.17400 30.70400 25.85400
H  -0.14000 29.39400 25.22600
H  0.01100 29.94400 26.94300
H  -3.50900 28.77400 30.62400
H  -0.70600 26.63200 33.10600
H  -2.29100 26.27900 33.70000
H  -1.45300 27.78900 34.21800

