158

Mg 42.58200 42.42000 26.53100
C  41.31900 44.77500 28.92400
C  44.09600 40.69700 29.06200
C  43.98400 40.45800 24.21600
C  41.54800 44.67200 23.95100
N  42.88000 42.86700 28.79200
C  42.06100 43.75200 29.57500
C  42.07900 43.26600 31.07900
C  43.20000 42.18900 31.09400
C  43.36300 41.82700 29.53700
C  44.51400 42.79000 31.57300
C  40.72300 42.73000 31.71100
C  40.16200 43.28800 33.01100
H  40.24600 42.44200 34.22500
N  43.64300 40.57000 26.67000
C  44.20900 40.08500 27.76700
C  44.89800 38.88800 27.37500
C  44.80500 38.78300 25.99400
C  44.04100 39.95100 25.55300
C  45.69500 38.09600 28.44800
C  45.39600 37.73300 25.04100
O  45.08700 37.71300 23.85400
C  46.39900 36.74600 25.48700
N  42.79700 42.65200 24.43500
C  43.40700 41.71500 23.70300
C  43.48400 42.18900 22.19500
C  42.33600 43.12800 22.09200
C  42.15500 43.47200 23.56800
C  44.91500 42.59300 21.66600
C  41.02800 42.53000 21.41300
C  40.19600 41.54800 22.21700
N  41.59300 44.36200 26.44300
C  41.28800 45.12300 25.28100
C  40.63900 46.31200 25.71800
C  40.42800 46.11100 27.16400
C  41.20200 44.94600 27.52400
C  40.19300 47.51200 24.97500
C  39.92000 46.79800 28.34000
O  39.42000 47.89500 28.46400
C  40.38800 45.88300 29.53200
C  41.01500 46.62900 30.64200
O  42.22400 46.82000 30.84700
O  39.99700 46.86000 31.57500
C  40.57000 47.21200 32.85000
H  44.51000 40.04500 29.83400
H  44.45900 39.87900 23.42100
H  41.30300 45.26400 23.06700
H  42.41700 44.11400 31.67500
H  43.06000 41.27800 31.67600
H  45.16600 41.92600 31.70400
H  44.39900 43.23300 32.56200
H  44.90600 43.43100 30.78400
H  40.81600 41.64400 31.73300
H  40.03300 43.02700 30.92100
H  39.09800 43.48900 32.88400
H  40.68200 44.22400 33.21700
H  45.11900 37.87500 29.34700
H  46.43400 38.82800 28.77300
H  46.32100 37.24100 28.19100
H  46.04300 36.13100 26.31400
H  47.28500 37.34700 25.69400
H  46.49100 36.14300 24.58400
H  43.23500 41.28300 21.64300
H  42.50900 44.07500 21.58000
H  45.79600 42.16500 22.14400
H  45.06600 43.66200 21.51400
H  44.96000 42.08400 20.70300
H  41.47800 42.02700 20.55700
H  40.43300 43.36500 21.04500
H  40.67700 41.41300 23.18600
H  40.10700 40.57900 21.72700
H  39.20200 41.95600 22.40300
H  40.40500 48.38500 25.59300
H  39.10600 47.54400 24.89600
H  40.61200 47.60900 23.97400
H  39.44900 45.43400 29.85600
H  41.12400 46.30700 33.09600
H  39.84700 47.47700 33.62100
H  41.29200 48.02200 32.74700
Mg -5.52900 25.12500 25.59000
C  -4.02900 26.23200 28.46400
C  -7.34300 22.82700 27.56100
C  -6.30600 23.28900 22.79500
C  -3.15800 26.86600 23.69800
N  -5.64300 24.56600 27.78800
C  -5.12300 25.42200 28.74800
C  -5.52300 24.92700 30.15800
C  -6.45500 23.58500 29.85100
C  -6.54900 23.70000 28.25000
C  -5.76400 22.19000 30.29900
C  -6.30200 26.05400 30.91600
C  -5.79600 26.51800 32.31800
H  -5.09200 25.45000 33.21000
N  -6.81000 23.45500 25.23400
C  -7.48600 22.72700 26.11500
C  -8.25700 21.70500 25.46200
C  -8.04800 21.80800 24.12300
C  -6.99300 22.87200 23.99100
C  -9.29700 20.78500 26.13100
C  -8.67600 21.09700 22.88200
O  -8.33700 21.42400 21.77900
C  -9.89500 20.25200 22.94300
N  -4.88500 25.26400 23.57400
C  -5.36300 24.39400 22.63400
C  -4.80700 24.74500 21.24400
C  -3.85700 25.96900 21.48700
C  -4.03000 26.10700 22.98200
C  -4.13000 23.63400 20.43600
C  -4.26600 27.30100 20.78800
C  -3.09600 28.02000 20.02700
N  -3.94500 26.42400 25.96700
C  -3.04800 27.03200 25.10900
C  -2.24700 27.91100 25.96400
C  -2.57700 27.51200 27.27700
C  -3.61400 26.67400 27.21500
C  -1.24000 28.96800 25.56400
C  -2.22700 27.73700 28.68900
O  -1.42100 28.46600 29.22000
C  -3.13900 26.89900 29.44100
C  -2.30700 26.03400 30.30200
O  -1.69000 25.05800 29.86700
O  -2.22000 26.52300 31.58800
C  -1.28700 25.79900 32.48100
H  -7.99200 22.14100 28.10900
H  -6.50900 22.87600 21.80500
H  -2.35900 27.37200 23.15100
H  -4.58000 24.60200 30.59800
H  -7.31200 23.83900 30.47400
H  -6.47800 21.75100 30.99500
H  -4.82400 22.30200 30.83800
H  -5.54700 21.46600 29.51400
H  -7.38200 25.90700 30.93700
H  -6.12200 26.88300 30.23200
H  -6.66200 26.75400 32.93600
H  -5.09300 27.35100 32.30100
H  -9.37900 19.83900 25.59500
H  -10.19500 21.37800 25.95700
H  -9.15000 20.58900 27.19300
H  -9.95100 19.69900 22.00500
H  -10.70400 20.92800 23.22000
H  -9.85000 19.50200 23.73300
H  -5.69400 25.01800 20.67200
H  -2.81000 25.69600 21.36000
H  -3.04600 23.74300 20.43400
H  -4.51900 23.69500 19.41900
H  -4.38100 22.66000 20.85600
H  -4.67900 27.94600 21.56500
H  -5.05200 27.01200 20.09000
H  -2.10600 27.95000 20.47900
H  -3.32800 29.08400 19.98700
H  -3.03100 27.57000 19.03700
H  -0.51300 28.69800 24.79800
H  -0.69300 29.22300 26.47100
H  -1.78800 29.84200 25.21200
H  -3.64800 27.50000 30.19500
H  -0.26900 25.90900 32.10700
H  -1.48800 24.73000 32.55300
H  -1.29400 26.15100 33.51200

