158

Mg 24.15600 -5.38100 45.25100
C  26.16700 -2.84500 43.79200
C  21.61400 -4.29800 43.11600
C  22.51900 -8.12000 46.00600
C  27.12600 -6.64300 46.63400
N  24.04200 -3.81600 43.55200
C  24.97400 -2.89800 43.14200
C  24.45900 -1.98200 42.10700
C  22.89800 -2.28100 42.15100
C  22.81400 -3.57600 42.93100
C  22.12300 -1.07400 42.74900
C  25.16600 -2.23800 40.74300
C  25.58700 -0.94900 39.86100
H  25.42600 -1.01700 38.28200
N  22.22300 -6.01600 44.73300
C  21.38900 -5.46000 43.85300
C  20.16200 -6.22700 43.92200
C  20.38300 -7.35300 44.71000
C  21.74400 -7.19200 45.22400
C  18.95000 -5.92500 43.05100
C  19.37600 -8.39700 45.14000
O  18.25800 -8.32500 44.66100
C  19.62700 -9.46900 46.30100
N  24.80800 -7.19600 46.10200
C  23.88800 -8.14200 46.39800
C  24.57700 -9.39000 47.05700
C  25.99300 -8.83300 47.42300
C  25.99900 -7.44500 46.74000
C  23.67600 -10.06000 48.21000
C  27.14300 -9.84500 47.02000
C  28.23500 -10.04500 48.07000
N  26.18100 -4.72800 45.44900
C  27.21400 -5.40400 46.00000
C  28.41100 -4.57900 45.95400
C  28.09300 -3.54800 45.12700
C  26.70000 -3.70700 44.76700
C  29.83800 -4.71000 46.59200
C  28.54100 -2.34300 44.49200
O  29.54800 -1.76000 44.56200
C  27.31100 -1.89100 43.51700
C  26.99600 -0.45600 43.85300
O  26.62200 -0.08200 44.92100
O  27.25900 0.41900 42.85800
C  27.13200 1.81200 43.22100
H  20.70300 -4.00600 42.59000
H  22.11000 -9.12300 46.14400
H  28.07300 -7.03600 47.01200
H  24.62100 -0.94500 42.40200
H  22.47900 -2.42600 41.15500
H  21.19600 -1.49600 43.13700
H  21.99200 -0.30400 41.98900
H  22.67800 -0.55900 43.53300
H  24.45400 -2.76600 40.10900
H  25.96700 -2.94100 40.96800
H  26.64200 -0.88900 40.12900
H  25.08400 -0.06200 40.24600
H  19.10200 -6.66000 42.26200
H  18.90900 -4.91600 42.64200
H  18.07900 -6.07000 43.69100
H  19.78100 -8.98700 47.26600
H  20.43900 -10.10500 45.95100
H  18.71800 -10.06700 46.23000
H  24.69000 -10.13300 46.26800
H  25.94400 -8.67700 48.50100
H  22.83000 -9.45800 48.54100
H  24.36200 -10.29900 49.02300
H  23.23700 -10.99300 47.85800
H  27.68600 -9.59600 46.10800
H  26.69600 -10.83000 46.89300
H  29.19300 -9.94700 47.55900
H  28.16700 -11.07600 48.41800
H  28.13000 -9.28600 48.84500
H  29.82500 -4.94400 47.65700
H  30.26500 -3.71300 46.47900
H  30.44600 -5.54200 46.23900
H  27.64800 -1.97400 42.48400
H  27.83600 2.43700 42.67200
H  27.38500 2.00100 44.26400
H  26.12900 2.14700 42.95500
Mg 25.16100 1.76300 29.73600
C  27.24500 1.18900 32.43400
C  22.54900 2.10800 31.94200
C  22.99800 1.91700 27.06200
C  27.61200 0.67800 27.63000
N  24.91300 1.37800 31.97500
C  25.91400 1.22200 32.87500
C  25.49200 1.54500 34.37500
C  23.90100 1.49200 34.11500
C  23.78200 1.75300 32.59900
C  23.12000 0.19300 34.55100
C  26.01900 2.94700 34.79700
C  26.90300 3.07100 36.06300
H  26.45900 4.06400 37.18900
N  23.12000 2.12400 29.54300
C  22.19500 2.21100 30.59700
C  20.87600 2.36700 30.02100
C  20.97900 2.32300 28.58900
C  22.42400 2.11200 28.29600
C  19.61200 2.62200 30.89000
C  19.95300 2.42500 27.50400
O  20.20100 2.50700 26.30200
C  18.50000 2.40800 27.98200
N  25.32800 1.39400 27.67200
C  24.29400 1.56400 26.70200
C  24.75100 1.20600 25.30000
C  26.20700 0.71600 25.53400
C  26.41600 0.99000 27.03700
C  23.72400 0.29600 24.49900
C  27.26200 1.41700 24.60900
C  28.13300 2.54800 25.13000
N  27.07200 1.15700 29.93600
C  27.97400 0.76200 28.97900
C  29.26800 0.54400 29.55400
C  29.03300 0.69100 30.93100
C  27.65400 1.00500 31.09800
C  30.59700 0.19300 28.92400
C  29.68300 0.67300 32.26800
O  30.87700 0.51900 32.58100
C  28.51200 1.03500 33.29100
C  28.52500 -0.07100 34.17900
O  27.99700 -1.17100 33.98500
O  29.14600 0.26100 35.39500
C  29.02900 -0.67500 36.53000
H  21.78300 2.30600 32.69500
H  22.34400 1.96100 26.18900
H  28.39600 0.31600 26.96200
H  25.82800 0.76900 35.06300
H  23.42900 2.34400 34.60600
H  23.94100 -0.46400 34.83800
H  22.64200 -0.29800 33.70300
H  22.43000 0.46900 35.34800
H  25.16000 3.59900 34.95600
H  26.51200 3.42500 33.95100
H  27.88400 3.32900 35.66200
H  27.01500 2.08900 36.52200
H  19.09300 3.51700 30.54700
H  19.84000 2.82600 31.93600
H  19.01600 1.71500 30.78900
H  18.16200 3.22800 28.61600
H  18.37500 1.45500 28.49500
H  17.93200 2.35700 27.05300
H  24.71400 2.13400 24.73000
H  26.26000 -0.33300 25.24200
H  22.74100 0.26000 24.97000
H  24.00200 -0.75800 24.46500
H  23.76200 0.68000 23.48000
H  26.73800 1.71000 23.70000
H  27.96100 0.64300 24.28800
H  28.15000 3.20500 24.26000
H  29.19000 2.29300 25.19900
H  27.68600 3.00800 26.01100
H  31.38400 0.79500 29.37900
H  30.47200 0.34600 27.85300
H  30.82800 -0.83600 29.20000
H  28.88100 1.88500 33.86600
H  29.04500 -1.71900 36.21800
H  28.25800 -0.61600 37.29800
H  29.91900 -0.64800 37.15900

