158

Mg 40.40600 9.34200 29.97800
C  42.11300 10.50600 32.84500
C  37.94300 8.29200 31.90200
C  39.32300 7.53300 27.26300
C  43.29100 10.30400 28.08500
N  40.21900 9.17700 32.18500
C  40.99900 9.80700 33.08400
C  40.32200 9.82700 34.44700
C  39.12900 8.88300 34.24300
C  39.07200 8.79800 32.68400
C  39.29700 7.48800 34.75400
C  39.73800 11.32000 34.72600
C  39.67600 11.65000 36.28500
H  40.78800 12.49300 36.98100
N  38.81000 8.08800 29.63200
C  37.84600 7.91300 30.52800
C  36.78800 7.19500 29.87200
C  37.17300 6.93400 28.52600
C  38.53300 7.48400 28.44500
C  35.50400 6.74700 30.58800
C  36.37300 6.37100 27.32700
O  36.79600 6.34600 26.16700
C  34.96900 5.96600 27.63900
N  41.14200 9.00400 27.93800
C  40.54200 8.20200 27.05500
C  41.21700 8.30600 25.62300
C  42.57700 8.92200 25.94500
C  42.34400 9.51500 27.37500
C  41.35900 6.86900 24.92800
C  43.02200 10.01100 24.87800
C  42.38600 11.44500 25.09500
N  42.30900 10.26200 30.31100
C  43.28600 10.57000 29.42400
C  44.37800 11.25700 30.18200
C  43.89100 11.22000 31.50000
C  42.65900 10.64100 31.53500
C  45.57900 11.94100 29.64300
C  44.17100 11.72700 32.80700
O  45.12700 12.44000 33.19300
C  43.07500 11.27400 33.78400
C  43.77300 10.33600 34.77400
O  44.19200 9.19900 34.43100
O  43.80400 10.87600 36.05300
C  44.50300 9.94500 36.96500
H  37.05700 8.14500 32.52200
H  39.05500 6.99900 26.34900
H  44.11400 10.72000 27.49900
H  41.01500 9.59300 35.25500
H  38.17000 9.26500 34.59400
H  38.91000 6.81400 33.98900
H  38.68000 7.47300 35.65300
H  40.31700 7.17500 34.97500
H  38.84100 11.54600 34.15000
H  40.48500 12.06600 34.45300
H  39.66000 10.76400 36.91900
H  38.79400 12.26900 36.45300
H  35.57900 6.85500 31.67000
H  35.26600 5.69900 30.40700
H  34.59500 7.26500 30.28100
H  35.04900 5.29700 28.49600
H  34.51700 5.43300 26.80300
H  34.55500 6.92800 27.94000
H  40.49000 8.87200 25.04100
H  43.35100 8.15800 26.01900
H  40.42100 6.59600 24.44300
H  41.46100 6.04700 25.63600
H  42.15400 6.81200 24.18500
H  42.88000 9.54700 23.90200
H  44.09000 10.07100 25.08700
H  42.22500 12.09700 24.23700
H  43.03400 11.92000 25.83200
H  41.44600 11.47100 25.64500
H  45.78500 12.77800 30.31000
H  45.36600 12.42000 28.68800
H  46.42700 11.27900 29.46800
H  42.63400 12.08500 34.36500
H  45.02700 10.50500 37.74000
H  45.25900 9.25600 36.58900
H  43.78000 9.50100 37.64900
Mg 47.37400 25.58900 28.21900
C  48.02900 27.82900 30.69900
C  46.79800 23.11900 30.63500
C  46.60700 23.53300 25.70400
C  48.55400 27.87500 25.87800
N  47.31500 25.52900 30.37900
C  47.62100 26.56200 31.16700
C  47.49700 26.25000 32.68000
C  47.12200 24.73000 32.62500
C  47.21500 24.39200 31.10400
C  48.00000 23.73200 33.47100
C  46.55100 27.21800 33.47100
C  45.80600 26.72800 34.77600
H  46.13100 27.44000 36.11000
N  46.60100 23.62200 28.21000
C  46.49400 22.74700 29.25100
C  46.08800 21.42200 28.71800
C  45.95400 21.55600 27.30100
C  46.41800 22.95900 26.99400
C  45.83700 20.20800 29.53200
C  45.50000 20.47900 26.30900
O  45.56200 20.66800 25.12500
C  45.10200 19.13500 26.72300
N  47.59900 25.65800 26.09400
C  47.25700 24.63700 25.28600
C  47.65900 24.98200 23.89700
C  47.96000 26.51100 23.92600
C  48.00800 26.72200 25.43300
C  48.79600 24.04200 23.28800
C  46.82900 27.32100 23.30800
C  47.04300 27.73400 21.87000
N  48.32800 27.44200 28.28900
C  48.68300 28.27800 27.29000
C  49.23100 29.54500 27.82500
C  48.91800 29.38700 29.21700
C  48.47100 28.09800 29.44000
C  49.72700 30.76900 27.14100
C  48.91300 30.12200 30.50500
O  49.25100 31.24400 30.82200
C  48.34700 29.12700 31.53300
C  49.40000 28.95200 32.58100
O  50.32600 28.21500 32.49400
O  49.01300 29.59700 33.70800
C  49.86300 29.34600 34.88500
H  46.47900 22.38800 31.38100
H  46.51100 22.77200 24.92700
H  48.88600 28.56300 25.09800
H  48.49400 26.43100 33.08200
H  46.08800 24.42900 32.79300
H  47.39100 23.12100 34.13700
H  48.75000 24.33000 33.98900
H  48.59300 23.08800 32.82300
H  45.68000 27.33800 32.82600
H  46.83800 28.26100 33.60100
H  45.97000 25.66900 34.97600
H  44.72000 26.78000 34.71300
H  46.03500 20.39400 30.58700
H  46.45100 19.35500 29.24300
H  44.78300 19.96200 29.39700
H  44.34700 19.14700 27.50900
H  46.01600 18.63700 27.04600
H  44.67200 18.67300 25.83400
H  46.77800 24.91000 23.25800
H  48.94800 26.83900 23.60400
H  48.52900 23.71300 22.28400
H  48.97800 23.19100 23.94400
H  49.73500 24.59600 23.26000
H  46.65300 28.25400 23.84500
H  45.85500 26.83200 23.30000
H  46.55400 27.10600 21.12500
H  48.08400 27.51100 21.63300
H  46.87900 28.80000 21.71600
H  49.66200 30.81100 26.05400
H  50.74300 30.91400 27.50800
H  49.30200 31.70500 27.50400
H  47.43700 29.57800 31.92800
H  49.56000 30.05200 35.65900
H  50.91700 29.43300 34.62200
H  49.66200 28.30300 35.12600

