158

Mg -1.97100 17.35800 25.84300
C  -2.45300 15.02200 28.44900
C  -2.51000 19.79500 28.19000
C  -1.95400 19.51800 23.22000
C  -2.49800 14.74300 23.52700
N  -2.53600 17.34300 28.15500
C  -2.45600 16.29100 29.00200
C  -2.52800 16.77000 30.54200
C  -2.69500 18.33100 30.38900
C  -2.51100 18.54400 28.84000
C  -4.02300 18.90800 30.97700
C  -1.35300 16.26800 31.42700
C  -1.07300 16.95600 32.77400
H  -0.92000 16.04300 34.02500
N  -1.99300 19.36400 25.71100
C  -2.20100 20.15200 26.82100
C  -2.29100 21.51400 26.29800
C  -2.04000 21.52200 24.92200
C  -1.93600 20.06000 24.56600
C  -2.56800 22.68300 27.14600
C  -1.89000 22.63200 23.91400
O  -1.73200 22.41100 22.74600
C  -1.83900 24.07500 24.36700
N  -2.03000 17.09900 23.61400
C  -2.00700 18.18600 22.78800
C  -1.99500 17.77800 21.33400
C  -2.25600 16.20100 21.43400
C  -2.32300 15.95700 22.93400
C  -2.86700 18.58100 20.43400
C  -1.22300 15.28200 20.70200
C  -1.93500 14.28300 19.77400
N  -2.23600 15.28100 25.87400
C  -2.43300 14.36100 24.87600
C  -2.59900 13.11800 25.49700
C  -2.47200 13.24100 26.87500
C  -2.43200 14.65200 27.08000
C  -3.11600 11.89200 24.73000
C  -2.61200 12.54500 28.14600
O  -2.91200 11.41600 28.37900
C  -2.49500 13.64300 29.16600
C  -1.23800 13.29900 29.90700
O  -0.12200 13.79100 29.63100
O  -1.48800 12.38000 30.86000
C  -0.46700 12.33500 31.91100
H  -2.40100 20.65600 28.85300
H  -1.77800 20.12200 22.32700
H  -2.66900 14.01900 22.72800
H  -3.46200 16.33900 30.90400
H  -1.88100 18.76300 30.97200
H  -4.91600 18.30000 30.83200
H  -4.33100 19.84100 30.50500
H  -3.82400 19.18800 32.01100
H  -0.45500 16.19200 30.81400
H  -1.51600 15.25400 31.79400
H  -1.88900 17.62600 33.04400
H  -0.10200 17.42900 32.62900
H  -2.96000 22.47800 28.14200
H  -3.35900 23.14600 26.55500
H  -1.67000 23.29300 27.24400
H  -2.81700 24.39300 24.72700
H  -1.62000 24.77400 23.56000
H  -1.11600 24.18000 25.17500
H  -0.99200 17.97000 20.95300
H  -3.29400 15.91100 21.26600
H  -3.66400 19.04100 21.01900
H  -3.29700 17.94700 19.65900
H  -2.24200 19.35400 19.98700
H  -0.59400 14.84300 21.47600
H  -0.49000 15.85200 20.12900
H  -1.24600 13.62900 19.23900
H  -2.55000 14.89900 19.11800
H  -2.67100 13.69900 20.32700
H  -4.19000 11.74900 24.61100
H  -2.79800 11.03300 25.32000
H  -2.53100 11.85900 23.81000
H  -3.33200 13.52700 29.85500
H  0.20500 11.47700 31.92200
H  -0.90000 12.24600 32.90700
H  0.16100 13.21800 32.02700
Mg -0.46600 6.98600 24.44600
C  0.54600 9.03700 27.17500
C  0.19800 4.30200 26.31200
C  -1.29000 5.20500 21.75200
C  -0.43000 9.86400 22.45700
N  0.54700 6.77400 26.41400
C  0.54800 7.69900 27.42900
C  0.55800 6.99900 28.87900
C  0.43200 5.53600 28.51000
C  0.41200 5.54200 26.96100
C  1.46400 4.50700 28.99000
C  -0.63100 7.39500 29.76100
C  -0.25300 7.79800 31.23200
H  1.08400 7.32000 31.76100
N  -0.54800 4.92900 24.09400
C  -0.21800 4.03100 24.98200
C  -0.47500 2.71300 24.37300
C  -0.96100 2.91700 23.03900
C  -0.97500 4.41800 22.89100
C  -0.13900 1.44400 25.17400
C  -1.23200 1.89100 21.94700
O  -1.62800 2.18600 20.82500
C  -0.89000 0.40600 22.13000
N  -0.81800 7.44000 22.45700
C  -1.18600 6.57400 21.49600
C  -1.35900 7.11200 20.13400
C  -1.26900 8.63400 20.43400
C  -0.75900 8.70600 21.90400
C  -0.31000 6.61700 19.11400
C  -2.57400 9.29200 20.37000
C  -2.66900 10.34100 19.19900
N  -0.03500 8.99600 24.66700
C  -0.02700 10.05800 23.78000
C  0.33300 11.33600 24.38600
C  0.46100 10.96900 25.72500
C  0.32100 9.56700 25.89500
C  0.41800 12.73000 23.79500
C  0.69200 11.49600 27.06400
O  0.90100 12.65700 27.42300
C  0.70600 10.23500 28.09800
C  2.05500 10.36300 28.80500
O  3.17900 10.23400 28.35200
O  1.79000 10.92000 30.07800
C  2.82200 11.22300 31.03200
H  0.24100 3.43000 26.96700
H  -1.50400 4.53700 20.91500
H  -0.52100 10.82800 21.95200
H  1.49100 7.36200 29.30900
H  -0.48400 5.06800 28.87100
H  2.14700 4.98200 29.69400
H  2.11700 4.28600 28.14600
H  1.01000 3.61700 29.42600
H  -1.40200 6.62700 29.81700
H  -1.15900 8.20100 29.25100
H  -1.04400 7.34900 31.83200
H  -0.42400 8.86600 31.36700
H  -0.42000 1.48300 26.22700
H  0.92900 1.22500 25.20200
H  -0.66400 0.62400 24.68400
H  -1.69900 -0.03900 22.70900
H  0.12700 0.47300 22.51700
H  -0.84600 -0.13300 21.18400
H  -2.29900 6.68400 19.78700
H  -0.50200 9.17900 19.88300
H  0.66500 6.34100 19.51600
H  -0.15700 7.50600 18.50200
H  -0.69400 5.78500 18.52500
H  -2.82600 9.78100 21.31100
H  -3.34300 8.54600 20.16800
H  -3.44200 10.05000 18.48700
H  -1.73300 10.44400 18.65000
H  -2.94500 11.29900 19.63900
H  -0.23200 12.90000 22.93700
H  1.44300 12.89800 23.46500
H  0.08400 13.46400 24.52800
H  -0.03300 10.44500 28.87100
H  3.04000 12.28900 30.96300
H  3.72300 10.62500 30.89100
H  2.38300 11.04500 32.01300

