158

Mg 48.72600 44.99500 42.27400
C  45.67400 45.46400 40.82000
C  48.55100 41.68000 41.35700
C  52.02300 44.75000 42.98400
C  48.99700 48.60500 42.53500
N  47.24600 43.72300 41.31900
C  46.05000 44.12000 40.82200
C  45.34600 42.99400 40.11000
C  46.21700 41.73200 40.42100
C  47.37800 42.42100 41.14500
C  45.52300 40.81300 41.45100
C  45.04100 43.09600 38.56700
C  43.70000 42.48900 37.99300
H  43.54900 41.96300 36.56900
N  50.11300 43.42700 42.22600
C  49.81100 42.14400 41.86500
C  51.06400 41.40300 41.94900
C  52.09100 42.22700 42.49200
C  51.46800 43.51600 42.63600
C  51.14000 39.99500 41.47900
C  53.51800 41.82300 42.76200
O  53.90600 40.66700 42.54800
C  54.48300 42.78900 43.32100
N  50.29500 46.52400 42.72000
C  51.55700 46.09500 42.94000
C  52.48300 47.32200 43.28900
C  51.40200 48.45300 43.30900
C  50.16700 47.83500 42.80700
C  53.30900 47.23500 44.61000
C  51.89000 49.75500 42.71100
C  51.62600 50.99100 43.54400
N  47.58100 46.73000 41.82900
C  47.74800 48.08200 42.11400
C  46.46400 48.72800 41.95000
C  45.69200 47.73800 41.31800
C  46.34900 46.53600 41.36300
C  46.09100 50.10200 42.12700
C  44.42800 47.47800 40.60400
O  43.50500 48.25100 40.46700
C  44.41500 45.97300 40.20900
C  43.17200 45.46300 40.77400
O  42.18600 45.09900 40.17000
O  43.17400 45.55500 42.14500
C  41.92300 45.79600 42.87100
H  48.45200 40.62500 41.09400
H  53.09100 44.78600 43.21100
H  49.01000 49.68400 42.70600
H  44.45100 42.87600 40.72100
H  46.46800 41.17500 39.51900
H  46.02500 39.87100 41.67300
H  44.61400 40.46700 40.95900
H  45.24800 41.29900 42.38700
H  45.78300 42.55900 37.97700
H  45.06400 44.09100 38.12300
H  42.91400 43.22400 38.17200
H  43.45500 41.65300 38.64800
H  52.07800 39.65500 41.04000
H  50.37400 39.63800 40.79200
H  50.90200 39.45000 42.39300
H  54.74600 43.67200 42.73900
H  55.45900 42.30900 43.39800
H  54.19100 43.04300 44.34000
H  53.13800 47.48400 42.43200
H  51.03800 48.67800 44.31100
H  54.19700 47.84900 44.45800
H  53.65500 46.25300 44.93300
H  52.84900 47.79000 45.42700
H  51.56400 49.97300 41.69400
H  52.97500 49.70300 42.61500
H  52.02300 50.94100 44.55800
H  50.59700 51.34100 43.62000
H  52.16200 51.80300 43.05400
H  45.58800 50.23900 43.08400
H  45.45700 50.33100 41.27000
H  46.99400 50.71100 42.09100
H  44.29800 45.94500 39.12600
H  42.13500 45.85000 43.93900
H  41.08200 45.11900 42.72300
H  41.68800 46.84800 42.70800
Mg -5.47600 25.92700 26.13000
C  -3.79100 27.19500 28.88400
C  -6.92100 23.55400 28.30200
C  -6.76000 24.35100 23.42300
C  -3.67200 27.99300 24.02800
N  -5.46400 25.45500 28.42600
C  -4.62500 26.12000 29.29500
C  -4.86600 25.61800 30.70800
C  -5.62700 24.28400 30.48700
C  -6.07700 24.40700 29.00400
C  -4.63300 23.02700 30.65800
C  -5.72000 26.80400 31.46100
C  -5.29800 27.07400 32.96900
H  -6.15200 26.36700 34.03300
N  -6.82300 24.31400 25.86900
C  -7.23600 23.46800 26.88000
C  -8.15700 22.47900 26.27100
C  -8.12700 22.69200 24.87100
C  -7.25700 23.82500 24.65000
C  -8.87900 21.41100 27.12500
C  -8.80200 21.94300 23.69900
O  -8.92100 22.33200 22.56400
C  -9.51900 20.70600 24.04700
N  -5.21900 26.06800 24.07500
C  -5.93300 25.41400 23.17600
C  -5.55400 25.71500 21.82300
C  -4.59700 26.88600 21.97500
C  -4.58300 27.09400 23.43800
C  -4.88000 24.54600 20.86100
C  -4.84700 28.23100 21.12200
C  -5.24500 28.10100 19.64200
N  -3.97200 27.29000 26.37100
C  -3.38300 28.12900 25.40500
C  -2.66400 29.10700 26.11400
C  -2.65300 28.73400 27.44500
C  -3.59100 27.66100 27.56700
C  -1.74300 30.12100 25.41000
C  -2.07100 29.03300 28.76700
O  -1.17700 29.80300 29.07100
C  -2.85100 28.12000 29.70200
C  -1.91700 27.36100 30.58300
O  -1.31000 26.27900 30.40500
O  -1.90200 28.02800 31.80200
C  -1.27400 27.38000 32.90100
H  -7.46800 22.86300 28.94700
H  -7.12300 23.74600 22.58900
H  -3.37200 28.86100 23.43800
H  -4.00200 25.41300 31.34100
H  -6.45200 24.19400 31.19200
H  -5.03500 22.45800 31.49600
H  -3.65500 23.35800 31.00800
H  -4.49700 22.42600 29.75900
H  -6.79000 26.59900 31.44400
H  -5.45800 27.74500 30.97800
H  -5.19400 28.13000 33.21400
H  -4.31200 26.61600 33.04800
H  -8.43600 20.42500 26.98100
H  -9.86000 21.29500 26.66300
H  -8.99400 21.55000 28.20000
H  -9.74900 20.10100 23.17000
H  -10.45800 20.95200 24.54300
H  -8.97000 20.11000 24.77600
H  -6.44600 26.11500 21.34100
H  -3.63200 26.51900 21.62700
H  -3.89300 24.83400 20.49900
H  -5.57300 24.45500 20.02500
H  -4.79900 23.60800 21.41000
H  -3.96100 28.86600 21.13700
H  -5.62700 28.80700 21.62100
H  -5.98100 28.88000 19.44400
H  -5.70400 27.15500 19.35300
H  -4.31500 28.16600 19.07700
H  -0.66800 30.10200 25.58700
H  -2.12800 31.14100 25.41100
H  -1.77600 29.84000 24.35700
H  -3.40200 28.84100 30.30500
H  -0.41900 27.81200 33.42100
H  -1.13700 26.30100 32.97300
H  -2.00100 27.55400 33.69400

