158

Mg 40.47600 9.26300 28.55700
C  42.29000 10.81200 31.35700
C  38.47600 7.77400 30.93900
C  38.82000 8.19500 26.08200
C  42.96600 10.67300 26.48700
N  40.37300 9.29900 30.85800
C  41.15900 10.05400 31.76700
C  40.64900 9.82000 33.22300
C  39.44900 8.88900 32.97900
C  39.44800 8.52900 31.49500
C  39.40900 7.50000 33.76500
C  40.37300 11.10300 34.04400
C  39.25700 11.10000 35.16100
H  39.65700 11.83600 36.47500
N  38.96800 8.03300 28.48400
C  38.18000 7.52000 29.58500
C  37.08000 6.70600 28.96700
C  37.14700 6.88800 27.56200
C  38.35500 7.62400 27.30800
C  36.08700 5.88700 29.81100
C  36.20800 6.30300 26.51600
O  36.56400 6.28800 25.36100
C  34.83600 5.59300 26.86600
N  40.91600 9.32900 26.59200
C  39.90600 8.99600 25.76100
C  40.29300 9.27800 24.27500
C  41.64400 9.96700 24.37400
C  41.88200 9.95100 25.89200
C  40.22900 8.09000 23.29100
C  41.79600 11.21400 23.51700
C  41.33800 12.61900 24.12000
N  42.25500 10.49200 28.80100
C  43.15000 10.91000 27.84800
C  44.30800 11.53000 28.41600
C  44.01200 11.47600 29.80100
C  42.70500 10.87300 29.98800
C  45.57100 11.94800 27.69900
C  44.55800 11.80300 31.09700
O  45.54200 12.51400 31.33600
C  43.47700 11.40900 32.16900
C  44.04000 10.46700 33.21900
O  44.55400 9.42300 32.86500
O  43.73600 10.90700 34.50800
C  43.86200 9.96000 35.61800
H  37.70100 7.42000 31.62300
H  38.30500 7.81800 25.19500
H  43.68900 10.86900 25.69200
H  41.40500 9.25900 33.77100
H  38.54900 9.50100 33.04800
H  38.35800 7.36700 34.02400
H  40.04000 7.64600 34.64100
H  39.74900 6.68800 33.12200
H  40.36100 11.88800 33.28800
H  41.32300 11.43000 34.46900
H  38.84200 10.15700 35.51600
H  38.37100 11.64400 34.83300
H  35.08500 6.14700 29.47000
H  36.16500 6.06000 30.88400
H  36.22900 4.81600 29.66600
H  35.09400 4.71400 27.45600
H  34.38800 5.17300 25.96500
H  34.25700 6.35400 27.39000
H  39.58100 10.05300 23.99000
H  42.39000 9.24000 24.05100
H  39.95300 7.13300 23.73300
H  41.19700 7.95400 22.80900
H  39.50000 8.34000 22.52000
H  41.27500 11.01000 22.58200
H  42.85000 11.27100 23.24300
H  41.18100 12.57400 25.19800
H  40.41100 12.82600 23.58500
H  42.02400 13.44600 23.93200
H  45.25900 12.84500 27.16400
H  45.86200 11.15800 27.00600
H  46.40200 12.15000 28.37500
H  43.20500 12.23300 32.82800
H  44.47000 9.08100 35.40100
H  42.84300 9.69700 35.90100
H  44.33600 10.37600 36.50800
Mg -11.69900 39.05800 41.79800
C  -9.92000 36.25900 40.64500
C  -9.32700 41.06100 40.50000
C  -13.77200 41.67000 42.45400
C  -14.26300 36.78200 42.71600
N  -10.01300 38.66000 40.47100
C  -9.41100 37.48200 40.18400
C  -8.11700 37.71900 39.36800
C  -7.82800 39.21400 39.59300
C  -9.12600 39.66600 40.26500
C  -6.50100 39.61300 40.21200
C  -8.20800 37.06700 37.96200
C  -6.96700 36.13600 37.65600
H  -6.08000 36.55600 36.58000
N  -11.49100 41.10100 41.59500
C  -10.43300 41.71100 41.05200
C  -10.61900 43.14700 41.27500
C  -11.87000 43.39000 41.87000
C  -12.49900 41.99900 41.97900
C  -9.56600 44.09400 40.81500
C  -12.35000 44.71100 42.30500
O  -11.67500 45.71000 41.97500
C  -13.58600 45.02000 42.99900
N  -13.79900 39.16900 42.20100
C  -14.38300 40.39200 42.50200
C  -15.79500 40.16000 43.01000
C  -16.03400 38.62200 42.74000
C  -14.60200 38.11700 42.52000
C  -16.18400 40.64600 44.46900
C  -17.00100 38.23200 41.62000
C  -18.10100 37.32500 42.09600
N  -12.16900 36.87400 41.65900
C  -13.09100 36.16200 42.32300
C  -12.73200 34.76400 42.34300
C  -11.54000 34.70200 41.64300
C  -11.15600 36.03000 41.28700
C  -13.48700 33.62500 43.04500
C  -10.45900 33.82100 41.14000
O  -10.34500 32.63200 41.12700
C  -9.43400 34.82100 40.36000
C  -8.13600 34.56200 40.99600
O  -7.80200 34.99900 42.11700
O  -7.34700 33.78700 40.10400
C  -6.07000 33.38100 40.60800
H  -8.42400 41.62400 40.25400
H  -14.36300 42.55100 42.71500
H  -14.84000 36.03000 43.25800
H  -7.42600 37.08300 39.92200
H  -7.82400 39.83400 38.69600
H  -6.61200 40.21000 41.11700
H  -5.96500 40.27600 39.53300
H  -5.89000 38.75500 40.49400
H  -8.24300 37.77600 37.13500
H  -9.13700 36.50500 38.06100
H  -7.41300 35.14500 37.57100
H  -6.39400 35.99400 38.57200
H  -8.59100 43.72400 41.13200
H  -9.73100 45.14800 41.03900
H  -9.65500 44.17500 39.73100
H  -14.45300 44.53900 42.54700
H  -13.92500 46.05600 43.00300
H  -13.54300 44.62800 44.01600
H  -16.48100 40.64700 42.31700
H  -16.45300 38.31600 43.69900
H  -15.33700 41.13400 44.95100
H  -16.56400 39.77100 44.99700
H  -17.00400 41.36300 44.42300
H  -16.43500 37.66600 40.88000
H  -17.51000 39.13500 41.28300
H  -19.03900 37.76600 42.43500
H  -17.74500 36.70400 42.91800
H  -18.34500 36.80100 41.17200
H  -13.01300 32.64600 42.96700
H  -14.51900 33.56100 42.69900
H  -13.48900 33.85300 44.11100
H  -9.51000 34.48000 39.32700
H  -5.75600 34.03700 41.41900
H  -5.28800 33.35500 39.84900
H  -6.22700 32.37500 40.99600

