158

Mg 2.06200 -1.20700 43.58200
C  5.43200 -0.20100 42.75000
C  0.91400 1.62800 42.06100
C  -0.95900 -2.69500 43.52400
C  3.46500 -4.20600 44.88800
N  3.07600 0.41700 42.46800
C  4.44900 0.61900 42.26300
C  4.67800 1.99600 41.62100
C  3.29900 2.67500 41.68400
C  2.32800 1.53500 42.13400
C  3.20400 3.95600 42.63700
C  5.09700 1.79000 40.13900
C  5.94800 2.81900 39.41800
H  5.38300 3.52800 38.24200
N  0.17200 -0.57900 42.98200
C  -0.12000 0.66200 42.44300
C  -1.50400 0.83600 42.37900
C  -2.11600 -0.37600 42.87300
C  -0.99700 -1.33200 43.15000
C  -2.12900 2.14100 41.85300
C  -3.60400 -0.65100 43.06900
O  -4.43000 0.27500 42.78800
C  -4.02000 -1.98900 43.50700
N  1.33100 -3.09900 44.13200
C  0.09800 -3.52800 43.89900
C  -0.14400 -5.01700 44.07500
C  1.23300 -5.40400 44.78900
C  2.07000 -4.16600 44.59500
C  -1.43800 -5.27100 44.90400
C  2.02300 -6.59600 44.19400
C  2.15700 -7.79600 45.11600
N  4.00600 -2.03500 43.95400
C  4.36900 -3.22800 44.58200
C  5.80600 -3.20100 44.77400
C  6.25000 -2.08400 44.01100
C  5.11300 -1.41500 43.51700
C  6.64400 -4.17100 45.43800
C  7.57100 -1.38200 43.58900
O  8.73300 -1.71500 43.71200
C  6.97400 -0.07500 42.89800
C  7.40500 1.09000 43.69300
O  6.79200 1.60800 44.62000
O  8.66300 1.48500 43.24900
C  8.99700 2.88000 43.73300
H  0.69400 2.64700 41.73800
H  -1.86000 -3.30100 43.40700
H  3.94000 -5.07300 45.35200
H  5.38700 2.65600 42.12000
H  3.05600 3.07000 40.69700
H  4.04600 3.96300 43.32900
H  2.29500 3.96200 43.23900
H  3.20400 4.87500 42.05200
H  4.17900 1.51800 39.61800
H  5.59200 0.84200 39.92900
H  6.78800 2.20200 39.10000
H  6.20100 3.60900 40.12600
H  -3.06300 1.84400 41.37700
H  -1.54200 2.58800 41.05100
H  -2.25700 2.95700 42.56500
H  -5.07300 -1.93100 43.78500
H  -3.57800 -2.28100 44.46000
H  -3.80500 -2.60800 42.63600
H  -0.23200 -5.32300 43.03200
H  1.06000 -5.44000 45.86400
H  -1.22000 -6.06300 45.62100
H  -2.26600 -5.54200 44.25000
H  -1.52900 -4.48100 45.65000
H  2.98000 -6.44900 43.69400
H  1.40100 -7.00100 43.39600
H  2.43800 -7.58100 46.14700
H  2.96900 -8.42100 44.74500
H  1.32500 -8.50000 45.09400
H  5.99700 -4.47000 46.26200
H  7.53000 -3.68000 45.84000
H  6.85500 -5.04500 44.82200
H  7.43700 0.06100 41.92000
H  9.75700 3.27100 43.05700
H  9.33100 2.78500 44.76600
H  8.13000 3.54000 43.68400
Mg -11.62800 16.93800 42.69100
C  -8.55100 15.34600 42.24100
C  -10.28000 19.75700 41.29300
C  -14.78800 17.86100 41.90200
C  -12.91700 13.73300 43.68100
N  -9.68700 17.43400 41.84300
C  -8.58400 16.66700 41.80600
C  -7.35700 17.43300 41.26300
C  -7.81800 18.90300 41.34800
C  -9.34400 18.69500 41.48600
C  -7.25300 19.80400 42.48500
C  -6.90300 16.85100 39.81300
C  -5.39100 16.98500 39.56900
H  -4.99500 17.43400 38.19300
N  -12.41400 18.65100 41.74000
C  -11.69200 19.72700 41.30200
C  -12.63400 20.69000 40.83600
C  -13.96200 20.03600 40.84700
C  -13.76000 18.73500 41.51100
C  -12.20300 21.95700 40.18000
C  -15.20100 20.75400 40.29200
O  -15.09100 21.89400 39.87200
C  -16.57400 20.02800 40.19900
N  -13.60200 15.94700 42.85400
C  -14.73400 16.57700 42.42200
C  -15.97900 15.72300 42.71900
C  -15.31700 14.37800 43.23200
C  -13.85200 14.71400 43.24500
C  -17.05400 16.39200 43.66300
C  -15.69000 13.08500 42.45600
C  -16.12300 11.95300 43.39900
N  -10.92900 14.99100 43.03400
C  -11.49600 13.83600 43.52300
C  -10.51400 12.71900 43.68700
C  -9.30300 13.31700 43.17200
C  -9.61200 14.67300 42.78200
C  -10.80900 11.28400 44.09600
C  -7.99000 12.97000 42.82000
O  -7.28900 11.96500 42.92600
C  -7.37400 14.34000 42.30900
C  -6.32300 14.78000 43.34100
O  -6.66600 15.42500 44.33600
O  -5.03600 14.37300 43.09600
C  -4.04600 14.66200 44.07700
H  -9.81500 20.70900 41.03000
H  -15.79400 18.21200 41.66600
H  -13.31300 12.74700 43.93100
H  -6.51100 17.25500 41.92700
H  -7.42300 19.48600 40.51600
H  -8.11000 20.00400 43.12900
H  -6.88300 20.79400 42.21900
H  -6.43700 19.30400 43.00600
H  -7.37100 17.37800 38.98100
H  -7.27500 15.82800 39.76800
H  -4.98200 16.01800 39.86300
H  -5.00800 17.72400 40.27300
H  -12.71300 22.76000 40.71200
H  -12.57200 21.87000 39.15800
H  -11.13700 22.18400 40.20900
H  -16.49500 19.16700 39.53500
H  -17.28600 20.72600 39.75800
H  -17.09700 19.91700 41.14900
H  -16.43300 15.54700 41.74300
H  -15.53900 14.30900 44.29700
H  -17.98900 16.56800 43.13300
H  -16.59900 17.34600 43.93100
H  -17.05200 15.82600 44.59500
H  -14.89600 12.69600 41.81900
H  -16.60800 13.23000 41.88800
H  -17.16800 12.09700 43.67400
H  -15.62000 11.91200 44.36500
H  -15.97600 11.00200 42.88900
H  -9.83500 10.80000 44.17500
H  -11.24800 10.73700 43.26100
H  -11.30700 11.22700 45.06300
H  -6.78900 14.16800 41.40600
H  -3.87800 15.72700 43.92300
H  -3.14700 14.05600 43.97200
H  -4.33300 14.48500 45.11400

