158

Mg 1.86900 7.96300 25.97700
C  2.36100 9.92700 28.84800
C  2.17400 5.15800 28.05500
C  1.68400 6.10600 23.32100
C  2.05000 10.86800 24.02300
N  2.17100 7.60600 28.22800
C  2.30000 8.60900 29.16900
C  2.42000 8.00000 30.60100
C  2.40100 6.48100 30.36500
C  2.26700 6.36300 28.81100
C  3.58900 5.64600 30.89100
C  1.14000 8.49700 31.52200
C  1.40600 8.68800 33.04900
H  2.58200 8.02700 33.76400
N  1.73000 5.92900 25.70700
C  1.84700 4.97600 26.65000
C  1.73100 3.66100 26.06300
C  1.53900 3.93400 24.69300
C  1.71700 5.38000 24.47200
C  1.90900 2.41400 26.79300
C  1.09600 2.88100 23.67900
O  1.10600 3.21500 22.48100
C  0.71300 1.54300 24.02500
N  1.91700 8.48400 23.92900
C  1.74300 7.51300 23.07700
C  1.61300 8.09100 21.65600
C  1.67000 9.66400 21.85400
C  1.77500 9.70400 23.36100
C  2.73000 7.55000 20.66700
C  0.39900 10.46700 21.41700
C  0.71700 11.80100 20.67400
N  2.15900 9.97600 26.30400
C  2.15900 11.06600 25.41100
C  2.19500 12.35200 26.16300
C  2.28200 11.91500 27.48900
C  2.19400 10.49800 27.53000
C  2.31200 13.69300 25.51500
C  2.54100 12.37500 28.89500
O  2.68600 13.48400 29.35400
C  2.55100 11.11700 29.76200
C  3.90400 11.15900 30.35500
O  4.89000 10.54700 29.98300
O  3.81000 11.71200 31.63200
C  4.94700 11.74300 32.54000
H  2.25100 4.28300 28.70500
H  1.49900 5.53400 22.40900
H  2.22500 11.74200 23.39100
H  3.38900 8.21100 31.05300
H  1.56400 5.99000 30.86200
H  4.24900 5.34400 30.07700
H  3.22800 4.76900 31.42700
H  4.17200 6.12800 31.67500
H  0.35500 7.76300 31.34100
H  0.82400 9.43500 31.06500
H  0.50800 8.34800 33.56400
H  1.49200 9.77300 33.10800
H  1.17200 2.17900 27.56000
H  2.89200 2.32600 27.25700
H  2.02500 1.60300 26.07400
H  1.60600 0.91700 24.03500
H  0.01000 1.25300 23.24400
H  0.19300 1.41500 24.97500
H  0.64300 7.75800 21.28600
H  2.49600 10.17400 21.35900
H  3.72500 7.48400 21.10700
H  2.88500 8.13800 19.76300
H  2.47000 6.52800 20.39100
H  -0.17800 10.91500 22.22500
H  -0.41700 9.96000 20.90200
H  1.35300 12.51700 21.19500
H  -0.08600 12.41500 20.26700
H  1.35900 11.60500 19.81600
H  1.43700 14.27100 25.81000
H  2.34000 13.51800 24.43900
H  3.24600 14.04400 25.95300
H  1.83300 11.19200 30.57900
H  5.36800 12.74800 32.56200
H  5.69600 10.97400 32.35200
H  4.49900 11.56500 33.51800
Mg -10.35400 17.17300 43.48800
C  -6.84200 16.86000 43.10700
C  -10.11900 20.43100 42.36600
C  -13.63500 17.18300 43.15700
C  -10.43900 13.62300 43.83200
N  -8.57400 18.45500 42.71300
C  -7.27800 18.17600 42.73400
C  -6.39800 19.48800 42.35600
C  -7.52400 20.59900 42.45000
C  -8.82500 19.81100 42.47000
C  -7.28400 21.61500 43.60900
C  -5.57300 19.20900 40.97800
C  -5.94100 20.05900 39.76100
H  -5.52500 19.52500 38.46000
N  -11.69300 18.55800 42.97600
C  -11.40700 19.85200 42.51800
C  -12.63500 20.57500 42.24900
C  -13.67800 19.70200 42.55500
C  -13.04000 18.36700 42.92200
C  -12.70800 22.03000 41.86500
C  -15.15300 20.05600 42.52700
O  -15.49900 21.22800 42.31700
C  -16.23600 19.07400 42.80200
N  -11.86200 15.64700 43.48700
C  -13.12300 15.95500 43.38400
C  -13.99500 14.76800 43.77600
C  -13.04800 13.55600 43.71200
C  -11.67400 14.31200 43.64000
C  -14.90900 14.90300 44.98000
C  -13.24200 12.67300 42.45100
C  -13.59900 11.20800 42.76900
N  -8.93200 15.46500 43.59300
C  -9.09400 14.15300 43.73800
C  -7.84200 13.45900 43.68500
C  -6.92600 14.50900 43.48100
C  -7.61600 15.70700 43.38700
C  -7.57000 12.01000 43.77600
C  -5.50600 14.79900 43.29500
O  -4.54200 14.07300 43.17800
C  -5.44500 16.37000 43.13100
C  -4.62600 16.97300 44.29700
O  -3.37600 16.85000 44.35700
O  -5.37700 17.51300 45.27500
C  -4.74800 17.79500 46.57600
H  -10.11400 21.51300 42.21500
H  -14.72400 17.16600 43.07500
H  -10.44500 12.53800 43.95500
H  -5.71700 19.68900 43.18300
H  -7.56000 21.27000 41.59200
H  -8.03400 21.44300 44.38200
H  -7.47900 22.58500 43.15200
H  -6.32800 21.56700 44.12900
H  -5.71700 18.16600 40.69700
H  -4.51800 19.34500 41.21700
H  -5.63000 21.07200 40.01700
H  -7.02800 20.06600 39.84000
H  -13.49400 22.14000 41.11800
H  -11.79200 22.36300 41.37800
H  -13.00700 22.71100 42.66200
H  -16.26700 18.78300 43.85200
H  -16.04100 18.27700 42.08500
H  -17.20600 19.45700 42.48500
H  -14.72900 14.63900 42.98100
H  -13.14900 13.08000 44.68700
H  -14.93500 14.12200 45.74000
H  -15.95100 15.00800 44.67700
H  -14.61800 15.83200 45.46900
H  -12.38500 12.66200 41.77700
H  -14.05700 13.03900 41.82600
H  -14.51700 10.97000 42.23100
H  -13.56400 11.02000 43.84200
H  -12.86100 10.57700 42.27400
H  -6.97200 11.66400 44.61900
H  -7.02300 11.67000 42.89600
H  -8.52300 11.48300 43.72600
H  -4.83000 16.57800 42.25500
H  -5.30900 17.78500 47.51100
H  -4.18200 18.70500 46.38000
H  -4.00700 17.01500 46.74900

