158

Mg 35.91200 2.50900 30.52600
C  33.72200 3.60100 32.90200
C  38.40000 2.47400 32.96700
C  38.19300 1.65200 28.05100
C  33.49700 2.78100 28.05000
N  36.03500 3.08600 32.67800
C  34.99500 3.35000 33.44400
C  35.37100 3.42800 34.95800
C  36.86600 3.21400 34.92700
C  37.13400 2.89200 33.45500
C  37.72200 4.32400 35.50100
C  34.60400 2.30500 35.69100
C  34.07700 2.79700 37.08900
H  34.97400 3.65500 38.00700
N  37.94500 2.17900 30.50400
C  38.77400 2.18200 31.61400
C  40.10500 1.72000 31.12600
C  40.03500 1.29700 29.79500
C  38.68600 1.69100 29.39000
C  41.34800 1.48200 32.06700
C  41.13000 0.61300 28.82100
O  40.90600 0.07300 27.75700
C  42.50600 0.49700 29.30700
N  35.82500 2.14800 28.40200
C  36.86100 1.91500 27.60100
C  36.63300 1.83000 26.09600
C  35.01000 2.09200 26.11900
C  34.72400 2.28300 27.65800
C  37.40100 2.97900 25.41700
C  34.20300 0.86300 25.59800
C  33.00600 1.25700 24.64900
N  34.00600 3.00300 30.43300
C  33.13100 3.14600 29.38500
C  31.85600 3.64700 29.87700
C  32.05100 3.85000 31.23000
C  33.34400 3.47200 31.50700
C  30.74100 4.13700 28.98600
C  31.40100 4.24200 32.45200
O  30.21600 4.59900 32.59600
C  32.47400 4.16900 33.57600
C  32.64500 5.60900 34.07000
O  33.27800 6.51400 33.51600
O  32.01500 5.77500 35.27700
C  32.17700 7.11900 35.90400
H  39.09000 2.35500 33.80600
H  38.85800 1.24000 27.28900
H  32.76000 2.93700 27.25900
H  35.09100 4.42000 35.31300
H  37.13400 2.25700 35.37500
H  38.26900 3.82700 36.30300
H  37.16800 5.13800 35.96800
H  38.50000 4.58300 34.78400
H  35.20200 1.40000 35.80000
H  33.69900 2.04400 35.14200
H  33.67000 1.98300 37.68800
H  33.22900 3.45800 36.90900
H  41.47700 0.40300 32.15100
H  41.10800 1.69800 33.10800
H  42.08600 2.18400 31.68100
H  43.11500 0.25200 28.43700
H  42.41000 -0.26700 30.07800
H  42.85500 1.40400 29.80000
H  36.87200 0.84600 25.69200
H  34.81200 2.99100 25.53500
H  37.29700 2.85100 24.33900
H  38.43500 2.92400 25.75700
H  36.92700 3.93900 25.62000
H  33.88700 0.28300 26.46500
H  34.91600 0.28500 25.01100
H  33.25900 0.92100 23.64400
H  33.07000 2.34200 24.56900
H  32.03800 0.95500 25.04800
H  30.74900 3.51700 28.08900
H  31.00100 5.17000 28.75700
H  29.72300 4.01100 29.35300
H  31.97300 3.54400 34.31500
H  32.80200 7.02500 36.79200
H  31.22000 7.54100 36.21400
H  32.66700 7.91000 35.33600
Mg 47.85000 16.06700 28.50400
C  45.89400 16.34200 31.40900
C  50.39200 17.77900 30.22900
C  49.48300 16.36000 25.54100
C  45.03600 15.08100 26.81200
N  48.06100 16.90600 30.62300
C  47.18500 16.81800 31.65600
C  47.89300 17.35500 32.86900
C  49.08200 18.20100 32.25100
C  49.22200 17.55000 30.91800
C  48.85300 19.75500 32.24600
C  48.47200 16.17100 33.84800
C  48.60600 16.48000 35.31500
H  48.55000 17.96500 35.82300
N  49.70400 16.84800 27.95600
C  50.62400 17.45900 28.80500
C  51.86600 17.61400 28.08400
C  51.61600 17.17900 26.69700
C  50.22100 16.75100 26.67700
C  53.18600 17.94200 28.83500
C  52.64200 17.07800 25.64500
O  52.34600 16.79700 24.50200
C  54.08100 17.48600 25.90000
N  47.36200 15.59400 26.53100
C  48.14300 15.94500 25.46500
C  47.42400 15.84200 24.14000
C  46.14200 15.17300 24.53600
C  46.10800 15.27400 26.02400
C  47.21700 17.09800 23.26400
C  46.09400 13.64200 24.12300
C  45.06400 13.29600 23.01800
N  45.88500 15.74600 28.97400
C  44.86700 15.33300 28.14600
C  43.74800 15.01500 28.96300
C  44.07300 15.37600 30.22100
C  45.36600 15.89800 30.15900
C  42.47400 14.26600 28.56000
C  43.54600 15.41900 31.54200
O  42.46600 15.03300 31.95400
C  44.78500 16.04500 32.39300
C  44.41800 17.28900 33.09100
O  44.43300 18.41300 32.59700
O  43.82700 16.90600 34.28000
C  43.27000 18.03700 35.00000
H  51.24300 18.29500 30.67900
H  49.97900 16.52300 24.58200
H  44.18300 14.66200 26.27400
H  47.19400 18.01500 33.38300
H  49.98000 18.05100 32.85100
H  47.97600 20.01700 32.83700
H  48.78800 20.05500 31.20000
H  49.70000 20.22700 32.74400
H  49.42800 15.82500 33.45500
H  47.85300 15.28500 33.70800
H  49.51900 16.13900 35.80300
H  47.80400 15.99400 35.87100
H  53.85600 17.08300 28.83000
H  53.03100 18.21700 29.87900
H  53.66000 18.76500 28.30000
H  54.12800 18.55000 26.13100
H  54.63700 17.40600 24.96600
H  54.53500 16.89600 26.69600
H  48.04200 15.15500 23.56300
H  45.35000 15.73700 24.04300
H  47.89700 17.02400 22.41500
H  47.43000 18.01100 23.82000
H  46.21300 17.28700 22.88300
H  45.99900 12.97700 24.98100
H  47.06500 13.35600 23.71900
H  45.66300 13.10400 22.12900
H  44.38500 14.12400 22.81500
H  44.46600 12.46100 23.38200
H  42.38300 14.33000 27.47600
H  41.52300 14.58300 28.98800
H  42.60900 13.21800 28.82700
H  45.03700 15.25700 33.10200
H  44.01800 18.81100 35.17000
H  42.77000 17.87500 35.95500
H  42.47200 18.44100 34.37700

