158

Mg 7.58700 2.55600 27.08700
C  8.86800 1.20800 30.01700
C  5.47800 4.51000 28.99700
C  6.07300 3.63100 24.21300
C  8.97200 -0.13200 25.34600
N  7.06300 2.70900 29.28700
C  7.88300 2.16700 30.24800
C  7.48200 2.76900 31.60800
C  6.22800 3.71000 31.30700
C  6.28300 3.67000 29.77800
C  4.89000 3.06300 31.69700
C  8.64800 3.52400 32.23500
C  8.38500 3.96100 33.67200
H  9.41200 3.58000 34.79100
N  6.05900 3.93700 26.62400
C  5.30300 4.55700 27.55400
C  4.33300 5.44900 26.87900
C  4.61700 5.38200 25.52100
C  5.61700 4.26200 25.38900
C  3.39600 6.35300 27.63000
C  4.18400 6.21200 24.36500
O  4.43100 5.96500 23.19600
C  3.20400 7.37000 24.63900
N  7.46300 1.86300 25.13500
C  6.92000 2.57100 24.14600
C  7.10200 1.86300 22.83800
C  8.22900 0.72500 23.09700
C  8.17800 0.80800 24.64500
C  5.89200 1.32200 22.03400
C  9.59600 1.16500 22.44600
C  10.46400 2.09000 23.27700
N  8.68300 0.86900 27.48800
C  9.23900 -0.05000 26.71900
C  10.26900 -0.75500 27.43300
C  10.08000 -0.27500 28.75100
C  9.13200 0.71000 28.71800
C  11.24900 -1.77500 26.99600
C  10.51800 -0.54400 30.07600
O  11.30000 -1.37300 30.51700
C  9.82100 0.46400 30.95100
C  9.19000 -0.08400 32.14800
O  8.21700 -0.82200 32.25300
O  9.97800 0.26200 33.23800
C  9.43300 -0.06400 34.56800
H  4.96900 5.29100 29.56500
H  5.74100 3.94200 23.22100
H  9.50300 -0.92000 24.80800
H  7.26400 1.95700 32.30100
H  6.55500 4.65800 31.73500
H  4.44800 3.57400 32.55200
H  4.96200 1.99200 31.89200
H  4.14300 2.94400 30.91200
H  8.68900 4.50600 31.76400
H  9.57100 2.94600 32.17500
H  7.38500 3.68700 34.00800
H  8.42200 5.04800 33.74500
H  3.91800 7.30400 27.73700
H  3.31000 5.95600 28.64100
H  2.48300 6.43500 27.04000
H  2.22800 6.93300 24.84800
H  3.25900 8.02400 23.76900
H  3.52500 7.95300 25.50200
H  7.63700 2.52500 22.15600
H  7.89300 -0.25800 22.76400
H  5.06800 1.23700 22.74300
H  5.98200 0.33500 21.58000
H  5.75400 2.11600 21.30000
H  9.38300 1.64400 21.49000
H  10.03000 0.18600 22.24400
H  10.08800 2.23500 24.29000
H  10.57900 3.13400 22.98500
H  11.44100 1.61000 23.33600
H  11.08700 -1.76200 25.91800
H  10.88800 -2.73800 27.35700
H  12.30100 -1.53400 27.15200
H  10.47800 1.26400 31.29100
H  9.35300 -1.14600 34.67800
H  8.41100 0.30000 34.66700
H  10.05300 0.26000 35.40400
Mg 44.35200 5.07200 47.54700
C  42.04000 7.81100 47.51600
C  41.66800 2.97900 47.03000
C  46.56400 2.66200 46.93400
C  46.92000 7.45300 47.18700
N  42.15200 5.34100 47.45100
C  41.46900 6.56400 47.39900
C  39.92600 6.31100 47.39000
C  39.83000 4.68100 47.35700
C  41.29800 4.30100 47.28000
C  38.93800 4.07100 48.50300
C  39.11800 6.99200 46.23800
C  40.03600 7.17700 45.00700
H  39.43900 6.69500 43.66900
N  44.18200 3.04000 47.16200
C  42.97500 2.35200 46.97100
C  43.25500 1.01600 46.62100
C  44.64000 0.89900 46.46000
C  45.18700 2.20600 46.86800
C  42.18400 -0.01900 46.32700
C  45.30400 -0.40900 45.95800
O  44.74200 -1.52000 45.77900
C  46.73200 -0.31500 45.57200
N  46.44400 5.03100 47.17100
C  47.16300 3.88300 46.99900
C  48.65000 4.04000 47.12200
C  48.73300 5.59100 46.92400
C  47.30700 6.10800 47.08900
C  49.24000 3.60300 48.47700
C  49.24900 5.93900 45.51400
C  50.62200 5.48400 45.16300
N  44.50400 7.16300 47.37300
C  45.63100 7.97700 47.28500
C  45.18700 9.33000 47.24200
C  43.81900 9.33400 47.44600
C  43.38500 7.98700 47.44900
C  46.11600 10.52100 47.15100
C  42.62100 10.14900 47.65200
O  42.51400 11.38100 47.73700
C  41.42400 9.24300 47.66000
C  40.58500 9.44700 48.90600
O  40.60300 8.74300 49.91400
O  39.52500 10.32100 48.63700
C  38.27600 10.22300 49.47600
H  40.81400 2.33300 46.81600
H  47.34300 1.90200 46.83900
H  47.81300 8.05100 46.99300
H  39.48600 6.65900 48.32400
H  39.45700 4.37200 46.38100
H  39.55700 3.63300 49.28700
H  38.31800 3.22400 48.21200
H  38.29100 4.81100 48.97400
H  38.76600 7.99200 46.49100
H  38.24300 6.39500 45.98000
H  41.04900 6.78700 45.09800
H  40.12600 8.26200 44.96900
H  41.15300 0.26400 46.54000
H  42.34400 -0.93300 46.89900
H  42.22500 -0.24300 45.26000
H  46.95300 -1.13900 44.89400
H  47.29700 -0.57300 46.46700
H  47.04000 0.59800 45.06200
H  49.04700 3.62200 46.19600
H  49.40400 6.01400 47.67200
H  49.93900 4.31300 48.92100
H  49.67300 2.60300 48.48600
H  48.44600 3.45300 49.20800
H  49.15100 7.02400 45.47700
H  48.48200 5.56000 44.83900
H  51.12900 4.72100 45.75400
H  51.15200 6.43600 45.17800
H  50.70200 5.12900 44.13500
H  45.62900 11.49400 47.07500
H  46.69600 10.42200 46.23300
H  46.83300 10.35600 47.95500
H  40.87500 9.53900 46.76500
H  38.27400 11.08400 50.14400
H  38.25900 9.41100 50.20400
H  37.38800 10.13300 48.85100

