158

Mg 1.27200 8.55000 27.09500
C  1.87000 10.76200 29.91500
C  1.45700 5.95400 29.32300
C  1.46200 6.49800 24.42900
C  1.51100 11.29100 25.09400
N  1.71000 8.38900 29.39100
C  1.85600 9.35600 30.27900
C  1.69600 8.83600 31.68900
C  1.98700 7.31700 31.57900
C  1.67900 7.21100 30.04300
C  3.33700 6.71400 31.85600
C  0.31800 9.18800 32.30400
C  0.25200 9.26500 33.85000
H  1.29400 8.53400 34.69600
N  1.31400 6.51900 26.90500
C  1.27000 5.62500 27.93300
C  1.20900 4.26800 27.37700
C  1.29600 4.42800 25.95200
C  1.33200 5.85900 25.71800
C  1.11400 3.08200 28.22400
C  1.22000 3.40300 24.82500
O  1.35500 3.68400 23.58900
C  0.76200 2.01300 25.19200
N  1.67800 8.90400 24.98000
C  1.57100 7.85300 24.10000
C  1.55800 8.37900 22.63700
C  1.32300 9.88200 22.88900
C  1.45100 10.07500 24.39600
C  2.82800 7.98700 21.81100
C  0.03100 10.47400 22.25900
C  -1.20500 10.74200 23.09700
N  1.58300 10.59600 27.42800
C  1.63100 11.59000 26.45900
C  1.61600 12.91300 27.12500
C  1.74700 12.59600 28.51400
C  1.66800 11.23000 28.64300
C  1.70300 14.24800 26.61700
C  1.98800 13.15900 29.81800
O  2.17200 14.32400 30.20800
C  1.97900 11.99600 30.81800
C  3.08000 12.04400 31.74400
O  4.23700 11.69300 31.51500
O  2.67300 12.49900 32.95300
C  3.66100 12.47700 34.09400
H  1.50800 5.09100 29.99100
H  1.48700 5.95700 23.48100
H  1.36500 12.23400 24.56200
H  2.47600 9.37000 32.23100
H  1.24800 6.77600 32.17200
H  3.77400 6.14400 31.03600
H  3.18700 5.90100 32.56600
H  4.01100 7.52300 32.13800
H  -0.51900 8.56300 31.99200
H  0.07400 10.14800 31.84800
H  -0.82100 9.18900 34.02900
H  0.42300 10.29100 34.17500
H  0.17000 2.57800 28.01500
H  1.04700 3.33500 29.28200
H  2.01200 2.51200 27.98600
H  0.63500 1.46600 24.25800
H  -0.20500 2.08200 25.69200
H  1.38600 1.43700 25.87600
H  0.70800 7.91000 22.14100
H  2.10300 10.50900 22.45700
H  3.51000 7.55100 22.54000
H  3.32400 8.86400 21.39500
H  2.51300 7.25100 21.07100
H  -0.34700 9.71800 21.57100
H  0.24400 11.36300 21.66500
H  -2.00400 10.22000 22.57100
H  -1.38500 11.81700 23.11600
H  -1.25200 10.45600 24.14800
H  2.69600 14.55600 26.29100
H  1.44200 14.92300 27.43300
H  0.96500 14.58900 25.89100
H  1.03800 12.12800 31.35300
H  4.45200 11.74200 33.94600
H  3.09600 12.29600 35.00900
H  4.12700 13.45400 34.22600
Mg 6.36900 54.65600 40.65600
C  6.06000 50.95800 40.32200
C  9.61000 54.35400 39.77800
C  6.40300 57.89300 40.50300
C  2.85900 54.57400 41.73900
N  7.51500 52.86600 39.97500
C  7.29900 51.46400 40.02000
C  8.61100 50.70800 39.87200
C  9.65400 51.83700 40.00300
C  8.87900 53.12000 39.89700
C  10.50800 51.71900 41.30400
C  8.80100 49.93200 38.50600
C  8.49000 50.69400 37.27100
H  7.62800 50.08500 36.12700
N  7.71400 55.97900 40.13000
C  9.04900 55.67300 39.77800
C  9.71400 56.84700 39.39800
C  8.75300 57.96400 39.49500
C  7.57500 57.32900 40.07800
C  11.24000 56.98200 38.95500
C  9.02900 59.32800 39.06800
O  10.07300 59.64400 38.55200
C  7.98500 60.32800 39.11400
N  4.74200 56.04300 41.01600
C  5.13300 57.39200 40.95900
C  3.94400 58.35700 41.31300
C  2.90100 57.26000 41.85800
C  3.54600 55.85100 41.53700
C  4.31800 59.42700 42.38900
C  1.49900 57.42300 41.31800
C  0.48100 57.23400 42.41700
N  4.77900 53.14800 40.98900
C  3.45200 53.26600 41.38800
C  2.74800 52.03700 41.37900
C  3.77700 51.12800 41.02800
C  4.95000 51.83500 40.79100
C  1.36900 51.63500 41.71700
C  4.11700 49.74600 40.93500
O  3.35700 48.82400 41.27400
C  5.62800 49.57900 40.47300
C  5.49300 48.81100 39.22600
O  5.19200 49.21700 38.13300
O  5.98700 47.52800 39.40600
C  5.90300 46.63700 38.27100
H  10.68300 54.33200 39.57900
H  6.44200 58.97400 40.64800
H  1.78700 54.59200 41.95000
H  8.76800 49.95600 40.64500
H  10.32800 51.77800 39.14800
H  11.55700 51.91500 41.07900
H  10.50700 50.73300 41.76800
H  10.09300 52.36200 42.08000
H  8.27700 48.97600 38.49600
H  9.84900 49.65700 38.39300
H  9.43600 50.77100 36.73400
H  8.03100 51.66400 37.46000
H  11.72400 56.21200 39.55600
H  11.66200 57.91200 39.33600
H  11.24200 56.84400 37.87400
H  7.01600 60.15500 38.64600
H  8.41400 61.20800 38.63500
H  7.98000 60.64900 40.15600
H  3.60400 58.80000 40.37700
H  2.89200 57.15600 42.94300
H  3.48100 59.43500 43.08700
H  4.47300 60.36700 41.86000
H  5.26500 59.19600 42.87600
H  1.35600 56.61900 40.59600
H  1.25500 58.35600 40.81100
H  -0.22000 56.50300 42.01500
H  -0.10800 58.14900 42.46900
H  0.84200 56.88300 43.38300
H  0.89300 51.26900 40.80700
H  0.87600 52.55100 42.04200
H  1.29400 50.79300 42.40400
H  6.26900 49.14800 41.24200
H  4.86000 46.35400 38.13200
H  6.43300 45.71200 38.49600
H  6.24500 47.08800 37.33900

