158

Mg 2.20700 -1.74800 43.53900
C  5.59600 -1.14600 42.69600
C  1.56900 1.37000 42.15000
C  -0.97700 -2.67800 43.25200
C  3.12500 -5.07800 44.42300
N  3.40100 -0.04400 42.50500
C  4.70500 -0.18900 42.14100
C  5.12900 1.06200 41.26800
C  3.85900 1.96100 41.09500
C  2.92700 1.11100 41.97000
C  3.85700 3.50300 41.49500
C  5.78600 0.62500 39.89500
C  7.00100 1.51900 39.50900
H  6.83200 2.08200 38.06200
N  0.46800 -0.70500 43.09500
C  0.49300 0.54900 42.58800
C  -0.83000 0.92000 42.26200
C  -1.62000 -0.28700 42.33800
C  -0.76500 -1.32100 42.87600
C  -1.22700 2.26100 41.80900
C  -3.07000 -0.43300 41.92300
O  -3.78700 0.53300 41.57800
C  -3.77900 -1.67200 42.09900
N  1.23300 -3.60800 43.87800
C  -0.10000 -3.70100 43.75200
C  -0.62700 -5.09400 44.18300
C  0.63900 -5.86400 44.59100
C  1.77000 -4.78000 44.29800
C  -1.70400 -4.89100 45.35000
C  0.86700 -7.29800 44.02500
C  1.56200 -7.23900 42.63800
N  4.06600 -2.93200 43.78000
C  4.26200 -4.26700 44.19300
C  5.69000 -4.57600 44.17500
C  6.24100 -3.32500 43.65400
C  5.23100 -2.30600 43.39200
C  6.32600 -5.91500 44.48900
C  7.52600 -2.71100 43.25900
O  8.65900 -3.13500 43.30100
C  7.11900 -1.27700 42.62100
C  7.79400 -0.07300 43.28600
O  8.39100 0.76400 42.63200
O  7.68100 -0.01400 44.60400
C  8.33200 1.13000 45.29100
H  1.40000 2.37500 41.75800
H  -1.98900 -3.08700 43.29100
H  3.42000 -6.11300 44.60800
H  5.92200 1.58400 41.80500
H  3.47600 2.06100 40.07900
H  3.11300 3.74900 42.25300
H  3.64700 4.15200 40.64500
H  4.81500 3.82600 41.90100
H  5.07900 0.83300 39.09200
H  5.99300 -0.44300 39.95800
H  7.89200 0.90400 39.38600
H  7.21000 2.30300 40.23600
H  -0.56900 3.06400 42.14000
H  -2.27800 2.50100 41.96800
H  -1.04900 2.10900 40.74500
H  -4.62200 -1.74000 41.41100
H  -3.95200 -1.72000 43.17400
H  -3.15200 -2.52000 41.82300
H  -1.15700 -5.62300 43.39100
H  0.71700 -6.07400 45.65700
H  -2.05000 -3.86500 45.47600
H  -1.27100 -5.15300 46.31600
H  -2.51800 -5.58500 45.13600
H  -0.04000 -7.90200 43.99400
H  1.39100 -7.89300 44.77400
H  1.06000 -7.95600 41.98800
H  2.61500 -7.51600 42.68100
H  1.65000 -6.19200 42.34900
H  6.02000 -6.60500 43.70300
H  6.02600 -6.30400 45.46300
H  7.39800 -5.71500 44.47800
H  7.53800 -1.25400 41.61500
H  9.40200 0.92700 45.34000
H  7.84600 1.16300 46.26600
H  8.31800 2.08800 44.77100
Mg 24.12900 -6.35100 46.16600
C  26.66300 -4.29900 44.51600
C  21.99200 -5.14800 43.85400
C  22.47300 -8.97700 46.59200
C  26.90200 -7.70300 48.01600
N  24.36900 -4.86900 44.33500
C  25.44600 -4.18300 43.90800
C  25.04200 -3.13000 42.96000
C  23.46900 -3.27600 42.79300
C  23.22400 -4.42600 43.79100
C  22.64400 -1.98100 43.12600
C  25.85100 -3.14600 41.58600
C  26.11600 -1.77500 41.00000
H  25.53700 -1.56300 39.68200
N  22.32100 -6.88800 45.47100
C  21.60100 -6.28200 44.53100
C  20.28700 -6.87500 44.37200
C  20.39800 -8.08300 45.24000
C  21.76500 -8.03600 45.81000
C  19.19400 -6.30500 43.45100
C  19.23500 -9.08800 45.37400
O  18.21300 -8.88500 44.76500
C  19.34900 -10.18600 46.41000
N  24.63700 -8.04900 47.20600
C  23.71700 -9.00500 47.20900
C  24.29000 -10.27400 48.06000
C  25.68500 -9.83600 48.60400
C  25.73300 -8.46400 47.98000
C  23.26600 -10.89900 49.13200
C  26.86200 -10.80600 48.22000
C  27.71700 -11.21900 49.39900
N  26.26500 -5.92500 46.44800
C  27.21600 -6.57300 47.25400
C  28.54500 -5.96400 47.15000
C  28.33900 -5.09800 46.07400
C  26.94800 -5.05900 45.70100
C  29.86100 -6.26300 47.95500
C  28.98600 -4.14600 45.25300
O  30.16800 -3.91800 45.21200
C  27.96600 -3.54600 44.29100
C  27.76100 -2.12100 44.57000
O  27.19400 -1.74400 45.55700
O  28.10300 -1.30900 43.53800
C  27.74800 0.06400 43.54500
H  21.28200 -4.72200 43.14300
H  21.98500 -9.95200 46.64500
H  27.71700 -8.20500 48.54200
H  25.30500 -2.19100 43.44600
H  23.25700 -3.78100 41.85000
H  22.40700 -1.47800 42.18800
H  23.21300 -1.32500 43.78600
H  21.74400 -2.39900 43.57600
H  25.37000 -3.78400 40.84500
H  26.84800 -3.58500 41.63800
H  27.19800 -1.65900 40.94300
H  25.68700 -0.93700 41.55000
H  18.43400 -7.05200 43.22500
H  19.71600 -6.09600 42.51700
H  18.70900 -5.39900 43.81400
H  18.38700 -10.45800 46.84600
H  19.93800 -9.78800 47.23700
H  19.87200 -10.98000 45.87800
H  24.53900 -10.91600 47.21600
H  25.65700 -9.77800 49.69200
H  23.32000 -11.98100 49.00800
H  22.29600 -10.40900 49.03700
H  23.65700 -10.70300 50.13000
H  27.60400 -10.30500 47.59800
H  26.38400 -11.70800 47.83600
H  28.75500 -11.06800 49.10200
H  27.56200 -12.25900 49.68500
H  27.45200 -10.63200 50.27700
H  30.35600 -7.21400 47.75500
H  29.56200 -6.32700 49.00100
H  30.37800 -5.30900 47.85400
H  28.36800 -3.56600 43.27800
H  27.24100 0.37600 44.45800
H  27.11500 0.19000 42.66600
H  28.64600 0.67600 43.45600

