158

Mg 16.43500 -2.11900 28.26200
C  15.45900 0.06000 30.73900
C  18.21900 -4.01100 30.59800
C  17.74000 -4.00000 25.73100
C  15.02400 0.01600 25.84900
N  16.86200 -2.00100 30.34300
C  16.29300 -1.01400 31.13100
C  16.82300 -1.13500 32.57900
C  17.84200 -2.32300 32.47200
C  17.62800 -2.82000 31.00600
C  19.32300 -1.97300 32.65000
C  15.67800 -1.42700 33.57100
C  15.88800 -0.76900 34.96300
H  17.31500 -0.20900 35.34000
N  17.72100 -3.83800 28.22900
C  18.27800 -4.54500 29.26700
C  18.97600 -5.76700 28.82200
C  18.86900 -5.64500 27.36600
C  18.10100 -4.44500 27.01400
C  19.45500 -6.82000 29.77600
C  19.40500 -6.66100 26.37200
O  19.31900 -6.52300 25.14900
C  20.27800 -7.78900 26.83500
N  16.44600 -1.93700 26.08500
C  17.03800 -2.83600 25.35500
C  16.71100 -2.58300 23.83500
C  15.82300 -1.31000 23.85300
C  15.71500 -1.05000 25.32200
C  18.11700 -2.40400 23.13200
C  14.42100 -1.58000 23.11800
C  14.60900 -2.00600 21.66900
N  15.23500 -0.38100 28.24800
C  14.74100 0.38700 27.21600
C  14.11500 1.54700 27.83200
C  14.30600 1.41200 29.15900
C  15.05500 0.25800 29.37600
C  13.55400 2.70700 27.09200
C  14.04600 1.99600 30.50600
O  13.27000 2.91400 30.88500
C  14.84100 1.15400 31.60100
C  15.82500 2.07100 32.40400
O  16.86500 2.58800 32.00200
O  15.25800 2.44100 33.55600
C  15.93900 3.50200 34.27900
H  18.83700 -4.60400 31.27500
H  18.04400 -4.51300 24.81700
H  14.50700 0.53100 25.03600
H  17.36800 -0.24700 32.89700
H  17.55400 -3.14900 33.12300
H  19.92600 -2.22200 31.77700
H  19.71000 -2.45000 33.55000
H  19.48400 -0.92900 32.91900
H  15.53600 -2.50600 33.62500
H  14.77400 -1.00200 33.13600
H  15.53600 -1.47700 35.71300
H  15.25200 0.08500 35.19700
H  19.97200 -7.68800 29.36500
H  18.60100 -7.08000 30.40100
H  20.06800 -6.35600 30.54900
H  20.75400 -8.31000 26.00400
H  19.61000 -8.50900 27.30700
H  21.12400 -7.48500 27.45200
H  16.28900 -3.48900 23.40000
H  16.35000 -0.56000 23.26400
H  18.23800 -3.19000 22.38700
H  18.89100 -2.31400 23.89500
H  18.14400 -1.41600 22.67200
H  13.87200 -0.63900 23.16300
H  13.82100 -2.31400 23.65700
H  13.88500 -1.44100 21.08100
H  14.58000 -3.08400 21.51000
H  15.64600 -1.73600 21.47000
H  13.90500 3.64000 27.53200
H  12.47400 2.83100 27.00500
H  14.04000 2.85700 26.12800
H  14.02700 0.77800 32.22100
H  16.02700 4.30300 33.54500
H  16.88700 3.21200 34.73400
H  15.24900 3.78200 35.07500
Mg 26.52400 50.51900 26.44200
C  24.56000 51.85600 29.07700
C  28.92000 49.85500 28.89500
C  28.64300 49.68500 23.94100
C  24.48700 51.97200 24.17100
N  26.57100 50.66500 28.74300
C  25.62700 51.19400 29.56900
C  26.05600 51.07300 31.09300
C  27.60700 50.62300 30.97400
C  27.72300 50.33900 29.44700
C  28.75200 51.57300 31.51700
C  25.11800 50.09800 31.90000
C  24.75600 50.67300 33.23700
H  25.84900 50.75300 34.30800
N  28.35600 49.74200 26.46600
C  29.20700 49.56600 27.55800
C  30.50500 49.09600 27.02300
C  30.50400 49.14900 25.65900
C  29.10000 49.56400 25.32700
C  31.68900 48.67300 27.97300
C  31.72800 48.87800 24.63500
O  31.58100 48.91300 23.38500
C  33.12800 48.62500 25.12900
N  26.49100 50.65400 24.33400
C  27.51100 50.29900 23.53400
C  27.15700 50.61800 22.09700
C  25.74500 51.14700 22.13500
C  25.52600 51.20500 23.62600
C  28.16400 51.71000 21.54700
C  24.62500 50.41500 21.36800
C  24.20500 51.11800 19.99500
N  24.78700 51.60800 26.57200
C  24.02300 52.15100 25.51100
C  22.87200 52.85100 26.10700
C  23.04700 52.72700 27.44200
C  24.25400 52.06600 27.69300
C  21.85000 53.52100 25.28400
C  22.43600 53.06000 28.66100
O  21.36900 53.57800 28.82500
C  23.43100 52.56700 29.85500
C  23.91000 53.66200 30.69500
O  24.87300 54.40300 30.42100
O  23.22600 53.62900 31.85800
C  23.60700 54.52600 32.92800
H  29.68000 49.71700 29.66700
H  29.31100 49.47400 23.10400
H  23.71900 52.30400 23.46900
H  26.12100 52.08400 31.49600
H  27.67100 49.66600 31.49200
H  28.31600 52.40900 32.06300
H  29.28100 52.00600 30.66700
H  29.49800 51.14100 32.18400
H  25.59000 49.14700 32.14900
H  24.27600 49.91500 31.23200
H  23.90500 50.06100 33.53500
H  24.33700 51.67500 33.14100
H  31.44600 49.12700 28.93300
H  32.63700 49.09200 27.63600
H  31.71400 47.59200 28.10800
H  33.01400 47.87300 25.91100
H  33.63600 49.47800 25.57800
H  33.65700 48.17600 24.28900
H  27.23800 49.69500 21.52300
H  25.82900 52.13800 21.69000
H  28.53100 51.32000 20.59800
H  28.98600 51.86200 22.24700
H  27.83200 52.74200 21.43500
H  23.71800 50.24000 21.94700
H  24.97000 49.38300 21.29300
H  23.88800 50.26100 19.40000
H  24.96400 51.71300 19.48700
H  23.33300 51.71000 20.27500
H  22.21700 53.63500 24.26400
H  21.56900 54.52100 25.61500
H  20.92700 52.94200 25.28800
H  22.84200 51.84900 30.42700
H  23.04000 54.24700 33.81600
H  23.51700 55.53900 32.53700
H  24.67300 54.30600 32.98300

