158

Mg -1.56100 18.10700 26.87300
C  -2.34700 15.90600 29.61400
C  -2.10500 20.80000 28.99300
C  -1.53600 20.18400 24.26000
C  -2.14600 15.43200 24.79400
N  -2.20200 18.25500 29.04300
C  -2.34600 17.31400 29.96800
C  -2.30300 17.86800 31.41200
C  -2.64600 19.37700 31.14200
C  -2.22300 19.50800 29.66200
C  -4.19600 19.68300 31.16600
C  -1.05600 17.65500 32.35700
C  -1.39500 17.11700 33.70200
H  -0.29700 16.91700 34.73800
N  -1.73100 20.18800 26.67400
C  -1.77300 21.15200 27.68900
C  -1.43600 22.44100 27.15400
C  -1.30400 22.35300 25.75000
C  -1.42500 20.84000 25.53000
C  -1.46900 23.57900 28.02200
C  -0.94200 23.37200 24.68800
O  -0.87700 23.08400 23.48200
C  -0.63800 24.71600 25.12300
N  -1.86700 17.77600 24.81500
C  -1.81700 18.86200 23.91500
C  -1.97300 18.34900 22.48000
C  -2.05100 16.77400 22.67400
C  -2.19300 16.66900 24.16100
C  -3.25400 18.82900 21.67100
C  -0.72600 16.03000 22.16800
C  -0.89700 14.53600 21.59100
N  -1.88500 16.01200 27.11500
C  -2.04900 15.09500 26.13400
C  -2.33500 13.80200 26.88900
C  -2.37700 14.09800 28.24800
C  -2.14500 15.48400 28.30200
C  -2.68100 12.51100 26.12100
C  -2.62800 13.47500 29.48000
O  -2.69500 12.30800 29.86800
C  -2.47900 14.69000 30.46200
C  -1.28100 14.44700 31.33200
O  -0.08800 14.75900 31.01000
O  -1.54600 13.68600 32.37700
C  -0.33500 13.19700 33.12200
H  -2.13800 21.61000 29.72500
H  -1.50600 20.80300 23.36100
H  -2.46200 14.59900 24.16300
H  -3.11200 17.46900 32.02400
H  -2.03000 20.09500 31.68400
H  -4.57700 19.77400 30.14900
H  -4.33800 20.68000 31.58300
H  -4.77400 18.94500 31.72300
H  -0.72700 18.65000 32.65500
H  -0.23700 17.09500 31.90500
H  -1.94600 16.18800 33.55400
H  -2.09800 17.84200 34.11100
H  -1.49400 23.31800 29.08000
H  -2.39700 24.07300 27.73700
H  -0.56000 24.16500 27.88700
H  -0.59000 25.47300 24.34000
H  0.30900 24.57300 25.64300
H  -1.35100 25.08400 25.86000
H  -1.18400 18.72200 21.82700
H  -2.92600 16.31500 22.21300
H  -3.50600 19.75600 22.18500
H  -3.98500 18.03300 21.81400
H  -3.06900 19.09500 20.63100
H  0.01200 15.86700 22.95300
H  -0.29100 16.62700 21.36700
H  -0.27000 13.84600 22.15500
H  -0.57300 14.35000 20.56700
H  -1.96300 14.31000 21.61100
H  -3.44600 12.69300 25.36500
H  -3.02400 11.74400 26.81600
H  -1.79000 12.22400 25.56300
H  -3.29600 14.72200 31.18300
H  -0.61900 13.29700 34.16900
H  0.55900 13.76900 32.87700
H  -0.21600 12.14700 32.85600
Mg 41.06000 8.92000 29.72000
C  42.93600 10.04900 32.38600
C  38.87500 7.41400 31.95600
C  39.42700 7.68400 27.05800
C  43.69700 9.90600 27.69000
N  41.08500 8.55200 31.98500
C  41.78000 9.32400 32.78700
C  41.18400 9.35600 34.25100
C  40.04600 8.32600 34.08400
C  39.95000 8.10800 32.59100
C  40.17000 7.01300 34.89800
C  40.69100 10.76300 34.70700
C  40.09200 10.78100 36.11700
H  40.73400 11.66500 37.19100
N  39.26700 7.77900 29.57200
C  38.57800 7.21300 30.61400
C  37.49900 6.49100 30.04000
C  37.62800 6.57900 28.64500
C  38.81200 7.37100 28.39000
C  36.45800 5.80300 30.83300
C  36.67700 6.13900 27.55700
O  36.89700 6.28700 26.38200
C  35.25200 5.58400 27.92400
N  41.59600 8.68100 27.82900
C  40.71600 8.25800 26.85800
C  41.41400 8.11500 25.44600
C  42.51400 9.23700 25.61000
C  42.60300 9.27600 27.11800
C  41.83300 6.54900 25.22300
C  42.16200 10.49300 24.80200
C  41.71400 11.65800 25.60200
N  42.95400 9.79100 29.95500
C  43.93300 10.12300 29.05000
C  45.10900 10.64900 29.69600
C  44.72100 10.76800 30.97800
C  43.43700 10.17800 31.07100
C  46.33600 11.16700 29.04000
C  45.05300 11.18600 32.30500
O  46.08500 11.68700 32.78700
C  43.86100 10.84000 33.24900
C  44.36900 10.04600 34.41900
O  44.80400 8.88500 34.45100
O  44.28200 10.74500 35.55300
C  44.93800 10.25800 36.74000
H  38.03800 7.14100 32.60200
H  38.88300 7.38800 26.15800
H  44.52000 10.25700 27.06400
H  42.02900 9.09700 34.88900
H  39.03300 8.67600 34.28600
H  40.80500 6.31400 34.35300
H  39.16500 6.63900 35.09100
H  40.59100 7.20800 35.88400
H  39.96600 11.23100 34.04000
H  41.48800 11.50600 34.73300
H  39.88500 9.77700 36.48500
H  39.15000 11.31100 35.97300
H  36.63000 5.74100 31.90700
H  36.24100 4.79200 30.48900
H  35.57100 6.41700 30.67600
H  34.73200 6.35400 28.49300
H  35.32100 4.71900 28.58400
H  34.67700 5.38700 27.01800
H  40.66700 8.26700 24.66700
H  43.46700 8.82800 25.27500
H  41.19800 5.92600 25.85300
H  42.88000 6.33600 25.43800
H  41.62900 6.22100 24.20400
H  41.31000 10.35100 24.13700
H  43.08600 10.58700 24.23100
H  42.47600 12.36400 25.93100
H  41.23400 11.33500 26.52500
H  40.94300 12.25700 25.11700
H  45.97500 11.78800 28.21900
H  46.92900 10.36200 28.60600
H  46.88800 11.63500 29.85500
H  43.37000 11.75100 33.59000
H  45.79200 10.92300 36.86700
H  45.11100 9.18800 36.85200
H  44.30400 10.49800 37.59300

