158

Mg 18.04900 -0.82800 27.38400
C  17.09600 1.21000 30.11400
C  20.11800 -2.55500 29.61400
C  19.13500 -2.49100 24.78900
C  16.62700 1.73800 25.20200
N  18.43800 -0.70200 29.58600
C  17.89000 0.12400 30.54500
C  18.43300 -0.20900 32.01100
C  19.55300 -1.26800 31.71400
C  19.40700 -1.53700 30.21500
C  20.95900 -0.73100 32.07600
C  17.19800 -0.77600 32.77700
C  17.05400 -0.44200 34.26100
H  18.17100 0.28000 35.03200
N  19.34100 -2.33800 27.28100
C  20.08400 -3.02000 28.28400
C  20.74200 -4.14600 27.64600
C  20.46100 -4.10000 26.24800
C  19.65800 -2.94500 26.03800
C  21.50600 -5.13500 28.48500
C  20.90800 -5.03700 25.23100
O  20.61400 -4.94900 24.06900
C  21.73600 -6.32700 25.59800
N  17.88600 -0.39900 25.34900
C  18.32900 -1.36000 24.46400
C  17.93300 -0.98300 23.07200
C  17.30700 0.42900 23.18700
C  17.22900 0.61600 24.68200
C  19.17500 -1.05100 22.15500
C  15.97000 0.61300 22.41600
C  14.72600 -0.04200 23.05800
N  16.91000 1.04700 27.63900
C  16.31000 1.85300 26.57800
C  15.47200 2.76100 27.26300
C  15.70200 2.57300 28.63500
C  16.61600 1.49800 28.80100
C  14.65100 3.88000 26.64300
C  15.37100 3.01400 29.98600
O  14.59800 3.87400 30.33100
C  16.31000 2.16200 30.93400
C  17.11500 3.04200 31.78500
O  18.35400 3.12400 31.84100
O  16.37100 3.77600 32.60400
C  16.98600 4.75200 33.54400
H  20.89900 -3.00800 30.22800
H  19.39000 -3.08000 23.90600
H  16.30300 2.42300 24.41500
H  18.66900 0.74200 32.48900
H  19.39900 -2.16500 32.31200
H  21.64200 -0.65500 31.23100
H  21.35100 -1.44800 32.79800
H  20.90100 0.25400 32.53800
H  17.11600 -1.86300 32.76600
H  16.25700 -0.45800 32.32700
H  17.02100 -1.41000 34.75900
H  16.12100 0.06600 34.50500
H  21.19700 -6.18000 28.50500
H  21.55700 -4.94700 29.55800
H  22.53700 -5.26600 28.15300
H  22.56700 -5.97700 26.21000
H  22.15700 -6.68200 24.65700
H  21.09100 -6.99700 26.16500
H  17.10900 -1.65000 22.82000
H  17.98300 1.17000 22.76100
H  19.26000 -0.20900 21.46800
H  19.09100 -1.89500 21.47100
H  20.08600 -1.02200 22.75300
H  16.13100 0.18700 21.42600
H  15.76900 1.67700 22.29200
H  13.93800 0.69200 23.23200
H  14.91200 -0.50700 24.02600
H  14.41600 -0.84600 22.39000
H  14.16000 3.49400 25.74900
H  15.32300 4.69200 26.36600
H  13.88500 4.18200 27.35700
H  15.71700 1.76700 31.75900
H  17.08000 5.69200 33.00100
H  17.90300 4.53100 34.09100
H  16.13100 4.99800 34.17400
Mg 50.51900 45.14700 42.19100
C  47.49700 46.14000 40.70400
C  49.87600 42.02200 40.99700
C  53.85900 44.44900 42.67000
C  51.34200 48.56300 42.80200
N  48.84800 44.17500 40.95600
C  47.69700 44.78500 40.52800
C  46.73400 43.77200 39.93600
C  47.45800 42.34500 40.15800
C  48.81000 42.87100 40.72800
C  46.71700 41.26400 41.01300
C  46.19200 44.02000 38.51300
C  44.75300 44.28900 38.40100
H  43.93400 43.35600 37.58000
N  51.63800 43.47700 41.95500
C  51.17800 42.28700 41.42900
C  52.26400 41.28900 41.56100
C  53.41200 41.99900 42.03400
C  52.98300 43.33500 42.27000
C  52.11600 39.86500 40.91900
C  54.82100 41.35900 42.23700
O  54.90900 40.20400 41.99600
C  56.00500 42.11300 42.66000
N  52.37800 46.40600 42.57800
C  53.57400 45.81100 42.78600
C  54.61900 46.91200 43.26800
C  53.78500 48.18800 43.33400
C  52.37400 47.69700 42.98200
C  55.36400 46.53900 44.54700
C  54.34600 49.33400 42.37400
C  54.41800 48.94600 40.87000
N  49.56900 46.93400 42.00600
C  49.98700 48.22400 42.28200
C  48.88000 49.10100 42.02900
C  47.93600 48.38100 41.35300
C  48.40300 47.01800 41.36600
C  48.88000 50.56900 42.13300
C  46.62700 48.38800 40.71100
O  45.82600 49.31100 40.60300
C  46.24800 46.98900 40.29800
C  44.95600 46.56500 41.03200
O  44.96400 46.32200 42.23700
O  43.85300 46.58900 40.14400
C  42.51600 46.64600 40.71900
H  49.68600 40.98000 40.73000
H  54.91700 44.33900 42.91800
H  51.57800 49.60600 43.02500
H  45.86200 43.72200 40.58800
H  47.68000 41.79900 39.24100
H  45.63700 41.30100 40.87200
H  46.96100 41.43300 42.06100
H  47.04000 40.27800 40.67900
H  46.40200 43.11800 37.93800
H  46.75400 44.83900 38.06400
H  44.61900 45.31000 38.04500
H  44.24400 44.25800 39.36500
H  51.51800 39.92000 40.00900
H  51.61200 39.23900 41.65500
H  53.08700 39.46300 40.62800
H  55.83100 42.52500 43.65400
H  56.23500 42.79500 41.84100
H  56.88600 41.47300 42.71600
H  55.35400 47.06100 42.47700
H  53.84200 48.55600 44.35900
H  55.23300 45.47400 44.74300
H  55.11000 47.15100 45.41200
H  56.43100 46.69600 44.38800
H  55.27500 49.80300 42.69700
H  53.61500 50.13800 42.45700
H  54.11000 47.92000 40.66600
H  55.36900 49.30000 40.47200
H  53.57700 49.49200 40.44300
H  47.98200 50.95500 41.65100
H  49.72400 51.02100 41.61100
H  49.00100 51.04600 43.10600
H  45.99000 47.02000 39.23900
H  42.51600 46.95900 41.76300
H  42.02900 45.67700 40.60400
H  41.88500 47.37400 40.20800

