158

Mg -1.89900 18.06700 26.92700
C  -2.45400 15.88900 29.71200
C  -2.13900 20.79300 29.21100
C  -1.48400 20.05300 24.38200
C  -1.96500 15.22000 24.83700
N  -2.14300 18.32300 29.16300
C  -2.36100 17.28200 30.11400
C  -2.57700 17.80700 31.49800
C  -2.71600 19.28900 31.25700
C  -2.21600 19.51000 29.80500
C  -4.08100 19.98400 31.66000
C  -1.40000 17.46700 32.59800
C  -1.86200 16.78100 33.83200
H  -0.80700 16.46100 34.92900
N  -1.73300 20.12000 26.77900
C  -1.87600 21.06400 27.82000
C  -1.83400 22.41100 27.19500
C  -1.62700 22.27500 25.73900
C  -1.64300 20.76300 25.57700
C  -1.84900 23.69900 27.92300
C  -1.45700 23.29900 24.61600
O  -1.19000 23.03900 23.46000
C  -1.35800 24.69500 24.98200
N  -1.94500 17.72800 24.94100
C  -1.63300 18.73500 24.07800
C  -1.56600 18.16700 22.62300
C  -1.88300 16.66400 22.70200
C  -1.98700 16.45300 24.27000
C  -2.60700 18.89200 21.57900
C  -0.71000 15.83200 22.05100
C  0.57400 15.65600 22.83700
N  -2.22200 16.00500 27.12300
C  -2.17000 14.95700 26.20300
C  -2.29000 13.68300 26.92500
C  -2.32900 14.01100 28.29700
C  -2.34900 15.39500 28.36200
C  -2.31800 12.37100 26.26800
C  -2.48600 13.44600 29.64700
O  -2.57300 12.32700 30.04900
C  -2.55100 14.65800 30.61500
C  -1.36400 14.37600 31.47800
O  -0.21600 14.62100 31.19300
O  -1.74100 13.73600 32.58700
C  -0.73800 13.22800 33.46000
H  -2.27400 21.60400 29.93000
H  -1.26800 20.70200 23.53200
H  -2.06200 14.41700 24.10400
H  -3.44800 17.31000 31.92500
H  -2.05800 19.81800 31.94700
H  -4.44000 20.54600 30.79700
H  -3.97400 20.64000 32.52400
H  -4.78600 19.22200 31.99200
H  -0.73600 18.25900 32.94600
H  -0.76500 16.78700 32.03100
H  -2.28900 15.80900 33.58700
H  -2.69500 17.39700 34.17400
H  -1.95600 23.55600 28.99800
H  -2.71100 24.33200 27.71400
H  -0.90900 24.22200 27.74300
H  -2.05300 25.01700 25.75800
H  -1.57700 25.37000 24.15500
H  -0.36500 24.86500 25.39700
H  -0.53900 18.32100 22.29400
H  -2.74200 16.42700 22.07500
H  -3.11000 19.72000 22.07900
H  -3.34400 18.18300 21.20300
H  -2.06100 19.13800 20.66800
H  -0.40400 16.33100 21.13100
H  -0.97300 14.83000 21.71200
H  1.16600 16.54500 22.61900
H  1.05200 14.71300 22.57000
H  0.35900 15.48800 23.89300
H  -2.13100 11.50600 26.90500
H  -1.58900 12.37900 25.45800
H  -3.30400 12.31900 25.80600
H  -3.42300 14.56400 31.26200
H  0.11300 13.86500 33.70100
H  -0.45500 12.25400 33.06100
H  -1.29200 13.00300 34.37200
Mg 16.73700 52.56400 26.36900
C  18.21300 51.24300 29.22800
C  14.00200 53.21500 28.38800
C  14.95600 53.58500 23.53500
C  18.94900 50.86300 24.41000
N  16.30800 52.32600 28.52800
C  17.11200 51.94400 29.50900
C  16.50000 52.24300 30.85000
C  15.02500 52.57700 30.56500
C  15.14000 52.73800 29.07600
C  14.08500 51.37400 31.01900
C  17.37900 53.40700 31.45800
C  17.49200 53.40200 32.98600
H  16.43700 52.58800 33.73100
N  14.84300 53.37700 26.00200
C  13.87900 53.57000 27.00800
C  12.73500 54.23600 26.36600
C  12.98300 54.27400 24.97900
C  14.32600 53.70000 24.76600
C  11.51100 54.70800 27.11100
C  12.01900 54.66700 23.78400
O  12.33700 54.57800 22.60600
C  10.56500 55.20100 24.07500
N  16.91900 52.36800 24.31900
C  16.14300 52.86300 23.33300
C  16.64100 52.55800 21.90900
C  18.07600 51.98900 22.30600
C  18.00000 51.70700 23.76600
C  15.60800 51.46700 21.23000
C  19.30000 52.94600 21.88700
C  20.47500 52.23900 21.22400
N  18.27000 51.24300 26.68900
C  19.06000 50.61100 25.76700
C  20.05400 49.85600 26.48100
C  19.74300 50.04700 27.82000
C  18.62600 50.87100 27.88900
C  21.28900 49.26100 25.87000
C  20.23100 49.88300 29.20000
O  21.21600 49.29400 29.52700
C  19.20900 50.69800 30.16300
C  18.56300 49.71500 31.09700
O  17.73600 48.85600 30.74400
O  19.06000 49.91700 32.38800
C  18.62100 49.02200 33.44200
H  13.13700 53.35000 29.04100
H  14.45600 53.94300 22.63300
H  19.71600 50.41400 23.77700
H  16.56000 51.28700 31.37100
H  14.64000 53.44800 31.09600
H  14.58400 50.65200 31.66600
H  13.73100 50.86400 30.12300
H  13.26000 51.83400 31.56300
H  16.79800 54.29300 31.20000
H  18.37800 53.46000 31.02500
H  17.45700 54.36500 33.49400
H  18.50600 53.10600 33.25800
H  10.63800 54.12200 26.82300
H  11.28900 55.71800 26.76500
H  11.75600 54.73100 28.17300
H  10.03000 54.44000 24.64300
H  10.15200 55.16600 23.06700
H  10.65300 56.11400 24.66500
H  16.62900 53.35900 21.16900
H  18.17500 51.01100 21.83600
H  14.86300 51.01300 21.88300
H  16.19600 50.68600 20.74800
H  15.07500 51.99700 20.44000
H  19.62600 53.34800 22.84600
H  18.98200 53.80900 21.30100
H  20.55800 52.66600 20.22400
H  20.18600 51.19600 21.09400
H  21.41600 52.22700 21.77300
H  21.67800 49.85100 25.04000
H  21.02100 48.24700 25.57400
H  22.14500 49.20500 26.54300
H  19.69700 51.51500 30.69500
H  19.37100 48.80400 34.20200
H  18.06200 48.19500 33.00400
H  17.90400 49.55400 34.06800

