158

Mg 47.63700 17.10500 28.73900
C  45.47500 16.28300 31.45300
C  49.72700 18.60800 31.09800
C  49.69000 18.13100 26.33400
C  45.46400 15.65000 26.55500
N  47.57200 17.39500 31.03200
C  46.61700 16.93000 31.91000
C  46.94700 17.32200 33.34300
C  48.05900 18.45400 33.09300
C  48.56200 18.06900 31.65100
C  47.63100 19.95200 33.25100
C  47.39400 16.04000 34.08500
C  47.02700 16.01300 35.64100
H  46.99600 17.35700 36.39000
N  49.55000 18.25600 28.75300
C  50.21800 18.72600 29.81100
C  51.48200 19.30200 29.35400
C  51.50900 19.12600 27.95500
C  50.21700 18.43700 27.62900
C  52.47000 19.94400 30.25100
C  52.59000 19.39400 26.99100
O  52.56300 18.93000 25.82500
C  53.68400 20.31500 27.34300
N  47.58200 16.89600 26.76300
C  48.56400 17.44100 25.94700
C  48.11500 17.22500 24.46300
C  47.00600 16.11300 24.57500
C  46.62200 16.24100 26.01100
C  47.66100 18.49800 23.67600
C  47.42800 14.59800 24.26100
C  46.46000 13.76700 23.37800
N  45.82100 16.06800 28.89800
C  45.04100 15.56400 27.87100
C  43.87300 14.97200 28.53200
C  43.91400 15.16700 29.87800
C  45.14700 15.90700 30.10000
C  42.76500 14.07200 27.80000
C  43.34900 15.00700 31.20400
O  42.31400 14.49000 31.50400
C  44.28900 15.65100 32.29000
C  43.54900 16.73100 33.10900
O  43.11800 17.81900 32.78000
O  43.57300 16.30200 34.36700
C  43.35700 17.28800 35.42200
H  50.27000 19.11300 31.90000
H  50.21500 18.47100 25.43900
H  44.78800 15.15500 25.85500
H  46.01100 17.70400 33.75000
H  48.85300 18.36800 33.83400
H  46.71600 19.79000 33.82100
H  47.58200 20.36800 32.24500
H  48.32800 20.52400 33.86400
H  48.48200 15.98400 34.13000
H  47.11400 15.09700 33.61400
H  47.83600 15.50500 36.16600
H  46.10800 15.42700 35.64200
H  53.45000 19.52900 30.01500
H  52.27000 19.65700 31.28300
H  52.37200 21.01200 30.05600
H  54.48300 19.81700 27.89300
H  53.21400 21.14000 27.87900
H  54.16000 20.70900 26.44500
H  48.97900 16.80300 23.94900
H  46.14800 16.39500 23.96500
H  46.68100 18.33400 23.22800
H  48.33700 18.74000 22.85700
H  47.61000 19.36700 24.33200
H  47.42200 14.17800 25.26700
H  48.43100 14.63300 23.83500
H  46.89200 13.60700 22.39000
H  45.49000 14.26200 23.33500
H  46.52400 12.80400 23.88500
H  43.31400 13.48900 27.06100
H  41.90300 14.51400 27.29900
H  42.41200 13.36300 28.54900
H  44.67400 14.83600 32.90200
H  43.72600 16.95000 36.39000
H  42.28800 17.36600 35.62000
H  43.63900 18.31400 35.18600
Mg -10.18200 17.02600 41.47600
C  -6.86400 16.71000 41.25800
C  -9.88500 20.47000 40.77500
C  -13.60900 17.16100 40.92600
C  -10.52500 13.46000 41.39700
N  -8.55100 18.40800 40.93600
C  -7.24700 17.94900 41.00000
C  -6.30400 19.17900 40.76600
C  -7.26500 20.43400 41.00700
C  -8.63500 19.75500 40.76500
C  -7.12100 21.09100 42.40000
C  -5.77100 19.19000 39.32200
C  -4.30000 18.65400 39.05700
H  -4.14200 17.37800 38.32200
N  -11.59800 18.60500 40.97300
C  -11.24000 19.95000 40.82500
C  -12.46800 20.65100 40.72300
C  -13.57600 19.74200 40.82900
C  -12.97100 18.43900 40.85100
C  -12.50000 22.08300 40.48000
C  -15.00800 20.13700 40.72800
O  -15.40900 21.28400 40.58000
C  -16.08300 19.16900 40.82400
N  -11.86900 15.54300 41.09400
C  -13.12000 15.86000 40.96600
C  -14.04200 14.63500 41.01200
C  -13.03500 13.37300 41.06700
C  -11.71300 14.21500 41.23900
C  -15.17800 14.70000 42.14100
C  -13.11600 12.45500 39.80200
C  -12.79100 10.94200 40.09200
N  -9.02300 15.44100 41.66600
C  -9.25700 14.04800 41.54200
C  -8.04600 13.32500 41.57500
C  -7.04800 14.31100 41.45600
C  -7.69300 15.60800 41.57900
C  -7.75600 11.85800 41.54500
C  -5.61300 14.61900 41.30500
O  -4.65300 13.88900 41.17400
C  -5.48000 16.12900 41.35900
C  -4.69200 16.60800 42.60700
O  -3.96300 17.58100 42.71300
O  -4.79200 15.68400 43.63000
C  -3.65200 15.47300 44.66400
H  -9.89800 21.56100 40.73900
H  -14.70100 17.18100 40.94900
H  -10.62700 12.37300 41.42700
H  -5.56000 19.20900 41.56200
H  -7.06100 21.17500 40.23400
H  -8.04500 21.22700 42.96300
H  -6.70200 22.07100 42.17100
H  -6.32700 20.60600 42.96800
H  -5.91900 20.15900 38.84500
H  -6.39200 18.49200 38.76100
H  -3.82400 18.53200 40.03000
H  -3.71000 19.44000 38.58600
H  -13.39500 22.52200 40.92000
H  -12.15200 22.28500 39.46700
H  -11.68600 22.62700 40.96000
H  -15.93700 18.44500 40.02200
H  -17.05400 19.62900 40.63800
H  -16.15800 18.74000 41.82300
H  -14.56700 14.66400 40.05700
H  -13.11400 12.75800 41.96400
H  -15.22100 15.63100 42.70600
H  -14.91500 13.89300 42.82600
H  -16.15400 14.54400 41.68100
H  -12.43800 12.81000 39.02600
H  -14.08900 12.44500 39.31100
H  -13.74400 10.44400 39.91000
H  -12.66100 10.83300 41.16800
H  -11.92900 10.62500 39.50500
H  -7.71300 11.48700 40.52100
H  -8.44600 11.20100 42.07300
H  -6.78800 11.80300 42.04300
H  -4.96600 16.39800 40.43600
H  -3.83200 15.78100 45.69400
H  -2.65500 15.81700 44.38800
H  -3.59000 14.38600 44.70600

