158

Mg 17.22200 -1.23900 27.42700
C  16.06300 0.64600 30.16900
C  19.25100 -3.08500 29.68600
C  18.61700 -2.97700 24.92500
C  15.72900 0.94500 25.31600
N  17.49900 -1.24500 29.72500
C  17.04300 -0.34000 30.62400
C  17.49300 -0.60400 32.08600
C  18.77200 -1.56600 31.78200
C  18.49000 -2.01200 30.27800
C  20.15400 -0.95000 32.03100
C  16.41200 -1.17100 33.05900
C  16.75800 -1.15700 34.59100
H  18.05100 -0.51000 35.01600
N  18.51200 -2.93500 27.32600
C  19.15600 -3.62600 28.35600
C  19.81000 -4.80400 27.81700
C  19.62200 -4.72800 26.43300
C  18.88800 -3.46400 26.13800
C  20.39300 -5.85900 28.68400
C  19.99600 -5.71900 25.37700
O  19.67900 -5.68400 24.21700
C  20.84000 -6.89000 25.78000
N  17.23300 -0.96400 25.35400
C  17.83800 -1.83500 24.54200
C  17.64000 -1.43000 23.00700
C  16.63800 -0.19500 23.15700
C  16.44300 -0.04100 24.64700
C  19.00500 -1.12100 22.18400
C  15.26400 -0.31700 22.44900
C  14.81000 0.93500 21.66500
N  16.02200 0.34200 27.66100
C  15.47400 1.18800 26.71700
C  14.65400 2.24000 27.34400
C  14.77400 1.99300 28.69400
C  15.73300 0.93300 28.84600
C  13.90000 3.39100 26.63400
C  14.35200 2.40200 29.96600
O  13.61800 3.26100 30.35000
C  15.32000 1.61700 31.04900
C  16.18900 2.61700 31.76700
O  17.28900 2.88400 31.47000
O  15.46600 3.12900 32.88400
C  16.11700 4.01100 33.86600
H  19.83100 -3.70100 30.37600
H  19.02600 -3.44800 24.02800
H  15.18800 1.66300 24.69600
H  17.86400 0.31500 32.53900
H  18.73800 -2.45800 32.40800
H  20.72400 -0.78500 31.11600
H  20.75000 -1.77700 32.41800
H  20.12300 -0.06400 32.66400
H  16.28500 -2.21800 32.78400
H  15.46900 -0.65800 32.87200
H  16.61800 -2.14000 35.04100
H  15.97400 -0.48600 34.94200
H  19.70600 -6.70500 28.66500
H  20.59000 -5.64400 29.73500
H  21.34000 -6.19700 28.26500
H  20.35200 -7.49000 26.54800
H  21.81400 -6.53500 26.11600
H  20.90600 -7.53400 24.90300
H  17.08200 -2.25000 22.55400
H  17.09600 0.74800 22.85800
H  19.04200 -0.07100 21.89400
H  19.09000 -1.68200 21.25400
H  19.87700 -1.44800 22.75100
H  14.51300 -0.49300 23.22000
H  15.16700 -1.21900 21.84500
H  15.67500 1.52800 21.36800
H  14.21400 1.61600 22.27200
H  14.25700 0.50800 20.82800
H  12.93500 3.09300 26.22400
H  14.51400 3.61200 25.76200
H  13.84300 4.24700 27.30600
H  14.62800 1.14100 31.74300
H  16.16200 3.56300 34.85900
H  15.75600 5.03500 33.96200
H  17.18200 4.09200 33.65100
Mg 40.45900 9.51000 29.38400
C  42.31100 10.80200 32.07700
C  38.26400 8.16100 31.67600
C  38.92200 8.07600 26.83000
C  43.29700 10.32600 27.36800
N  40.36300 9.45000 31.62900
C  41.10500 10.20200 32.48400
C  40.50600 10.25900 33.93600
C  39.48300 9.08600 33.74100
C  39.28100 8.92700 32.21600
C  39.75900 7.73300 34.39900
C  39.79700 11.62100 34.30400
C  39.60400 11.70300 35.86700
H  40.29000 12.90400 36.61100
N  38.73800 8.43400 29.23600
C  37.94500 8.00300 30.31800
C  36.72400 7.33200 29.76200
C  36.86600 7.47900 28.31500
C  38.23100 8.02000 28.04800
C  35.63900 6.71400 30.63800
C  35.94000 7.15600 27.20100
O  36.09900 7.51500 26.03500
C  34.68800 6.40100 27.55100
N  40.99400 9.23600 27.42500
C  40.24000 8.54300 26.52200
C  40.96000 8.49500 25.16500
C  42.27800 9.18500 25.38000
C  42.15100 9.62800 26.81400
C  41.02700 7.11300 24.38900
C  42.70200 10.22800 24.34600
C  42.24900 11.70800 24.62800
N  42.35800 10.42300 29.59200
C  43.40100 10.68900 28.72100
C  44.48000 11.37400 29.40600
C  44.04100 11.46100 30.72400
C  42.77000 10.81100 30.76000
C  45.81100 11.72000 28.93200
C  44.47800 11.93300 31.97600
O  45.49300 12.50500 32.25400
C  43.35800 11.56900 32.89700
C  43.74400 10.79300 34.11000
O  43.67000 9.55600 34.27200
O  44.12100 11.70500 35.09900
C  44.31900 11.19800 36.45100
H  37.56700 7.68600 32.37000
H  38.49400 7.72500 25.88800
H  44.09200 10.62900 26.68400
H  41.24100 9.98400 34.69200
H  38.49800 9.35000 34.12600
H  39.03700 7.62100 35.20800
H  40.78000 7.72300 34.78000
H  39.63300 6.86400 33.75300
H  38.77700 11.60400 33.92000
H  40.33600 12.53000 34.03500
H  40.01200 10.81500 36.35000
H  38.52200 11.82400 35.91500
H  34.75800 7.33900 30.78600
H  36.00200 6.37000 31.60600
H  35.42400 5.77600 30.12400
H  34.99800 5.36500 27.69100
H  34.00700 6.43400 26.70100
H  34.13800 6.85800 28.37300
H  40.33500 9.11000 24.51800
H  43.04200 8.41300 25.47100
H  41.98600 6.59900 24.32700
H  40.53100 7.09800 23.41800
H  40.29800 6.50900 24.93000
H  42.25600 9.98200 23.38200
H  43.77300 10.23000 24.14500
H  41.66400 11.81800 25.54100
H  41.73300 12.12500 23.76300
H  43.17500 12.26000 24.79100
H  46.05500 11.27200 27.96900
H  46.46000 11.54800 29.79100
H  45.95000 12.80000 28.87800
H  42.72800 12.37000 33.28300
H  45.26500 11.62700 36.78000
H  44.43600 10.11800 36.54100
H  43.47900 11.50500 37.07400

