158

Mg 39.89600 10.51700 30.00000
C  41.72300 11.53100 32.64400
C  37.70700 8.86300 32.21400
C  38.30400 9.09400 27.31200
C  42.56700 11.31700 27.83600
N  39.90100 10.01200 32.29000
C  40.60700 10.81900 33.08600
C  40.11300 10.73200 34.53800
C  38.81000 9.82800 34.39700
C  38.79700 9.43600 32.88400
C  38.63800 8.65000 35.37500
C  39.81100 12.17600 35.24400
C  40.57200 12.36900 36.58100
H  39.66300 13.06400 37.58400
N  38.10800 9.38400 29.82800
C  37.39800 8.75100 30.83900
C  36.24500 8.10700 30.26600
C  36.38400 8.24700 28.83900
C  37.67300 8.94800 28.56100
C  35.20000 7.42300 31.11300
C  35.53500 7.59100 27.75600
O  35.88500 7.56700 26.59200
C  34.29600 6.79000 28.10100
N  40.45200 10.13200 27.88300
C  39.59300 9.61300 27.01000
C  39.90800 9.98600 25.49600
C  41.31400 10.75900 25.62800
C  41.51300 10.73800 27.15500
C  39.85000 8.85000 24.51000
C  41.35400 12.19400 24.95300
C  40.68500 13.40400 25.60800
N  41.74100 11.41000 30.12600
C  42.72400 11.67000 29.19300
C  43.84300 12.25000 29.83300
C  43.45600 12.31000 31.21600
C  42.20400 11.69000 31.32900
C  45.05400 12.75300 29.14600
C  43.94400 12.57900 32.54700
O  44.97100 13.16000 32.92800
C  42.82200 12.06000 33.55900
C  43.37200 11.07800 34.54100
O  43.74000 9.95500 34.31800
O  43.40900 11.68100 35.78800
C  43.71600 10.84600 36.95000
H  37.05300 8.35500 32.92400
H  37.65000 8.98800 26.44400
H  43.37700 11.63000 27.17400
H  40.86400 10.16900 35.09300
H  37.86900 10.36200 34.53200
H  38.63500 7.68200 34.87300
H  37.73300 8.80700 35.96200
H  39.49500 8.62300 36.04900
H  38.74700 12.12100 35.47600
H  40.06800 12.91900 34.48900
H  41.28600 13.15700 36.34100
H  40.92700 11.41200 36.96300
H  35.62500 7.14600 32.07800
H  34.92700 6.47600 30.64700
H  34.23100 7.91900 31.17900
H  33.59000 7.39500 28.66900
H  34.52500 5.95400 28.76300
H  33.87800 6.45700 27.15100
H  39.05400 10.63600 25.30800
H  42.08000 10.07400 25.26200
H  39.52600 7.89900 24.93200
H  40.81300 8.57200 24.08100
H  39.16700 9.16100 23.71900
H  40.88600 12.07600 23.97500
H  42.39400 12.50500 24.85400
H  40.07300 14.02600 24.95400
H  41.48300 14.06200 25.95000
H  40.12100 13.13100 26.50000
H  45.31400 13.68500 29.64800
H  45.02000 13.06900 28.10300
H  45.86500 12.09700 29.46100
H  42.37900 12.94200 34.02200
H  44.29100 11.43000 37.66900
H  44.24200 9.91400 36.74200
H  42.83000 10.59900 37.53600
Mg -12.05700 16.63700 41.57200
C  -9.07000 14.87100 40.81900
C  -10.43400 19.47900 40.00700
C  -14.95100 18.17700 41.63200
C  -13.47500 13.66200 42.75900
N  -10.00400 17.15700 40.60300
C  -8.99700 16.27900 40.42900
C  -7.73400 16.91200 39.80000
C  -8.12500 18.38400 39.48900
C  -9.61800 18.35100 40.05100
C  -7.23100 19.48700 40.20900
C  -7.24100 16.17400 38.48500
C  -5.72200 16.15600 38.18800
H  -5.23100 16.97000 37.02700
N  -12.58100 18.52200 40.98600
C  -11.81900 19.57100 40.39500
C  -12.71100 20.62400 40.11400
C  -13.94500 20.41000 40.66300
C  -13.88300 19.00200 41.10600
C  -12.24800 21.79400 39.26700
C  -15.14200 21.38900 40.96000
O  -15.16100 22.56800 40.44300
C  -16.33600 21.05000 41.78900
N  -13.94700 15.98700 42.11000
C  -14.99300 16.85500 42.08500
C  -16.35500 16.01900 42.38200
C  -15.75600 14.54900 42.68800
C  -14.25800 14.75600 42.60200
C  -17.24900 16.71400 43.44400
C  -16.40400 13.46200 41.81100
C  -17.29400 12.53200 42.58200
N  -11.41700 14.72800 42.01100
C  -12.08600 13.60700 42.53100
C  -11.18800 12.53100 42.61200
C  -10.00700 13.02500 42.01600
C  -10.24600 14.29500 41.52400
C  -11.30500 11.20400 43.21500
C  -8.63200 12.53300 41.66800
O  -8.21000 11.40300 41.86100
C  -7.96800 13.80000 40.87400
C  -6.82100 14.24100 41.68900
O  -6.78200 14.58500 42.87800
O  -5.81200 14.28900 40.76700
C  -4.48500 14.48000 41.41800
H  -10.02400 20.32200 39.44800
H  -15.82600 18.68200 41.21800
H  -13.97700 12.82800 43.25400
H  -6.89300 16.86900 40.49200
H  -8.26900 18.71800 38.46200
H  -7.83000 20.16500 40.81700
H  -6.56900 20.00900 39.51900
H  -6.47400 19.03100 40.84700
H  -7.61900 16.66800 37.58900
H  -7.51500 15.12300 38.38800
H  -5.32600 15.14100 38.21700
H  -5.18300 16.49500 39.07300
H  -13.06400 21.96300 38.56400
H  -11.37800 21.46400 38.69900
H  -11.99200 22.68300 39.84400
H  -16.79600 22.00900 42.02800
H  -16.10300 20.54000 42.72400
H  -16.94600 20.51700 41.06000
H  -16.91700 15.99600 41.44800
H  -15.95400 14.27000 43.72300
H  -17.24500 17.79800 43.32600
H  -17.05900 16.41000 44.47300
H  -18.27600 16.50500 43.14400
H  -15.65400 12.85600 41.30300
H  -16.96400 13.95600 41.01700
H  -18.33400 12.61800 42.26800
H  -17.29000 12.84800 43.62500
H  -16.92400 11.51000 42.49600
H  -12.01900 11.32500 44.03000
H  -10.35500 10.90100 43.65600
H  -11.65200 10.43000 42.53000
H  -7.69800 13.25000 39.97300
H  -3.75700 14.36800 40.61400
H  -4.35000 13.81600 42.27200
H  -4.24300 15.48700 41.75700

