158

Mg -2.70100 34.28400 27.19000
C  -4.17500 32.33600 29.91500
C  -1.31100 36.29700 29.59500
C  -1.71800 36.28100 24.68400
C  -4.48600 32.28000 24.96700
N  -2.90500 34.32900 29.52700
C  -3.42600 33.40700 30.49100
C  -3.08500 33.73300 31.90200
C  -2.17700 35.05500 31.73400
C  -2.17300 35.29500 30.17000
C  -2.50500 36.38300 32.61200
C  -2.41200 32.53200 32.65600
C  -3.03700 32.18600 34.07000
H  -1.99000 31.85300 35.17200
N  -1.59200 36.03900 27.11500
C  -1.06000 36.69100 28.23700
C  -0.29700 37.76900 27.78200
C  -0.35100 37.77200 26.36200
C  -1.29200 36.69200 25.98300
C  0.35800 38.73100 28.79200
C  0.47300 38.66200 25.40300
O  0.58100 38.49100 24.21200
C  1.11000 39.90500 25.95900
N  -2.94700 34.24300 25.03300
C  -2.45300 35.19700 24.20600
C  -2.85000 34.96400 22.76500
C  -3.48600 33.55000 22.82400
C  -3.64000 33.28900 24.37400
C  -3.93700 35.98100 22.29400
C  -2.55200 32.45300 22.27600
C  -1.14200 32.28900 22.83600
N  -4.09500 32.60900 27.34900
C  -4.72400 31.97500 26.31500
C  -5.44400 30.82300 26.82500
C  -5.31700 30.89300 28.23800
C  -4.46400 32.04900 28.57000
C  -6.40500 29.88100 26.01600
C  -5.72700 30.36000 29.52300
O  -6.50700 29.44200 29.75500
C  -5.09200 31.29500 30.62300
C  -6.22800 31.81700 31.36100
O  -6.95600 32.75000 31.14400
O  -6.22800 31.10500 32.53900
C  -6.79500 31.80800 33.69600
H  -0.75600 36.92200 30.29800
H  -1.37400 37.06100 24.00100
H  -5.10500 31.69900 24.28100
H  -4.01800 34.05100 32.36700
H  -1.16900 34.76000 32.02700
H  -3.53300 36.33800 32.97300
H  -2.26700 37.27400 32.03100
H  -1.91800 36.37000 33.53000
H  -1.39000 32.85000 32.86300
H  -2.42400 31.68300 31.97300
H  -3.84500 31.46500 33.95000
H  -3.58900 33.08300 34.35100
H  -0.24700 38.83400 29.69300
H  0.35400 39.76200 28.44000
H  1.30300 38.36100 29.19000
H  0.42400 40.41700 26.63300
H  1.42000 40.59300 25.17300
H  2.01000 39.59400 26.49000
H  -2.09800 35.04000 21.98100
H  -4.39300 33.55400 22.21900
H  -4.74800 36.06600 23.01700
H  -4.32100 35.69100 21.31700
H  -3.46800 36.95600 22.16300
H  -2.42700 32.60400 21.20400
H  -3.07200 31.50400 22.40500
H  -0.54500 32.51100 21.95200
H  -0.91300 31.24500 23.05400
H  -0.93000 33.00500 23.62900
H  -6.30800 29.95600 24.93200
H  -7.39200 30.09200 26.42700
H  -6.31600 28.81100 26.20200
H  -4.48900 30.65700 31.26800
H  -6.01900 32.42300 34.15300
H  -7.19300 31.13700 34.45800
H  -7.71700 32.34100 33.46100
Mg -6.26500 25.03800 26.34800
C  -4.48100 26.68400 28.89200
C  -7.43500 22.86800 28.71400
C  -7.61000 23.38400 23.91000
C  -4.59000 27.12100 24.12300
N  -6.06100 24.83600 28.58600
C  -5.31700 25.69900 29.41000
C  -5.48700 25.31800 30.88300
C  -6.25200 23.94900 30.75700
C  -6.64500 23.84900 29.28300
C  -5.50800 22.67700 31.38900
C  -6.12300 26.49400 31.72300
C  -7.17600 26.23900 32.73400
H  -6.71400 25.38600 33.88600
N  -7.36700 23.32000 26.39300
C  -7.87600 22.58600 27.41800
C  -8.71400 21.54400 26.86600
C  -8.70900 21.61600 25.43800
C  -7.85800 22.78400 25.18500
C  -9.44600 20.58000 27.81000
C  -9.49300 20.75600 24.42200
O  -9.48000 21.03800 23.17700
C  -10.39700 19.61100 24.82200
N  -6.21100 25.30300 24.30500
C  -6.87200 24.52900 23.48000
C  -6.57200 24.85300 22.05700
C  -5.76400 26.17000 22.05200
C  -5.51700 26.23400 23.56400
C  -5.86100 23.69900 21.27700
C  -6.51800 27.36600 21.38500
C  -6.04600 27.69700 19.93100
N  -4.88300 26.64500 26.42300
C  -4.19400 27.30700 25.46900
C  -3.37300 28.30800 26.01000
C  -3.39400 28.08600 27.41600
C  -4.33500 27.05200 27.58300
C  -2.63600 29.33800 25.19600
C  -2.86900 28.45100 28.66400
O  -1.95900 29.21700 28.93100
C  -3.61500 27.63000 29.69400
C  -2.69700 27.02600 30.71300
O  -2.11300 25.98800 30.58000
O  -2.72400 27.69300 31.91800
C  -2.22400 27.06200 33.12300
H  -7.77600 22.14100 29.45300
H  -8.16700 22.84900 23.13900
H  -4.12400 27.71400 23.33300
H  -4.46600 25.12600 31.21300
H  -7.22900 23.96800 31.24000
H  -4.43500 22.77000 31.22000
H  -5.85700 21.74800 30.93700
H  -5.74600 22.68900 32.45200
H  -6.44300 27.38000 31.17400
H  -5.21600 26.71000 32.28700
H  -8.10700 25.85300 32.32000
H  -7.36300 27.21000 33.19300
H  -10.50900 20.50300 27.58400
H  -9.34500 20.82500 28.86700
H  -9.15900 19.55200 27.58900
H  -10.35600 18.90700 23.99000
H  -11.41000 19.95000 25.03800
H  -10.00700 19.05000 25.67100
H  -7.48000 25.14800 21.53000
H  -4.82200 26.11800 21.50500
H  -4.80800 23.89300 21.07600
H  -6.44900 23.50300 20.38000
H  -5.66000 22.81700 21.88500
H  -6.26700 28.22000 22.01500
H  -7.59900 27.24600 21.31800
H  -6.99800 27.74400 19.40100
H  -5.34600 26.98000 19.50100
H  -5.53700 28.65300 19.81400
H  -1.94900 28.74600 24.59200
H  -2.08600 29.96300 25.90000
H  -3.20900 29.92500 24.47900
H  -4.28800 28.31300 30.21200
H  -1.26500 26.54500 33.08500
H  -2.97500 26.33200 33.42700
H  -2.11400 27.77000 33.94500

