158

Mg 46.59400 44.93300 43.74500
C  43.33000 43.79600 43.46300
C  47.70000 41.76200 43.13000
C  49.65700 46.14100 43.26600
C  45.31000 48.20200 43.84300
N  45.59000 43.01700 43.27000
C  44.26600 42.78400 43.17200
C  43.96300 41.26000 42.89100
C  45.37500 40.60300 42.89300
C  46.30200 41.85100 43.10200
C  45.56600 39.45600 43.87500
C  43.06100 40.95900 41.62900
C  43.23800 41.93200 40.44200
H  42.70200 41.60000 38.99600
N  48.40700 44.02000 43.57200
C  48.73100 42.72400 43.37600
C  50.19800 42.55000 43.31900
C  50.78800 43.81400 43.35000
C  49.61100 44.73300 43.44300
C  50.89700 41.25500 43.20700
C  52.23200 44.16500 43.39500
O  53.03700 43.27700 43.24600
C  52.82300 45.53100 43.50500
N  47.39700 46.86200 43.61400
C  48.74700 47.15500 43.47100
C  48.98600 48.69400 43.17500
C  47.61200 49.33200 43.51900
C  46.73700 48.08300 43.69800
C  50.20900 49.41900 43.87800
C  47.11700 50.34000 42.49000
C  47.09500 51.76700 43.05400
N  44.72000 45.86700 43.88200
C  44.34500 47.18100 43.94500
C  42.96300 47.27400 44.13300
C  42.48500 45.96900 43.93300
C  43.63800 45.11900 43.71600
C  42.19400 48.54000 44.36600
C  41.31800 45.12500 43.92300
O  40.13900 45.28900 44.22700
C  41.85100 43.67900 43.53400
C  41.33800 42.60600 44.43400
O  40.66600 41.69100 44.04100
O  41.66600 42.85400 45.72900
C  41.27200 41.83700 46.76400
H  48.14600 40.83100 42.77100
H  50.53200 46.67600 42.89300
H  45.08200 49.25600 44.01700
H  43.37500 40.85600 43.71500
H  45.48200 40.22600 41.87600
H  45.88800 38.67600 43.18400
H  44.60900 39.12000 44.27500
H  46.22900 39.70900 44.70200
H  42.01600 40.91100 41.93400
H  43.36500 40.04900 41.11300
H  44.30800 42.01300 40.25400
H  43.08600 42.96400 40.76000
H  50.18700 40.51900 43.58300
H  51.81300 41.12100 43.78200
H  51.14800 41.06700 42.16300
H  52.21000 46.15800 44.15200
H  52.81400 46.12600 42.59200
H  53.80200 45.52900 43.98400
H  49.03000 48.71600 42.08600
H  47.67700 49.81900 44.49200
H  50.82600 48.72400 44.44700
H  49.87200 50.09400 44.66500
H  50.88000 49.84600 43.13300
H  46.22600 49.98900 41.96900
H  47.89500 50.44900 41.73500
H  47.01400 51.73500 44.14100
H  46.20700 52.26300 42.66100
H  47.99900 52.29600 42.75000
H  41.34900 48.22100 44.97700
H  41.86500 49.03000 43.45000
H  42.68800 49.23800 45.04100
H  41.35600 43.44800 42.59100
H  41.56400 40.82100 46.50000
H  40.18300 41.84900 46.78400
H  41.56700 42.18900 47.75300
Mg -0.20300 43.46700 24.72800
C  1.98900 43.10100 27.49000
C  -2.77600 42.72600 26.83100
C  -2.20900 43.57400 21.96500
C  2.65000 43.73500 22.59400
N  -0.38900 43.00500 26.87200
C  0.62400 43.04500 27.76100
C  0.06000 42.86600 29.19800
C  -1.43800 42.61900 29.05300
C  -1.56000 42.94100 27.53000
C  -1.88700 41.19200 29.55500
C  0.39100 44.03500 30.15500
C  0.42800 43.76100 31.68700
H  0.32900 42.33900 32.24600
N  -2.19300 43.09500 24.44500
C  -3.10100 42.83300 25.44000
C  -4.47300 42.73500 24.81900
C  -4.25100 42.87300 23.41800
C  -2.84700 43.26800 23.19700
C  -5.60700 42.25900 25.65000
C  -5.21800 42.53600 22.27500
O  -4.87600 42.64100 21.08300
C  -6.58800 42.16600 22.49000
N  0.18500 43.53400 22.59200
C  -0.80700 43.64100 21.64200
C  -0.30800 43.71500 20.13500
C  1.20300 43.93000 20.43400
C  1.39800 43.77500 21.96200
C  -0.67200 42.39000 19.50800
C  1.83400 45.17800 19.81800
C  1.62700 46.49700 20.61000
N  1.86900 43.46400 24.97500
C  2.89500 43.67200 24.05700
C  4.16500 43.61700 24.71900
C  3.84800 43.42400 26.06800
C  2.43500 43.30800 26.16800
C  5.51300 43.81500 24.09300
C  4.44200 43.09900 27.31000
O  5.57300 42.96400 27.62500
C  3.18400 42.91900 28.30500
C  3.41300 41.66400 29.13900
O  3.38800 40.52300 28.74700
O  3.64800 42.08300 30.43300
C  4.22500 41.07200 31.36400
H  -3.62700 42.45200 27.45800
H  -2.84300 43.66400 21.08000
H  3.57300 43.60300 22.02600
H  0.51800 41.98100 29.63900
H  -1.91700 43.42400 29.61200
H  -1.87400 40.37800 28.83100
H  -2.91300 41.24500 29.92100
H  -1.15100 40.78600 30.24900
H  -0.26400 44.87500 29.92400
H  1.36400 44.40100 29.82800
H  -0.42900 44.38200 31.94600
H  1.37600 44.16200 32.04600
H  -6.12000 43.15800 25.98900
H  -5.23500 41.60400 26.43800
H  -6.20700 41.62300 24.99900
H  -6.69500 41.15400 22.88100
H  -7.12500 42.28500 21.54900
H  -7.00100 42.84100 23.24000
H  -0.83000 44.58400 19.73300
H  1.79200 43.12500 19.99400
H  -0.39400 41.54900 20.14300
H  -0.11100 42.33900 18.57400
H  -1.75100 42.34200 19.36200
H  1.37500 45.40300 18.85500
H  2.87900 44.97500 19.58300
H  2.55500 46.81400 21.08500
H  0.90500 46.27100 21.39500
H  1.16900 47.26300 19.98400
H  5.65900 43.44900 23.07700
H  6.18500 43.20900 24.70000
H  5.73700 44.87200 24.23700
H  3.22000 43.77200 28.98300
H  3.57300 40.20700 31.47900
H  4.36400 41.51900 32.34900
H  5.17900 40.73200 30.95900

