158

Mg 1.70500 -2.13800 43.76100
C  5.26800 -1.44800 43.92600
C  1.37800 0.77900 42.06100
C  -1.28900 -3.17600 43.08800
C  2.47800 -5.14600 45.42800
N  3.25500 -0.51400 43.05500
C  4.59000 -0.46800 43.19500
C  5.13500 0.73800 42.34700
C  3.83100 1.65000 42.18500
C  2.76500 0.54000 42.28300
C  3.62200 2.79900 43.27800
C  5.92400 0.37700 41.07900
C  5.24000 -0.48200 39.98700
H  4.92800 0.19900 38.70700
N  0.17400 -1.24100 42.88700
C  0.20700 -0.06200 42.23100
C  -1.05800 0.24300 41.76000
C  -1.92600 -0.86000 41.99600
C  -1.00600 -1.82400 42.64400
C  -1.41600 1.64200 41.18100
C  -3.40500 -1.05100 41.75600
O  -4.08600 -0.16800 41.26900
C  -4.22300 -2.20600 42.13800
N  0.77800 -3.90300 44.19100
C  -0.50100 -4.12700 43.79300
C  -1.02200 -5.49000 44.18600
C  0.13700 -6.08600 45.04200
C  1.22400 -5.00400 44.80600
C  -2.36800 -5.49300 44.88300
C  0.50500 -7.55400 44.55200
C  -0.00300 -8.68900 45.48200
N  3.47200 -3.16300 44.44900
C  3.61400 -4.35800 45.21800
C  5.01600 -4.65300 45.51800
C  5.64500 -3.48500 44.99800
C  4.68300 -2.61400 44.43000
C  5.56700 -5.83000 46.30600
C  6.91100 -2.82500 44.92000
O  8.00400 -3.25100 45.36000
C  6.79000 -1.50700 44.25600
C  7.22600 -0.35900 45.12100
O  6.58300 0.33300 45.91400
O  8.43800 0.01100 44.65800
C  8.96800 1.39500 44.79900
H  1.17100 1.75600 41.62100
H  -2.27200 -3.53800 42.78000
H  2.60600 -6.05300 46.02200
H  5.95200 1.17400 42.92200
H  3.90200 2.10600 41.19700
H  3.25000 3.74600 42.88700
H  4.42700 3.00400 43.98400
H  2.85300 2.35900 43.91300
H  6.83500 -0.16100 41.34300
H  6.21700 1.35400 40.69500
H  4.24100 -0.63700 40.39400
H  5.84800 -1.38300 39.90200
H  -0.78200 1.84900 40.31900
H  -1.41900 2.32000 42.03400
H  -2.42400 1.59500 40.77000
H  -5.29500 -2.06900 41.99500
H  -4.13300 -2.46600 43.19200
H  -3.77700 -2.93000 41.45600
H  -1.16600 -6.15600 43.33600
H  -0.02700 -5.98100 46.11400
H  -2.65600 -4.44600 44.97400
H  -2.23500 -6.02200 45.82800
H  -3.15700 -5.89900 44.25000
H  1.57900 -7.71600 44.46300
H  0.17000 -7.95800 43.59700
H  -0.73600 -8.31500 46.19700
H  0.90300 -9.05200 45.96800
H  -0.45000 -9.48700 44.88900
H  5.73500 -6.70100 45.67400
H  4.98400 -6.07500 47.19400
H  6.53100 -5.55400 46.73600
H  7.38300 -1.51600 43.34100
H  8.35800 1.88700 45.55600
H  8.80600 1.87900 43.83600
H  10.03300 1.48200 45.01500
Mg -5.36100 25.56000 26.31100
C  -3.58900 26.36900 29.00900
C  -7.44000 23.39500 28.43500
C  -6.38800 23.67800 23.62400
C  -3.15100 27.25400 24.20700
N  -5.56300 25.05000 28.47700
C  -4.78200 25.63900 29.39000
C  -5.38500 25.47800 30.83400
C  -6.27200 24.19400 30.55200
C  -6.45400 24.16000 29.05100
C  -5.76000 22.85400 31.06100
C  -6.13200 26.73100 31.37400
C  -6.17800 27.00000 32.90300
H  -5.72800 25.97400 33.88800
N  -7.02500 24.09200 26.00200
C  -7.67500 23.39400 26.98700
C  -8.49400 22.34500 26.31000
C  -8.16500 22.38000 24.91400
C  -7.14300 23.42000 24.77600
C  -9.42100 21.34800 26.99900
C  -8.80500 21.55600 23.78500
O  -8.53000 21.76100 22.54400
C  -9.94900 20.57300 24.06500
N  -4.82700 25.50100 24.18700
C  -5.33200 24.54600 23.32700
C  -4.80500 24.73600 21.88900
C  -4.01600 26.04600 22.06100
C  -4.04500 26.34600 23.55000
C  -3.99600 23.64000 21.26300
C  -4.42600 27.28700 21.20800
C  -3.28600 27.96800 20.48300
N  -3.72000 26.69400 26.55900
C  -2.90500 27.33700 25.61200
C  -1.88600 28.08700 26.33800
C  -2.09000 27.75800 27.75500
C  -3.15500 26.79200 27.74300
C  -1.05900 29.23700 25.77300
C  -1.63800 28.01600 29.09300
O  -0.78700 28.76800 29.51200
C  -2.61000 27.08200 29.98300
C  -1.90600 26.15100 30.90800
O  -1.17600 25.18600 30.61800
O  -1.83900 26.66400 32.17000
C  -1.16300 25.96300 33.23800
H  -8.12400 22.79700 29.04000
H  -6.68900 23.21500 22.68200
H  -2.50000 27.81400 23.53200
H  -4.57600 25.21100 31.51300
H  -7.22000 24.44100 31.03000
H  -4.92600 22.93100 31.75800
H  -5.38300 22.39600 30.14600
H  -6.60700 22.38000 31.55800
H  -7.15900 26.75500 31.00800
H  -5.65700 27.65800 31.05300
H  -7.22400 27.21200 33.12600
H  -5.76100 27.99100 33.08300
H  -10.46000 21.66000 26.89400
H  -9.21800 21.26300 28.06700
H  -9.31200 20.33200 26.62000
H  -9.40500 19.74800 24.52500
H  -10.47300 20.13500 23.21600
H  -10.71100 20.84900 24.79400
H  -5.71700 24.91300 21.32000
H  -2.97400 25.87900 21.78700
H  -2.96000 23.89300 21.03600
H  -4.60000 23.26000 20.43900
H  -4.01000 22.79900 21.95700
H  -4.79200 28.08900 21.84800
H  -5.26000 27.10200 20.53100
H  -2.29500 27.51400 20.46400
H  -3.05600 28.95500 20.88300
H  -3.63100 27.97400 19.44900
H  -1.36700 29.50000 24.76100
H  -0.01100 28.95700 25.66600
H  -1.16100 30.13800 26.37900
H  -3.20000 27.73900 30.62100
H  -0.08200 26.09400 33.18600
H  -1.39500 24.89800 33.23200
H  -1.43200 26.24500 34.25500

