158

Mg 17.45400 -1.26300 28.47300
C  16.12900 0.74000 31.04500
C  19.09600 -3.16700 30.83600
C  19.15800 -2.67100 25.95700
C  15.97000 0.88100 26.15200
N  17.74900 -1.12900 30.69900
C  16.98500 -0.30800 31.51000
C  17.25200 -0.73300 32.97900
C  18.11900 -2.03500 32.90500
C  18.41200 -2.05100 31.39600
C  19.43000 -1.77200 33.70200
C  15.93000 -0.96200 33.83800
C  15.85400 -0.33900 35.22300
H  17.08900 -0.00600 36.08100
N  18.87500 -2.72100 28.37200
C  19.42100 -3.46200 29.45300
C  20.08600 -4.65600 28.82600
C  20.23100 -4.40700 27.44500
C  19.46500 -3.17300 27.20100
C  20.52100 -5.79400 29.68900
C  20.84300 -5.27900 26.26700
O  20.82600 -4.82900 25.10700
C  21.44300 -6.67000 26.54400
N  17.63500 -0.96800 26.37800
C  18.39700 -1.63600 25.51100
C  18.04900 -1.33900 24.02700
C  16.72800 -0.55000 24.15200
C  16.73600 -0.20600 25.66000
C  19.18800 -0.63500 23.30600
C  15.50100 -1.36300 23.74600
C  14.56800 -0.63800 22.71800
N  16.27800 0.40800 28.58500
C  15.72100 1.16500 27.54400
C  14.87800 2.21400 28.08900
C  15.09200 2.15200 29.50800
C  15.90300 1.02500 29.72500
C  14.10300 3.27100 27.28900
C  14.75900 2.81300 30.74100
O  14.01500 3.71000 31.04200
C  15.42200 1.89900 31.87100
C  16.38600 2.72900 32.59600
O  17.36400 3.16200 32.08200
O  16.05300 2.79800 33.93800
C  17.06300 3.43800 34.75500
H  19.35900 -3.95700 31.54300
H  19.54000 -3.08900 25.02300
H  15.42900 1.54600 25.47500
H  17.78100 0.13300 33.37500
H  17.53800 -2.93400 33.11300
H  20.07500 -1.16600 33.06600
H  19.97700 -2.71300 33.77400
H  19.13100 -1.45300 34.70000
H  15.59900 -1.98200 34.03600
H  15.10000 -0.58200 33.24200
H  15.22700 -0.95400 35.86800
H  15.24400 0.55400 35.08900
H  21.60900 -5.76400 29.75700
H  20.23800 -6.74100 29.23100
H  20.00700 -5.69500 30.64500
H  22.03900 -6.77600 27.45100
H  22.08200 -7.00000 25.72500
H  20.66700 -7.41300 26.72600
H  17.88800 -2.31200 23.56200
H  16.86800 0.37000 23.58400
H  19.21400 0.45000 23.41000
H  19.14600 -0.85100 22.23800
H  20.12200 -1.02600 23.70900
H  14.95300 -1.75800 24.60200
H  15.77400 -2.30200 23.26300
H  14.40100 -1.23500 21.82100
H  14.96000 0.32900 22.40300
H  13.61900 -0.42900 23.21100
H  13.83500 4.10900 27.93200
H  13.18600 2.84600 26.88200
H  14.74500 3.64700 26.49300
H  14.66100 1.57700 32.58200
H  17.14800 4.46900 34.41100
H  18.05700 2.99500 34.68400
H  16.73900 3.39200 35.79400
Mg 9.06200 48.70900 26.21600
C  6.89000 49.00400 28.91900
C  11.65500 49.70800 28.44200
C  11.29500 48.81000 23.65600
C  6.48400 48.40300 24.02600
N  9.18400 49.47200 28.35300
C  8.23800 49.25400 29.27900
C  8.68400 49.53700 30.74900
C  10.07900 50.20000 30.44400
C  10.37200 49.71200 28.98300
C  10.32300 51.68900 30.65600
C  8.64900 48.26000 31.70300
C  9.69000 47.97300 32.83000
H  9.13500 47.65500 34.23600
N  11.19300 49.07500 26.06300
C  12.05600 49.42800 27.13900
C  13.42100 49.50800 26.61800
C  13.31400 49.10800 25.23100
C  11.88400 49.05300 24.89600
C  14.64400 49.69900 27.41500
C  14.39900 48.72600 24.15900
O  14.16000 48.51000 22.96500
C  15.81000 48.68000 24.64900
N  8.99100 48.48600 24.23100
C  9.97200 48.57800 23.37800
C  9.56900 48.59900 21.84100
C  8.04800 48.28600 22.02500
C  7.76500 48.40700 23.53300
C  9.81300 49.96600 21.03400
C  7.62900 46.99700 21.43700
C  6.95000 46.98200 20.03600
N  7.07000 48.67100 26.40600
C  6.07600 48.51100 25.40400
C  4.74200 48.72600 26.03000
C  4.98700 48.78500 27.45000
C  6.42100 48.80900 27.59100
C  3.39800 48.70800 25.27600
C  4.37900 48.79500 28.72200
O  3.20900 48.68000 29.04500
C  5.64500 48.87000 29.73400
C  5.74200 47.44600 30.32100
O  6.08700 46.48800 29.66300
O  5.38900 47.43500 31.64300
C  5.76500 46.28100 32.46700
H  12.47200 50.01600 29.09700
H  11.98500 48.90200 22.81500
H  5.68300 48.26200 23.29700
H  8.07100 50.33500 31.16900
H  10.95300 49.86800 31.00400
H  9.56700 52.08600 31.33300
H  10.11500 52.15000 29.69100
H  11.34700 51.84100 30.99700
H  8.41100 47.37500 31.11400
H  7.71200 48.45700 32.22500
H  10.27300 48.88600 32.94600
H  10.42200 47.25500 32.46000
H  14.40900 50.02800 28.42700
H  15.38900 50.37600 26.99900
H  15.13200 48.72500 27.38500
H  16.55300 48.51500 23.86800
H  15.89100 47.86900 25.37200
H  16.13700 49.56800 25.18900
H  10.12700 47.74900 21.45000
H  7.37300 48.98500 21.53100
H  10.40400 50.67200 21.61800
H  8.89200 50.44000 20.69600
H  10.39500 49.76700 20.13400
H  6.92900 46.50800 22.11400
H  8.50100 46.34300 21.41800
H  6.11800 46.28100 20.10800
H  7.67000 46.46100 19.40500
H  6.49800 47.89900 19.65700
H  3.52100 49.30000 24.36900
H  2.60700 48.88100 26.00500
H  3.33700 47.71400 24.83300
H  5.36700 49.51500 30.56700
H  6.60300 45.77400 31.98900
H  4.93700 45.59700 32.65300
H  6.15800 46.60000 33.43300

