158

Mg 53.12600 22.98800 44.04700
C  50.67400 25.40500 43.46800
C  50.97200 20.53700 43.03300
C  55.76000 20.94300 44.01300
C  55.24200 25.55700 45.37200
N  51.13900 23.02900 43.09800
C  50.31700 24.11500 43.05600
C  49.06200 23.68400 42.23900
C  49.02700 22.15400 42.50800
C  50.43800 21.86300 42.85500
C  48.12100 21.74400 43.72900
C  49.22000 23.95000 40.73300
C  47.95600 23.92700 39.99600
H  47.82700 23.30500 38.58100
N  53.35700 20.98800 43.59200
C  52.32400 20.13900 43.27400
C  52.86200 18.80300 43.09700
C  54.29500 18.90400 43.32000
C  54.53200 20.34300 43.66400
C  52.03600 17.63400 42.79300
C  55.30200 17.71600 43.28000
O  54.77400 16.57800 43.18000
C  56.76100 17.81100 43.39500
N  55.21600 23.25500 44.48800
C  56.08700 22.24800 44.33600
C  57.51500 22.66500 44.68700
C  57.35700 24.12300 45.23700
C  55.90200 24.35600 45.04200
C  58.29500 21.72100 45.65600
C  58.27400 25.28600 44.75500
C  59.07500 26.01800 45.78600
N  52.97700 25.07700 44.38400
C  53.84400 25.95500 45.04600
C  53.21900 27.20600 45.20100
C  51.95300 27.10900 44.54900
C  51.91900 25.74700 44.06800
C  53.80200 28.40600 45.85700
C  50.71100 27.74900 44.15800
O  50.23600 28.84700 44.32800
C  49.90500 26.71200 43.33300
C  49.70900 27.21700 41.99000
O  50.53500 27.21800 41.05000
O  48.41400 27.54300 41.86800
C  47.96300 27.99100 40.56700
H  50.17900 19.79800 42.89900
H  56.59300 20.25500 43.85300
H  55.89500 26.33600 45.77200
H  48.14900 24.15200 42.61000
H  48.71300 21.66100 41.58700
H  47.94200 22.67600 44.26500
H  48.58900 20.97500 44.34300
H  47.20300 21.28400 43.36200
H  49.91200 23.18300 40.38400
H  49.69300 24.90900 40.52100
H  47.62900 24.95700 39.85500
H  47.16000 23.41800 40.54000
H  52.32700 17.23500 41.82200
H  50.97300 17.87600 42.79800
H  52.27200 16.91800 43.58100
H  57.09300 18.59200 42.71100
H  57.20500 16.91700 42.95600
H  57.08500 17.96700 44.42400
H  57.95300 22.63500 43.69000
H  57.50600 24.12500 46.31700
H  58.66800 22.26500 46.52300
H  59.19800 21.33000 45.18800
H  57.63700 20.90400 45.95200
H  57.59600 26.00800 44.30000
H  58.99100 24.89500 44.03300
H  60.13600 25.77400 45.73400
H  58.61300 25.83000 46.75600
H  59.04100 27.09100 45.59700
H  53.59100 28.34400 46.92500
H  53.26300 29.30900 45.56800
H  54.88700 28.50500 45.82700
H  48.94300 26.66700 43.84500
H  47.81600 29.07100 40.58200
H  47.04300 27.45100 40.34500
H  48.69000 27.77100 39.78600
Mg 16.72500 52.60800 25.30700
C  18.49300 51.47100 28.10600
C  14.20800 53.72400 27.32100
C  15.25000 53.87500 22.58300
C  19.27300 51.27900 23.31300
N  16.45300 52.57500 27.43000
C  17.28800 52.15300 28.39400
C  16.87800 52.58500 29.78400
C  15.30900 52.82700 29.45800
C  15.29500 53.09800 27.98300
C  14.38200 51.65400 29.79200
C  17.71100 53.79400 30.25200
C  17.71400 53.97300 31.73900
H  16.75900 53.15300 32.56500
N  14.98300 53.63800 24.93900
C  14.05300 53.98900 25.91200
C  12.95900 54.68600 25.22200
C  13.32000 54.77600 23.88600
C  14.56100 54.14200 23.79300
C  11.74100 55.17700 25.94800
C  12.59100 55.40200 22.65200
O  13.06900 55.51100 21.53800
C  11.27500 56.01100 22.82100
N  17.19200 52.44500 23.20400
C  16.44700 53.18600 22.29500
C  17.24000 53.33900 20.97200
C  18.63700 52.73600 21.27500
C  18.33100 52.00100 22.62700
C  16.53200 52.52800 19.87600
C  19.82800 53.70800 21.46100
C  21.14800 53.33300 20.69500
N  18.50200 51.42300 25.57900
C  19.43000 50.96100 24.67600
C  20.53500 50.28200 25.41400
C  20.12600 50.44900 26.76600
C  18.88300 51.10000 26.77100
C  21.85800 49.67200 24.80500
C  20.58500 50.15600 28.10900
O  21.68100 49.69300 28.42000
C  19.61800 50.94300 28.98100
C  19.14300 50.00600 30.02200
O  18.38800 49.04200 29.90300
O  19.72300 50.33900 31.22000
C  19.39300 49.41700 32.32900
H  13.42000 54.05800 28.00000
H  14.79500 54.33100 21.70100
H  20.12800 50.93000 22.73100
H  16.96400 51.75800 30.48900
H  14.92500 53.68100 30.01600
H  13.70900 51.44200 28.96100
H  13.82800 51.91300 30.69400
H  14.88500 50.72400 30.05700
H  17.20100 54.64200 29.79500
H  18.70100 53.63600 29.82600
H  17.36900 54.99600 31.89100
H  18.75400 53.84200 32.03700
H  10.87400 54.63200 25.57600
H  11.61200 56.25800 25.88700
H  11.59500 54.96300 27.00600
H  11.36000 56.73100 23.63400
H  10.54700 55.29300 23.19700
H  10.86800 56.55700 21.97000
H  17.35400 54.40100 20.75400
H  18.98600 51.98800 20.56400
H  15.50800 52.20900 20.07200
H  17.03000 51.56800 19.74200
H  16.61400 53.05500 18.92600
H  20.00300 53.89500 22.52100
H  19.62700 54.67700 21.00400
H  21.41700 54.22300 20.12600
H  21.10600 52.64900 19.84800
H  22.02300 53.03700 21.27300
H  22.61400 49.59000 25.58600
H  22.27000 50.20300 23.94700
H  21.60100 48.66400 24.47800
H  20.18900 51.69800 29.52200
H  20.13400 48.73000 32.73700
H  18.45700 48.87300 32.20200
H  19.23800 50.00000 33.23700

