158

Mg 8.17100 2.29600 27.34300
C  9.66500 1.11100 30.24100
C  6.29400 4.35800 29.30500
C  6.83600 3.63400 24.61400
C  9.69800 -0.12000 25.42900
N  7.95100 2.61000 29.49100
C  8.64400 2.05200 30.51100
C  8.39600 2.64200 31.88800
C  7.22700 3.60500 31.52900
C  7.11700 3.52400 30.02700
C  5.76900 3.46700 32.21100
C  9.57000 3.37200 32.55500
C  9.28200 4.37300 33.69500
H  10.22400 4.26000 34.86400
N  6.70900 3.76700 27.01500
C  6.05600 4.52100 27.96400
C  5.03600 5.30300 27.34700
C  5.20100 5.16200 25.88600
C  6.27500 4.14000 25.80700
C  3.99500 6.12100 28.18800
C  4.48100 5.82700 24.83100
O  4.76100 5.58200 23.65600
C  3.31800 6.76800 25.11900
N  8.25800 1.75000 25.28900
C  7.67100 2.53600 24.32700
C  8.15600 2.16700 22.95400
C  8.88000 0.80500 23.17600
C  9.00100 0.81000 24.71100
C  7.14300 2.14100 21.74600
C  10.30900 0.68900 22.43600
C  10.27400 -0.45500 21.43100
N  9.45800 0.79600 27.73900
C  10.08600 -0.04500 26.83900
C  11.01000 -0.89300 27.59200
C  10.89400 -0.45800 28.90500
C  9.96800 0.56000 28.92800
C  11.87000 -1.99400 27.02300
C  11.31600 -0.65700 30.29200
O  12.07600 -1.54300 30.69800
C  10.52400 0.39500 31.25900
C  9.77300 -0.32100 32.37100
O  8.61400 -0.60800 32.28500
O  10.60700 -0.46700 33.46700
C  10.06800 -1.24500 34.65000
H  5.65500 4.92300 29.98700
H  6.36300 3.96400 23.68600
H  10.23400 -0.87200 24.84600
H  8.03700 1.88300 32.58300
H  7.58900 4.61500 31.72100
H  4.97700 3.20900 31.50900
H  5.55400 4.37300 32.77800
H  5.73200 2.68700 32.97200
H  10.12500 3.94600 31.81300
H  10.22600 2.60700 32.97000
H  8.24800 4.27200 34.02600
H  9.43900 5.38800 33.33000
H  4.22700 6.17600 29.25200
H  3.01700 5.65700 28.06400
H  3.90000 7.15300 27.85200
H  3.57800 7.67700 25.66200
H  2.58700 6.16200 25.65400
H  2.94700 7.12400 24.15900
H  8.87200 2.96200 22.74300
H  8.16200 0.10000 22.75400
H  7.49600 1.51900 20.92300
H  7.08700 3.15900 21.36000
H  6.24400 1.59600 22.03500
H  11.22800 0.67400 23.02100
H  10.37800 1.54000 21.75800
H  10.35900 0.01700 20.45200
H  9.36100 -1.04800 21.48100
H  11.13000 -1.09500 21.64300
H  11.70900 -2.88500 27.63100
H  12.95300 -1.87900 27.05300
H  11.48600 -2.31800 26.05600
H  11.22900 1.11800 31.66800
H  9.88100 -0.52500 35.44700
H  10.73600 -2.09600 34.78800
H  9.11700 -1.69000 34.36100
Mg 49.28700 47.09700 42.41700
C  46.09400 47.87900 41.65500
C  48.93100 43.99000 41.21400
C  52.81000 46.51000 42.65800
C  50.01500 50.45600 43.15100
N  47.66100 46.15400 41.34800
C  46.43000 46.55600 41.27000
C  45.56000 45.45100 40.61000
C  46.52500 44.18600 40.62500
C  47.75300 44.76700 41.19200
C  46.05300 42.90800 41.26900
C  45.11900 45.95200 39.10800
C  43.59500 45.82100 38.79800
H  43.13500 45.51900 37.36200
N  50.61600 45.41200 42.05100
C  50.19700 44.23400 41.69900
C  51.35100 43.31400 41.69000
C  52.45300 44.00700 42.22000
C  52.00100 45.35200 42.24400
C  51.28700 41.90100 41.16400
C  53.75500 43.39400 42.43400
O  53.90500 42.15500 42.39400
C  55.00100 44.16200 42.76200
N  51.14500 48.29700 42.46700
C  52.39300 47.79300 42.69900
C  53.39100 48.93300 42.95000
C  52.47300 50.21600 43.13000
C  51.12900 49.60800 42.95000
C  54.36900 48.81100 44.13400
C  52.69900 51.41100 42.11200
C  53.66800 52.60800 42.52700
N  48.22800 48.85600 42.61400
C  48.61700 50.12000 43.03100
C  47.38800 50.93500 43.06600
C  46.39900 50.08300 42.51400
C  46.95800 48.88700 42.22900
C  47.21500 52.37400 43.39400
C  45.06000 50.02300 42.11600
O  44.24600 50.92400 42.25200
C  44.80200 48.60600 41.41900
C  43.70000 47.90800 42.10100
O  43.59600 47.81100 43.33400
O  42.79900 47.48400 41.16200
C  41.61600 46.84900 41.70900
H  48.83400 43.02900 40.70500
H  53.86500 46.36700 42.90200
H  50.20600 51.49700 43.41800
H  44.70600 45.23000 41.25000
H  46.77400 43.94800 39.59100
H  46.57000 42.74300 42.21400
H  46.34400 42.07600 40.62700
H  44.97900 42.88300 41.45100
H  45.63600 45.41300 38.31400
H  45.31000 47.01800 38.98400
H  43.10000 46.77400 38.98200
H  43.22700 45.07100 39.49800
H  51.39600 41.21800 42.00700
H  51.97500 41.82100 40.32200
H  50.28800 41.67800 40.79000
H  55.17700 44.86300 41.94600
H  55.88600 43.52600 42.73300
H  54.98000 44.72100 43.69700
H  54.00900 49.18100 42.08800
H  52.51100 50.64200 44.13300
H  54.29300 47.79700 44.52800
H  54.09900 49.54500 44.89300
H  55.43000 49.01600 43.99300
H  51.74400 51.83000 41.79500
H  53.19500 51.07400 41.20200
H  54.00200 52.44600 43.55100
H  53.10200 53.53600 42.60400
H  54.56400 52.71300 41.91600
H  47.97700 52.72500 44.09000
H  46.23100 52.38900 43.86200
H  47.13700 53.07100 42.55900
H  44.72400 48.57700 40.33200
H  41.20900 47.40400 42.55400
H  41.84300 45.80900 41.94200
H  40.92200 46.90700 40.87000

