158

Mg 26.08200 0.93600 28.92200
C  27.95500 0.02400 31.76800
C  23.27100 0.97500 31.04400
C  24.27900 1.35900 26.28500
C  28.85600 0.23700 26.96800
N  25.73100 0.47100 31.16200
C  26.62000 0.21300 32.12400
C  26.10300 0.53700 33.59900
C  24.56100 0.65500 33.26000
C  24.50600 0.76900 31.74500
C  23.74400 -0.55600 33.65800
C  26.90500 1.67700 34.36900
C  27.72200 1.17500 35.53800
H  27.41400 1.91700 36.84200
N  24.08600 1.18100 28.70300
C  23.09300 1.10400 29.66900
C  21.82200 1.33700 29.05500
C  22.04500 1.48900 27.66600
C  23.52300 1.33800 27.46400
C  20.46200 1.27600 29.83500
C  21.09400 1.51600 26.53200
O  21.40200 1.68400 25.34600
C  19.58000 1.46900 26.80100
N  26.49000 0.52500 26.85900
C  25.53800 0.93600 25.98300
C  26.08400 0.93300 24.54400
C  27.61000 0.55000 24.73900
C  27.69600 0.51500 26.30100
C  25.42600 -0.11600 23.51900
C  28.63000 1.64100 24.17700
C  29.90300 1.07300 23.48400
N  28.07700 0.34900 29.26600
C  29.07900 0.11000 28.38300
C  30.32500 -0.13900 29.06300
C  29.95800 -0.21200 30.40500
C  28.58500 0.09600 30.52200
C  31.66600 -0.47100 28.51000
C  30.39100 -0.45800 31.77200
O  31.51800 -0.76300 32.13800
C  29.13900 -0.35500 32.68900
C  29.05900 -1.63000 33.40900
O  28.54500 -2.64200 32.98600
O  29.60000 -1.41900 34.63800
C  29.34900 -2.37100 35.71400
H  22.41500 0.96900 31.72300
H  23.78900 1.59600 25.33800
H  29.77300 0.17500 26.37900
H  26.28300 -0.39600 34.13400
H  24.09600 1.57200 33.62100
H  23.06800 -0.85000 32.85600
H  23.15500 -0.29400 34.53800
H  24.46300 -1.33600 33.90900
H  26.10400 2.26100 34.82200
H  27.54900 2.23900 33.69200
H  28.76500 1.43600 35.35700
H  27.61900 0.10100 35.69200
H  20.14500 0.23600 29.76100
H  19.82000 2.01200 29.34900
H  20.54300 1.60800 30.87000
H  18.95200 1.55200 25.91400
H  19.17000 2.26400 27.42400
H  19.36300 0.52000 27.29100
H  25.84000 1.89700 24.09800
H  27.96500 -0.42500 24.40600
H  24.91500 -0.81200 24.18500
H  26.11900 -0.74400 22.96000
H  24.74400 0.33100 22.79600
H  28.88400 2.37500 24.94200
H  28.03600 2.15300 23.42000
H  30.71700 1.79100 23.38400
H  29.54600 0.70500 22.52200
H  30.18100 0.20900 24.08700
H  31.38500 -1.37300 27.96600
H  32.44700 -0.55000 29.26600
H  31.91600 0.33300 27.81800
H  29.41400 0.52500 33.27100
H  28.57200 -1.89300 36.31000
H  30.20900 -2.62700 36.33300
H  28.84700 -3.27500 35.37000
Mg -12.02600 37.97400 42.37500
C  -9.46600 35.61000 41.76300
C  -10.32600 40.18000 40.58100
C  -14.78800 39.88400 42.21200
C  -13.77700 35.40100 43.92400
N  -10.16200 37.79000 41.26100
C  -9.29500 36.75900 41.09100
C  -8.21400 37.07600 40.05700
C  -8.33300 38.64900 39.94600
C  -9.68900 38.90700 40.63600
C  -7.19600 39.56400 40.59600
C  -8.26000 36.21800 38.76600
C  -6.85600 35.54100 38.46600
H  -5.99000 36.30400 37.47300
N  -12.44800 39.81300 41.61100
C  -11.59700 40.60900 41.03000
C  -12.08800 41.94700 40.97300
C  -13.38000 41.86300 41.43800
C  -13.64500 40.48500 41.73200
C  -11.27800 43.18700 40.58900
C  -14.26700 43.09800 41.75300
O  -13.72100 44.18600 41.59200
C  -15.78800 43.03900 42.11700
N  -14.01700 37.74000 42.93400
C  -14.97000 38.66300 42.82000
C  -16.27200 38.24300 43.38500
C  -15.98000 36.79200 43.97600
C  -14.48300 36.63600 43.61100
C  -16.90600 39.05900 44.51300
C  -16.92100 35.70000 43.45100
C  -17.34700 34.63900 44.46300
N  -11.65800 35.96400 42.96600
C  -12.47500 35.00300 43.54900
C  -11.73200 33.73000 43.76000
C  -10.50400 33.98400 43.06300
C  -10.59400 35.26100 42.53300
C  -12.08400 32.60000 44.65100
C  -9.30000 33.33100 42.69000
O  -8.98400 32.18000 42.89400
C  -8.54100 34.42900 41.80500
C  -7.27600 34.68700 42.60300
O  -6.42500 33.78600 42.71400
O  -7.06800 35.99300 43.00400
C  -5.66100 36.20100 43.49200
H  -9.71900 40.85000 39.96900
H  -15.72000 40.45200 42.24700
H  -14.34900 34.62300 44.43200
H  -7.30300 36.85100 40.61200
H  -8.42000 39.03900 38.93200
H  -6.88500 40.31400 39.86800
H  -6.31000 38.96900 40.81400
H  -7.48100 39.94800 41.57500
H  -8.59200 36.77800 37.89200
H  -9.02100 35.46600 38.97400
H  -7.06000 34.58700 37.98000
H  -6.26400 35.33600 39.35800
H  -11.23500 43.84700 41.45500
H  -11.81700 43.74000 39.81900
H  -10.22500 42.99000 40.39000
H  -16.27700 42.59000 41.25200
H  -16.15800 44.05000 42.28700
H  -16.01700 42.54100 43.06000
H  -16.87500 38.19400 42.47800
H  -15.84300 36.77500 45.05700
H  -17.65800 39.63200 43.97200
H  -16.21900 39.73300 45.02600
H  -17.40300 38.49700 45.30400
H  -16.42700 35.17200 42.63500
H  -17.83600 36.19100 43.11700
H  -17.34900 33.64700 44.00900
H  -18.38700 34.92300 44.62200
H  -16.68300 34.68400 45.32600
H  -13.03700 32.84200 45.12100
H  -11.32500 32.42700 45.41300
H  -12.30800 31.71400 44.05700
H  -8.28800 33.84000 40.92300
H  -5.13900 36.30600 42.54100
H  -5.22100 35.48100 44.18200
H  -5.71000 37.17800 43.97400

