158

Mg 8.93800 3.63100 27.99900
C  10.06100 1.92100 30.86800
C  7.12000 5.86400 30.00800
C  7.47100 5.03400 25.27000
C  10.13100 1.06900 25.97900
N  8.58800 3.72900 30.11400
C  9.24600 3.02900 31.12400
C  9.08400 3.75800 32.42900
C  8.07900 4.89800 32.22400
C  7.87900 4.82400 30.67100
C  6.69400 4.80000 33.05000
C  10.40800 4.13600 33.18800
C  10.69400 3.54200 34.59000
H  11.37900 4.42400 35.67200
N  7.62500 5.34300 27.68300
C  7.00800 6.11100 28.60400
C  6.29600 7.19100 27.97600
C  6.27800 6.86400 26.62200
C  7.19600 5.74000 26.43500
C  5.58200 8.28200 28.72500
C  5.39800 7.45800 25.52100
O  5.38500 6.99000 24.42300
C  4.44600 8.68600 25.78100
N  8.92400 3.13900 25.93100
C  8.30500 3.94100 24.97600
C  8.29300 3.28600 23.60200
C  9.22500 2.04100 23.73100
C  9.40300 2.05700 25.29600
C  6.81600 2.89000 23.21800
C  10.53400 2.12200 22.97800
C  10.63300 1.17000 21.78700
N  9.94700 1.87500 28.31300
C  10.38100 0.94800 27.43500
C  11.02900 -0.09600 28.09900
C  10.93000 0.19400 29.44000
C  10.21600 1.41300 29.54300
C  11.67700 -1.26500 27.39000
C  11.36700 -0.15000 30.84500
O  12.00300 -1.06500 31.24900
C  10.73900 0.96800 31.78500
C  9.85700 0.28500 32.78500
O  8.79100 -0.22500 32.56000
O  10.38800 0.31500 34.06400
C  9.63200 -0.41400 35.07300
H  6.55100 6.44300 30.73800
H  7.13100 5.47400 24.33100
H  10.53000 0.24300 25.38800
H  8.66200 3.02100 33.11200
H  8.56200 5.84900 32.45000
H  6.44800 5.81400 33.36500
H  6.92400 4.23800 33.95500
H  5.87900 4.37700 32.46300
H  10.33800 5.21300 33.33800
H  11.26800 3.92300 32.55400
H  11.47400 2.78300 34.53900
H  9.77300 3.09400 34.96500
H  4.50000 8.21100 28.60600
H  5.92800 9.22300 28.29900
H  5.87100 8.35300 29.77300
H  3.78500 8.88400 24.93700
H  5.02500 9.58100 26.01000
H  3.80600 8.61900 26.66000
H  8.36000 4.04000 22.81800
H  8.72500 1.09500 23.52300
H  6.12900 3.26400 23.97800
H  6.68800 1.81000 23.15300
H  6.61500 3.40100 22.27700
H  11.32800 1.73600 23.61800
H  10.67300 3.09700 22.51300
H  11.03500 1.60300 20.87100
H  9.68700 0.72300 21.48000
H  11.27000 0.30800 21.98700
H  11.11500 -1.67600 26.55100
H  11.92600 -2.10900 28.03200
H  12.58300 -0.82100 26.97600
H  11.58500 1.42000 32.30200
H  10.13900 -1.34500 35.32400
H  8.61000 -0.64800 34.77500
H  9.49300 0.21600 35.95200
Mg 25.32500 -0.03900 28.90000
C  27.49100 -0.50600 31.73800
C  22.74600 0.36700 31.07700
C  23.57300 0.14600 26.18700
C  28.21600 -1.01900 27.00600
N  25.24700 0.00000 31.12800
C  26.25500 -0.10400 32.05800
C  25.70800 0.16100 33.50300
C  24.12200 0.18300 33.30900
C  23.99700 0.17200 31.75200
C  23.31400 -0.93500 33.96200
C  26.35100 1.37500 34.28700
C  27.26800 0.98000 35.44200
H  26.95200 1.54800 36.77600
N  23.45500 0.27400 28.64200
C  22.52200 0.36900 29.65000
C  21.27900 0.74200 28.98000
C  21.47000 0.72000 27.52700
C  22.85400 0.37600 27.37100
C  19.96800 1.02500 29.78000
C  20.48700 0.97500 26.38600
O  20.85100 0.96900 25.21500
C  19.14600 1.42900 26.63500
N  25.79100 -0.52000 26.94100
C  24.89900 -0.27400 25.97800
C  25.54700 -0.38400 24.58500
C  27.06700 -0.60500 24.85400
C  27.02400 -0.62400 26.39300
C  24.89700 -1.34900 23.58600
C  28.00900 0.42800 24.20200
C  27.63900 1.93100 24.33500
N  27.37900 -0.64500 29.22700
C  28.38700 -1.05500 28.34800
C  29.61200 -1.40000 29.04800
C  29.30800 -1.18000 30.37000
C  27.97800 -0.80500 30.46100
C  30.94100 -1.74800 28.47600
C  29.81600 -1.18200 31.70600
O  30.91200 -1.44100 32.20100
C  28.67200 -0.69100 32.63600
C  28.49700 -1.97200 33.51900
O  27.75600 -2.93600 33.30500
O  29.23200 -1.75500 34.63500
C  28.96900 -2.79800 35.68400
H  21.92400 0.61100 31.75400
H  22.97700 0.25500 25.27800
H  29.03800 -1.22800 26.31800
H  26.03500 -0.73000 34.03900
H  23.65100 1.12900 33.57600
H  23.32500 -0.86800 35.05000
H  23.63600 -1.95900 33.77400
H  22.27600 -0.86300 33.63500
H  25.69600 2.21500 34.52000
H  27.01300 1.83400 33.55300
H  28.24400 1.44100 35.28700
H  27.42900 -0.09200 35.55500
H  19.20000 0.68500 29.08500
H  19.88200 2.09800 29.95500
H  19.95000 0.52400 30.74700
H  19.16800 2.23400 27.37000
H  18.63200 0.52200 26.95200
H  18.84900 1.73900 25.63400
H  25.25000 0.55400 24.11700
H  27.32000 -1.60300 24.49500
H  25.65600 -1.69200 22.88200
H  24.08400 -0.88300 23.03000
H  24.41900 -2.20200 24.06800
H  28.21900 0.23400 23.15000
H  28.91800 0.42300 24.80200
H  28.33500 2.49300 24.95600
H  26.61200 2.04800 24.68300
H  27.81000 2.47900 23.40800
H  31.71800 -2.12400 29.14100
H  31.40100 -0.86600 28.03100
H  30.73600 -2.44100 27.66000
H  28.97900 0.20800 33.17100
H  29.84500 -2.87400 36.32700
H  28.88000 -3.83300 35.35400
H  28.07200 -2.60100 36.27200

