158

Mg 46.68600 17.19100 27.65500
C  44.90400 16.82800 30.65000
C  49.09400 18.96700 29.48300
C  48.10200 18.21800 24.73700
C  43.98100 15.86800 25.82100
N  46.91400 17.92800 29.89300
C  46.14000 17.40900 30.88100
C  46.88100 17.53200 32.25800
C  48.09900 18.47000 31.85100
C  48.02200 18.48200 30.32000
C  48.14600 20.00100 32.44000
C  47.21000 16.19800 33.02100
C  47.13300 16.10300 34.53600
H  47.03000 17.39900 35.29900
N  48.40100 18.29600 27.15000
C  49.30000 18.93300 28.05600
C  50.40100 19.44900 27.29200
C  50.04100 19.26900 25.94700
C  48.83600 18.50000 25.87800
C  51.65200 20.00300 27.96400
C  50.74900 19.72300 24.61100
O  50.32700 19.54600 23.47500
C  52.08800 20.29000 24.65900
N  46.14900 16.94900 25.51600
C  46.89800 17.48400 24.56000
C  46.16200 17.39800 23.22800
C  45.03100 16.28800 23.51900
C  45.05400 16.31800 25.01600
C  45.61200 18.70300 22.79800
C  45.29900 14.94100 22.86100
C  44.24300 14.46700 21.86300
N  44.82700 16.54100 28.03500
C  43.91100 15.89200 27.28400
C  42.81100 15.44000 28.13600
C  43.23100 15.72400 29.41800
C  44.42500 16.42100 29.36400
C  41.48500 14.70800 27.87000
C  42.82800 15.55700 30.79700
O  41.94900 15.00600 31.31800
C  43.91600 16.26300 31.73400
C  43.22000 17.24000 32.63700
O  42.89100 18.41000 32.45400
O  43.14900 16.61800 33.82400
C  42.62800 17.45000 34.92800
H  49.88600 19.38600 30.10600
H  48.33900 18.61400 23.74800
H  43.15800 15.44800 25.23900
H  46.29600 18.16500 32.92500
H  49.02700 17.98400 32.15200
H  49.02500 20.11700 33.07400
H  47.29000 20.11200 33.10600
H  48.00700 20.64500 31.57200
H  48.21800 15.92600 32.70900
H  46.50200 15.51300 32.55400
H  47.77200 15.34000 34.98100
H  46.12900 15.69500 34.65500
H  51.51000 21.07000 28.13000
H  52.56500 19.81600 27.39900
H  51.79600 19.49700 28.91800
H  52.03600 21.15100 25.32500
H  52.34200 20.66800 23.66900
H  52.83700 19.53800 24.90500
H  46.80600 17.05200 22.41900
H  44.04400 16.59100 23.17000
H  44.53400 18.76200 22.64900
H  46.21000 19.02700 21.94600
H  45.72500 19.40700 23.62200
H  45.52800 14.21300 23.63900
H  46.22100 15.03500 22.28700
H  43.46300 15.20800 21.69100
H  43.68900 13.63900 22.30600
H  44.67500 14.12300 20.92300
H  40.68300 15.05200 28.52300
H  41.72400 13.69900 28.20500
H  41.19400 14.71800 26.81900
H  44.41000 15.53300 32.37600
H  41.55100 17.49600 35.09300
H  42.99200 18.47700 34.90100
H  42.93600 17.00700 35.87500
Mg 49.93200 46.25400 43.27100
C  46.61900 46.24600 42.10600
C  49.88300 42.85500 42.69100
C  53.24000 46.29100 43.90300
C  49.66100 49.55100 43.76200
N  48.35400 44.75700 42.48600
C  47.08900 44.92800 42.00800
C  46.37100 43.57000 41.68100
C  47.48600 42.50800 41.98900
C  48.61800 43.45100 42.43400
C  47.18200 41.46300 43.08700
C  45.61400 43.56400 40.31600
C  45.95000 42.37000 39.40400
H  45.26000 42.25100 38.02300
N  51.38000 44.74800 43.28500
C  51.12800 43.43700 42.99300
C  52.36600 42.77900 43.14900
C  53.42100 43.73300 43.48200
C  52.70300 45.00700 43.57900
C  52.51000 41.23200 42.93000
C  54.89400 43.41200 43.53500
O  55.24800 42.23800 43.42700
C  55.81600 44.48000 43.95200
N  51.23100 47.74700 43.66200
C  52.54200 47.47400 43.96700
C  53.25300 48.82700 44.24400
C  52.08100 49.90200 44.22700
C  50.93100 49.05400 43.82300
C  54.15300 48.82900 45.52400
C  52.34400 51.11800 43.32500
C  53.69000 51.91200 43.50700
N  48.48200 47.71700 42.99200
C  48.48100 49.00300 43.40200
C  47.10100 49.62500 43.24700
C  46.36000 48.51000 42.68900
C  47.19100 47.39200 42.56200
C  46.73900 51.01000 43.52900
C  45.05700 48.16400 42.11900
O  44.08700 48.82500 41.83900
C  45.15500 46.59800 41.90000
C  44.25200 45.96000 42.89600
O  44.22200 46.05300 44.09200
O  43.19400 45.38500 42.21500
C  42.13200 44.74800 42.97200
H  49.88500 41.77400 42.53300
H  54.26600 46.37000 44.26900
H  49.67300 50.60500 44.04600
H  45.56600 43.35800 42.38500
H  47.84100 41.93100 41.13500
H  46.14900 41.50200 43.43400
H  47.75400 41.48300 44.01400
H  47.34200 40.48900 42.62500
H  45.98400 44.43800 39.78000
H  44.53700 43.65800 40.45900
H  45.87800 41.39800 39.89200
H  46.99800 42.59100 39.19700
H  53.08400 41.15300 42.00800
H  51.60100 40.63400 42.99700
H  53.08600 40.82900 43.76400
H  55.46100 44.98100 44.85300
H  55.92400 45.20200 43.14300
H  56.74600 43.96100 44.18500
H  53.83800 49.07100 43.35700
H  51.90900 50.22700 45.25300
H  54.33700 47.81500 45.88100
H  53.74800 49.45300 46.32100
H  55.13300 49.25200 45.30300
H  51.51600 51.81700 43.44000
H  52.33800 50.83000 42.27300
H  54.30900 51.80800 42.61600
H  54.38200 51.68500 44.31800
H  53.45000 52.95500 43.71400
H  46.14700 51.38300 42.69300
H  47.58800 51.69200 43.57700
H  46.20000 51.11300 44.47100
H  44.77800 46.30200 40.92100
H  42.43000 43.73700 43.25100
H  41.27200 44.70700 42.30300
H  41.83100 45.22300 43.90500

