158

Mg 47.88200 45.12000 43.37800
C  44.46900 45.46200 42.65400
C  47.76900 41.98900 41.98000
C  51.25500 45.33700 43.14200
C  47.76100 48.42700 44.62800
N  46.34300 43.94300 42.40500
C  45.01800 44.26900 42.24600
C  44.31000 43.11700 41.48400
C  45.24500 41.91400 41.74300
C  46.50900 42.63300 42.06300
C  44.80900 41.01400 42.94600
C  44.16500 43.51100 39.97100
C  42.88100 43.01500 39.25600
H  42.81000 43.33500 37.80900
N  49.34200 43.82900 42.73400
C  49.07400 42.57600 42.18700
C  50.34700 41.87000 42.04900
C  51.42700 42.77100 42.34700
C  50.67500 44.05500 42.68700
C  50.49000 40.37000 41.69700
C  52.88500 42.39400 42.26700
O  53.27600 41.27400 41.91100
C  53.94500 43.35000 42.67300
N  49.28100 46.72800 43.51900
C  50.65900 46.51200 43.58000
C  51.39800 47.80700 44.11900
C  50.19900 48.76600 44.29100
C  48.98000 47.87600 44.23800
C  52.18800 47.58900 45.33800
C  50.19700 49.79200 43.10200
C  49.83800 51.25700 43.54500
N  46.43500 46.66000 43.65800
C  46.50100 47.90100 44.16900
C  45.25300 48.64200 44.15500
C  44.42200 47.71700 43.51400
C  45.18700 46.54900 43.22500
C  44.95800 49.94300 44.77400
C  43.11800 47.54600 43.05100
O  42.18900 48.32900 43.08300
C  43.07200 46.03300 42.43000
C  41.99400 45.26800 43.09900
O  41.30900 44.42700 42.52300
O  41.84700 45.56300 44.46100
C  40.94600 44.66400 45.23600
H  47.72700 40.94000 41.68100
H  52.34300 45.29900 43.05300
H  47.73700 49.42600 45.06800
H  43.33000 42.84100 41.87200
H  45.47300 41.33100 40.85000
H  44.69900 39.99400 42.57900
H  43.82000 41.12400 43.39200
H  45.63500 40.91400 43.65000
H  45.02700 43.31100 39.33500
H  44.05100 44.57100 39.74400
H  42.11200 43.55800 39.80600
H  42.68800 41.94800 39.36300
H  50.80800 40.37800 40.65500
H  49.69300 39.64000 41.83600
H  51.33400 40.02600 42.29400
H  53.91200 44.24400 42.04900
H  54.88700 42.83100 42.49100
H  53.79600 43.44200 43.74800
H  52.14600 48.11600 43.38800
H  50.15800 49.29600 45.24300
H  52.46700 46.53500 45.36300
H  51.58300 47.82200 46.21400
H  53.05700 48.24700 45.32900
H  49.49300 49.52100 42.31500
H  51.15300 49.82500 42.57900
H  50.76100 51.82700 43.65100
H  49.37000 51.26200 44.52900
H  49.20300 51.64500 42.74800
H  45.20700 50.77800 44.11900
H  45.69600 50.04400 45.57000
H  43.97300 49.95200 45.23900
H  42.88300 46.07800 41.35800
H  41.10800 44.96300 46.27200
H  41.22400 43.62100 45.08700
H  39.96100 44.92500 44.85000
Mg -2.46900 35.57700 26.90200
C  -3.93000 33.53400 29.36600
C  -1.19200 37.48800 29.43100
C  -1.23200 37.50000 24.51000
C  -4.11000 33.57300 24.54300
N  -2.50400 35.42100 29.16500
C  -3.12300 34.49600 29.95100
C  -2.80700 34.75200 31.47900
C  -1.81800 36.00400 31.38800
C  -1.82900 36.36100 29.90900
C  -2.20500 37.19600 32.30100
C  -2.19400 33.51200 32.26200
C  -1.25700 33.83100 33.47500
H  -1.68200 33.40900 34.88100
N  -1.30100 37.20400 26.99300
C  -0.82000 37.83600 28.05400
C  0.12600 38.82800 27.59300
C  0.13000 38.83900 26.17200
C  -0.86100 37.85400 25.80600
C  0.97200 39.61500 28.62400
C  0.88100 39.74600 25.25900
O  0.63200 39.90700 24.08500
C  1.86700 40.74000 25.95300
N  -2.70000 35.59200 24.86200
C  -2.05900 36.46900 24.01600
C  -2.38500 36.15600 22.54300
C  -3.28800 34.91100 22.58700
C  -3.38800 34.64000 24.09000
C  -3.00000 37.42500 21.78100
C  -2.62800 33.79100 21.74600
C  -1.59200 32.87900 22.53400
N  -3.88800 33.93300 26.84300
C  -4.39600 33.21400 25.84700
C  -5.15600 32.05500 26.34200
C  -4.98200 32.21500 27.73700
C  -4.16100 33.27600 27.96600
C  -5.84400 31.07900 25.56000
C  -5.25000 31.61600 29.02100
O  -5.86900 30.60300 29.31900
C  -4.58500 32.42400 30.08100
C  -5.71800 32.74800 30.99100
O  -6.83300 33.17800 30.59600
O  -5.41400 32.41000 32.23600
C  -6.47100 32.72400 33.22700
H  -0.75300 38.15300 30.17800
H  -0.78000 38.03600 23.67300
H  -4.43900 32.93000 23.72400
H  -3.78500 35.02900 31.87200
H  -0.79200 35.76000 31.66400
H  -1.48600 38.00900 32.40600
H  -2.10300 36.71800 33.27500
H  -3.24900 37.49800 32.22400
H  -1.72700 32.83900 31.54400
H  -3.05300 32.95600 32.63900
H  -1.13900 34.91300 33.53000
H  -0.31500 33.40800 33.12600
H  0.89900 39.32300 29.67100
H  0.86900 40.70000 28.62900
H  2.01200 39.31600 28.49300
H  1.39300 41.50400 26.56900
H  2.58900 40.99100 25.17700
H  2.45700 40.01000 26.50700
H  -1.43700 35.97300 22.03600
H  -4.27600 35.19100 22.22100
H  -2.17100 37.65900 21.11400
H  -3.06300 38.27500 22.46100
H  -3.98300 37.19400 21.37000
H  -2.21700 34.25100 20.84700
H  -3.47900 33.18700 21.43300
H  -1.05900 33.32600 23.37400
H  -0.88600 32.76100 21.71300
H  -1.97200 31.91300 22.86500
H  -6.85000 31.38400 25.27300
H  -5.76500 30.12500 26.08100
H  -5.28100 30.93400 24.63800
H  -3.78800 32.01400 30.70100
H  -7.14700 31.87000 33.18100
H  -7.11300 33.60000 33.13900
H  -6.05100 32.72200 34.23300

