158

Mg 40.24800 9.53900 30.15900
C  42.65000 10.40700 32.62800
C  38.37200 8.12500 32.54300
C  38.26000 8.59400 27.73000
C  42.76500 10.25800 27.73700
N  40.59300 9.27200 32.34700
C  41.45100 9.82200 33.14300
C  40.99500 9.84100 34.59300
C  39.67100 8.98500 34.58900
C  39.54900 8.71300 33.02900
C  39.56300 7.71000 35.45900
C  40.78000 11.24700 35.17700
C  40.11600 11.29700 36.56500
H  40.85900 12.06800 37.70600
N  38.54000 8.44100 30.16000
C  37.90200 7.94500 31.22500
C  36.63900 7.38500 30.84300
C  36.55800 7.48200 29.42700
C  37.81100 8.21000 29.03900
C  35.65700 6.74500 31.83500
C  35.45800 6.98900 28.48500
O  35.46500 7.19300 27.30000
C  34.32700 6.22400 29.02400
N  40.46400 9.54700 28.02100
C  39.44300 9.15300 27.25100
C  39.73200 9.43100 25.83100
C  41.20300 9.96300 25.85400
C  41.52500 9.88900 27.32600
C  39.42600 8.21500 24.87800
C  41.27700 11.43500 25.14900
C  41.11600 12.71800 26.02400
N  42.35300 10.24500 30.08000
C  43.22800 10.46700 29.04700
C  44.45000 11.04100 29.50300
C  44.28100 11.10500 30.96500
C  42.96100 10.57400 31.27000
C  45.50300 11.68100 28.72600
C  44.88200 11.69300 32.17300
O  45.90000 12.28800 32.28600
C  43.84500 11.11000 33.32300
C  44.49800 10.15400 34.27300
O  44.63500 8.94500 34.01300
O  44.94900 10.71900 35.45100
C  45.66600 9.86900 36.44200
H  37.66800 7.92400 33.35300
H  37.48700 8.30500 27.01500
H  43.52200 10.42200 26.96700
H  41.84500 9.44800 35.15200
H  38.81200 9.57100 34.91800
H  40.40400 7.72400 36.15200
H  39.60800 6.86500 34.77200
H  38.60300 7.73800 35.97400
H  40.18600 11.82800 34.47100
H  41.74100 11.75900 35.22400
H  40.01700 10.25900 36.88400
H  39.13100 11.76100 36.51100
H  34.62900 7.05000 31.64300
H  35.86400 6.96800 32.88200
H  35.70200 5.66000 31.73800
H  34.64800 5.26900 29.44100
H  33.74000 6.13400 28.11000
H  33.75400 6.70400 29.81700
H  39.02500 10.23100 25.61000
H  41.72500 9.17700 25.30800
H  40.23000 8.04500 24.16100
H  38.55900 8.62400 24.36100
H  39.16900 7.36300 25.50900
H  40.53900 11.32200 24.35500
H  42.28700 11.53600 24.75400
H  40.12700 13.14500 25.86200
H  41.87800 13.49600 25.97200
H  41.13900 12.30900 27.03400
H  45.09300 11.73400 27.71700
H  46.38300 11.03800 28.75600
H  45.71100 12.73100 28.93000
H  43.47500 11.93900 33.92600
H  45.10600 9.99100 37.36900
H  46.70200 10.11200 36.67800
H  45.53700 8.80100 36.26500
Mg 49.32000 46.35000 43.19100
C  45.98900 46.53200 42.16200
C  49.34600 43.15200 41.96800
C  52.67300 46.56700 43.17800
C  49.21200 49.95300 43.58200
N  47.75800 45.01900 42.17000
C  46.49700 45.30400 41.76400
C  45.88300 44.14400 41.02000
C  46.90200 42.99300 41.33100
C  48.07600 43.71400 41.92800
C  46.34900 41.87300 42.31100
C  45.64600 44.42000 39.48600
C  44.27100 44.00400 38.89700
H  44.25900 43.42000 37.50300
N  50.84100 44.96800 42.74900
C  50.62600 43.65700 42.39000
C  51.89800 43.10900 42.17100
C  52.97000 44.02800 42.55200
C  52.22100 45.21300 42.82700
C  52.05300 41.64400 41.69400
C  54.45500 43.74800 42.57700
O  54.88800 42.61900 42.41200
C  55.36000 44.85900 42.82300
N  50.70400 47.98400 43.43400
C  52.06500 47.74900 43.50300
C  52.81000 48.93000 44.16500
C  51.67700 49.99200 44.27000
C  50.46600 49.30200 43.70700
C  53.64200 48.87100 45.50100
C  51.85900 51.24800 43.44900
C  51.58600 52.61700 44.03600
N  47.82600 47.90400 43.12600
C  47.97800 49.31900 43.30500
C  46.60300 49.89200 43.15600
C  45.79900 48.76700 42.71200
C  46.63500 47.63000 42.66400
C  46.20800 51.27900 43.31500
C  44.47500 48.40500 42.27300
O  43.57000 49.14200 42.04800
C  44.54500 46.89700 41.90500
C  43.55800 46.14600 42.81400
O  43.74400 45.91300 43.99500
O  42.36700 45.87400 42.14400
C  41.31300 45.17800 42.89500
H  49.24100 42.12400 41.61700
H  53.73700 46.73800 43.35700
H  49.09600 51.02400 43.75500
H  44.94500 43.96900 41.54800
H  47.20300 42.37800 40.48300
H  46.80600 41.83200 43.30000
H  46.58300 40.87200 41.94700
H  45.26800 41.94300 42.43200
H  46.41300 43.88100 38.92900
H  45.74100 45.50400 39.42700
H  43.56700 44.83600 38.90700
H  43.84200 43.27000 39.57900
H  51.06700 41.18900 41.60100
H  52.75000 41.06500 42.29900
H  52.43300 41.65900 40.67200
H  55.08300 45.17700 43.82900
H  55.17000 45.71900 42.18100
H  56.36800 44.44500 42.78100
H  53.44000 49.18600 43.31300
H  51.41900 50.30000 45.28300
H  53.60700 47.86400 45.91700
H  53.32500 49.50200 46.33100
H  54.66800 49.13500 45.24500
H  51.41800 51.11600 42.46100
H  52.93000 51.30400 43.25100
H  51.57100 53.32700 43.21000
H  52.34000 52.87500 44.78000
H  50.60500 52.66600 44.50800
H  46.29700 51.85000 42.39000
H  46.76500 51.84700 44.06000
H  45.21500 51.55400 43.66800
H  44.28400 46.74700 40.85700
H  40.77500 44.38700 42.37200
H  40.68900 46.05100 43.08800
H  41.74200 44.65500 43.75000

