158

Mg -2.18400 17.00400 26.38700
C  -2.68700 14.67300 28.85500
C  -2.97900 19.50600 28.62800
C  -2.35600 19.18800 23.68500
C  -1.67100 14.36800 24.05600
N  -2.59000 17.08000 28.49500
C  -2.61500 15.96400 29.33900
C  -2.97400 16.42600 30.72400
C  -3.23300 17.97500 30.62100
C  -2.95100 18.21600 29.19000
C  -4.64000 18.49600 31.08800
C  -1.84900 16.07100 31.81700
C  -1.77200 17.10300 32.96700
H  -1.46200 16.41700 34.30900
N  -2.59700 19.13300 26.19300
C  -2.77100 19.97500 27.24800
C  -2.98700 21.32200 26.67500
C  -2.77600 21.21700 25.25600
C  -2.53600 19.77300 25.00100
C  -3.43400 22.52200 27.60600
C  -2.88400 22.26300 24.23100
O  -2.71900 22.05500 23.02500
C  -3.26800 23.63300 24.58600
N  -2.05100 16.81900 24.20200
C  -2.07400 17.86200 23.34500
C  -1.81000 17.33800 21.82500
C  -1.27200 15.89100 22.00500
C  -1.73900 15.61900 23.50100
C  -2.96800 17.58400 20.81200
C  0.25000 15.77600 21.76800
C  1.30500 16.20900 22.86600
N  -2.21600 14.98700 26.42000
C  -2.00100 14.02000 25.37300
C  -2.12600 12.71700 25.85800
C  -2.32900 12.94700 27.27600
C  -2.45400 14.31800 27.53800
C  -2.16500 11.43200 25.03100
C  -2.54200 12.25200 28.46300
O  -2.67200 11.08700 28.63700
C  -2.79900 13.31100 29.62900
C  -1.71000 13.02100 30.62900
O  -0.53600 13.24800 30.56700
O  -2.33900 12.49300 31.74400
C  -1.56400 12.29200 32.94500
H  -3.36600 20.28500 29.28700
H  -2.10400 19.91200 22.90700
H  -1.59100 13.54400 23.34400
H  -3.90900 15.87800 30.84200
H  -2.49000 18.63500 31.07000
H  -5.15000 19.00000 30.26700
H  -4.34300 19.23100 31.83700
H  -5.20500 17.70100 31.57400
H  -0.89600 16.07800 31.28800
H  -2.09700 15.08100 32.19800
H  -2.71600 17.61500 33.15400
H  -1.00100 17.79800 32.63400
H  -4.49100 22.69400 27.81000
H  -2.95700 23.46300 27.33000
H  -2.90800 22.54300 28.56100
H  -3.08200 24.27800 23.72800
H  -2.64200 24.13000 25.32700
H  -4.34500 23.59700 24.74900
H  -1.07100 18.04400 21.44600
H  -1.85900 15.28200 21.31900
H  -2.49300 17.61400 19.83200
H  -3.41100 18.54200 21.08600
H  -3.75400 16.82900 20.82400
H  0.50200 16.42700 20.93100
H  0.31200 14.74200 21.43100
H  1.93900 15.37700 23.17300
H  0.83600 16.53800 23.79300
H  1.91300 16.94800 22.34500
H  -1.53800 11.53800 24.14600
H  -3.22300 11.20900 24.89100
H  -1.64000 10.71700 25.66500
H  -3.77200 13.26100 30.11700
H  -2.16700 12.78300 33.70900
H  -0.58400 12.76800 32.94600
H  -1.52000 11.21300 33.09600
Mg 0.59700 43.30000 26.37700
C  2.97100 43.38600 29.04700
C  -1.75700 42.65300 28.77700
C  -1.55700 42.40500 23.98500
C  3.08100 43.57800 24.20600
N  0.62200 42.97700 28.70400
C  1.68300 43.09600 29.52400
C  1.14900 43.07700 31.04900
C  -0.27700 42.39400 30.86400
C  -0.50500 42.80400 29.39000
C  -0.41200 40.89600 31.14100
C  1.11000 44.54300 31.68800
C  1.22700 44.80100 33.23200
H  0.99400 43.52700 34.13500
N  -1.43100 42.60800 26.35500
C  -2.21900 42.42500 27.47900
C  -3.56400 42.10400 27.02200
C  -3.54900 42.02700 25.61200
C  -2.15500 42.25300 25.26700
C  -4.73500 41.88700 28.04200
C  -4.67800 41.81000 24.56800
O  -4.44500 41.89800 23.34500
C  -6.02400 41.55500 24.93600
N  0.68900 43.16100 24.41100
C  -0.26400 42.69200 23.60700
C  0.19800 42.69700 22.10800
C  1.59200 43.31200 22.17600
C  1.80700 43.38100 23.71700
C  0.05500 41.36000 21.31700
C  1.81400 44.58000 21.28900
C  1.61800 45.89600 22.10500
N  2.61500 43.56300 26.52500
C  3.53000 43.74600 25.51200
C  4.84400 43.82300 26.11600
C  4.69100 43.65600 27.43300
C  3.27900 43.57900 27.68100
C  6.20000 43.91400 25.51700
C  5.37800 43.50400 28.70400
O  6.58800 43.73200 28.97200
C  4.28500 43.30500 29.76400
C  4.56400 42.09900 30.60200
O  4.71200 40.97700 30.12200
O  4.67000 42.43900 31.86900
C  5.11200 41.43300 32.86300
H  -2.47700 42.49600 29.58200
H  -2.16900 42.15500 23.11600
H  3.93700 43.61600 23.52900
H  1.66700 42.41800 31.74500
H  -0.96000 42.99600 31.46400
H  0.56200 40.50000 31.43100
H  -0.75600 40.36500 30.25400
H  -1.14000 40.81000 31.94700
H  0.17500 44.98500 31.34400
H  1.78700 45.13500 31.07200
H  0.39900 45.46900 33.46700
H  2.11100 45.31300 33.61400
H  -5.17200 40.90200 27.88000
H  -5.62100 42.51800 27.97500
H  -4.40000 41.90300 29.07900
H  -6.65800 41.22700 24.11300
H  -6.47600 42.49500 25.25400
H  -5.95400 40.86900 25.78000
H  -0.37000 43.48000 21.60700
H  2.34200 42.56500 21.91600
H  0.95400 40.75300 21.43200
H  -0.06500 41.71000 20.29200
H  -0.80300 40.74100 21.57700
H  1.17700 44.60400 20.40400
H  2.84500 44.54600 20.93900
H  1.13300 46.58000 21.40800
H  2.58000 46.21600 22.50300
H  0.85700 45.73300 22.86800
H  6.05600 43.60900 24.48000
H  6.93700 43.28200 26.01200
H  6.63000 44.91500 25.51900
H  4.56700 44.11300 30.44000
H  5.01900 40.38300 32.58400
H  4.58200 41.46900 33.81500
H  6.15600 41.62600 33.10800

