158

Mg 42.30700 41.13000 26.53100
C  41.86900 43.64200 28.96700
C  42.85300 38.86700 29.05800
C  43.48100 38.87200 24.28300
C  42.21300 43.51000 24.01800
N  42.39100 41.29000 28.79600
C  42.03600 42.33900 29.53200
C  42.01000 42.07800 31.05900
C  42.44400 40.53100 31.04300
C  42.46100 40.15000 29.56000
C  43.65900 40.07600 31.82700
C  40.61500 42.46600 31.71700
C  40.04500 41.58000 32.79200
H  39.42100 42.21000 34.00100
N  42.93900 39.04300 26.68200
C  43.17600 38.35100 27.81000
C  43.65200 36.98100 27.46700
C  43.86000 36.98000 26.05400
C  43.46100 38.30200 25.60800
C  43.89400 35.86100 28.48100
C  44.36300 35.92700 25.17600
O  44.56900 36.13700 23.97200
C  44.79000 34.63600 25.85500
N  42.67500 41.10600 24.47100
C  43.18900 40.14200 23.74500
C  43.39600 40.49200 22.20800
C  43.05300 41.97800 22.25100
C  42.58200 42.22900 23.69900
C  44.78900 40.19800 21.51600
C  41.85900 42.24800 21.27100
C  40.59300 41.49800 21.56700
N  42.09100 43.15100 26.45400
C  42.06100 44.00300 25.32900
C  41.89800 45.32500 25.82000
C  41.82200 45.20000 27.20600
C  41.96000 43.88500 27.55200
C  41.56800 46.57600 25.03400
C  41.48600 45.99900 28.40100
O  41.16800 47.24400 28.55800
C  41.56700 44.97900 29.59100
C  42.69000 45.27700 30.50900
O  43.81900 45.02200 30.26200
O  42.30100 45.86700 31.65400
C  43.25900 45.90300 32.71800
H  42.95100 38.14400 29.87000
H  43.91600 38.24000 23.50600
H  42.20500 44.26500 23.22800
H  42.72600 42.74500 31.53900
H  41.63100 39.97000 31.50400
H  44.26500 39.42700 31.19400
H  43.47300 39.48500 32.72400
H  44.22300 40.94500 32.16600
H  39.93200 42.42800 30.86800
H  40.69700 43.44800 32.18200
H  40.77000 40.89400 33.23000
H  39.28100 40.95700 32.32700
H  43.41700 36.13000 29.42400
H  44.94100 35.64600 28.69500
H  43.29800 35.02100 28.12500
H  43.89400 34.11500 26.19100
H  45.43400 34.71700 26.73100
H  45.23400 33.92500 25.15800
H  42.67500 39.94300 21.60300
H  43.93300 42.55400 21.96500
H  44.95800 40.81700 20.63500
H  44.89400 39.13500 21.30100
H  45.57100 40.30100 22.26900
H  42.08200 41.94500 20.24900
H  41.63000 43.31400 21.29500
H  39.81500 42.24900 21.70400
H  40.61500 40.74100 22.35100
H  40.24600 40.89200 20.73000
H  40.59300 46.93900 25.35800
H  41.44600 46.32600 23.98000
H  42.37600 47.30800 25.04700
H  40.66500 45.03700 30.20000
H  43.69200 46.90300 32.68800
H  44.07900 45.18600 32.75900
H  42.75400 45.67400 33.65700
Mg 9.14600 47.89500 27.48900
C  7.08400 47.34500 30.28300
C  11.54700 48.91400 29.66000
C  11.12700 48.53800 24.88800
C  6.52200 47.28700 25.46100
N  9.27000 48.13300 29.70800
C  8.35700 47.69600 30.67900
C  8.95700 47.97400 32.07200
C  10.32500 48.65100 31.83300
C  10.38100 48.65600 30.28900
C  10.61400 50.03800 32.53200
C  8.93300 46.72100 33.09000
C  9.87600 46.60100 34.28900
H  9.28600 45.96700 35.61200
N  11.11000 48.68000 27.25800
C  11.94300 48.87900 28.26300
C  13.30600 49.10200 27.74800
C  13.20900 49.10500 26.31600
C  11.78800 48.75800 26.04900
C  14.48200 49.39300 28.59100
C  14.24900 49.37500 25.29000
O  13.99200 49.37500 24.10800
C  15.65000 49.51300 25.72600
N  8.85900 47.96200 25.48900
C  9.84200 48.07200 24.62900
C  9.49400 47.59100 23.20100
C  7.91900 47.33700 23.40500
C  7.77300 47.48300 24.90400
C  9.79200 48.66500 22.09100
C  7.38700 46.08300 22.71800
C  5.94400 46.08200 22.07800
N  7.14200 47.39600 27.71400
C  6.12700 47.24700 26.78700
C  4.82100 47.06100 27.45500
C  5.14800 47.05100 28.86700
C  6.57300 47.27200 28.94700
C  3.52700 46.87600 26.90300
C  4.62600 46.85300 30.21000
O  3.53900 46.65600 30.68100
C  5.85700 47.00300 31.18100
C  5.97600 45.80200 31.97600
O  6.66100 44.86800 31.68000
O  5.41000 45.94400 33.21100
C  5.49800 44.76700 34.15400
H  12.33400 49.26500 30.33000
H  11.71300 48.51500 23.96700
H  5.61900 47.23600 24.84900
H  8.26200 48.73200 32.43500
H  10.99500 47.85700 32.16300
H  10.85100 50.71300 31.70900
H  11.50100 50.09700 33.16400
H  9.85700 50.34200 33.25500
H  9.08600 45.77400 32.57400
H  7.88600 46.71400 33.39600
H  10.13600 47.62200 34.56500
H  10.62300 45.83500 34.08000
H  15.36100 48.78400 28.37900
H  14.09600 49.24700 29.60000
H  14.64400 50.46000 28.43200
H  15.66000 50.40700 26.35000
H  16.29100 49.46700 24.84600
H  15.98000 48.61000 26.24000
H  10.03700 46.67300 22.97500
H  7.38100 48.13300 22.89100
H  10.75300 48.45100 21.62200
H  9.90400 49.64200 22.56200
H  9.02200 48.85600 21.34400
H  7.42600 45.30000 23.47600
H  8.03300 45.74500 21.90800
H  5.33200 45.27300 22.47800
H  5.98400 45.94100 20.99800
H  5.48600 47.01900 22.39400
H  2.74900 47.15800 27.61200
H  3.39300 45.82400 26.64700
H  3.44000 47.34400 25.92200
H  5.62400 47.79600 31.89200
H  6.14600 43.92700 33.90300
H  4.51400 44.41600 34.46400
H  6.02100 45.20500 35.00400

