158

Mg 16.08000 50.86000 25.98500
C  17.97900 49.71600 28.71800
C  13.76700 52.14300 28.17400
C  14.63600 52.24500 23.34300
C  18.82000 49.88100 23.81700
N  16.00700 51.02000 28.23300
C  16.88500 50.53600 29.13400
C  16.42900 50.76700 30.54700
C  15.01300 51.32700 30.37400
C  14.92800 51.58500 28.83800
C  13.79600 50.48400 30.97500
C  17.50000 51.72000 31.20300
C  17.98700 51.24500 32.62300
H  17.41900 52.11700 33.75100
N  14.33900 51.86500 25.79800
C  13.56600 52.35200 26.78700
C  12.46300 53.12700 26.24600
C  12.67800 53.20000 24.85300
C  13.92900 52.44000 24.56800
C  11.36000 53.63500 27.06500
C  11.79700 53.85000 23.81800
O  12.15500 53.89400 22.64700
C  10.45800 54.36700 24.19100
N  16.64800 50.88700 23.81400
C  15.80700 51.53800 22.97900
C  16.42300 51.50400 21.62300
C  17.80900 50.84200 21.68700
C  17.79400 50.54500 23.18200
C  15.52500 50.70100 20.59300
C  19.05300 51.77600 21.30300
C  20.05100 51.05800 20.23700
N  17.97300 49.88500 26.17600
C  18.95200 49.51700 25.18300
C  19.98000 48.76800 25.82600
C  19.57700 48.75100 27.27300
C  18.41300 49.53700 27.38200
C  21.22800 48.09400 25.31500
C  20.04700 48.37800 28.62000
O  21.03700 47.72200 28.89800
C  19.04400 49.12100 29.59900
C  18.52700 48.21700 30.62200
O  17.63900 47.36700 30.52300
O  19.25600 48.34500 31.77800
C  18.90400 47.48000 32.88900
H  13.08200 52.53300 28.92900
H  14.27000 52.73300 22.43800
H  19.66000 49.61400 23.17300
H  16.43400 49.76900 30.98500
H  14.93700 52.33100 30.79100
H  13.26400 51.15800 31.64600
H  14.04300 49.54700 31.47500
H  13.12700 50.09900 30.20500
H  17.05400 52.70300 31.35200
H  18.23100 51.96600 30.43200
H  19.07100 51.36000 32.60200
H  17.79200 50.18300 32.77100
H  10.44600 53.04200 27.08000
H  11.16600 54.70400 26.97200
H  11.64500 53.64100 28.11700
H  9.95600 54.55400 23.24200
H  10.64100 55.16300 24.91300
H  9.96800 53.54200 24.70900
H  16.49700 52.53100 21.26300
H  17.88300 49.96200 21.04700
H  16.14000 50.62900 19.69500
H  14.64400 51.26500 20.29000
H  15.17300 49.70000 20.84100
H  19.57500 52.08700 22.20800
H  18.64600 52.70100 20.89500
H  19.97300 49.97200 20.18900
H  21.00600 51.38100 20.65100
H  19.96100 51.43700 19.22000
H  22.00600 48.83300 25.51000
H  21.18400 47.83000 24.25800
H  21.58200 47.28400 25.95200
H  19.75200 49.81900 30.04600
H  19.17500 46.47600 32.56300
H  17.89400 47.40800 33.29300
H  19.45900 47.76900 33.78200
Mg -10.18600 40.49500 39.31500
C  -9.23200 37.05200 38.87000
C  -6.95100 41.26200 38.77200
C  -11.17800 43.60400 38.57600
C  -13.56100 39.38000 39.10100
N  -8.37300 39.25500 38.69400
C  -8.17700 37.89200 38.72200
C  -6.73800 37.53200 38.61100
C  -6.04300 38.91500 38.87100
C  -7.23000 39.92300 38.85200
C  -5.24900 38.98400 40.21600
C  -6.28400 36.93800 37.22400
C  -6.72100 37.56000 35.88300
H  -7.64600 36.77700 34.94500
N  -9.14700 42.26900 38.91000
C  -7.82000 42.39600 38.65900
C  -7.52100 43.76900 38.53100
C  -8.71400 44.45000 38.20100
C  -9.72900 43.41200 38.51400
C  -6.10300 44.28200 38.32000
C  -8.92300 45.90000 37.66700
O  -7.95500 46.58500 37.38100
C  -10.25000 46.54000 37.44800
N  -12.10600 41.36200 38.97700
C  -12.19800 42.68700 38.82400
C  -13.63300 43.11800 38.86900
C  -14.40700 41.80800 39.08000
C  -13.33300 40.76700 39.07600
C  -13.85900 44.26600 39.93900
C  -15.54800 41.52800 38.05500
C  -16.81600 42.49100 38.05600
N  -11.19500 38.67300 39.17900
C  -12.59200 38.37900 39.10100
C  -12.80800 36.92900 39.04600
C  -11.46300 36.40000 38.95700
C  -10.55000 37.46500 38.98500
C  -14.21700 36.25800 38.90400
C  -10.72900 35.21000 38.79600
O  -11.19700 34.07200 38.77000
C  -9.26900 35.60600 38.65700
C  -8.62400 34.81800 39.64200
O  -8.91000 34.82200 40.86300
O  -7.59500 34.01800 39.13400
C  -6.77400 33.17200 40.03500
H  -5.91500 41.60600 38.77700
H  -11.51500 44.63700 38.46600
H  -14.60000 39.04800 39.04900
H  -6.60000 36.88000 39.47400
H  -5.32100 39.16200 38.09300
H  -5.26700 40.00900 40.58500
H  -4.21100 38.77200 39.95700
H  -5.56000 38.31800 41.02100
H  -6.61500 35.90400 37.13300
H  -5.19400 36.95000 37.22000
H  -5.81200 37.63800 35.28800
H  -7.00600 38.60400 36.01200
H  -5.90100 45.15200 38.94400
H  -5.86600 44.51700 37.28200
H  -5.39900 43.47400 38.51900
H  -10.66700 46.70800 38.44000
H  -10.82300 45.85700 36.82100
H  -10.23500 47.46300 36.86800
H  -13.85700 43.41600 37.84500
H  -14.89200 41.74400 40.05400
H  -14.65800 44.02600 40.64000
H  -14.16800 45.17700 39.42500
H  -12.93100 44.45500 40.47800
H  -15.94100 40.53000 38.25100
H  -15.12800 41.38700 37.05900
H  -16.87200 42.93400 37.06100
H  -16.74500 43.24300 38.84200
H  -17.79200 42.01600 38.15700
H  -15.01900 36.58200 39.56800
H  -14.04400 35.19100 39.04300
H  -14.47800 36.43500 37.86000
H  -8.98300 35.26100 37.66300
H  -7.14400 33.38000 41.03900
H  -5.72300 33.38900 39.84400
H  -6.84200 32.09100 39.91000

