158

Mg 42.09900 41.36900 26.91600
C  41.23700 43.89600 29.11200
C  42.92200 39.54500 29.64500
C  43.32200 39.03500 24.85200
C  42.19800 43.68400 24.31300
N  41.99400 41.65400 29.10500
C  41.44000 42.71800 29.78500
C  41.31900 42.40400 31.31600
C  42.17000 41.18100 31.49600
C  42.43800 40.74400 29.98400
C  43.54600 41.34900 32.19300
C  39.88400 42.52800 31.82800
C  39.37700 41.66000 33.03100
H  38.70700 42.31100 34.24100
N  42.76900 39.45600 27.19600
C  43.03700 38.90000 28.39500
C  43.62100 37.55200 28.28800
C  43.66100 37.37400 26.87100
C  43.24600 38.64900 26.21500
C  44.07200 36.65300 29.47200
C  43.93100 36.13100 26.07500
O  43.99500 36.05700 24.84900
C  44.20600 34.92800 26.88100
N  42.64900 41.32500 24.85200
C  43.02300 40.20900 24.21900
C  42.97800 40.42100 22.61200
C  42.69800 41.97100 22.51600
C  42.50700 42.38900 23.98800
C  44.21700 39.95700 21.89900
C  41.61000 42.37100 21.58800
C  41.80500 43.70000 20.95300
N  41.75000 43.41400 26.71700
C  41.79100 44.19600 25.60000
C  41.48800 45.54000 25.96300
C  41.18600 45.48200 27.33300
C  41.44000 44.16700 27.73100
C  41.31200 46.59600 24.91500
C  40.70600 46.23600 28.43700
O  40.34600 47.40200 28.54900
C  40.78900 45.20800 29.70200
C  41.77600 45.76000 30.68100
O  42.99800 45.75700 30.61700
O  41.17000 46.27200 31.80100
C  41.98300 46.73600 32.95300
H  43.15300 38.94800 30.52900
H  43.74000 38.27500 24.19000
H  42.37500 44.40000 23.50800
H  41.90700 43.26100 31.64500
H  41.56100 40.53000 32.12200
H  44.41300 41.37700 31.53300
H  43.67600 40.62600 32.99900
H  43.58400 42.28600 32.74900
H  39.29900 42.19700 30.96900
H  39.74200 43.60500 31.92400
H  40.16500 41.09300 33.52900
H  38.90300 40.85100 32.47600
H  43.76300 35.60900 29.41800
H  43.68900 36.87000 30.46900
H  45.16200 36.64800 29.46100
H  44.93200 35.09700 27.67600
H  44.53700 34.06200 26.30800
H  43.34800 34.74500 27.52800
H  42.07900 39.93100 22.23700
H  43.64400 42.41400 22.20500
H  44.79900 40.71300 21.37200
H  44.12800 39.06700 21.27600
H  44.91400 39.59600 22.65500
H  40.62000 42.37000 22.04400
H  41.67700 41.68300 20.74500
H  41.48800 43.49400 19.93000
H  42.82500 44.05800 20.81200
H  41.19700 44.45200 21.45600
H  40.74800 46.18100 24.07900
H  42.33000 46.87500 24.64200
H  40.76900 47.44300 25.33400
H  39.82400 45.13000 30.20300
H  41.44000 47.62600 33.27200
H  43.01600 47.01300 32.74600
H  41.87800 46.02600 33.77400
Mg 27.20900 50.51800 26.41900
C  25.09800 51.82500 29.13400
C  29.39900 49.33400 28.87900
C  29.38000 49.81900 23.95300
C  25.21400 52.40500 24.27900
N  27.27300 50.68900 28.69500
C  26.24200 51.05200 29.54600
C  26.54100 50.71300 31.02500
C  28.03700 50.02900 30.87800
C  28.25700 49.94500 29.38300
C  29.21500 50.71000 31.71800
C  25.49300 49.87800 31.77000
C  24.99000 50.55600 33.09000
H  26.07800 50.85600 34.17300
N  29.05300 49.50000 26.36800
C  29.82900 49.17200 27.47000
C  31.03600 48.60300 27.03800
C  31.01100 48.71400 25.56800
C  29.77000 49.36400 25.25900
C  31.88600 47.82200 27.92400
C  32.06500 48.27800 24.56900
O  32.00700 48.45800 23.37500
C  33.34700 47.64700 25.14400
N  27.31500 51.06300 24.50600
C  28.26500 50.65100 23.61500
C  27.97700 51.05300 22.17500
C  26.54200 51.58600 22.28400
C  26.33500 51.68800 23.78000
C  29.08100 51.92200 21.50200
C  25.38100 50.64400 21.75300
C  24.16300 51.34900 21.01400
N  25.44700 51.81900 26.59800
C  24.76500 52.50400 25.63400
C  23.57500 53.12600 26.17700
C  23.67500 52.89200 27.55900
C  24.85800 52.13700 27.77400
C  22.56600 53.82700 25.41900
C  23.00100 53.03000 28.79300
O  21.96400 53.62500 29.02000
C  23.97200 52.47700 29.86900
C  24.46700 53.60400 30.65500
O  25.48400 54.24200 30.53100
O  23.59100 53.62800 31.72900
C  24.10800 54.67200 32.67400
H  30.06800 48.99800 29.67400
H  30.03900 49.69700 23.09100
H  24.50500 52.87500 23.59500
H  26.54200 51.62000 31.62900
H  27.90800 48.98100 31.14900
H  29.63000 49.83100 32.21200
H  28.90400 51.49900 32.40200
H  29.86300 51.08200 30.92500
H  25.89600 48.92700 32.11800
H  24.62800 49.72300 31.12600
H  24.31700 49.79500 33.48600
H  24.37600 51.41200 32.81000
H  32.95800 48.00100 27.84600
H  31.83800 46.74300 27.77300
H  31.63900 47.94500 28.97800
H  33.03000 46.70700 25.59700
H  33.85100 48.25500 25.89500
H  33.96700 47.51900 24.25700
H  27.94900 50.15000 21.56500
H  26.42700 52.54500 21.77800
H  30.04500 51.88200 22.00900
H  28.60600 52.90100 21.44800
H  29.12900 51.59900 20.46200
H  24.94600 49.98900 22.50800
H  25.84900 49.96500 21.04000
H  24.29200 51.20900 19.94100
H  24.10700 52.42100 21.20000
H  23.18300 50.95200 21.27800
H  21.82400 54.34900 26.02300
H  22.12300 53.24100 24.61300
H  23.14800 54.65600 25.01700
H  23.37400 51.80600 30.48500
H  25.06700 54.42300 33.12600
H  23.60100 54.75400 33.63600
H  24.09400 55.67000 32.23700

