158

Mg 1.09400 8.26800 27.52500
C  1.51100 10.29900 30.18700
C  1.01700 5.52900 29.73300
C  0.68900 6.25400 24.98300
C  1.67700 10.88600 25.32600
N  1.44600 8.02200 29.75800
C  1.21700 9.01200 30.57000
C  0.96700 8.51300 32.03000
C  1.11500 6.98400 31.74700
C  1.26800 6.81500 30.28800
C  2.33900 6.27100 32.58700
C  -0.39300 9.03000 32.77600
C  -0.38800 9.12000 34.28500
H  0.75300 8.37600 35.08300
N  0.85900 6.15000 27.41900
C  0.68400 5.22500 28.40200
C  0.34900 3.97200 27.91500
C  0.29100 4.12300 26.46600
C  0.61200 5.54100 26.18300
C  0.23200 2.83300 28.78300
C  0.21100 3.02900 25.39800
O  0.36500 3.28400 24.20800
C  0.17900 1.53800 25.72400
N  1.19900 8.45900 25.43100
C  1.03100 7.48500 24.56400
C  1.00700 7.91000 23.06800
C  0.91900 9.48800 23.20900
C  1.26800 9.62500 24.78400
C  2.37700 7.43000 22.41400
C  -0.44900 10.14400 22.87100
C  -0.41900 11.53900 22.21900
N  1.46400 10.17800 27.70700
C  1.80000 11.14500 26.78000
C  2.02900 12.41800 27.37300
C  1.88200 12.15600 28.72400
C  1.59300 10.75400 28.85900
C  2.16800 13.79000 26.65600
C  1.85500 12.74000 30.04500
O  2.02000 13.92900 30.36000
C  1.57500 11.55800 30.99300
C  2.55200 11.40400 32.17000
O  3.77600 11.43300 32.07700
O  1.84700 11.51900 33.32700
C  2.70800 11.92000 34.50200
H  1.10100 4.71400 30.45500
H  0.44700 5.61800 24.12900
H  1.73500 11.65000 24.54800
H  1.81900 8.80000 32.64700
H  0.21300 6.49300 32.11100
H  2.02200 6.19600 33.62700
H  3.23700 6.88800 32.54600
H  2.60000 5.32300 32.11700
H  -1.21500 8.41000 32.41900
H  -0.61500 9.99900 32.32800
H  -1.35900 8.82300 34.68200
H  -0.24200 10.16100 34.57100
H  1.17100 2.36200 29.07600
H  -0.39500 2.03400 28.38700
H  -0.41900 3.13700 29.60200
H  1.01300 1.29200 26.38100
H  0.14600 0.88400 24.85300
H  -0.71500 1.27200 26.28700
H  0.16200 7.49300 22.52000
H  1.64800 10.06200 22.63700
H  2.62800 8.26100 21.75400
H  2.22600 6.50400 21.85900
H  3.09100 7.06500 23.15200
H  -1.18800 10.16700 23.67100
H  -0.77800 9.45100 22.09600
H  0.53000 12.07500 22.23700
H  -1.07500 12.30600 22.63000
H  -0.75200 11.40400 21.19000
H  2.49700 13.58300 25.63800
H  2.97800 14.31300 27.16400
H  1.32500 14.48100 26.67600
H  0.53200 11.70400 31.27500
H  3.30500 12.80900 34.29500
H  3.39600 11.11600 34.76300
H  2.01100 12.04100 35.33100
Mg 26.86900 50.82900 25.99400
C  24.97700 52.03600 28.77000
C  29.51300 50.33000 28.08400
C  28.21800 49.57100 23.40500
C  24.26800 52.17000 23.88900
N  27.06700 50.94200 28.16600
C  26.17300 51.33900 29.10300
C  26.71700 51.17700 30.55400
C  28.25300 51.10000 30.27900
C  28.32300 50.74500 28.73500
C  29.09600 52.38900 30.65900
C  26.01100 49.91100 31.33400
C  25.43300 50.35000 32.69400
H  26.44200 50.92000 33.72800
N  28.62800 50.12400 25.75300
C  29.67500 49.99100 26.71500
C  30.69000 49.15600 26.06100
C  30.23400 48.70700 24.84300
C  28.96900 49.47700 24.58600
C  32.07100 48.85100 26.75400
C  30.84600 47.78200 23.74500
O  30.27600 47.47200 22.68100
C  32.15000 47.07300 24.08100
N  26.29500 50.96600 23.85200
C  27.02000 50.23800 23.03900
C  26.40100 50.20800 21.68000
C  25.16000 51.07900 21.78100
C  25.19900 51.37100 23.25200
C  27.33600 50.60900 20.56500
C  23.86400 50.35300 21.38900
C  22.81400 51.19200 20.54000
N  25.05000 51.93700 26.24900
C  24.17100 52.46800 25.26200
C  23.10600 53.17100 25.92400
C  23.30700 52.83700 27.33300
C  24.54200 52.19300 27.43200
C  21.91400 53.74800 25.33500
C  22.79000 53.17200 28.64400
O  21.77500 53.79900 28.91000
C  23.84800 52.59800 29.69200
C  24.10100 53.68200 30.65600
O  24.93000 54.59200 30.48100
O  23.38600 53.48200 31.83700
C  23.82200 54.32500 32.96000
H  30.31900 50.13800 28.79500
H  28.76400 49.25800 22.51300
H  23.57200 52.72600 23.25900
H  26.52600 52.09500 31.11000
H  28.72600 50.27400 30.81100
H  29.53900 52.08800 31.60900
H  28.50200 53.28300 30.84600
H  29.89700 52.65100 29.96700
H  26.69300 49.06200 31.28800
H  25.16000 49.71000 30.68400
H  24.82200 49.50500 33.01200
H  24.68000 51.12600 32.56100
H  32.87000 49.32100 26.18100
H  32.21100 47.77100 26.80300
H  32.06800 49.28300 27.75500
H  32.92100 47.84200 24.12900
H  32.49000 46.43500 23.26500
H  32.15900 46.50700 25.01200
H  26.13000 49.15900 21.56200
H  25.22500 52.01100 21.22000
H  28.21800 51.15200 20.90700
H  26.93000 51.31800 19.84400
H  27.68900 49.78800 19.94100
H  23.26200 49.92100 22.18900
H  24.11400 49.55700 20.68800
H  22.35900 50.56300 19.77500
H  23.27400 52.11100 20.17500
H  22.02600 51.39900 21.26300
H  22.23200 54.34700 24.48200
H  21.34700 54.33300 26.06000
H  21.21800 52.99800 24.95900
H  23.22300 51.81500 30.12300
H  23.82800 55.35800 32.61100
H  24.82100 53.97700 33.22500
H  23.07900 54.22600 33.75100

