158

Mg 1.99900 -1.61600 43.91200
C  5.32500 -1.39100 42.97900
C  1.25300 0.98500 41.71600
C  -1.29600 -2.52500 43.75900
C  2.79600 -4.61400 45.58500
N  3.18400 -0.30600 42.51900
C  4.57500 -0.33000 42.41800
C  5.04200 0.79300 41.53700
C  3.69900 1.59800 41.29700
C  2.62400 0.69100 41.87500
C  3.62300 2.94000 41.99400
C  5.75300 0.40300 40.15800
C  6.88900 1.36700 39.68300
H  6.69000 2.17800 38.35900
N  0.18800 -0.78000 43.01100
C  0.08100 0.25800 42.14700
C  -1.23200 0.65500 42.01100
C  -2.05400 -0.26900 42.68300
C  -1.08800 -1.32100 43.17700
C  -1.64600 1.98000 41.33900
C  -3.59600 -0.18000 42.80800
O  -4.21500 0.68400 42.20700
C  -4.28700 -1.17900 43.86500
N  0.95800 -3.23000 44.59800
C  -0.35900 -3.44900 44.27200
C  -0.79700 -4.90100 44.61200
C  0.40000 -5.53600 45.31200
C  1.45800 -4.40400 45.17300
C  -2.12600 -5.10600 45.28000
C  0.87600 -6.91300 44.77900
C  -0.05100 -8.07100 45.07400
N  3.75100 -2.65600 44.48500
C  3.96000 -3.86400 45.17600
C  5.37200 -4.13100 45.24900
C  5.93500 -3.17200 44.41100
C  4.94500 -2.35200 43.89000
C  6.02600 -5.30200 45.83500
C  7.18500 -2.73400 43.86000
O  8.37000 -2.99100 44.08700
C  6.77700 -1.64000 42.84900
C  7.56000 -0.49200 43.22400
O  7.57200 0.14900 44.25600
O  8.38200 -0.16200 42.20100
C  9.19100 1.03700 42.38500
H  1.06700 1.90400 41.15600
H  -2.33100 -2.86400 43.68200
H  3.08900 -5.58700 45.98600
H  5.73900 1.40400 42.11100
H  3.46400 1.69500 40.23700
H  4.37200 2.84900 42.78000
H  2.63200 3.01700 42.44200
H  3.93600 3.68300 41.26000
H  4.94700 0.36600 39.42500
H  6.29000 -0.54400 40.19600
H  7.85100 0.89200 39.48900
H  7.20800 2.06300 40.45900
H  -2.67100 2.24600 41.59500
H  -1.57100 1.98100 40.25200
H  -1.11300 2.77400 41.86300
H  -5.17800 -0.69600 44.26500
H  -3.59200 -1.32800 44.69200
H  -4.51800 -2.16600 43.46500
H  -0.86800 -5.43200 43.66300
H  0.26600 -5.62100 46.39000
H  -2.84900 -5.47400 44.55300
H  -2.56100 -4.17200 45.63700
H  -2.03100 -5.81100 46.10600
H  1.85700 -7.17400 45.17600
H  1.06700 -6.79000 43.71300
H  -0.96700 -7.87100 45.63000
H  0.45400 -8.77000 45.74000
H  -0.23100 -8.58100 44.12700
H  6.25100 -6.15200 45.19100
H  5.55800 -5.70000 46.73600
H  6.90400 -4.86800 46.31400
H  6.98400 -2.00600 41.84400
H  9.79900 0.85100 43.27000
H  8.55800 1.91300 42.24800
H  9.95900 1.06900 41.61200
Mg 46.99400 14.82300 27.15400
C  45.17300 15.04800 30.14300
C  49.26800 17.03900 28.39500
C  48.35000 15.07200 23.99900
C  44.41300 12.85400 25.76200
N  47.17400 15.90300 29.01500
C  46.30200 15.90500 30.08400
C  46.91300 16.59900 31.35000
C  48.11000 17.37100 30.65800
C  48.19500 16.72600 29.25500
C  47.91100 18.87900 30.66000
C  47.38400 15.63500 32.49600
C  47.02000 16.10900 33.95500
H  48.06400 15.77700 35.01800
N  48.68300 15.70100 26.39900
C  49.54200 16.48400 27.09700
C  50.62600 16.94500 26.24400
C  50.40500 16.36800 24.96100
C  49.06600 15.69400 25.08100
C  51.78100 17.94700 26.69500
C  51.05100 16.75200 23.62100
O  50.63100 16.50800 22.52000
C  52.32400 17.51400 23.70700
N  46.44700 14.08000 25.17100
C  47.19400 14.29800 24.09600
C  46.66000 13.55300 22.84500
C  45.41500 12.80300 23.40600
C  45.42000 13.17900 24.90000
C  46.36100 14.42000 21.65300
C  45.42100 11.24300 23.22500
C  46.46800 10.48700 24.11000
N  45.10900 14.07500 27.73800
C  44.29000 13.26600 27.11000
C  43.17400 12.98500 28.09300
C  43.52700 13.61800 29.25700
C  44.67000 14.32100 29.02100
C  41.95500 12.10800 27.83000
C  43.17500 13.78100 30.61300
O  42.13300 13.40100 31.23700
C  44.22200 14.67600 31.29800
C  43.44700 15.84000 31.92200
O  43.20200 16.84300 31.29600
O  43.14900 15.57900 33.22400
C  42.72100 16.76600 34.04200
H  50.07500 17.66000 28.79100
H  48.84900 15.02500 23.02900
H  43.70700 12.06500 25.49500
H  46.26600 17.33400 31.82900
H  49.09000 17.15100 31.08200
H  47.85900 19.14900 29.60500
H  48.66400 19.33100 31.30500
H  46.95400 19.19200 31.07900
H  48.44900 15.40600 32.47900
H  46.93800 14.64300 32.44200
H  46.11500 15.56600 34.22800
H  46.74800 17.16500 33.94700
H  52.70800 17.37400 26.71100
H  51.64600 18.24700 27.73400
H  51.83500 18.85700 26.09800
H  52.21700 18.58900 23.84800
H  52.73000 17.36000 22.70800
H  53.10100 17.03600 24.30500
H  47.37800 12.79700 22.52900
H  44.49000 13.10600 22.91700
H  47.08000 14.07700 20.90900
H  46.37400 15.45700 21.99000
H  45.37900 14.24900 21.21400
H  45.81000 10.98100 22.24200
H  44.48800 10.73700 23.47700
H  46.10900 9.68800 24.75900
H  46.99700 11.15300 24.79200
H  47.27000 10.00500 23.55200
H  42.42300 11.35600 27.19500
H  41.30600 12.72100 27.20500
H  41.62300 11.64800 28.76100
H  44.67000 14.04500 32.06600
H  42.34300 16.52900 35.03600
H  41.97600 17.36900 33.52300
H  43.52500 17.46700 34.26700

