158

Mg -1.05200 18.16500 27.45100
C  -1.67500 15.99800 30.18100
C  -1.69600 20.85000 29.57600
C  -0.73900 20.10400 24.87800
C  -1.23400 15.25000 25.40100
N  -1.50000 18.36300 29.74900
C  -1.70900 17.30900 30.65600
C  -1.98000 17.88400 32.05400
C  -2.42300 19.33600 31.68100
C  -1.79100 19.56500 30.25000
C  -3.95600 19.49400 31.82800
C  -0.82900 17.78100 33.09100
C  -1.30000 17.27900 34.46100
H  -0.56100 17.64700 35.67800
N  -1.25500 20.11200 27.26200
C  -1.52300 21.10800 28.20900
C  -1.42900 22.41500 27.62600
C  -1.23200 22.19800 26.24800
C  -1.06500 20.75700 26.06500
C  -1.63400 23.69600 28.36500
C  -1.19700 23.21300 25.12300
O  -1.06100 22.89000 23.95300
C  -1.34200 24.70600 25.37500
N  -1.04900 17.72700 25.39400
C  -0.71100 18.74200 24.51300
C  -0.47000 18.25600 23.10500
C  -0.61300 16.71200 23.22800
C  -0.97400 16.49100 24.76100
C  -1.48300 18.85500 22.05600
C  0.60600 15.82900 22.80700
C  1.75800 15.57900 23.73300
N  -1.29500 16.05500 27.69900
C  -1.27300 15.01000 26.78700
C  -1.46700 13.75200 27.43600
C  -1.63600 14.03800 28.76200
C  -1.53200 15.45700 28.88800
C  -1.42000 12.44500 26.78300
C  -1.86200 13.49200 30.03300
O  -2.12900 12.33800 30.34400
C  -1.91400 14.71000 30.97200
C  -0.92000 14.49000 32.16100
O  0.28000 14.79000 32.10100
O  -1.55400 13.89600 33.28600
C  -0.80100 13.55800 34.44300
H  -1.88000 21.66100 30.28300
H  -0.59900 20.67800 23.95900
H  -1.12100 14.32700 24.82700
H  -2.80700 17.28100 32.43100
H  -1.91300 20.00400 32.37500
H  -4.37400 18.58400 32.26000
H  -4.38000 19.62900 30.83200
H  -4.13500 20.39000 32.42200
H  -0.23000 18.68700 33.18700
H  -0.14400 16.99600 32.77200
H  -1.24700 16.19700 34.58000
H  -2.36300 17.50900 34.52400
H  -0.76300 24.33300 28.21200
H  -1.75900 23.56500 29.43900
H  -2.45500 24.25300 27.91100
H  -2.32400 24.83900 25.83000
H  -1.20400 25.44300 24.58400
H  -0.62500 25.00700 26.14000
H  0.52100 18.56800 22.77600
H  -1.52300 16.45400 22.68600
H  -1.90000 19.84000 22.26600
H  -2.21800 18.12600 21.71300
H  -0.91600 19.08900 21.15500
H  1.00000 16.24100 21.87800
H  0.22100 14.89200 22.40500
H  1.66000 16.24300 24.59100
H  2.71600 15.91600 23.33700
H  1.93900 14.55400 24.05700
H  -0.63700 12.28200 26.04300
H  -2.41000 12.39600 26.33000
H  -1.48500 11.73200 27.60500
H  -2.95500 14.51700 31.22900
H  -0.57800 12.49200 34.48200
H  -1.42800 13.86300 35.28100
H  0.17400 14.03900 34.51000
Mg 54.49400 24.18600 45.43600
C  51.71200 26.26500 44.92100
C  52.70900 21.46600 44.25700
C  57.25700 22.43700 45.56500
C  56.28100 27.12900 46.31500
N  52.44200 23.99900 44.59800
C  51.53100 24.96000 44.37800
C  50.25400 24.36200 43.73800
C  50.49700 22.81500 44.01700
C  51.98600 22.75800 44.21700
C  49.94700 22.23600 45.30000
C  50.25700 24.76000 42.19200
C  48.94400 25.13800 41.44000
H  48.44900 24.18000 40.27400
N  54.85000 22.16900 45.02700
C  54.03000 21.22200 44.52000
C  54.78000 19.96100 44.41600
C  56.09000 20.19600 44.93000
C  56.07500 21.64000 45.24000
C  54.04300 18.64100 44.01000
C  57.18400 19.12300 45.13900
O  56.89800 18.00200 44.74400
C  58.51900 19.48900 45.61600
N  56.55200 24.73900 45.79900
C  57.47300 23.73300 45.87500
C  58.82800 24.35300 46.31700
C  58.52900 25.89400 46.31900
C  57.01300 25.87600 46.24400
C  59.33000 23.62700 47.61600
C  59.06200 26.86000 45.08100
C  60.54100 26.63700 44.70800
N  54.17100 26.28300 45.60400
C  54.97400 27.34900 46.03000
C  54.20600 28.50300 46.10900
C  52.94800 28.16000 45.67000
C  52.91700 26.77100 45.40700
C  54.67400 29.79500 46.50100
C  51.62100 28.75400 45.40300
O  51.15800 29.84100 45.61800
C  50.79700 27.51900 44.82300
C  50.35900 27.89700 43.44200
O  51.20500 28.26000 42.60800
O  48.98700 27.81400 43.27400
C  48.49800 28.30200 41.99600
H  52.00500 20.67600 43.98900
H  58.22300 21.94300 45.68400
H  56.80300 28.03200 46.64000
H  49.38200 24.68400 44.30600
H  50.25100 22.18100 43.16600
H  49.08100 22.78400 45.67200
H  50.65300 22.11100 46.12100
H  49.61100 21.22300 45.07600
H  50.66800 23.88700 41.68500
H  50.90800 25.61800 42.02100
H  49.09000 26.05000 40.86100
H  48.18700 25.29400 42.20800
H  53.56700 18.82700 43.04700
H  53.28600 18.15300 44.62500
H  54.74100 17.83100 43.79700
H  59.13000 20.07300 44.92800
H  59.05700 18.58900 45.91700
H  58.34000 20.00000 46.56200
H  59.55100 24.21000 45.51300
H  58.63500 26.34800 47.30500
H  59.74900 24.37400 48.29000
H  60.08200 22.85300 47.46500
H  58.51700 23.21800 48.21600
H  58.77100 27.87300 45.36100
H  58.54900 26.74000 44.12700
H  60.54900 26.14600 43.73500
H  61.00300 26.04700 45.50000
H  61.15000 27.51700 44.49800
H  54.19400 30.01300 47.45500
H  54.36600 30.35500 45.61800
H  55.73600 30.03000 46.55700
H  49.95300 27.27100 45.46600
H  49.09800 28.01900 41.13100
H  48.63400 29.38400 41.99900
H  47.46000 28.14900 41.69900

