158

Mg 6.97900 2.92900 28.14500
C  8.57700 1.51400 30.95200
C  5.47900 5.18700 30.09400
C  5.31100 3.80500 25.45200
C  8.53100 0.29200 26.12500
N  7.09000 3.22200 30.34500
C  7.75800 2.63100 31.32900
C  7.53600 3.28400 32.72800
C  6.44500 4.40500 32.34600
C  6.27400 4.25500 30.81200
C  5.09900 4.25200 33.16300
C  8.87000 3.98400 33.24200
C  9.38200 3.32500 34.54500
H  10.02700 4.21900 35.68900
N  5.65500 4.40100 27.80000
C  5.12800 5.28500 28.71300
C  4.31900 6.23800 28.05100
C  4.19200 5.78800 26.69900
C  5.02800 4.59400 26.62800
C  3.67300 7.40300 28.73800
C  3.39200 6.35000 25.50800
O  3.30900 5.70900 24.43100
C  2.70600 7.72500 25.65700
N  6.87700 2.08000 26.15700
C  6.16200 2.71400 25.21400
C  6.30200 2.21000 23.79000
C  7.40000 1.09800 23.96100
C  7.68000 1.14800 25.48000
C  4.94500 1.60400 23.12100
C  8.58900 1.41900 23.02200
C  9.15600 0.11100 22.42400
N  8.25900 1.22000 28.42500
C  8.83300 0.34000 27.53800
C  9.79700 -0.55000 28.25800
C  9.66700 -0.16000 29.62600
C  8.72300 0.94600 29.63300
C  10.84500 -1.56900 27.71100
C  10.09800 -0.41300 30.98900
O  10.85300 -1.26400 31.47900
C  9.41800 0.64800 31.90000
C  8.55000 -0.07700 32.93200
O  7.47800 -0.57800 32.75100
O  9.19600 -0.23200 34.08400
C  8.49900 -0.73700 35.25900
H  4.97300 5.95200 30.68700
H  4.85500 4.10700 24.50600
H  8.95700 -0.45200 25.44800
H  7.06000 2.55000 33.37800
H  6.71500 5.40400 32.68900
H  5.26500 3.73600 34.10900
H  4.48100 3.65800 32.49000
H  4.50100 5.14200 33.35600
H  8.76000 5.06200 33.36500
H  9.65000 3.87600 32.48800
H  10.26400 2.74900 34.26300
H  8.61400 2.65300 34.92800
H  3.95200 8.37300 28.32700
H  4.00300 7.37000 29.77700
H  2.60100 7.20400 28.74400
H  2.18300 7.86200 24.71000
H  3.52800 8.42900 25.78200
H  1.96100 7.63600 26.44800
H  6.72200 2.85600 23.01900
H  6.99000 0.10500 23.77500
H  4.07300 1.74100 23.76100
H  4.96200 0.53000 22.93800
H  4.84600 2.21700 22.22600
H  9.39000 1.92900 23.55500
H  8.38800 2.03500 22.14500
H  8.91800 -0.78500 22.99700
H  10.18400 0.13800 22.06100
H  8.54200 0.05400 21.52500
H  11.42000 -1.92000 28.56800
H  11.40500 -1.01400 26.95900
H  10.43700 -2.41900 27.16400
H  10.23500 1.17900 32.38800
H  7.88000 -1.61200 35.06000
H  7.99400 0.13900 35.66500
H  9.32500 -0.93500 35.94100
Mg 24.15500 1.38400 29.65500
C  26.45300 1.19400 32.29900
C  21.63100 1.09700 31.85800
C  22.13400 1.23100 26.95400
C  26.90300 0.99300 27.42900
N  24.06500 1.31700 31.84900
C  25.13300 1.30300 32.77500
C  24.62000 1.43700 34.18100
C  23.07800 1.25600 34.03900
C  22.90400 1.19100 32.48100
C  22.45700 0.09200 34.87600
C  25.06800 2.80200 34.84500
C  25.95400 2.71800 36.21300
H  25.45500 3.43000 37.45100
N  22.15300 1.16000 29.45100
C  21.22500 1.12600 30.50200
C  19.92600 1.10600 29.90200
C  20.11500 1.06000 28.49400
C  21.45700 1.19700 28.25200
C  18.64000 1.19100 30.71300
C  19.05700 0.92100 27.40300
O  19.28400 0.97600 26.17600
C  17.67100 0.62500 27.89100
N  24.43100 1.12100 27.45100
C  23.42600 1.19100 26.59700
C  23.93900 1.12500 25.15700
C  25.47800 0.93500 25.28600
C  25.65900 1.06700 26.82500
C  23.26100 0.02900 24.23600
C  26.32800 1.99700 24.49000
C  25.94400 3.47800 24.70400
N  26.23200 1.05900 29.77700
C  27.15600 0.83000 28.80600
C  28.45400 0.68400 29.43000
C  28.23700 0.75100 30.82500
C  26.86000 1.07900 30.95400
C  29.68700 0.31400 28.59100
C  28.93200 0.69800 32.06400
O  30.13200 0.53600 32.36800
C  27.75200 1.02900 33.12500
C  27.81600 -0.07200 34.17900
O  27.32300 -1.23000 34.09300
O  28.53700 0.39300 35.23500
C  28.66100 -0.55000 36.34000
H  20.83100 0.99000 32.59300
H  21.42800 1.26500 26.12200
H  27.74300 0.82200 26.75400
H  25.04800 0.61700 34.75800
H  22.54600 2.17700 34.27700
H  21.57600 0.36700 35.45500
H  23.15600 -0.16700 35.67000
H  22.38100 -0.79100 34.24000
H  24.23200 3.49100 34.97000
H  25.71600 3.25000 34.09200
H  26.85600 3.29700 36.01300
H  26.21100 1.67800 36.41200
H  18.05200 2.04100 30.36800
H  18.84000 1.09300 31.78000
H  18.01500 0.31200 30.55100
H  17.56400 -0.39000 28.27500
H  17.00200 0.45900 27.04600
H  17.23900 1.30800 28.62200
H  23.57100 1.99900 24.61900
H  25.86100 -0.06100 25.06400
H  22.86000 -0.77200 24.85600
H  24.14100 -0.38400 23.74200
H  22.57500 0.51200 23.54000
H  26.07300 1.76100 23.45600
H  27.38400 1.85900 24.72200
H  26.90500 3.78800 25.11300
H  25.17000 3.72800 25.43000
H  25.72000 4.00900 23.77800
H  29.82400 0.90700 27.68700
H  29.51900 -0.73700 28.35700
H  30.55300 0.44700 29.24000
H  27.96800 1.97600 33.61900
H  29.40300 -1.31800 36.12100
H  27.76900 -1.13700 36.55800
H  28.85400 -0.08100 37.30500

