158

Mg -2.75500 16.70700 26.59500
C  -3.03500 14.61800 29.39700
C  -2.80800 19.40800 28.78000
C  -2.82900 18.70700 23.96800
C  -3.50200 14.01400 24.53700
N  -2.90800 17.00300 28.83400
C  -2.91600 15.98400 29.79600
C  -3.07500 16.53400 31.19300
C  -3.31300 18.03600 31.00900
C  -3.01800 18.19900 29.47800
C  -4.62200 18.66800 31.49100
C  -1.89800 16.03800 32.20000
C  -1.39700 17.01300 33.33300
H  -0.72100 16.39800 34.54400
N  -2.68600 18.74100 26.39700
C  -2.72400 19.67300 27.37300
C  -2.67100 21.02300 26.80400
C  -2.61800 20.88000 25.35100
C  -2.77100 19.37700 25.19700
C  -2.87900 22.28700 27.68300
C  -2.37600 21.82100 24.25300
O  -2.20400 21.58700 23.09600
C  -2.23300 23.26400 24.57100
N  -2.91700 16.31500 24.44300
C  -2.97400 17.36300 23.62100
C  -3.35500 16.87000 22.27200
C  -3.67400 15.35300 22.43300
C  -3.27300 15.17600 23.86300
C  -4.45700 17.71900 21.48700
C  -2.97400 14.43100 21.45500
C  -1.50800 13.98800 21.69800
N  -3.05200 14.73300 26.79000
C  -3.38800 13.73900 25.89800
C  -3.66800 12.50800 26.64800
C  -3.44400 12.74400 28.00300
C  -3.16100 14.13300 28.08200
C  -4.19600 11.22100 26.06200
C  -3.40000 12.18700 29.29700
O  -3.53600 11.01400 29.67400
C  -3.24300 13.38600 30.25200
C  -2.07600 13.16500 31.17300
O  -0.93300 13.49200 30.86100
O  -2.48600 12.57000 32.32400
C  -1.33400 12.31600 33.24200
H  -2.78100 20.25900 29.46500
H  -2.92300 19.32500 23.07200
H  -3.86000 13.29600 23.79600
H  -3.96000 16.13100 31.68600
H  -2.57800 18.64400 31.53800
H  -5.19000 18.84600 30.57800
H  -4.49200 19.59600 32.04700
H  -5.27100 17.99000 32.04600
H  -1.11100 15.69600 31.52800
H  -2.36800 15.21100 32.73100
H  -2.14700 17.69600 33.73000
H  -0.56000 17.56700 32.90700
H  -3.42800 22.09900 28.60500
H  -3.38500 22.99600 27.02600
H  -1.91000 22.67400 27.99600
H  -1.28200 23.42700 25.07800
H  -3.09900 23.66600 25.09600
H  -2.25100 23.90900 23.69200
H  -2.45600 17.01300 21.67300
H  -4.73100 15.27200 22.18000
H  -4.85400 18.45200 22.18900
H  -5.35100 17.12100 21.30800
H  -4.05700 18.26400 20.63200
H  -2.98800 14.99200 20.52100
H  -3.48500 13.49600 21.22400
H  -1.37900 12.91800 21.86300
H  -1.08300 14.64600 22.45700
H  -0.89400 14.35700 20.87600
H  -3.28500 10.66700 25.83600
H  -4.64400 11.52200 25.11400
H  -4.92800 10.82700 26.76700
H  -3.97800 13.39700 31.05700
H  -1.48400 12.96300 34.10700
H  -0.32600 12.33200 32.82700
H  -1.28200 11.28800 33.59900
Mg 24.42700 1.47600 29.02700
C  26.60500 1.08900 31.83400
C  21.80000 1.38900 31.18400
C  22.49400 1.23100 26.28800
C  27.20100 1.01400 26.98800
N  24.23800 1.02000 31.28700
C  25.27000 1.28700 32.16300
C  24.77400 1.58600 33.59400
C  23.22000 1.64800 33.37000
C  23.04000 1.34500 31.83700
C  22.45800 0.63900 34.17200
C  25.48500 2.88400 34.10600
C  26.18300 2.75200 35.44900
H  26.16500 3.94300 36.45800
N  22.46200 1.33300 28.78400
C  21.49700 1.41200 29.75400
C  20.22200 1.38900 29.12700
C  20.37700 1.25100 27.71100
C  21.80200 1.18200 27.56100
C  19.05100 1.27500 30.00200
C  19.34000 1.22500 26.53200
O  19.64600 1.02100 25.34700
C  17.80500 1.27800 26.85700
N  24.79200 1.30100 26.89500
C  23.83900 1.31300 25.98100
C  24.41400 1.36100 24.56500
C  25.90700 1.18000 24.79900
C  26.00600 1.10900 26.30400
C  23.84500 0.36000 23.45200
C  26.79500 2.36900 24.21600
C  27.26800 3.51100 25.11100
N  26.47200 1.09500 29.29000
C  27.50600 0.94200 28.37100
C  28.73900 0.66800 29.03500
C  28.43900 0.70900 30.40400
C  27.07900 0.93900 30.54600
C  30.07300 0.41000 28.40100
C  29.02400 0.69800 31.69800
O  30.21300 0.55600 32.04500
C  27.79800 0.93300 32.73600
C  27.71300 -0.22400 33.64000
O  27.08600 -1.21100 33.41100
O  28.27100 0.06700 34.80000
C  27.86300 -0.84700 35.91100
H  21.03500 1.68400 31.90500
H  21.98600 1.04400 25.34000
H  28.03400 0.92100 26.28800
H  25.10600 0.76800 34.23300
H  22.83200 2.64300 33.58800
H  22.15600 -0.24400 33.61000
H  21.53400 1.16500 34.41200
H  23.04200 0.26700 35.01400
H  24.86600 3.78100 34.14800
H  26.27200 3.15200 33.40100
H  27.25300 2.64300 35.26800
H  25.72300 1.91500 35.97400
H  18.61300 2.25900 30.16700
H  19.18200 0.70000 30.91900
H  18.25800 0.76900 29.45100
H  17.59300 2.11300 27.52500
H  17.42500 0.35900 27.30300
H  17.33400 1.25200 25.87500
H  24.10400 2.33700 24.19000
H  26.28200 0.28600 24.30200
H  24.63300 -0.06400 22.83000
H  23.18200 0.82900 22.72500
H  23.42000 -0.51200 23.95100
H  26.26800 2.81400 23.37300
H  27.62600 1.82400 23.76800
H  26.54400 3.47600 25.92500
H  27.09400 4.46800 24.61900
H  28.29700 3.49400 25.47000
H  30.17100 -0.67500 28.35900
H  30.91400 0.81300 28.96500
H  30.06900 0.73400 27.36000
H  28.03300 1.79200 33.36500
H  27.49100 -1.84800 35.69400
H  27.04800 -0.33400 36.42000
H  28.68500 -0.91800 36.62300

