158

Mg 44.05800 3.50300 47.95200
C  42.07700 6.26800 47.27900
C  41.23500 1.48200 47.63700
C  46.06600 0.64800 47.87800
C  46.88100 5.42200 47.58900
N  42.00400 3.85800 47.55800
C  41.37000 5.08800 47.38000
C  39.86300 4.93600 47.31200
C  39.57800 3.44600 47.54500
C  41.05300 2.87400 47.54600
C  38.89100 3.10600 48.87100
C  39.18600 5.52900 46.04800
C  39.62400 4.93000 44.68800
H  39.57900 5.87600 43.51100
N  43.74000 1.35000 47.79700
C  42.48600 0.77600 47.79100
C  42.65600 -0.63300 47.61000
C  44.04800 -0.88300 47.45000
C  44.70100 0.40300 47.67300
C  41.52900 -1.59000 47.59100
C  44.76300 -2.19700 47.17700
O  44.16300 -3.28300 47.17800
C  46.18500 -2.20900 46.82100
N  46.18700 3.16800 47.51500
C  46.72300 1.89200 47.84500
C  48.19500 1.96500 48.23600
C  48.51700 3.53000 48.05400
C  47.08600 4.10700 47.73600
C  48.42400 1.47100 49.75200
C  49.54400 3.85000 46.97200
C  50.96900 4.07700 47.45400
N  44.49200 5.46700 47.50100
C  45.69600 6.15900 47.46200
C  45.37000 7.58700 47.50600
C  44.00300 7.67100 47.34300
C  43.48900 6.37300 47.38700
C  46.44700 8.63400 47.64100
C  42.95900 8.56400 47.15400
O  42.97300 9.75200 47.05600
C  41.63100 7.69100 47.17400
C  40.95300 8.14900 48.32500
O  41.38000 8.05400 49.47400
O  39.70800 8.59200 47.95800
C  38.80800 9.08000 49.02100
H  40.28900 0.93600 47.64700
H  46.79100 -0.12900 48.12800
H  47.72600 6.09300 47.75300
H  39.58400 5.58800 48.13900
H  39.06800 3.00700 46.68800
H  37.96600 2.58400 48.62400
H  38.67000 3.99800 49.45800
H  39.44100 2.46100 49.55600
H  39.33000 6.60900 46.07500
H  38.14000 5.28300 46.22900
H  39.03000 4.04600 44.45600
H  40.67500 4.64400 44.73500
H  41.32600 -1.87800 46.56000
H  40.63700 -1.06900 47.94000
H  41.87800 -2.39700 48.23500
H  46.88100 -2.54500 47.58900
H  46.36900 -1.24200 46.35200
H  46.32300 -2.84000 45.94200
H  48.80300 1.32900 47.59100
H  48.80000 4.08100 48.95100
H  48.60000 0.39600 49.69800
H  47.59200 1.78000 50.38400
H  49.33900 1.98100 50.05200
H  49.08400 4.66600 46.41400
H  49.69000 2.93000 46.40600
H  51.65100 3.26700 47.19400
H  50.95200 4.26200 48.52800
H  51.30200 5.01100 47.00200
H  47.14000 8.47200 48.46700
H  46.12800 9.67600 47.68100
H  46.98800 8.63700 46.69400
H  41.09700 7.99600 46.27400
H  38.02000 8.32700 49.03600
H  38.42700 10.02000 48.62100
H  39.28600 9.24000 49.98800
Mg -0.66600 42.67400 26.05300
C  1.98800 42.60100 28.32400
C  -2.82700 42.38300 28.69000
C  -3.15100 42.90800 23.86300
C  1.64700 43.31300 23.48400
N  -0.42100 42.40400 28.29100
C  0.74000 42.54900 28.96500
C  0.53600 42.68500 30.40900
C  -1.00900 42.41600 30.55800
C  -1.44700 42.37300 29.06800
C  -1.30800 41.18200 31.47400
C  0.93600 44.08500 30.93600
C  0.55000 44.46300 32.41600
H  0.49100 43.29000 33.42400
N  -2.66800 42.55400 26.25000
C  -3.38900 42.35800 27.41900
C  -4.76300 42.34600 27.07900
C  -4.95300 42.58200 25.72900
C  -3.56300 42.66400 25.19300
C  -5.80100 42.26100 28.09800
C  -6.25800 42.78700 24.91000
O  -6.26800 43.01000 23.66800
C  -7.67300 42.62400 25.55800
N  -0.71000 42.96900 23.91400
C  -1.89400 43.05400 23.27500
C  -1.80000 43.41900 21.79400
C  -0.18000 43.50200 21.66300
C  0.26100 43.30400 23.09800
C  -2.50300 42.43200 20.72700
C  0.30600 44.81300 20.93800
C  0.75400 45.98200 21.84200
N  1.42400 42.80000 25.87900
C  2.19600 43.09100 24.81000
C  3.54500 43.00100 25.17900
C  3.53300 42.73000 26.53100
C  2.18700 42.70600 26.91000
C  4.73000 43.17700 24.29700
C  4.34700 42.54400 27.70200
O  5.56600 42.48300 27.74500
C  3.35900 42.52700 28.95400
C  3.67600 41.44000 29.80800
O  3.61300 40.24700 29.49600
O  3.93600 41.88400 31.06000
C  4.08500 40.85900 32.12400
H  -3.50800 42.43300 29.54200
H  -3.99800 42.98600 23.17700
H  2.36000 43.56400 22.69500
H  1.13000 41.88700 30.85400
H  -1.52400 43.24900 31.03600
H  -2.11500 41.63000 32.05400
H  -0.49800 40.84400 32.11900
H  -1.70400 40.32900 30.92200
H  0.72400 44.89300 30.23600
H  2.01600 44.05400 31.08400
H  -0.36300 45.05500 32.36200
H  1.29300 45.21100 32.69000
H  -6.33100 43.21300 28.06100
H  -5.47300 42.04000 29.11400
H  -6.63600 41.60100 27.86200
H  -7.72900 41.59300 25.90600
H  -8.40800 42.90100 24.80200
H  -7.87100 43.27000 26.41400
H  -2.22400 44.42300 21.78900
H  0.17100 42.66500 21.05900
H  -1.86800 42.11300 19.90000
H  -3.37500 42.85900 20.23200
H  -2.83200 41.51500 21.21600
H  -0.56200 45.07100 20.33100
H  1.16900 44.49100 20.35700
H  0.53900 45.91700 22.90900
H  0.36600 46.93400 21.48000
H  1.81900 46.16600 21.69900
H  5.20300 44.06100 24.72400
H  4.50400 43.12200 23.23200
H  5.31000 42.26000 24.40100
H  3.53400 43.45200 29.50300
H  4.96400 40.22000 32.04300
H  3.16700 40.27600 32.20400
H  4.12500 41.51100 32.99700

