158

Mg 0.12100 7.67100 26.36300
C  0.83200 9.37700 29.21600
C  -0.12700 4.70000 28.11900
C  0.06000 5.95800 23.35400
C  0.87500 10.56700 24.44200
N  0.28300 7.08300 28.51200
C  0.40800 8.01600 29.49400
C  0.38900 7.32200 30.85200
C  -0.00900 5.82800 30.52700
C  0.05500 5.79100 28.97300
C  1.03600 4.72900 31.14400
C  -0.59400 8.15100 31.82500
C  -0.18400 8.43000 33.28300
H  0.85000 7.54100 33.90600
N  -0.10600 5.66100 25.78800
C  -0.18000 4.60300 26.69800
C  -0.46800 3.43900 25.95300
C  -0.40900 3.69400 24.53400
C  -0.22500 5.19300 24.49600
C  -0.76400 2.12100 26.66200
C  -0.64400 2.80100 23.31200
O  -0.78300 3.25600 22.20500
C  -0.79200 1.25500 23.52100
N  0.21700 8.23300 24.19700
C  0.23700 7.33900 23.22500
C  0.56600 7.92800 21.90500
C  0.35200 9.43300 22.18800
C  0.54900 9.47800 23.68900
C  1.99500 7.58100 21.48800
C  -1.04100 9.89500 21.86900
C  -1.09000 11.42600 21.94300
N  0.55900 9.61900 26.67700
C  0.90000 10.69500 25.83600
C  1.27800 11.87500 26.62100
C  1.31400 11.35200 27.96800
C  0.93900 9.97600 27.93900
C  1.66300 13.22600 26.10800
C  1.80100 11.72400 29.25900
O  2.36100 12.77600 29.62200
C  1.42700 10.54400 30.17500
C  2.59000 10.14700 30.99800
O  3.57400 9.46400 30.70700
O  2.45300 10.82700 32.20200
C  3.60100 10.85600 33.10000
H  -0.32300 3.73100 28.58300
H  0.20000 5.32200 22.47700
H  1.36200 11.34300 23.84800
H  1.41900 7.31700 31.21100
H  -0.97900 5.49800 30.89800
H  1.33300 4.10200 30.30300
H  0.50100 4.09400 31.85100
H  1.88000 5.18300 31.66300
H  -1.45500 7.48400 31.86100
H  -1.01700 9.05800 31.39300
H  -1.05800 8.27100 33.91400
H  0.07500 9.47900 33.43000
H  -1.38400 1.51000 26.00700
H  -1.38700 2.22400 27.55100
H  0.09700 1.52600 26.96700
H  -0.57600 0.77600 22.56600
H  -1.82700 0.97000 23.71000
H  -0.09800 0.81700 24.23900
H  -0.11800 7.61600 21.11700
H  1.11500 10.11300 21.80900
H  2.47100 6.74500 22.00100
H  2.74500 8.35100 21.66700
H  2.02200 7.53700 20.39900
H  -1.80500 9.70000 22.62200
H  -1.45400 9.41600 20.98100
H  -1.40300 11.78600 20.96300
H  -0.09900 11.87800 21.98800
H  -1.76700 11.79000 22.71700
H  0.91800 13.54600 25.37900
H  2.67000 13.13700 25.70000
H  1.60600 13.99700 26.87600
H  0.62400 10.75200 30.88100
H  3.25900 10.77200 34.13100
H  4.01900 11.86000 33.02300
H  4.45100 10.19700 32.92900
Mg -11.40000 38.31700 41.58500
C  -9.00600 35.75900 41.08300
C  -9.51400 40.41700 39.70100
C  -14.08500 40.32900 41.41100
C  -13.56500 35.72000 42.92900
N  -9.53900 38.06400 40.42800
C  -8.74400 36.93000 40.47900
C  -7.44700 37.22100 39.71500
C  -7.59300 38.74400 39.26900
C  -8.97100 39.11700 39.79400
C  -6.42900 39.74500 39.57800
C  -7.01900 36.21300 38.60600
C  -5.71700 35.48200 38.80600
H  -4.62600 35.60300 37.68300
N  -11.68900 40.23300 40.87400
C  -10.83500 40.92500 40.01300
C  -11.42600 42.12900 39.59300
C  -12.67000 42.20800 40.25500
C  -12.88500 40.90600 40.93400
C  -10.63600 43.05900 38.70400
C  -13.59000 43.44600 40.12800
O  -13.10700 44.48700 39.64900
C  -15.00300 43.45200 40.63200
N  -13.53400 38.05200 42.14900
C  -14.37100 39.06100 42.01300
C  -15.79700 38.69500 42.36100
C  -15.63900 37.25200 42.91100
C  -14.14900 36.97400 42.69400
C  -16.58500 39.66700 43.27300
C  -16.50500 36.33500 41.96200
C  -18.07300 36.66600 41.84700
N  -11.25900 36.23300 42.13100
C  -12.18600 35.36600 42.73700
C  -11.54500 34.10100 43.00500
C  -10.29400 34.19500 42.40900
C  -10.18100 35.49700 41.81900
C  -12.22100 32.98200 43.63500
C  -9.10800 33.57000 42.20500
O  -8.81800 32.44800 42.59800
C  -8.12600 34.57600 41.45500
C  -6.88400 34.81000 42.27600
O  -5.91800 34.08200 42.32400
O  -6.87200 36.07000 42.92300
C  -5.71800 36.44400 43.62900
H  -8.79200 41.07200 39.21000
H  -14.99800 40.92300 41.32400
H  -14.21000 34.97000 43.39200
H  -6.68000 37.17000 40.48800
H  -7.75900 38.64100 38.19600
H  -5.48100 39.25300 39.79500
H  -6.56000 40.54200 40.31100
H  -6.15000 40.28400 38.67200
H  -6.96500 36.63500 37.60200
H  -7.80400 35.45700 38.55900
H  -6.03300 34.44400 38.90500
H  -5.19900 35.80500 39.70900
H  -11.08200 43.96900 38.30500
H  -10.33700 42.43600 37.86100
H  -9.83500 43.34700 39.38600
H  -14.94800 43.17800 41.68500
H  -15.63700 42.90800 39.93200
H  -15.33200 44.48800 40.54200
H  -16.25300 38.70000 41.37100
H  -15.99500 37.12200 43.93300
H  -17.12700 39.02200 43.96400
H  -17.30100 40.25000 42.69300
H  -15.84800 40.32600 43.73300
H  -16.35300 35.30800 42.29500
H  -16.14100 36.46300 40.94300
H  -18.30500 37.53900 42.45700
H  -18.71600 35.85700 42.19200
H  -18.37200 36.99300 40.85200
H  -12.59700 33.24100 44.62500
H  -11.61700 32.07500 43.60700
H  -13.07300 32.74000 42.99900
H  -7.84600 34.00100 40.57200
H  -5.61600 37.52800 43.66100
H  -4.80400 36.06900 43.16900
H  -5.82200 36.14200 44.67200

