158

Mg 5.23600 54.28500 40.95400
C  4.18800 50.87500 40.71700
C  7.95500 53.39300 38.92000
C  6.11400 57.49700 40.77400
C  2.11800 55.00000 42.30900
N  5.90600 52.34500 39.83700
C  5.32800 51.11700 39.91000
C  5.99700 50.16000 38.92500
C  7.37600 50.91400 38.69900
C  7.09500 52.33100 39.20800
C  8.63600 50.25100 39.28800
C  5.12500 49.80600 37.75900
C  4.98400 48.33000 37.31300
H  5.46800 47.84100 35.94500
N  6.85200 55.27600 40.07100
C  7.84100 54.75400 39.31300
C  8.92500 55.81100 39.16000
C  8.39300 57.03300 39.65400
C  7.13600 56.64900 40.19600
C  10.30100 55.39900 38.65200
C  9.12200 58.30100 39.71500
O  10.22200 58.41100 39.14000
C  8.65500 59.53100 40.51100
N  4.21200 55.95700 41.37400
C  4.77800 57.17300 41.23800
C  3.80100 58.25900 41.70900
C  2.49000 57.47400 42.07400
C  2.93500 56.03800 41.86600
C  4.27300 59.14800 42.86000
C  1.33000 57.76700 41.04600
C  -0.06300 57.98400 41.59000
N  3.47000 53.21200 41.62600
C  2.28800 53.61700 42.16200
C  1.61900 52.41400 42.56100
C  2.27400 51.34000 42.04100
C  3.42400 51.87300 41.42200
C  0.32100 52.35500 43.43500
C  2.31100 49.83600 41.97000
O  1.72600 48.92100 42.50800
C  3.57700 49.49000 41.11600
C  3.22500 48.47900 40.13500
O  2.24000 48.51500 39.40300
O  4.09600 47.37100 40.28200
C  3.52600 46.11100 39.78500
H  8.89500 53.14000 38.42600
H  6.30100 58.57300 40.79900
H  1.19400 55.34200 42.78000
H  6.23900 49.16800 39.30700
H  7.43700 51.02300 37.61600
H  9.55100 50.46300 38.73500
H  8.55500 49.22700 39.65000
H  8.69600 50.83400 40.20700
H  5.36400 50.42400 36.89300
H  4.07400 50.05600 37.90000
H  3.90800 48.15800 37.28300
H  5.35000 47.56200 37.99400
H  10.45400 54.37100 38.98200
H  10.99900 55.93700 39.29300
H  10.44400 55.61100 37.59200
H  7.78400 59.99300 40.04600
H  9.53100 60.16800 40.63700
H  8.45300 59.20200 41.53000
H  3.63200 58.92300 40.86100
H  2.08400 57.66200 43.06800
H  4.33500 60.19500 42.56300
H  5.17600 58.75500 43.32500
H  3.49000 59.18600 43.61700
H  1.32500 56.99000 40.28200
H  1.38600 58.69300 40.47400
H  -0.78500 57.47900 40.94900
H  -0.30800 59.03300 41.42500
H  -0.21100 57.59900 42.59900
H  -0.19300 53.31300 43.36200
H  0.41800 52.29400 44.51900
H  -0.37000 51.56700 43.13400
H  4.38300 49.11200 41.74400
H  3.64900 46.01500 38.70600
H  2.54200 45.87400 40.18800
H  4.21500 45.35300 40.15900
Mg 17.45700 52.34300 26.29600
C  19.67800 51.13100 28.80600
C  15.06500 52.81400 28.68200
C  15.35900 53.43900 23.83300
C  19.75900 51.16600 23.84900
N  17.37900 51.89300 28.44700
C  18.41700 51.52100 29.31200
C  17.95400 51.60000 30.77700
C  16.43600 51.92600 30.63000
C  16.27100 52.25400 29.15200
C  15.49100 50.73800 31.11000
C  18.73800 52.64100 31.51300
C  18.86100 52.43100 33.02100
H  17.97000 51.39500 33.72300
N  15.53100 53.10600 26.24800
C  14.67400 53.16200 27.38000
C  13.40100 53.63500 27.01700
C  13.46700 53.84700 25.59500
C  14.82000 53.49300 25.12600
C  12.11400 53.79900 27.92500
C  12.40200 54.37000 24.65800
O  12.52800 54.42300 23.45500
C  11.16000 54.92600 25.22200
N  17.57700 52.31000 24.19900
C  16.58400 52.95400 23.38400
C  16.99500 52.79800 21.92300
C  18.31500 51.93000 21.94100
C  18.53800 51.77100 23.44900
C  15.94700 52.04400 20.97900
C  19.45100 52.64200 21.11200
C  20.23200 53.80600 21.80000
N  19.38600 51.40200 26.26000
C  20.20300 51.04000 25.18400
C  21.42300 50.47900 25.72400
C  21.21700 50.52800 27.12800
C  20.02100 51.01300 27.38300
C  22.65000 49.86600 24.96700
C  21.88200 50.14800 28.39100
O  23.02800 49.69300 28.62900
C  20.93500 50.59900 29.53500
C  20.61300 49.39600 30.35800
O  19.71900 48.62700 30.07400
O  21.37200 49.38000 31.48500
C  20.76300 48.44200 32.46000
H  14.30200 52.87700 29.46100
H  14.68200 53.69500 23.01600
H  20.48900 50.74300 23.15600
H  18.06100 50.65400 31.30700
H  16.20900 52.77900 31.26900
H  14.80900 51.09900 31.87900
H  16.05400 49.87900 31.47500
H  14.97400 50.26200 30.27600
H  18.20500 53.59100 31.46500
H  19.71800 52.86500 31.09300
H  18.74100 53.32200 33.63600
H  19.85300 52.04300 33.25300
H  11.72100 54.79700 28.12000
H  12.27000 53.36100 28.91100
H  11.36300 53.05500 27.66000
H  11.27300 55.59000 26.07900
H  10.58600 54.11100 25.66400
H  10.63500 55.47900 24.44300
H  17.13100 53.80500 21.53000
H  18.16000 50.92900 21.53800
H  14.98900 51.99600 21.49600
H  16.33100 51.06800 20.68000
H  15.84300 52.61100 20.05400
H  18.98100 53.08800 20.23500
H  20.09100 51.88200 20.66300
H  19.60300 54.26800 22.56200
H  20.50700 54.57500 21.07900
H  21.13200 53.40000 22.26100
H  23.52200 50.45400 25.25500
H  22.38600 49.89500 23.91000
H  22.73000 48.86400 25.38800
H  21.45700 51.21700 30.26500
H  21.16300 48.75900 33.42300
H  21.03000 47.40200 32.27100
H  19.67400 48.47600 32.50800

