158

Mg -1.98300 17.14900 27.32100
C  -2.58700 14.98900 29.94100
C  -2.54200 19.80600 29.37900
C  -1.98700 19.19900 24.56400
C  -1.94600 14.37300 25.07500
N  -2.53300 17.25800 29.42300
C  -2.67700 16.27800 30.32900
C  -2.99100 16.84400 31.73700
C  -3.11800 18.40200 31.41900
C  -2.69700 18.56000 29.94400
C  -4.45200 19.07600 31.79900
C  -2.11100 16.41400 32.96900
C  -2.71800 15.77900 34.27000
H  -1.90100 15.78100 35.51400
N  -2.00600 19.16900 27.00000
C  -2.23500 20.09300 27.99300
C  -2.16900 21.44800 27.45000
C  -1.89800 21.34300 26.04400
C  -1.97700 19.84700 25.81000
C  -2.36900 22.70700 28.26800
C  -1.66100 22.39800 25.02100
O  -1.55800 22.25600 23.82700
C  -1.36800 23.83200 25.57000
N  -2.17800 16.85500 25.11500
C  -2.05000 17.83100 24.20500
C  -1.73800 17.41500 22.80100
C  -1.53700 15.89100 23.01100
C  -1.97300 15.67000 24.48600
C  -2.82500 17.83200 21.73800
C  -0.05800 15.48300 22.68300
C  0.93100 15.11600 23.75100
N  -2.26900 15.16900 27.40100
C  -2.15700 14.15900 26.43900
C  -2.26900 12.87000 27.09100
C  -2.45700 13.16900 28.43700
C  -2.52400 14.60000 28.57600
C  -2.13400 11.53900 26.48200
C  -2.62100 12.51900 29.68800
O  -2.61200 11.32700 29.99300
C  -2.68000 13.66400 30.69600
C  -1.64700 13.35700 31.65900
O  -0.40600 13.53100 31.45400
O  -2.14900 12.73200 32.75100
C  -1.11900 12.16600 33.63500
H  -2.65100 20.66900 30.04000
H  -1.96600 19.89900 23.72700
H  -1.68000 13.55700 24.39900
H  -3.96500 16.38700 31.91200
H  -2.36300 18.94000 31.99200
H  -4.32500 19.79300 32.61000
H  -5.18800 18.29100 31.97100
H  -4.85300 19.55400 30.90500
H  -1.71000 17.31100 33.44100
H  -1.15800 15.98100 32.66700
H  -2.92600 14.75300 33.96800
H  -3.71000 16.17600 34.48600
H  -2.69700 22.48700 29.28400
H  -3.15500 23.22800 27.72100
H  -1.49100 23.34600 28.35600
H  -0.93400 24.43200 24.77000
H  -0.59900 23.63600 26.31700
H  -2.28000 24.27300 25.97200
H  -0.86500 17.98800 22.48700
H  -2.16000 15.26100 22.37600
H  -3.20100 16.95700 21.20900
H  -2.25900 18.46600 21.05600
H  -3.51300 18.52400 22.22600
H  0.41700 16.26000 22.08300
H  -0.18000 14.64700 21.99400
H  0.46700 14.71300 24.65100
H  1.70600 15.84700 23.98300
H  1.39600 14.27700 23.23200
H  -1.11100 11.16700 26.44400
H  -2.58500 11.53800 25.49000
H  -2.76100 10.91300 27.11600
H  -3.63300 13.47500 31.19100
H  -0.79500 12.97700 34.28800
H  -0.29000 11.76300 33.05400
H  -1.63800 11.45300 34.27500
Mg 24.36600 0.55600 29.69800
C  26.46100 0.55400 32.56200
C  21.68700 0.55100 31.75100
C  22.45500 0.53100 26.97300
C  27.31300 -0.10600 27.76100
N  24.15000 0.69100 31.90500
C  25.09600 0.74600 32.88100
C  24.44200 1.00700 34.28000
C  22.92100 0.67000 33.88900
C  22.85700 0.63600 32.45500
C  22.52400 -0.74600 34.36200
C  24.83100 2.42100 34.78100
C  24.50900 2.58300 36.27200
H  25.55100 2.23300 37.28500
N  22.32200 0.65200 29.39200
C  21.35000 0.59400 30.38400
C  19.99600 0.67700 29.71600
C  20.25300 0.67800 28.28500
C  21.70300 0.61200 28.18800
C  18.67300 0.66000 30.43500
C  19.33000 0.77300 27.15200
O  19.54200 0.53300 25.97500
C  17.94800 1.09400 27.56900
N  24.84900 0.15000 27.66400
C  23.89800 0.40800 26.73000
C  24.48800 0.19000 25.29100
C  26.02500 0.10600 25.55400
C  26.06000 0.09100 27.10700
C  23.92200 -1.08100 24.60500
C  26.93900 1.20300 24.98600
C  27.15200 2.45600 25.78700
N  26.44500 0.22200 29.98700
C  27.53100 0.02100 29.11600
C  28.76500 0.03200 29.86300
C  28.41300 0.26800 31.13000
C  27.02000 0.28800 31.23300
C  30.13100 -0.20500 29.20400
C  28.93900 0.53700 32.46800
O  30.10700 0.65100 32.87400
C  27.65800 0.70600 33.45400
C  27.79500 -0.41100 34.43400
O  27.09000 -1.36400 34.46100
O  28.82200 -0.08700 35.27500
C  28.91300 -0.90000 36.43200
H  20.73600 0.67300 32.27500
H  21.88300 0.57700 26.04300
H  28.12900 -0.19400 27.04000
H  24.90000 0.38100 35.04600
H  22.24400 1.40500 34.32400
H  23.22600 -0.84300 35.19000
H  22.56400 -1.62600 33.72000
H  21.56000 -0.72700 34.87200
H  24.24100 3.16100 34.24100
H  25.89300 2.43100 34.53300
H  23.53700 2.12000 36.44500
H  24.27500 3.64700 36.29700
H  18.03500 1.46800 30.07800
H  18.76800 0.74100 31.51800
H  18.17800 -0.30200 30.29900
H  17.99200 2.05400 28.08200
H  17.58000 0.28400 28.19900
H  17.31600 1.36200 26.72200
H  24.24000 0.99500 24.60000
H  26.34300 -0.89800 25.27600
H  22.85200 -1.26800 24.70300
H  24.42000 -1.97900 24.97000
H  24.08600 -0.93700 23.53700
H  26.37400 1.57300 24.13000
H  27.86500 0.76300 24.61700
H  26.66000 2.59700 26.75000
H  27.14100 3.38400 25.21700
H  28.21400 2.34000 26.00300
H  30.12100 -0.12600 28.11700
H  30.43400 -1.21500 29.47800
H  30.98600 0.41600 29.46900
H  27.85500 1.68000 33.90200
H  28.82300 -1.95400 36.17100
H  28.12200 -0.73800 37.16500
H  29.85800 -0.65900 36.92000

