158

Mg -1.64200 17.20100 26.55500
C  -2.29300 15.15200 29.37700
C  -2.18000 19.95000 28.47400
C  -1.64500 19.18900 23.76200
C  -1.61800 14.34600 24.54800
N  -2.33900 17.53500 28.68800
C  -2.31900 16.55400 29.69000
C  -2.45000 17.20500 31.06400
C  -2.63900 18.74800 30.65500
C  -2.35900 18.71800 29.19700
C  -3.97500 19.42100 31.00700
C  -1.23000 16.78100 31.92100
C  -0.82600 17.73800 33.09000
H  -0.35100 17.09100 34.40900
N  -1.81400 19.30700 26.18600
C  -1.97600 20.33000 27.14700
C  -1.83000 21.64500 26.52200
C  -1.69500 21.39400 25.09600
C  -1.71700 19.93200 24.93700
C  -1.99600 22.97300 27.19100
C  -1.55600 22.41800 24.03700
O  -1.36000 22.00500 22.84400
C  -1.53700 23.96000 24.26200
N  -1.75800 16.84300 24.52100
C  -1.69800 17.76300 23.53600
C  -1.71100 17.14900 22.14100
C  -1.34100 15.67000 22.39600
C  -1.53600 15.58800 23.94200
C  -3.06200 17.25500 21.40700
C  0.11800 15.37800 21.85600
C  1.31000 15.77700 22.69100
N  -1.77900 15.23200 26.88600
C  -1.82500 14.16300 25.94100
C  -1.93100 12.97800 26.67700
C  -2.16200 13.29100 27.97300
C  -2.07100 14.67500 28.06300
C  -2.00900 11.63300 26.07000
C  -2.45300 12.76800 29.27100
O  -2.68300 11.62800 29.68500
C  -2.41800 13.98300 30.21100
C  -1.24600 13.76200 31.14700
O  -0.08700 14.05300 30.93400
O  -1.72900 13.22100 32.32200
C  -0.74700 12.86900 33.32500
H  -2.20300 20.78800 29.17400
H  -1.59200 19.70700 22.80200
H  -1.36700 13.51100 23.89100
H  -3.30500 16.69600 31.51000
H  -1.76300 19.21300 31.10800
H  -4.51200 18.76000 31.68600
H  -4.40600 19.89200 30.12300
H  -3.54300 20.23500 31.58900
H  -0.31200 16.75000 31.33500
H  -1.48000 15.84100 32.41500
H  -1.70200 18.37900 33.18700
H  -0.01700 18.32900 32.66200
H  -1.18700 23.67600 26.99500
H  -1.96700 22.78200 28.26400
H  -3.01000 23.34700 27.04900
H  -0.73200 24.43000 24.82700
H  -2.42000 24.21200 24.84900
H  -1.73100 24.45900 23.31200
H  -0.96000 17.64500 21.52600
H  -1.97500 14.96300 21.86100
H  -3.91700 17.25400 22.08300
H  -3.20500 16.45300 20.68400
H  -3.00500 18.21400 20.89100
H  0.27200 15.83500 20.87800
H  0.44000 14.34500 21.72700
H  1.27300 16.81300 23.02500
H  2.25700 15.69900 22.15700
H  1.29100 15.22000 23.62800
H  -1.59800 11.64500 25.06100
H  -3.07000 11.40100 25.97800
H  -1.45500 10.94600 26.70800
H  -3.31200 13.99000 30.83500
H  -0.61500 13.74700 33.95700
H  0.22900 12.63000 32.90100
H  -1.07700 12.00900 33.90700
Mg 49.85100 46.42600 43.09600
C  47.27200 48.67900 42.24700
C  47.95400 43.89400 41.84400
C  52.66200 44.70600 43.00500
C  51.64600 49.33900 43.95900
N  47.86800 46.36900 42.22500
C  46.99800 47.35400 41.85100
C  45.80900 46.77900 41.16100
C  45.83300 45.28200 41.67700
C  47.33600 45.16200 41.86800
C  45.14300 44.93500 42.95700
C  45.80300 46.86700 39.60600
C  44.40100 46.68900 38.93200
H  44.46700 45.55700 37.92400
N  50.24300 44.55200 42.55200
C  49.37500 43.69100 42.01300
C  49.98200 42.46400 41.84100
C  51.32900 42.60000 42.17900
C  51.53300 43.99900 42.60500
C  49.34900 41.11200 41.42100
C  52.44500 41.60400 41.87600
O  52.22100 40.51900 41.39400
C  53.93900 41.93000 42.19300
N  51.90300 46.99400 43.32500
C  52.87400 45.99500 43.32200
C  54.18200 46.48100 43.95300
C  53.91700 48.00100 43.81600
C  52.36700 48.16000 43.66500
C  54.64600 45.94000 45.34700
C  54.68600 48.76300 42.75800
C  56.19400 49.11600 43.01200
N  49.53700 48.51500 43.37000
C  50.28600 49.51700 43.80400
C  49.53100 50.80100 43.84000
C  48.39700 50.55600 43.12600
C  48.42700 49.12600 42.87100
C  50.22700 52.09700 44.27700
C  47.19600 51.14900 42.64300
O  46.74800 52.27700 42.77600
C  46.41000 49.96000 41.99100
C  45.11600 49.79500 42.66100
O  45.00400 49.28500 43.70700
O  44.10200 49.91900 41.73300
C  42.78000 49.54500 42.29100
H  47.31800 43.13300 41.38800
H  53.63300 44.24400 43.19300
H  52.22100 50.21300 44.27200
H  44.90100 47.24900 41.53900
H  45.55900 44.57600 40.89400
H  44.27500 44.31000 42.75000
H  44.77500 45.86900 43.38100
H  45.79000 44.43800 43.67900
H  46.44000 46.01600 39.36800
H  46.12500 47.82700 39.20200
H  44.14600 47.61300 38.41200
H  43.60100 46.33500 39.58200
H  48.26000 41.15900 41.43600
H  49.64600 40.41800 42.20800
H  49.79200 40.84800 40.46100
H  53.94000 42.14700 43.26100
H  54.06500 42.92800 41.77100
H  54.64700 41.20800 41.78700
H  54.99700 46.24600 43.26800
H  54.24200 48.51100 44.72300
H  55.72700 46.02200 45.46100
H  54.40300 44.88400 45.46400
H  54.31600 46.62000 46.13300
H  54.08400 49.61000 42.42900
H  54.73900 48.09300 41.90000
H  56.18700 50.20500 42.98200
H  56.86600 48.60000 42.32700
H  56.46800 48.92000 44.04800
H  51.20100 52.16800 43.79200
H  50.49100 52.11000 45.33400
H  49.62900 52.99300 44.11100
H  46.33100 50.21000 40.93300
H  42.68000 48.46800 42.42900
H  41.98000 49.89600 41.64000
H  42.73200 50.14100 43.20200

