158

Mg 25.67800 1.39900 30.28200
C  27.74000 1.36800 33.15600
C  22.96400 1.59200 32.60200
C  23.55700 1.18900 27.71600
C  28.31100 0.42200 28.40600
N  25.48300 1.70000 32.52700
C  26.47200 1.67200 33.47400
C  25.84600 1.90900 34.86100
C  24.33300 1.65700 34.65400
C  24.25200 1.70800 33.11900
C  23.79200 0.35400 35.34800
C  26.10400 3.42400 35.33600
C  27.19700 3.61200 36.43000
H  26.72800 4.49600 37.60300
N  23.56500 1.41500 30.16500
C  22.65000 1.55500 31.21300
C  21.34800 1.48800 30.65300
C  21.48400 1.51100 29.18600
C  22.97800 1.36300 28.92200
C  20.13500 1.49000 31.53200
C  20.40500 1.63400 28.08000
O  20.60300 1.48700 26.85800
C  19.14400 2.03900 28.56600
N  25.96800 0.93700 28.32300
C  24.90800 0.98300 27.35900
C  25.44700 0.66900 25.96100
C  26.99400 0.71300 26.20900
C  27.08600 0.64200 27.71300
C  24.96800 -0.72500 25.52400
C  27.79400 1.87800 25.63300
C  27.10600 3.24300 25.27400
N  27.66700 0.95000 30.67100
C  28.58700 0.61800 29.74600
C  29.92200 0.40300 30.40200
C  29.62800 0.69700 31.76000
C  28.24200 1.01400 31.88500
C  31.19100 -0.02800 29.69600
C  30.16500 0.74000 33.05600
O  31.26800 0.44100 33.48100
C  29.00400 1.20100 33.99000
C  28.84400 0.19300 35.09300
O  28.26400 -0.83600 35.08000
O  29.33300 0.74100 36.30300
C  28.99700 -0.14300 37.43600
H  22.23400 1.81300 33.38300
H  22.86700 1.01800 26.88800
H  29.21500 0.26200 27.81500
H  26.29100 1.30900 35.65500
H  23.68300 2.38500 35.13900
H  24.49900 -0.27800 35.88500
H  23.55500 -0.30800 34.51600
H  22.85300 0.48600 35.88600
H  25.16900 3.89900 35.63300
H  26.53300 4.03600 34.54300
H  28.07400 4.07300 35.97500
H  27.45500 2.65900 36.89100
H  19.67000 2.47500 31.50700
H  20.32300 1.13200 32.54500
H  19.39700 0.81800 31.09300
H  18.59000 1.22100 29.02800
H  18.51500 2.32900 27.72400
H  19.17900 2.89500 29.23900
H  25.16000 1.40800 25.21400
H  27.49300 -0.18700 25.85000
H  24.52900 -0.61200 24.53400
H  24.27600 -1.13400 26.26100
H  25.82800 -1.38800 25.42200
H  28.23900 1.45700 24.73100
H  28.64800 2.11600 26.26600
H  26.70400 3.78200 26.13200
H  26.36000 3.11900 24.48800
H  27.88200 3.83200 24.78600
H  31.73800 0.86200 29.38300
H  30.87200 -0.59000 28.81800
H  31.83500 -0.62800 30.33800
H  29.26200 2.22200 34.27400
H  29.56000 -1.07500 37.48400
H  27.91400 -0.22900 37.52100
H  29.24700 0.44300 38.32000
Mg 54.22400 24.66100 45.18400
C  51.74000 26.80300 43.86900
C  52.37900 21.98000 44.28100
C  57.02100 22.80000 45.38300
C  56.09900 27.51200 45.91600
N  52.29600 24.51700 44.14800
C  51.39500 25.45500 43.77300
C  50.10500 24.83000 43.27500
C  50.25500 23.40800 43.83300
C  51.73100 23.23900 44.14100
C  49.29900 22.97700 45.10200
C  49.94400 24.90500 41.74500
C  48.53600 24.83300 41.11800
H  48.34200 24.61300 39.61100
N  54.70600 22.64000 44.73700
C  53.75400 21.71800 44.48300
C  54.39200 20.38600 44.44300
C  55.72000 20.55000 44.90500
C  55.91600 22.02100 45.00300
C  53.68900 19.16300 43.99500
C  56.75800 19.46600 45.24800
O  56.31800 18.32400 45.43400
C  58.13700 19.61700 45.56300
N  56.19800 25.09400 45.51900
C  57.19900 24.13200 45.63500
C  58.59700 24.73500 45.94000
C  58.27200 26.16500 46.26800
C  56.79600 26.30100 45.77600
C  59.45700 23.96500 46.99000
C  59.28500 27.23700 45.78500
C  59.35600 27.46000 44.21500
N  53.96200 26.81100 45.12500
C  54.77300 27.82300 45.54300
C  54.05800 29.13500 45.49100
C  52.86700 28.71500 44.85700
C  52.89500 27.32500 44.53900
C  54.48600 30.44400 45.96100
C  51.63200 29.24700 44.35400
O  51.12700 30.35900 44.40600
C  50.82400 27.98900 43.73100
C  50.39200 28.31900 42.41500
O  51.11500 28.47500 41.44400
O  49.03000 28.39600 42.41700
C  48.37900 28.89000 41.24600
H  51.71100 21.11700 44.23500
H  57.86100 22.11800 45.53100
H  56.62400 28.44600 46.12600
H  49.23000 25.26800 43.75600
H  50.01600 22.73600 43.01000
H  50.00700 23.05900 45.92600
H  48.86200 21.98300 45.00400
H  48.52100 23.72400 45.25700
H  50.39200 24.02000 41.29300
H  50.30000 25.84900 41.33100
H  48.20000 25.83800 41.37400
H  48.01100 24.03500 41.64400
H  54.22800 18.30500 43.59500
H  52.91700 19.35300 43.24900
H  53.02400 18.83800 44.79500
H  58.71300 18.70500 45.40300
H  58.19000 19.97800 46.59000
H  58.67500 20.22500 44.83500
H  59.03800 24.70900 44.94400
H  58.18600 26.25600 47.35100
H  60.36900 23.65900 46.47600
H  59.05800 23.03500 47.39400
H  59.80400 24.62800 47.78300
H  60.29900 26.87000 45.94200
H  59.26000 28.12700 46.41300
H  60.26000 27.03300 43.78100
H  59.39600 28.49500 43.87300
H  58.56500 26.94100 43.67400
H  54.83500 30.32300 46.98700
H  53.72100 31.21500 45.86900
H  55.33900 30.76600 45.36500
H  49.91400 27.86300 44.31800
H  48.20100 29.96100 41.34200
H  47.36300 28.55500 41.45500
H  48.70700 28.52700 40.27200

