158

Mg 8.07700 3.50900 27.44000
C  9.36700 2.27900 30.42000
C  5.99400 5.43900 29.35900
C  6.42600 4.35200 24.69100
C  9.55400 0.86800 25.79500
N  7.58800 3.68300 29.66400
C  8.35400 3.23900 30.68300
C  7.91000 3.84400 32.00700
C  6.80500 4.82200 31.62700
C  6.71100 4.55500 30.10100
C  5.41300 4.70400 32.40500
C  9.21400 4.49600 32.71600
C  9.44900 4.14000 34.21400
H  10.16000 5.21400 35.06600
N  6.51300 4.85200 27.03400
C  5.83900 5.56800 27.98600
C  4.85900 6.41800 27.35800
C  5.11600 6.25900 25.90000
C  6.06600 5.17900 25.82000
C  3.90500 7.36100 28.05100
C  4.50700 6.97400 24.68100
O  4.76400 6.66500 23.54300
C  3.52300 8.13700 24.84300
N  8.06300 2.78600 25.56100
C  7.20200 3.22300 24.61000
C  7.49800 2.60800 23.22200
C  8.45200 1.46600 23.54100
C  8.69400 1.71900 25.02800
C  6.27000 2.27800 22.40500
C  9.63900 1.59200 22.60800
C  10.74900 2.70200 22.95200
N  9.34700 1.91100 27.93800
C  9.83000 0.91600 27.17100
C  10.54500 0.01800 27.94800
C  10.49300 0.55800 29.24700
C  9.70300 1.68300 29.17400
C  11.43800 -1.14100 27.48800
C  10.96100 0.48000 30.61100
O  11.80000 -0.23400 31.07700
C  10.18600 1.55300 31.43700
C  9.38800 0.82600 32.43200
O  8.31800 0.31400 32.24100
O  10.10600 0.85000 33.61800
C  9.43700 0.26600 34.73500
H  5.47300 6.18400 29.96400
H  5.99800 4.56100 23.70800
H  10.06500 0.00700 25.36000
H  7.58100 3.03200 32.65500
H  7.15200 5.84500 31.77400
H  5.19200 5.49300 33.12300
H  5.45200 3.70000 32.82900
H  4.63800 4.75400 31.64000
H  9.14900 5.58400 32.66900
H  10.15100 4.29700 32.19600
H  10.15000 3.30600 34.18500
H  8.52500 3.85700 34.71700
H  2.96600 7.29900 27.50100
H  4.23200 8.39800 27.97100
H  3.68300 7.10900 29.08800
H  3.08200 8.42900 23.88900
H  4.10400 9.00000 25.16500
H  2.74400 7.92200 25.57400
H  7.94800 3.37900 22.59700
H  8.00500 0.47200 23.54800
H  5.36800 2.47800 22.98300
H  6.23000 1.22500 22.12600
H  6.43300 2.86700 21.50300
H  9.25000 1.81800 21.61500
H  10.12700 0.62200 22.70500
H  10.55900 3.19200 23.90700
H  10.77000 3.47400 22.18300
H  11.74900 2.27700 23.03300
H  12.40500 -0.72000 27.21400
H  11.03500 -1.64800 26.61100
H  11.45500 -1.77100 28.37700
H  10.82400 2.25600 31.97300
H  9.01200 -0.69200 34.43800
H  8.65400 0.87100 35.19500
H  10.27300 0.10400 35.41500
Mg 54.55900 24.82400 44.51600
C  52.24000 27.25200 43.52600
C  52.49600 22.39300 43.28600
C  57.15100 22.66900 44.49400
C  56.85400 27.44500 45.03300
N  52.57300 24.87500 43.56400
C  51.86200 25.94800 43.14300
C  50.57500 25.48500 42.27300
C  50.43600 24.11200 42.92800
C  51.93900 23.73600 43.27400
C  49.62900 23.91000 44.25100
C  51.00100 25.50400 40.76700
C  49.97200 26.21000 39.78500
H  49.75800 25.47800 38.48800
N  54.75400 22.73900 44.02300
C  53.77600 21.93300 43.59200
C  54.32300 20.60900 43.43300
C  55.64400 20.64700 43.93000
C  55.96600 22.02700 44.16400
C  53.40400 19.46400 42.88600
C  56.52900 19.42600 44.10600
O  56.18800 18.29100 43.83000
C  57.95800 19.53100 44.52800
N  56.79900 25.05800 44.42600
C  57.58200 23.99200 44.60100
C  58.98800 24.44000 44.97300
C  58.95500 26.01900 44.89700
C  57.46300 26.20200 44.88100
C  59.55700 23.94300 46.32200
C  59.78800 26.79100 43.87900
C  60.91800 27.64500 44.42600
N  54.51900 26.95500 44.60300
C  55.50800 27.89000 44.91700
C  54.87700 29.25300 44.85000
C  53.59000 29.02400 44.29100
C  53.47300 27.66200 44.13600
C  55.54300 30.54300 45.15100
C  52.43000 29.67100 43.80600
O  52.18600 30.85100 43.74700
C  51.49800 28.57600 43.39400
C  50.99000 28.81400 42.04300
O  51.61200 29.07500 40.98700
O  49.64100 28.77000 42.11100
C  48.87600 29.50800 41.12100
H  51.82500 21.61000 42.92700
H  57.98000 21.95800 44.46100
H  57.53100 28.29800 45.12300
H  49.73700 26.16800 42.41100
H  50.13300 23.36800 42.19100
H  49.08100 24.84700 44.35300
H  50.31700 23.67900 45.06400
H  48.93000 23.08700 44.10000
H  51.44900 24.57400 40.41500
H  51.83800 26.18500 40.61400
H  50.41400 27.17200 39.53000
H  49.02700 26.32400 40.31700
H  53.92600 18.51000 42.82000
H  53.00800 19.70100 41.89900
H  52.52800 19.21100 43.48300
H  58.49500 18.59700 44.69500
H  58.07800 20.10300 45.44700
H  58.51900 20.11800 43.80000
H  59.74900 24.07700 44.28200
H  59.29600 26.38900 45.86400
H  58.78700 23.97100 47.09300
H  60.38100 24.55300 46.69000
H  59.84400 22.91400 46.10500
H  59.08900 27.35900 43.26400
H  60.22900 26.01000 43.25900
H  61.95400 27.34900 44.26000
H  60.81300 27.83600 45.49400
H  60.79800 28.63600 43.98800
H  54.94400 31.35200 44.73400
H  56.50600 30.49200 44.64200
H  55.76900 30.66700 46.21100
H  50.64600 28.56700 44.07300
H  48.89700 29.01800 40.14800
H  49.19700 30.53600 40.95400
H  47.84800 29.45800 41.48100

