158

Mg 8.57400 3.50100 27.62500
C  9.99700 1.98300 30.43500
C  6.36800 5.23400 29.75800
C  6.72600 4.46200 24.95300
C  10.25900 1.14900 25.59300
N  8.20100 3.52400 29.76800
C  9.01200 2.96500 30.75700
C  8.73000 3.48100 32.19000
C  7.42000 4.33200 31.91400
C  7.28200 4.38100 30.38900
C  6.18100 3.94100 32.88300
C  9.86800 4.31400 32.87500
C  9.57300 5.23700 34.06500
H  10.17900 4.67700 35.34200
N  6.90700 4.90900 27.35300
C  6.19000 5.47800 28.34700
C  5.28200 6.46900 27.74800
C  5.35500 6.23100 26.25700
C  6.29500 5.07100 26.15200
C  4.35100 7.38300 28.60500
C  4.57900 6.87800 25.18700
O  4.74400 6.61600 24.01500
C  3.63800 7.98700 25.45100
N  8.57400 3.04200 25.66300
C  7.84700 3.62400 24.64000
C  8.18200 3.15800 23.23500
C  9.40100 2.21500 23.50200
C  9.41600 2.09300 25.00300
C  6.98700 2.32900 22.55700
C  10.84500 2.68500 23.01500
C  11.45400 1.92600 21.85300
N  9.84900 1.84500 27.90800
C  10.50200 0.95000 26.99800
C  11.38600 0.06300 27.74500
C  11.14300 0.47300 29.06700
C  10.23100 1.53200 29.11800
C  12.19100 -1.08100 27.24000
C  11.55700 0.18100 30.36300
O  12.27000 -0.75700 30.75900
C  10.88100 1.16900 31.30900
C  10.15400 0.44000 32.36600
O  9.21300 -0.32500 32.20000
O  10.60500 0.89300 33.56200
C  10.03300 0.37300 34.83500
H  5.67100 5.90900 30.25800
H  6.26000 4.83200 24.03700
H  10.68300 0.39800 24.92300
H  8.45100 2.64800 32.83500
H  7.67800 5.37200 32.11400
H  6.39800 3.27600 33.71900
H  5.59300 3.27500 32.25000
H  5.71800 4.81900 33.33300
H  10.29800 4.94000 32.09300
H  10.61500 3.58700 33.19400
H  8.49800 5.28700 34.23900
H  9.92500 6.25700 33.91000
H  4.67100 8.42200 28.68100
H  4.22300 7.13600 29.65900
H  3.31200 7.37200 28.27400
H  3.19200 8.39800 24.54500
H  4.11200 8.81200 25.98200
H  2.85700 7.72900 26.16600
H  8.53400 4.02400 22.67600
H  9.18300 1.24800 23.05000
H  6.04000 2.46600 23.08100
H  7.08600 1.27700 22.28700
H  6.83700 2.82400 21.59700
H  11.56600 2.67000 23.83200
H  10.78700 3.72600 22.69900
H  10.69600 1.39600 21.27600
H  12.14400 1.14500 22.17300
H  11.92900 2.69100 21.23700
H  12.34000 -0.93700 26.17000
H  11.82000 -2.10200 27.32700
H  13.17800 -1.06500 27.70300
H  11.46700 1.93800 31.81200
H  9.13500 -0.23100 34.70500
H  9.66100 1.18200 35.46300
H  10.77500 -0.20600 35.38500
Mg 25.61600 1.58800 29.57100
C  27.40800 1.46500 32.56800
C  22.69800 1.67000 31.52200
C  23.89700 1.76900 26.88300
C  28.55200 0.94300 27.87500
N  25.08900 1.45500 31.79400
C  26.03000 1.64400 32.79100
C  25.33000 1.73500 34.17600
C  23.80900 1.44200 33.84100
C  23.83800 1.49100 32.32100
C  23.05900 0.12700 34.28900
C  25.62600 3.09500 34.93100
C  26.11000 2.91300 36.41000
H  25.86200 3.97300 37.43200
N  23.59200 1.72300 29.24400
C  22.59500 1.81500 30.13900
C  21.34300 1.96200 29.41600
C  21.69700 1.89600 28.05700
C  23.11200 1.85100 28.00400
C  19.96800 2.12100 30.00500
C  20.77700 1.81800 26.87600
O  21.18000 1.79100 25.70800
C  19.25800 1.68700 27.02700
N  26.20700 1.45100 27.65700
C  25.27400 1.71600 26.66800
C  25.91800 1.73800 25.25400
C  27.49400 1.64700 25.62000
C  27.42700 1.34200 27.14900
C  25.47100 0.49800 24.40100
C  28.29200 2.88600 25.25000
C  27.96800 4.21000 25.96800
N  27.56500 1.17100 30.05900
C  28.66700 0.82300 29.28800
C  29.82000 0.46500 30.10200
C  29.39700 0.81900 31.38000
C  28.01700 1.19700 31.31900
C  31.09300 -0.07900 29.56200
C  29.77500 0.93100 32.79100
O  30.84400 0.66500 33.30300
C  28.51900 1.43800 33.56700
C  28.39600 0.48800 34.65700
O  27.92700 -0.64000 34.59500
O  29.11100 0.98900 35.72800
C  28.93000 0.13100 36.90900
H  21.72600 1.84500 31.98700
H  23.51300 1.88000 25.86700
H  29.45600 0.71600 27.30400
H  25.55900 0.84800 34.76800
H  23.24500 2.30700 34.19100
H  22.05400 0.38200 34.62500
H  23.57000 -0.26100 35.17000
H  22.99300 -0.68100 33.56100
H  24.81400 3.82000 34.98200
H  26.44100 3.55300 34.37000
H  27.11000 2.50000 36.28500
H  25.62400 2.04400 36.85400
H  19.25500 2.81900 29.56600
H  20.08300 2.38500 31.05700
H  19.51200 1.13200 30.03600
H  18.80400 1.40600 26.07600
H  18.96000 2.69300 27.32300
H  19.00500 1.01100 27.84400
H  25.69500 2.64700 24.69500
H  27.88300 0.77300 25.09800
H  24.38500 0.43300 24.33200
H  25.64900 -0.35300 25.05900
H  25.94100 0.49200 23.41800
H  28.03800 3.08800 24.20900
H  29.35500 2.69600 25.40100
H  27.37800 4.88600 25.34900
H  28.74700 4.84500 26.39100
H  27.28800 3.94700 26.77800
H  31.73500 0.60800 29.01100
H  30.84700 -1.01900 29.06800
H  31.48600 -0.37200 30.53600
H  28.71200 2.47300 33.85000
H  29.05300 -0.93700 36.73100
H  28.06100 0.44200 37.48800
H  29.75000 0.37100 37.58600

