158

Mg 46.68000 17.00100 28.42700
C  44.88600 16.90600 31.50600
C  49.11300 18.82500 30.08900
C  47.89900 17.64400 25.44500
C  43.89000 15.48200 26.99100
N  46.88900 17.92000 30.60200
C  46.03800 17.74300 31.61200
C  46.70200 18.10300 32.98600
C  47.97900 18.87900 32.53000
C  48.04900 18.51100 31.00200
C  47.98900 20.41100 32.82500
C  47.06400 16.89000 33.89500
C  46.89900 17.04800 35.45400
H  46.53200 18.38000 36.13500
N  48.28300 17.97100 27.88000
C  49.12600 18.67500 28.67600
C  50.21400 19.25000 27.84000
C  49.96900 18.82800 26.51300
C  48.57800 18.18500 26.54500
C  51.38000 20.05700 28.40100
C  50.84700 18.99700 25.26300
O  50.46900 18.57600 24.14400
C  52.27700 19.31900 25.39600
N  45.99300 16.62100 26.46500
C  46.78600 16.88200 25.36900
C  46.17200 16.24000 24.07600
C  44.93400 15.54600 24.66000
C  44.96600 15.83700 26.11100
C  45.88300 17.24400 22.92600
C  44.88600 14.01900 24.34300
C  43.74700 13.68800 23.36200
N  44.81500 16.29700 29.07200
C  43.86400 15.66400 28.38100
C  42.80600 15.22600 29.22700
C  43.21600 15.61500 30.47000
C  44.46300 16.32800 30.34600
C  41.57400 14.38600 28.93400
C  42.81600 15.54500 31.86400
O  41.84300 15.02300 32.46400
C  43.91300 16.34400 32.59500
C  43.26900 17.50100 33.27000
O  42.96800 18.59000 32.79100
O  42.89600 16.99100 34.52500
C  42.35600 18.11600 35.42700
H  49.99400 19.27400 30.55300
H  48.34100 17.88900 24.47600
H  42.97200 15.00500 26.64100
H  46.10100 18.80700 33.56000
H  48.86300 18.47500 33.02500
H  47.07900 20.73400 33.33200
H  47.92900 20.82600 31.81900
H  48.90600 20.70700 33.33600
H  48.12000 16.62400 33.84100
H  46.51900 15.98900 33.61200
H  47.94500 16.98300 35.75600
H  46.36400 16.27400 36.00400
H  52.31100 19.49500 28.46600
H  51.12600 20.48200 29.37200
H  51.57200 20.90400 27.74200
H  52.46600 20.37900 25.57000
H  52.77500 19.00000 24.48100
H  52.61400 18.62800 26.16800
H  46.95900 15.57400 23.72100
H  44.08100 16.09200 24.25800
H  46.51800 16.91300 22.10500
H  46.18400 18.27300 23.12200
H  44.84900 17.24500 22.58000
H  44.75200 13.46500 25.27200
H  45.85700 13.72400 23.94700
H  44.16300 13.39000 22.40000
H  43.14200 14.55500 23.09900
H  43.24600 12.79500 23.73800
H  41.20300 14.60100 27.93100
H  40.70600 14.59700 29.55900
H  41.92400 13.35500 28.95800
H  44.28400 15.67600 33.37300
H  41.64600 18.74900 34.89500
H  43.07300 18.75900 35.93800
H  41.71700 17.62200 36.16000
Mg -1.82300 34.17700 25.94000
C  -3.16800 32.58200 28.66300
C  -0.51700 36.65100 28.13900
C  -0.59200 35.89700 23.31900
C  -3.95800 32.48100 23.87300
N  -2.06100 34.68800 28.12200
C  -2.47600 33.73600 29.01000
C  -2.17400 34.18400 30.44900
C  -1.47600 35.57000 30.26200
C  -1.34100 35.67600 28.75000
C  -2.36900 36.68000 30.73200
C  -1.46500 33.06800 31.32300
C  -2.15900 32.58400 32.59500
H  -1.26100 32.53200 33.85100
N  -0.48800 35.87300 25.77200
C  -0.06700 36.71800 26.78700
C  0.98400 37.58200 26.23400
C  1.02800 37.33100 24.87100
C  -0.04700 36.39200 24.57700
C  1.82900 38.53100 27.05200
C  1.96200 38.00100 23.79300
O  1.69500 37.99900 22.57000
C  3.20400 38.68200 24.24300
N  -2.35500 34.34000 23.94700
C  -1.67100 35.05200 23.00700
C  -2.12500 34.75400 21.57600
C  -3.12200 33.54000 21.76300
C  -3.16900 33.41200 23.30800
C  -2.81400 35.93900 20.89200
C  -2.67500 32.21500 21.03600
C  -1.61600 31.32400 21.74700
N  -3.31700 32.82400 26.20700
C  -4.06600 32.14300 25.25200
C  -4.74200 30.97400 25.97300
C  -4.44000 31.16400 27.27000
C  -3.58500 32.24700 27.38700
C  -5.54800 29.86200 25.40500
C  -4.58300 30.55900 28.53100
O  -5.07700 29.51800 28.86800
C  -3.85000 31.53000 29.57600
C  -4.97300 32.00600 30.49300
O  -5.81000 32.88800 30.37200
O  -4.98600 31.15700 31.49600
C  -5.90500 31.24300 32.61500
H  -0.07400 37.28100 28.91300
H  -0.16800 36.47000 22.49100
H  -4.52700 31.77300 23.26800
H  -3.13700 34.42200 30.90000
H  -0.53300 35.63100 30.80400
H  -2.45600 37.47800 29.99500
H  -1.82800 37.15300 31.55100
H  -3.33100 36.47600 31.20200
H  -0.48200 33.39900 31.65800
H  -1.15800 32.20300 30.73500
H  -2.51800 31.57800 32.37800
H  -2.97200 33.27600 32.81600
H  1.43500 38.68600 28.05700
H  1.80200 39.56400 26.70700
H  2.85800 38.17400 27.01100
H  3.78200 38.11100 24.97000
H  2.82900 39.58600 24.72400
H  3.73400 39.08500 23.38000
H  -1.25600 34.55500 20.94900
H  -4.14600 33.78300 21.47900
H  -2.79200 36.72500 21.64700
H  -3.78800 35.72700 20.45100
H  -2.13400 36.31700 20.12900
H  -2.18800 32.69100 20.18500
H  -3.60500 31.78100 20.66800
H  -1.36300 31.55100 22.78300
H  -0.69300 31.32900 21.16800
H  -2.12100 30.35800 21.75600
H  -5.27500 28.93800 25.91600
H  -5.28500 29.77100 24.35200
H  -6.62900 29.92900 25.52200
H  -3.20800 30.89900 30.19000
H  -5.97500 30.26500 33.09200
H  -6.83900 31.72300 32.32100
H  -5.38400 31.92700 33.28500

