158

Mg 25.98000 -0.21700 29.52800
C  27.73400 -0.64300 32.60300
C  23.14800 0.18000 31.28500
C  24.43400 -0.24100 26.55300
C  28.96100 -1.04900 27.91500
N  25.56700 -0.24200 31.71800
C  26.39100 -0.35000 32.82800
C  25.65400 -0.05000 34.14200
C  24.14400 0.09200 33.66100
C  24.24900 -0.00700 32.09900
C  23.14200 -0.86700 34.32700
C  26.22600 1.25900 34.90900
C  26.89100 1.05700 36.28500
H  26.38500 1.93800 37.41900
N  24.07400 -0.02700 29.00300
C  23.00700 0.02100 29.86400
C  21.81100 0.01500 29.10700
C  22.13700 0.14600 27.70800
C  23.60100 -0.09200 27.64500
C  20.46800 -0.11200 29.73400
C  21.25400 0.49500 26.47800
O  21.69600 0.77700 25.36400
C  19.72100 0.52500 26.63400
N  26.64300 -0.42400 27.48400
C  25.77700 -0.46600 26.46500
C  26.46000 -0.79300 25.14000
C  27.96500 -0.77000 25.54100
C  27.94400 -0.69100 27.02800
C  25.97300 -1.99200 24.41800
C  28.76500 0.46400 25.03400
C  28.92400 0.74000 23.47500
N  27.98000 -0.81600 30.07200
C  29.06400 -1.07600 29.29000
C  30.22500 -1.38500 30.11800
C  29.77300 -1.15400 31.37900
C  28.35200 -0.84900 31.36000
C  31.55800 -1.89400 29.58100
C  30.14600 -1.08200 32.80300
O  31.23600 -1.10400 33.41000
C  28.85800 -0.82100 33.61700
C  28.51900 -1.99400 34.47800
O  27.69800 -2.89000 34.26900
O  29.10700 -1.79500 35.66900
C  28.66600 -2.70400 36.76000
H  22.17900 0.41500 31.73000
H  23.90200 -0.34500 25.60500
H  29.92900 -0.93200 27.42300
H  25.71100 -0.94300 34.76400
H  23.79000 1.04500 34.05700
H  22.34300 -1.16900 33.64900
H  22.72900 -0.32900 35.18000
H  23.59400 -1.82500 34.58400
H  25.46900 2.03800 34.99400
H  26.89400 1.80600 34.24400
H  27.97500 1.16800 36.25100
H  26.83400 -0.00900 36.50200
H  19.93300 -0.87900 29.17400
H  19.95900 0.84400 29.85800
H  20.62100 -0.46900 30.75300
H  19.16100 1.11200 25.90600
H  19.63900 0.99600 27.61400
H  19.32200 -0.48800 26.59600
H  26.20500 0.13000 24.61900
H  28.43400 -1.72100 25.29000
H  26.75500 -2.71000 24.17000
H  25.43900 -1.68400 23.51900
H  25.18700 -2.40000 25.05300
H  29.75800 0.19200 25.39300
H  28.20700 1.30200 25.45300
H  28.68800 1.79500 23.33700
H  28.20800 0.06800 23.00100
H  29.93400 0.59200 23.09100
H  32.30300 -1.61400 30.32500
H  31.78200 -1.41200 28.62900
H  31.50300 -2.98000 29.50500
H  28.91900 0.10900 34.18400
H  29.38600 -3.50500 36.92500
H  27.71300 -3.19100 36.55100
H  28.52400 -2.02500 37.60100
Mg 47.47700 14.87600 28.27900
C  45.43700 14.87200 30.97300
C  49.42100 17.10600 29.77400
C  49.13000 15.31500 25.35100
C  44.90500 13.11700 26.41500
N  47.37100 15.87000 30.13600
C  46.51200 15.64600 31.16700
C  47.00600 16.37700 32.43700
C  48.02300 17.39600 31.89100
C  48.26300 16.79000 30.48200
C  47.56300 18.85000 31.89100
C  47.45000 15.41200 33.66100
C  47.38000 16.00600 35.02600
H  48.52000 15.69900 35.95200
N  49.12300 15.92000 27.71000
C  49.72600 16.89800 28.43100
C  50.84600 17.48100 27.67600
C  50.90300 16.76300 26.38300
C  49.66500 15.91000 26.42900
C  51.71500 18.56800 28.24800
C  51.75700 16.88800 25.16600
O  51.71100 16.17600 24.13400
C  52.96500 17.80800 25.35500
N  47.13100 14.12900 26.23000
C  47.95600 14.54700 25.19400
C  47.46600 13.96000 23.86300
C  46.17200 13.21400 24.30400
C  46.04400 13.50200 25.72800
C  47.26900 15.05300 22.83600
C  46.15600 11.74000 23.91600
C  46.76700 10.75000 24.98100
N  45.52300 14.04600 28.60400
C  44.65100 13.41400 27.77400
C  43.55000 13.05600 28.57800
C  43.81100 13.57700 29.84100
C  45.04500 14.16800 29.80700
C  42.33900 12.30100 28.19100
C  43.34300 13.68000 31.15900
O  42.25100 13.24300 31.59200
C  44.39900 14.46300 32.00100
C  43.74000 15.66600 32.63900
O  43.34700 16.64700 32.06300
O  43.62200 15.45200 33.98100
C  42.89900 16.50800 34.73300
H  50.08100 17.77100 30.33600
H  49.59400 15.25800 24.36500
H  44.14400 12.53500 25.89100
H  46.16400 16.98700 32.76400
H  48.89600 17.38500 32.54400
H  48.17900 19.48100 32.53200
H  46.56600 18.95500 32.31700
H  47.58600 19.32200 30.90900
H  48.49000 15.09700 33.57300
H  46.76700 14.56200 33.67300
H  46.41200 15.86900 35.50800
H  47.41700 17.08400 34.86700
H  51.83600 19.32400 27.47200
H  52.58800 18.06900 28.67000
H  51.14200 19.05300 29.03900
H  53.63200 17.58900 26.18900
H  52.53700 18.80500 25.45700
H  53.57900 17.72100 24.45900
H  48.14400 13.15600 23.58100
H  45.37100 13.66800 23.72100
H  47.13000 16.06600 23.21400
H  46.44500 14.66700 22.23600
H  48.09300 14.97500 22.12700
H  46.79700 11.55200 23.05400
H  45.17100 11.41200 23.58400
H  46.10700 10.12000 25.57900
H  47.34100 11.31400 25.71600
H  47.44000 10.06700 24.46200
H  42.18500 11.57500 28.98900
H  42.40000 11.69900 27.28400
H  41.43100 12.89900 28.26600
H  44.70800 13.88300 32.87000
H  43.00500 16.20600 35.77500
H  41.86600 16.61300 34.40100
H  43.36900 17.48700 34.64500

