158

Mg 8.98900 2.84500 27.62700
C  10.58800 1.26100 30.25700
C  7.30600 4.74100 29.80200
C  6.86300 3.68900 25.03900
C  9.94300 0.05200 25.58200
N  8.79800 2.81900 29.81400
C  9.69600 2.28600 30.67600
C  9.71400 2.89700 32.12000
C  8.58900 3.89300 31.88700
C  8.24700 3.86500 30.38400
C  7.30900 3.64300 32.74700
C  11.06200 3.57100 32.47100
C  11.70300 3.19300 33.78100
H  10.75700 2.91200 34.94100
N  7.44300 4.11900 27.41300
C  6.93100 4.85800 28.47300
C  5.98400 5.86000 27.95900
C  5.81300 5.52500 26.53200
C  6.74100 4.41500 26.26100
C  5.38400 6.94600 28.84500
C  4.97700 6.36000 25.51100
O  4.88400 6.09900 24.32000
C  4.08300 7.48300 25.99200
N  8.54100 2.00100 25.56200
C  7.69400 2.59300 24.70800
C  7.64000 1.87100 23.32500
C  8.68600 0.72100 23.55000
C  9.13600 0.95300 25.01100
C  6.31600 1.29100 22.89000
C  9.79400 0.65500 22.54700
C  10.12600 -0.68600 21.84000
N  10.21300 1.16400 27.78900
C  10.55900 0.14400 26.87500
C  11.57500 -0.73500 27.49000
C  11.64100 -0.27700 28.84000
C  10.76200 0.77800 28.94900
C  12.26900 -1.79500 26.79200
C  12.29000 -0.52900 30.09200
O  13.21500 -1.27900 30.36000
C  11.52200 0.43600 31.12400
C  10.80700 -0.39900 32.11600
O  9.74700 -0.91500 31.99600
O  11.70700 -0.52700 33.18400
C  11.12300 -1.22900 34.35800
H  6.78300 5.37200 30.52300
H  6.21000 4.12900 24.28200
H  10.19000 -0.79500 24.93900
H  9.53300 2.11900 32.86000
H  8.87900 4.91500 32.13200
H  7.41900 2.61900 33.10400
H  6.41600 3.56200 32.12700
H  7.14300 4.37200 33.54000
H  10.96700 4.65300 32.56700
H  11.73500 3.32100 31.65100
H  12.43000 3.92700 34.12900
H  12.34100 2.31800 33.65700
H  5.45000 6.82100 29.92600
H  4.31300 6.89700 28.65200
H  5.79100 7.92100 28.57400
H  3.22200 7.12300 26.55600
H  3.81400 8.10200 25.13700
H  4.65800 8.14800 26.63600
H  7.92100 2.62900 22.59500
H  8.21700 -0.25800 23.64600
H  6.16600 0.21200 22.93800
H  6.16400 1.50300 21.83200
H  5.43200 1.69700 23.38200
H  10.67400 1.02400 23.07400
H  9.73400 1.36300 21.72100
H  9.67200 -0.70200 20.84900
H  9.75700 -1.57500 22.35300
H  11.21000 -0.76500 21.76100
H  12.17600 -1.64800 25.71500
H  11.86900 -2.72900 27.18600
H  13.30500 -1.72100 27.12100
H  12.22000 1.08500 31.65300
H  11.82700 -1.08300 35.17800
H  10.99900 -2.28600 34.12200
H  10.12100 -0.89400 34.62600
Mg 35.79700 1.34100 29.50800
C  33.44700 2.62900 31.81700
C  38.24100 1.74600 32.01600
C  38.04400 0.57000 27.19000
C  33.33700 1.78900 27.07800
N  35.81000 2.32800 31.63500
C  34.68300 2.51700 32.39400
C  35.04100 2.52000 33.86300
C  36.66800 2.46100 33.89900
C  36.98200 2.14900 32.43200
C  37.50900 3.74400 34.27800
C  34.31900 1.35700 34.61200
C  33.92900 1.53700 36.13500
H  34.66300 2.70400 36.82200
N  37.83000 1.10900 29.60000
C  38.62300 1.20100 30.67400
C  39.93400 0.73200 30.26500
C  39.95000 0.49800 28.86600
C  38.56000 0.73800 28.50200
C  41.09500 0.73000 31.26700
C  41.07600 0.09900 27.92200
O  40.90500 0.12900 26.68800
C  42.48500 -0.29600 28.44300
N  35.71200 1.32200 27.46300
C  36.73400 0.92600 26.73600
C  36.42900 0.74400 25.22600
C  34.88800 1.17700 25.20700
C  34.57400 1.45400 26.68700
C  37.26400 1.70800 24.41500
C  33.99200 0.12000 24.56000
C  33.55500 -1.13300 25.32000
N  33.78500 1.95100 29.41300
C  32.91400 2.01400 28.38000
C  31.63100 2.54200 28.81800
C  31.80400 2.69900 30.19400
C  33.11300 2.39700 30.46000
C  30.56500 3.00800 27.94800
C  31.09100 3.13000 31.38400
O  29.94300 3.53100 31.58800
C  32.15200 3.06500 32.47400
C  32.30400 4.39200 33.15600
O  32.93400 5.30600 32.69500
O  31.69400 4.45300 34.36300
C  32.06800 5.58400 35.14600
H  38.92300 1.74800 32.86900
H  38.74200 0.22600 26.42300
H  32.56800 1.82300 26.30300
H  34.58900 3.45700 34.18800
H  36.99400 1.58200 34.45500
H  38.22000 3.52200 35.07300
H  36.70000 4.38000 34.63600
H  37.99100 4.22000 33.42400
H  34.80700 0.39600 34.77300
H  33.36900 1.18300 34.10800
H  34.05200 0.67000 36.78500
H  32.84800 1.52400 36.27300
H  41.91900 1.34200 30.89900
H  41.37100 -0.32300 31.20400
H  40.92000 0.97500 32.31400
H  42.34200 -1.07200 29.19500
H  43.01500 0.59000 28.79400
H  43.07000 -0.61700 27.58200
H  36.63000 -0.28400 24.92600
H  34.79300 2.14400 24.71200
H  38.20800 1.18300 24.27200
H  37.47200 2.64600 24.92900
H  36.72300 1.94300 23.49800
H  34.46200 -0.29000 23.66600
H  33.09300 0.64800 24.24200
H  32.53200 -0.94200 25.64400
H  34.23600 -1.30900 26.15200
H  33.59500 -2.01400 24.67900
H  31.11400 3.59200 27.20900
H  29.83000 3.67100 28.40300
H  30.15700 2.10600 27.49300
H  31.77700 2.41200 33.26200
H  31.31300 6.36300 35.03900
H  33.05700 6.01000 34.98000
H  32.05000 5.27000 36.19000

