158

Mg 25.31100 51.00000 26.43000
C  23.03400 52.05700 29.03800
C  27.58300 50.31900 28.87300
C  27.69700 50.50000 24.06100
C  22.98000 52.00800 24.07900
N  25.25900 51.02700 28.71300
C  24.18500 51.33800 29.53600
C  24.60200 51.08500 31.04000
C  26.12000 50.69800 30.89200
C  26.32700 50.70800 29.39300
C  27.12200 51.57200 31.60300
C  23.63400 50.00200 31.63700
C  23.81000 49.58500 33.13400
H  23.90500 50.67300 34.09700
N  27.34300 50.55700 26.45100
C  28.06500 50.23600 27.52900
C  29.37500 49.80800 27.14200
C  29.50500 50.11900 25.79300
C  28.17200 50.46400 25.36200
C  30.46600 49.28800 28.06200
C  30.73100 50.08400 24.88000
O  30.53800 50.30400 23.65700
C  32.10400 49.74400 25.35100
N  25.41600 51.32400 24.40700
C  26.43700 50.91100 23.61500
C  26.15200 51.12800 22.12500
C  24.70400 51.76000 22.19000
C  24.31100 51.63500 23.62700
C  27.24600 51.96200 21.39300
C  23.71100 51.04600 21.22000
C  23.36500 49.58400 21.21100
N  23.38300 51.76400 26.53300
C  22.56000 52.13500 25.45800
C  21.36700 52.67500 25.98300
C  21.50600 52.70600 27.34800
C  22.73400 52.14400 27.69400
C  20.24100 53.21200 25.13300
C  20.82000 52.96500 28.62800
O  19.72300 53.43200 28.85900
C  21.85600 52.60800 29.78300
C  22.11300 53.74500 30.71300
O  22.72500 54.77000 30.45700
O  21.73300 53.42400 31.98100
C  21.92400 54.50200 32.94900
H  28.23200 49.88300 29.63500
H  28.32700 50.12900 23.25000
H  22.24800 52.34200 23.34000
H  24.47800 52.11400 31.38000
H  26.08400 49.69300 31.31400
H  26.49900 52.12300 32.30800
H  27.54500 52.32600 30.93900
H  27.91800 51.04400 32.12800
H  23.82400 49.13400 31.00600
H  22.59700 50.21800 31.37700
H  24.68300 48.94600 33.27200
H  22.89500 49.04100 33.36600
H  31.03700 48.42000 27.73400
H  30.02700 49.03100 29.02500
H  31.11400 50.12400 28.32700
H  32.25700 48.77700 25.83100
H  32.38800 50.51800 26.06400
H  32.80400 49.73900 24.51500
H  26.07900 50.13900 21.67400
H  24.78100 52.81800 21.93900
H  28.06200 52.17900 22.08300
H  26.81100 52.87600 20.99000
H  27.75200 51.34600 20.65000
H  24.25500 51.26400 20.30100
H  22.89200 51.76200 21.27800
H  23.72400 49.17300 20.26800
H  22.27700 49.51800 21.20900
H  23.78800 49.08300 22.08200
H  19.70400 52.43000 24.59400
H  20.72400 53.88300 24.42300
H  19.45100 53.71100 25.69400
H  21.30600 51.88900 30.39100
H  22.97700 54.45700 33.22900
H  21.27200 54.17500 33.75900
H  21.51000 55.46300 32.64700
Mg 8.64400 47.69500 25.40000
C  6.82600 47.58000 28.31900
C  11.29800 48.99500 27.03200
C  10.34900 47.55900 22.45000
C  5.76800 46.97300 23.58600
N  9.03300 48.14700 27.52800
C  8.14700 48.00600 28.51500
C  8.76700 48.54300 29.84300
C  10.08300 49.22700 29.34000
C  10.14900 48.81300 27.87100
C  10.03800 50.77500 29.45700
C  8.98200 47.39000 30.86000
C  8.50500 47.52400 32.32500
H  8.81200 46.39100 33.29200
N  10.59600 48.01300 24.94200
C  11.54000 48.59000 25.70500
C  12.87500 48.42100 25.09500
C  12.61900 48.01800 23.71300
C  11.14600 47.84600 23.65800
C  14.20900 48.83700 25.75400
C  13.57600 47.72100 22.56900
O  13.23000 47.29700 21.43100
C  15.00700 47.93800 22.75600
N  8.12000 47.57500 23.29500
C  8.97500 47.43400 22.28600
C  8.29700 47.17600 20.93700
C  6.93000 46.73000 21.37000
C  6.88900 47.21200 22.80100
C  8.30000 48.49900 20.05800
C  6.68800 45.17200 21.13200
C  5.41600 44.81500 20.34400
N  6.67100 47.48800 25.76500
C  5.62100 47.16100 24.96800
C  4.48900 46.94700 25.72900
C  4.90600 47.01000 27.06900
C  6.26800 47.34200 27.04600
C  3.16600 46.53200 25.25700
C  4.46600 47.00800 28.41600
O  3.31600 46.86500 28.80700
C  5.74300 47.32300 29.30500
C  5.92300 46.15400 30.12800
O  6.62600 45.19700 29.81500
O  5.35500 46.34100 31.36000
C  5.51600 45.19300 32.29400
H  12.22000 49.22100 27.57100
H  10.93400 47.46900 21.53200
H  4.92700 46.72500 22.93600
H  8.14800 49.31300 30.30200
H  10.92900 48.81500 29.89000
H  10.35500 51.07200 30.45700
H  8.97600 50.98000 29.32000
H  10.65500 51.23300 28.68400
H  10.04700 47.16000 30.83400
H  8.52400 46.48600 30.45800
H  7.42900 47.36200 32.25300
H  8.67100 48.55100 32.65000
H  14.85300 47.96100 25.67700
H  14.09200 49.08800 26.80800
H  14.71000 49.65000 25.23000
H  15.20200 48.98500 22.98800
H  15.59600 47.77700 21.85400
H  15.43200 47.28900 23.52100
H  8.85200 46.45700 20.33400
H  6.16000 47.25000 20.80000
H  9.05800 48.40000 19.28100
H  8.69500 49.31100 20.66900
H  7.32900 48.84900 19.70800
H  6.54200 44.86200 22.16600
H  7.55300 44.60000 20.79700
H  5.74600 44.33900 19.42000
H  4.87000 45.69100 19.99300
H  4.81200 44.16200 20.97400
H  3.11800 45.49700 25.59500
H  3.14900 46.44000 24.17100
H  2.37000 47.20000 25.58600
H  5.49900 48.19300 29.91400
H  4.56900 44.75300 32.60800
H  5.99900 45.58800 33.18800
H  6.32300 44.51100 32.02300

