158

Mg 46.92000 16.96600 28.24200
C  44.94900 16.28900 30.98900
C  48.73400 19.16200 30.13900
C  48.38700 17.94100 25.40100
C  44.48100 15.25500 26.20200
N  46.80800 17.72600 30.39100
C  46.04300 17.11000 31.35600
C  46.44000 17.51400 32.77700
C  47.70300 18.43100 32.49100
C  47.77000 18.47000 30.94900
C  47.59000 19.81900 33.04900
C  46.77200 16.19300 33.61900
C  47.31200 16.29200 35.10600
H  46.74700 17.47600 35.86600
N  48.48600 18.24900 27.82000
C  48.98600 19.19100 28.70900
C  50.04900 19.97300 27.99300
C  50.06600 19.49300 26.59900
C  48.93800 18.53400 26.52500
C  50.76700 21.06000 28.65600
C  51.01100 19.88700 25.45100
O  50.88100 19.43500 24.37800
C  52.24300 20.81400 25.79600
N  46.38400 16.84500 26.04500
C  47.28500 17.15600 25.12200
C  46.91900 16.65500 23.68400
C  45.76200 15.70200 24.01600
C  45.50100 15.92100 25.53100
C  46.40400 17.84900 22.69800
C  46.12900 14.21600 23.60600
C  45.23600 13.38800 22.64400
N  45.10000 15.98500 28.47300
C  44.18700 15.37300 27.58900
C  43.01200 14.83200 28.32300
C  43.28900 15.20900 29.68400
C  44.56600 15.90600 29.70400
C  41.87700 13.95100 27.64000
C  42.77900 15.03200 31.06000
O  41.77800 14.57300 31.51100
C  43.78000 15.77700 31.95400
C  42.99000 16.90300 32.58200
O  42.62900 17.86700 31.94300
O  42.82600 16.73100 33.94100
C  42.05200 17.80400 34.55700
H  49.46100 19.71500 30.73600
H  48.95300 18.16800 24.49500
H  43.82700 14.79800 25.45700
H  45.64600 18.16500 33.14200
H  48.60000 18.08400 33.00300
H  47.22000 20.42000 32.21800
H  48.59000 20.19800 33.26300
H  46.92400 20.06600 33.87600
H  47.50700 15.60100 33.07400
H  45.92000 15.52900 33.76400
H  48.37200 16.53000 35.01400
H  47.06100 15.34900 35.59200
H  50.53500 21.24300 29.70500
H  50.64200 21.99400 28.10700
H  51.80000 20.72100 28.72900
H  52.69400 20.58800 26.76300
H  51.97100 21.86900 25.78800
H  53.00400 20.70300 25.02400
H  47.68500 16.07400 23.17100
H  44.89300 16.05300 23.46000
H  45.34700 17.68000 22.49000
H  47.00100 17.70200 21.79800
H  46.54300 18.81800 23.17700
H  46.29000 13.67500 24.53800
H  47.05400 14.20700 23.02800
H  44.73100 12.58000 23.17300
H  45.64300 12.84800 21.78800
H  44.49000 14.06900 22.23600
H  41.07200 13.67400 28.32100
H  42.34800 12.97700 27.50200
H  41.52900 14.19800 26.63700
H  44.12600 15.09400 32.73000
H  42.40000 17.71600 35.58600
H  40.97400 17.74400 34.40500
H  42.36400 18.80600 34.26300
Mg -5.41700 24.57900 25.75400
C  -3.68900 26.20200 28.39200
C  -7.12100 22.70800 28.01200
C  -6.67600 22.98000 23.04600
C  -3.34500 26.41700 23.49700
N  -5.43900 24.44000 27.89000
C  -4.74200 25.34600 28.78300
C  -5.27700 25.18000 30.17800
C  -6.02900 23.76200 30.13400
C  -6.25100 23.62200 28.59400
C  -5.18200 22.55400 30.76200
C  -6.08400 26.44200 30.66500
C  -6.02300 26.82800 32.18400
H  -5.22000 25.84000 33.06100
N  -6.73600 23.04300 25.53900
C  -7.41600 22.42600 26.58100
C  -8.37100 21.51800 25.96900
C  -8.35700 21.66700 24.53200
C  -7.26700 22.64900 24.31000
C  -9.29300 20.86800 26.87900
C  -9.12000 20.80300 23.42200
O  -9.04700 21.04300 22.23400
C  -9.94500 19.75600 23.84500
N  -4.88100 24.51000 23.58000
C  -5.61800 23.81500 22.69400
C  -5.23500 24.09100 21.25300
C  -4.19300 25.29800 21.37900
C  -4.07100 25.40000 22.92500
C  -4.68300 22.74000 20.64700
C  -4.67000 26.58000 20.53300
C  -3.76600 27.27900 19.44800
N  -3.93100 26.03400 25.85400
C  -3.20400 26.72600 24.86400
C  -2.31100 27.67700 25.45500
C  -2.46100 27.49600 26.85100
C  -3.39700 26.44700 27.03800
C  -1.32000 28.67200 24.82800
C  -1.92700 27.91500 28.14500
O  -1.08300 28.78300 28.42400
C  -2.75900 27.03900 29.21700
C  -1.89400 26.27900 30.04200
O  -1.26700 25.28100 29.75500
O  -1.67500 26.89100 31.25900
C  -0.65500 26.34500 32.24600
H  -7.53200 22.06700 28.79400
H  -7.18400 22.47600 22.22100
H  -2.79000 26.94900 22.72200
H  -4.45800 24.96100 30.86300
H  -7.01600 23.73300 30.59500
H  -4.75700 21.87900 30.02000
H  -5.75500 21.83100 31.34300
H  -4.42900 22.91300 31.46400
H  -7.12700 26.36700 30.35700
H  -5.76000 27.33200 30.12600
H  -7.00800 26.99800 32.61900
H  -5.38400 27.70800 32.26100
H  -9.05400 19.80900 26.78600
H  -10.28300 21.00700 26.44400
H  -9.27300 21.10900 27.94200
H  -10.35700 19.04200 23.13200
H  -10.84100 20.12900 24.34300
H  -9.36300 19.30400 24.64800
H  -6.11700 24.45900 20.73000
H  -3.21100 25.06500 20.96800
H  -3.59400 22.75500 20.69200
H  -4.91200 22.73100 19.58100
H  -5.09600 21.93700 21.25700
H  -4.75400 27.43100 21.21000
H  -5.62300 26.37700 20.04500
H  -3.43700 28.23400 19.85800
H  -4.33900 27.40900 18.53000
H  -2.90200 26.63900 19.27300
H  -1.75400 29.27400 24.03000
H  -0.40100 28.26300 24.40900
H  -0.96600 29.36600 25.59000
H  -3.27800 27.72300 29.88900
H  -0.99000 25.43200 32.73800
H  -0.60900 27.13500 32.99500
H  0.26300 26.05300 31.73500

