158

Mg 53.25700 23.51700 43.55400
C  50.64200 25.56600 42.94400
C  51.53000 20.95300 42.19400
C  56.15100 21.75900 43.50600
C  55.12000 26.33500 44.36500
N  51.34700 23.40100 42.39100
C  50.36900 24.34700 42.48900
C  49.13100 23.85500 41.68600
C  49.32200 22.24100 41.74600
C  50.85400 22.18300 42.07100
C  48.39600 21.40900 42.69500
C  48.93300 24.47800 40.21200
C  50.17300 24.70000 39.39900
H  50.12500 25.38600 37.97200
N  53.80300 21.53900 43.10900
C  52.87100 20.61800 42.64800
C  53.44800 19.36500 42.80500
C  54.80700 19.47700 43.30700
C  55.04100 20.92500 43.31400
C  52.73200 18.11700 42.33500
C  55.72500 18.39800 43.65600
O  55.25600 17.24000 43.52700
C  57.15100 18.69000 44.23500
N  55.35300 24.05200 43.57100
C  56.36600 23.13300 43.67700
C  57.70100 23.77600 44.09700
C  57.41800 25.28700 44.04400
C  55.85000 25.22500 43.93400
C  58.14400 23.31400 45.53200
C  57.98600 26.09400 42.88100
C  59.13000 27.19300 43.20100
N  52.93100 25.55400 43.82300
C  53.72400 26.56600 44.27800
C  52.91800 27.74800 44.50700
C  51.65200 27.37200 44.07000
C  51.74900 26.06000 43.57700
C  53.36800 29.02100 45.21500
C  50.28300 27.81300 43.84900
O  49.71600 28.86600 44.08800
C  49.58400 26.67200 43.16200
C  49.22000 27.38300 41.94100
O  50.02500 27.83500 41.12500
O  47.90700 27.59200 41.96400
C  47.26700 28.37900 40.89900
H  50.86000 20.14600 41.89100
H  57.08600 21.19900 43.56900
H  55.77400 27.17800 44.60000
H  48.30400 24.21300 42.29900
H  49.17300 21.81200 40.75500
H  48.00000 22.04300 43.48800
H  48.88300 20.68300 43.34600
H  47.56200 21.00700 42.12100
H  48.25500 25.32400 40.10300
H  48.48200 23.68900 39.61000
H  50.75400 23.79000 39.25000
H  50.84900 25.32200 39.98600
H  52.83100 18.13100 41.24900
H  51.71200 18.22200 42.70300
H  53.21300 17.18900 42.64600
H  57.50800 17.76700 44.69200
H  57.06500 19.43500 45.02600
H  57.76200 19.10600 43.43500
H  58.52100 23.43200 43.46600
H  57.79400 25.67800 44.98900
H  59.11600 22.84200 45.38800
H  57.53100 22.63600 46.12500
H  58.29900 24.10200 46.26900
H  57.23500 26.51600 42.21300
H  58.69300 25.47600 42.32700
H  58.86900 27.82500 44.05000
H  59.12000 27.73400 42.25500
H  60.04600 26.64800 43.43200
H  53.44800 29.82300 44.48200
H  54.28500 28.85500 45.78100
H  52.57100 29.31000 45.89900
H  48.74700 26.31300 43.76200
H  46.18100 28.34700 40.99200
H  47.50100 28.02700 39.89400
H  47.55600 29.42200 41.03000
Mg -0.19800 42.62500 26.35600
C  2.04100 42.77400 29.04900
C  -2.76400 42.02100 28.56400
C  -2.20200 42.04500 23.75900
C  2.55100 43.02000 24.21800
N  -0.30800 42.40800 28.61800
C  0.70900 42.61600 29.49000
C  0.10000 42.87000 30.95500
C  -1.39500 42.49200 30.69800
C  -1.51900 42.32300 29.20400
C  -1.80900 41.18100 31.41900
C  0.41700 44.25800 31.48600
C  0.86000 44.33700 33.00800
H  0.66800 43.09500 33.86100
N  -2.16700 42.19300 26.15000
C  -3.12200 42.00700 27.16900
C  -4.43000 41.85800 26.62700
C  -4.26500 41.85600 25.17600
C  -2.82700 42.00600 24.99900
C  -5.73500 41.66000 27.46400
C  -5.28100 41.72100 24.13700
O  -5.00100 41.58200 22.96200
C  -6.74600 41.77100 24.46100
N  0.19700 42.43000 24.28000
C  -0.82100 42.20600 23.40800
C  -0.28500 42.29000 21.92300
C  1.21900 42.68100 22.06700
C  1.35600 42.70200 23.62700
C  -0.54500 40.88100 21.27600
C  1.48200 44.10900 21.37700
C  0.97800 45.30800 22.19900
N  1.86300 42.81700 26.55200
C  2.84700 43.03500 25.58900
C  4.13200 43.24000 26.21600
C  3.85300 43.02800 27.59300
C  2.48000 42.85300 27.73100
C  5.39700 43.64100 25.60100
C  4.49400 42.90200 28.85400
O  5.68200 42.88400 29.11600
C  3.32100 42.75000 29.85700
C  3.52400 41.38300 30.49000
O  2.70700 40.49800 30.33100
O  4.42900 41.42200 31.46200
C  4.15900 40.51400 32.59900
H  -3.60100 42.04000 29.26400
H  -2.73100 42.06400 22.80400
H  3.42900 43.28900 23.62600
H  0.58400 42.06600 31.50800
H  -2.10300 43.26900 30.98400
H  -1.12200 40.88200 32.21100
H  -1.87200 40.24900 30.85700
H  -2.73600 41.38500 31.95300
H  -0.45000 44.88400 31.27700
H  1.24500 44.54800 30.83900
H  0.24400 45.16200 33.36500
H  1.86900 44.72400 33.15100
H  -6.13200 42.67200 27.54300
H  -5.53400 41.22500 28.44300
H  -6.39300 40.90800 27.02700
H  -7.34000 42.02800 23.58400
H  -6.80000 42.45000 25.31200
H  -7.13500 40.77500 24.67100
H  -0.81800 42.98000 21.27000
H  1.90700 41.99700 21.57000
H  0.35200 40.41300 20.87000
H  -1.16200 41.11000 20.40700
H  -1.13900 40.20800 21.89400
H  0.99000 44.09800 20.40400
H  2.52200 44.19400 21.06400
H  1.76000 46.02900 22.44000
H  0.46300 44.88800 23.06200
H  0.24200 45.66800 21.48000
H  5.39900 44.72300 25.73700
H  5.37500 43.37900 24.54400
H  6.32900 43.21100 25.96700
H  3.38300 43.50000 30.64500
H  4.12200 39.44700 32.38000
H  3.19200 40.77900 33.02600
H  4.86500 40.73100 33.40100

