158

Mg 47.52900 35.09900 27.75900
C  45.74000 33.37900 30.33400
C  48.09700 37.70000 30.09900
C  48.30900 37.29800 25.24500
C  46.63400 32.75400 25.55400
N  46.86500 35.47000 30.02300
C  46.33200 34.55600 30.87800
C  46.41400 35.16900 32.28700
C  46.71900 36.70800 32.12300
C  47.26600 36.65700 30.67400
C  45.51400 37.67400 32.20300
C  47.57000 34.51800 33.13400
C  47.06700 34.34700 34.56500
H  47.71300 35.35500 35.55900
N  48.30400 37.13100 27.74800
C  48.50400 37.98900 28.80800
C  49.13700 39.18700 28.35300
C  49.27900 39.11300 26.97100
C  48.62200 37.81000 26.60700
C  49.53800 40.25800 29.36500
C  50.01600 39.98700 25.97900
O  50.28100 39.60300 24.88600
C  50.75600 41.27800 26.42300
N  47.47500 35.09200 25.64800
C  47.71100 36.09300 24.79700
C  47.68100 35.66000 23.32900
C  47.33800 34.09700 23.53000
C  47.16700 33.93200 25.01800
C  46.64100 36.36700 22.49100
C  48.36400 33.16500 22.84500
C  47.90900 32.00700 22.00200
N  46.52300 33.43700 27.89200
C  46.37200 32.47200 26.87400
C  45.73000 31.29700 27.45400
C  45.47400 31.54300 28.85000
C  45.90100 32.93000 29.03300
C  45.23600 30.09300 26.62700
C  44.89200 31.05900 30.07200
O  44.26100 30.05000 30.36800
C  44.97800 32.25400 31.07100
C  45.45800 31.87400 32.42700
O  46.50500 31.31300 32.68200
O  44.44100 32.05100 33.28200
C  44.47200 31.31500 34.54500
H  48.40700 38.38000 30.89600
H  48.64300 38.04800 24.52500
H  46.35200 32.04800 24.77000
H  45.47000 34.87900 32.74800
H  47.52700 37.06900 32.75900
H  45.44000 38.15600 33.17800
H  44.57400 37.12600 32.15000
H  45.42500 38.46100 31.45400
H  48.45100 35.14700 33.00500
H  47.83100 33.55900 32.68500
H  47.37000 33.38400 34.97600
H  45.97900 34.36000 34.63600
H  48.82500 40.19400 30.18700
H  49.51600 41.25800 28.93300
H  50.54800 40.08100 29.73500
H  51.48400 40.90100 27.14200
H  49.99300 41.96800 26.78200
H  51.36100 41.68100 25.61100
H  48.60500 35.85200 22.78300
H  46.36700 33.89700 23.07600
H  46.67800 36.11900 21.43000
H  46.59200 37.45300 22.57300
H  45.66100 35.96900 22.75300
H  49.03900 32.79800 23.61800
H  49.04600 33.75900 22.23600
H  48.13700 32.24700 20.96300
H  46.83800 31.82800 22.08900
H  48.37100 31.05200 22.25400
H  44.26200 30.32500 26.19400
H  45.04900 29.21500 27.24600
H  45.96100 29.92400 25.83200
H  43.99600 32.69300 31.24900
H  45.37800 30.73100 34.71000
H  43.63200 30.63400 34.68000
H  44.37200 32.13300 35.25800
Mg -2.04900 34.70000 26.99500
C  -3.70600 32.79300 29.45000
C  -1.00200 36.84500 29.27500
C  -1.16900 36.62000 24.38100
C  -3.22300 32.33800 24.62100
N  -2.36900 34.85400 29.06600
C  -2.93800 33.89900 29.91300
C  -2.56300 34.14300 31.34300
C  -1.63900 35.39600 31.25900
C  -1.74400 35.79300 29.78400
C  -1.94700 36.48600 32.28200
C  -1.75500 32.96600 31.98500
C  -2.17200 32.47000 33.35500
H  -1.18300 32.61200 34.57900
N  -1.13400 36.54500 26.85100
C  -0.75600 37.26400 27.95500
C  -0.08400 38.49100 27.55100
C  -0.27600 38.49100 26.10900
C  -0.91500 37.19700 25.66900
C  0.55000 39.50900 28.54700
C  0.20100 39.52400 25.10800
O  0.14200 39.34300 23.88800
C  0.86200 40.81100 25.62900
N  -2.27100 34.51700 24.76000
C  -1.68000 35.44400 23.93600
C  -1.62200 34.94800 22.49600
C  -2.14100 33.53100 22.67800
C  -2.51900 33.37600 24.11600
C  -2.55400 35.80200 21.64800
C  -1.09800 32.50400 22.18400
C  -0.02000 32.11300 23.18400
N  -3.24200 32.93900 26.99500
C  -3.67800 32.10100 25.93300
C  -4.53200 31.05300 26.39600
C  -4.52800 31.27800 27.80400
C  -3.69700 32.42100 28.05400
C  -5.30400 30.04100 25.61200
C  -5.05400 30.79300 29.11400
O  -5.79400 29.86800 29.42200
C  -4.40300 31.71500 30.25900
C  -5.45800 32.24300 31.16000
O  -6.16900 33.17300 30.87900
O  -5.53500 31.46700 32.34200
C  -6.49600 31.97200 33.33700
H  -0.54400 37.48300 30.03500
H  -0.75000 37.12600 23.50900
H  -3.45700 31.57600 23.87400
H  -3.51000 34.28500 31.86300
H  -0.60000 35.09700 31.39700
H  -2.36100 37.35800 31.77600
H  -1.05100 36.63800 32.88400
H  -2.69700 36.04500 32.93900
H  -0.71000 33.25300 32.10700
H  -1.70600 32.08600 31.34400
H  -2.35500 31.40100 33.24000
H  -3.14700 32.94300 33.47200
H  1.42100 39.96200 28.07300
H  0.90500 39.06000 29.47500
H  -0.15900 40.29500 28.80800
H  0.90600 41.50600 24.79000
H  1.83700 40.56500 26.05000
H  0.19700 41.23100 26.38300
H  -0.59700 35.03300 22.13500
H  -3.04200 33.44600 22.07100
H  -3.25500 36.33600 22.28800
H  -3.14700 35.25000 20.91900
H  -1.99400 36.59800 21.15700
H  -0.63100 32.87600 21.27200
H  -1.68800 31.70000 21.74500
H  0.10900 32.94000 23.88300
H  0.93100 31.95400 22.67600
H  -0.19200 31.11100 23.57700
H  -5.04400 30.05900 24.55400
H  -6.36400 30.23200 25.77900
H  -5.12400 29.05100 26.03100
H  -3.65500 31.06800 30.71600
H  -7.38600 32.42100 32.89500
H  -6.13600 32.69500 34.06900
H  -6.73800 31.20300 34.07000

