158

Mg -1.06300 7.74500 25.83200
C  -0.30100 9.75300 28.57800
C  -0.98500 4.95000 27.89000
C  -1.94800 5.77100 23.23800
C  -1.06000 10.53900 23.74500
N  -0.66900 7.36800 28.04700
C  -0.50600 8.36100 28.97100
C  -0.52800 7.79500 30.34500
C  -0.73700 6.24800 30.14200
C  -0.87600 6.14400 28.63600
C  0.43100 5.38000 30.75200
C  -1.58500 8.36200 31.27300
C  -1.57500 7.95300 32.79200
H  -0.18400 7.80100 33.56100
N  -1.33000 5.61200 25.54600
C  -1.24500 4.65700 26.50000
C  -1.35000 3.40600 25.89000
C  -1.57100 3.61200 24.45900
C  -1.60300 5.05000 24.34500
C  -1.16900 2.20600 26.71500
C  -1.54200 2.63700 23.35300
O  -1.59500 2.88300 22.12000
C  -1.44000 1.15600 23.70700
N  -1.46700 8.13500 23.82500
C  -1.84800 7.11600 22.98100
C  -2.20400 7.65800 21.59900
C  -1.91900 9.25100 21.74900
C  -1.57000 9.32300 23.23900
C  -1.40700 7.01100 20.44500
C  -3.21800 10.12200 21.41100
C  -3.02500 11.58100 20.96900
N  -0.69800 9.69100 26.08700
C  -0.76700 10.72700 25.14100
C  -0.34400 11.97500 25.77300
C  -0.16700 11.62000 27.10200
C  -0.46400 10.24100 27.26900
C  -0.22100 13.30100 25.09400
C  0.19800 12.01200 28.41200
O  0.63500 13.09900 28.75200
C  -0.01500 10.88900 29.49500
C  1.24500 10.81200 30.27200
O  2.25300 10.40600 29.81300
O  1.04200 11.44600 31.45200
C  2.24600 11.63200 32.27800
H  -1.16700 4.12700 28.58400
H  -2.35300 5.23600 22.37700
H  -0.90800 11.38300 23.07000
H  0.45300 8.09600 30.71300
H  -1.61200 5.84800 30.65200
H  1.13400 6.13300 31.10900
H  0.97600 4.81500 29.99500
H  0.07900 4.68700 31.51600
H  -2.59100 8.18700 30.89100
H  -1.46100 9.44500 31.24000
H  -2.32700 7.17200 32.90300
H  -1.91000 8.87500 33.26700
H  -1.46400 1.25600 26.26900
H  -1.88100 2.29500 27.53500
H  -0.15200 2.18700 27.10600
H  -0.55000 1.05800 24.32800
H  -1.26500 0.65700 22.75400
H  -2.25500 0.61600 24.18900
H  -3.27800 7.60400 21.42300
H  -1.00000 9.55600 21.24800
H  -1.19100 7.71800 19.64400
H  -2.20000 6.33700 20.12100
H  -0.55200 6.46600 20.84600
H  -3.91200 10.17900 22.25000
H  -3.77400 9.67200 20.58800
H  -3.58100 11.73300 20.04400
H  -1.99500 11.92800 20.88000
H  -3.44200 12.22700 21.74200
H  0.46400 13.26000 24.24800
H  0.23500 13.99400 25.80200
H  -1.20000 13.73700 24.89400
H  -0.86000 11.18200 30.11900
H  2.33600 10.89500 33.07600
H  2.10000 12.60200 32.75400
H  3.17900 11.65400 31.71500
Mg 48.15000 25.52800 29.76600
C  49.77300 27.50800 32.08800
C  47.08500 23.52500 32.48300
C  47.05200 23.24000 27.67500
C  49.71800 27.25500 27.10100
N  48.55800 25.43400 32.10700
C  49.15200 26.45300 32.80700
C  48.88400 26.34400 34.29300
C  48.21100 24.91100 34.37200
C  47.92600 24.55900 32.91700
C  49.03800 23.80900 35.15800
C  48.01400 27.51500 34.98500
C  48.67500 28.25400 36.19700
H  47.66400 28.65300 37.34800
N  47.16200 23.77000 30.04300
C  46.78700 23.07700 31.16800
C  46.06100 21.93600 30.86700
C  46.08600 21.77200 29.47300
C  46.77200 23.00100 28.98200
C  45.46000 20.97800 31.96200
C  45.49500 20.69500 28.61700
O  45.60500 20.60500 27.40100
C  44.76800 19.56100 29.21300
N  48.54900 25.16600 27.68300
C  47.83700 24.20100 27.01600
C  47.87200 24.32400 25.46800
C  48.68200 25.72000 25.37300
C  48.97400 26.11900 26.81000
C  48.69200 23.24400 24.68800
C  47.92800 26.76000 24.47600
C  48.64500 27.05000 23.16300
N  49.45500 27.08600 29.55700
C  49.98700 27.68600 28.41600
C  50.68600 28.94700 28.86800
C  50.67600 28.82300 30.22200
C  49.98600 27.67500 30.66500
C  51.40000 29.94800 28.01200
C  51.09000 29.53800 31.40300
O  51.67000 30.60600 31.51600
C  50.53200 28.67600 32.62600
C  51.73500 28.17400 33.48500
O  52.34200 27.17500 33.31400
O  51.87400 29.09500 34.53300
C  52.77100 28.82700 35.65100
H  46.56500 23.04800 33.31700
H  46.37800 22.72900 26.98400
H  50.02000 27.94600 26.31200
H  49.84200 26.32900 34.81100
H  47.22100 24.98900 34.82000
H  49.72700 24.26700 35.86800
H  49.76600 23.28300 34.54000
H  48.25600 23.25600 35.67800
H  47.04300 27.10000 35.25600
H  47.92800 28.23600 34.17300
H  49.25400 29.07600 35.77600
H  49.42800 27.56100 36.57100
H  45.78300 21.16000 32.98600
H  45.73800 19.93900 31.78600
H  44.38300 21.09800 32.08500
H  45.29500 19.02400 30.00100
H  44.49100 18.88400 28.40400
H  43.89500 20.02800 29.66700
H  46.82900 24.40000 25.15800
H  49.66500 25.55500 24.93300
H  48.06300 22.40600 24.38900
H  49.27700 22.82800 25.50800
H  49.32000 23.64800 23.89400
H  47.61600 27.59000 25.11000
H  46.92100 26.37900 24.30600
H  47.93200 26.96800 22.34300
H  49.54300 26.46700 22.96000
H  49.05200 28.05500 23.04700
H  51.63600 29.48200 27.05500
H  52.35700 30.05400 28.52500
H  50.78000 30.81200 27.77500
H  49.92800 29.40600 33.16500
H  53.52300 28.09800 35.35100
H  52.19700 28.35200 36.44700
H  53.25800 29.74700 35.97400

