158

Mg 47.57400 25.53700 28.28400
C  48.49100 27.87100 30.74900
C  46.78000 23.33200 30.78600
C  46.98600 23.17600 25.91800
C  48.88700 27.80600 25.77600
N  47.75600 25.53600 30.47700
C  48.09000 26.60600 31.30600
C  47.71200 26.45500 32.75300
C  47.41000 24.91300 32.75200
C  47.24700 24.56400 31.26400
C  48.52000 24.05700 33.36800
C  46.38100 27.24400 33.08500
C  46.47600 28.14700 34.34400
H  45.56000 27.71700 35.45700
N  47.08700 23.48800 28.33300
C  46.72600 22.83600 29.51200
C  46.27300 21.49600 29.16100
C  46.24000 21.44300 27.72100
C  46.86000 22.72500 27.24700
C  45.87500 20.50200 30.22500
C  45.67800 20.30900 26.80400
O  45.73100 20.39100 25.61900
C  45.13000 19.04900 27.40300
N  48.06300 25.44400 26.13000
C  47.60500 24.35000 25.40400
C  47.94100 24.51400 23.91000
C  48.43000 26.03300 23.92000
C  48.48200 26.51800 25.36800
C  49.01600 23.57600 23.39200
C  47.47600 26.95900 23.05700
C  48.17600 27.80800 22.02800
N  48.40400 27.38400 28.19100
C  48.96800 28.13000 27.13300
C  49.56300 29.35000 27.65500
C  49.37600 29.25200 29.12700
C  48.64200 28.06100 29.36400
C  50.36200 30.44700 26.86000
C  49.66500 29.99500 30.34000
O  50.24000 31.06400 30.40300
C  49.06100 29.12500 31.49100
C  50.15000 28.78900 32.43600
O  51.13600 28.09500 32.18300
O  49.78200 29.31700 33.67900
C  50.64600 29.04700 34.79000
H  46.33300 22.75900 31.60100
H  46.80600 22.48100 25.09600
H  49.29300 28.55400 25.09300
H  48.60100 26.64100 33.35600
H  46.49200 24.60700 33.25500
H  48.05000 23.16000 33.77100
H  49.10100 24.58200 34.12500
H  49.30300 23.71100 32.69300
H  45.64200 26.45000 33.19000
H  46.06700 27.75900 32.17700
H  46.28200 29.15900 33.99000
H  47.48500 28.21000 34.75200
H  46.38200 19.58000 29.93900
H  44.84400 20.17300 30.09100
H  46.03200 20.75200 31.27400
H  44.39800 19.19700 28.19600
H  46.02800 18.58800 27.81300
H  44.71100 18.46900 26.58000
H  46.97200 24.25200 23.48400
H  49.44000 26.03800 23.51000
H  48.49200 22.85900 22.76100
H  49.36800 23.03200 24.26900
H  49.81700 24.13500 22.90700
H  46.97700 27.62000 23.76600
H  46.69400 26.40700 22.53500
H  49.25800 27.76100 22.15000
H  47.75800 28.81400 22.06400
H  47.92700 27.37800 21.05800
H  49.84900 30.85200 25.98800
H  51.39500 30.17500 26.64500
H  50.37500 31.20700 27.64200
H  48.29600 29.78200 31.90400
H  50.24300 28.14400 35.25000
H  50.54100 29.81700 35.55400
H  51.68400 28.78000 34.59400
Mg 1.29700 42.72700 25.29100
C  2.79600 42.70000 28.61000
C  -1.60500 41.97200 26.84900
C  0.08700 42.05700 22.24300
C  4.50200 43.04800 23.92600
N  0.68900 42.24300 27.50900
C  1.40400 42.46100 28.69000
C  0.52400 42.34100 29.96100
C  -0.86300 41.93800 29.31700
C  -0.61700 42.15100 27.82500
C  -1.47200 40.56500 29.67200
C  0.51800 43.60900 30.88300
C  0.54700 43.45500 32.38100
H  0.44100 41.99900 32.90200
N  -0.60300 42.24000 24.61900
C  -1.71500 42.01900 25.44700
C  -2.85000 41.83000 24.57500
C  -2.33700 41.81000 23.16600
C  -0.90100 42.04000 23.26800
C  -4.17100 41.63600 25.16700
C  -3.08400 41.70200 21.84500
O  -2.57800 41.77400 20.74100
C  -4.56700 41.30000 21.91600
N  2.16500 42.55600 23.41900
C  1.40800 42.29900 22.31200
C  2.30300 42.18700 21.02100
C  3.72100 42.68300 21.43300
C  3.46200 42.83600 22.99600
C  2.35400 40.75400 20.36500
C  4.25500 43.97300 20.69700
C  5.02500 43.70900 19.46700
N  3.21600 42.89200 26.05900
C  4.41100 43.01200 25.37300
C  5.46000 43.22000 26.33300
C  4.93700 43.14800 27.57600
C  3.52000 42.89000 27.40300
C  6.83600 43.48500 26.02500
C  5.18900 43.12500 29.02700
O  6.25600 43.20400 29.62100
C  3.81300 42.89900 29.73700
C  4.01600 41.72700 30.64200
O  3.80700 40.54600 30.42400
O  4.48000 42.26400 31.81600
C  4.77000 41.33600 32.88500
H  -2.50200 41.72400 27.42100
H  -0.12200 41.71600 21.22700
H  5.50400 43.27900 23.55800
H  0.89100 41.53200 30.59300
H  -1.57400 42.71600 29.59300
H  -0.84500 40.05800 30.40600
H  -1.75300 39.95100 28.81700
H  -2.37100 40.84100 30.22400
H  -0.33700 44.21300 30.57900
H  1.29700 44.19100 30.39000
H  -0.29500 43.97700 32.83600
H  1.50700 43.84000 32.72500
H  -4.22300 41.91100 26.22100
H  -4.46500 40.60100 24.99100
H  -4.84200 42.25800 24.57400
H  -4.80000 41.01600 20.89000
H  -5.09100 42.17800 22.29300
H  -4.71000 40.46500 22.60200
H  1.91800 42.84800 20.24400
H  4.50400 41.93700 21.29300
H  1.72400 40.05500 20.91400
H  3.38200 40.42000 20.23100
H  1.92300 40.91400 19.37600
H  4.83500 44.61000 21.36600
H  3.32500 44.51600 20.52500
H  4.44400 44.04300 18.60800
H  5.15400 42.65700 19.21400
H  5.93400 44.31100 19.46400
H  7.28600 43.79400 26.96800
H  6.83100 44.29200 25.29200
H  7.39100 42.65500 25.59000
H  3.55800 43.78700 30.31400
H  5.85800 41.33500 32.95100
H  4.35000 40.33200 32.81800
H  4.48100 41.74600 33.85200

