158

Mg 16.78800 -2.21600 27.87900
C  15.47100 -0.10800 30.41800
C  18.88500 -3.60100 30.25300
C  18.53500 -3.64600 25.36800
C  15.27900 -0.03800 25.58600
N  17.21200 -1.75500 30.05900
C  16.42200 -1.04200 30.88400
C  16.84700 -1.23700 32.39600
C  18.04400 -2.20400 32.23500
C  18.04300 -2.55700 30.72300
C  19.40900 -1.63600 32.58600
C  15.71300 -1.75700 33.35100
C  15.99400 -1.61600 34.80300
H  17.20400 -0.90300 35.32500
N  18.20500 -3.72100 27.79200
C  18.96600 -4.13100 28.87800
C  19.81500 -5.20600 28.41000
C  19.78500 -5.31900 26.97200
C  18.83000 -4.14800 26.63700
C  20.74900 -5.98100 29.43600
C  20.46900 -6.18600 25.92800
O  20.39800 -5.98500 24.72400
C  21.42200 -7.39300 26.48000
N  17.00700 -1.74600 25.78700
C  17.69400 -2.61200 24.94900
C  17.35800 -2.42500 23.43900
C  16.13800 -1.46000 23.55400
C  16.10300 -1.11200 25.05700
C  18.52400 -1.71100 22.74700
C  14.75600 -1.93600 22.94800
C  13.71700 -2.47500 23.88800
N  15.55100 -0.40000 27.88100
C  15.01100 0.32100 26.86600
C  14.14300 1.26900 27.37900
C  14.30700 1.22400 28.81800
C  15.21100 0.13300 29.05500
C  13.20800 2.13800 26.55800
C  13.86900 1.79700 30.07700
O  13.05100 2.65600 30.30800
C  14.62900 0.98600 31.15300
C  15.39800 1.93000 31.89300
O  16.27500 2.63600 31.47400
O  15.04600 1.92100 33.21100
C  15.87800 2.76500 34.09600
H  19.61700 -3.99500 30.96000
H  19.17100 -4.19700 24.67200
H  14.82100 0.54800 24.78600
H  17.19000 -0.23800 32.66700
H  17.90600 -3.09500 32.84800
H  19.29300 -0.75900 33.22400
H  20.01900 -1.38400 31.71900
H  19.92300 -2.42800 33.13000
H  15.62000 -2.81700 33.11400
H  14.79500 -1.26900 33.02500
H  15.86800 -2.61300 35.22400
H  15.15800 -1.09700 35.27300
H  20.25600 -6.93900 29.59800
H  20.95200 -5.57200 30.42600
H  21.78100 -6.13700 29.12200
H  20.89800 -8.09500 27.12800
H  22.22000 -7.05400 27.14100
H  21.87400 -7.88900 25.62100
H  17.09000 -3.37200 22.97000
H  16.22800 -0.51600 23.01700
H  19.49600 -1.92700 23.19000
H  18.47300 -0.62300 22.70900
H  18.49400 -2.04200 21.70900
H  14.98500 -2.64200 22.14900
H  14.31100 -1.05600 22.48300
H  14.15700 -2.69200 24.86200
H  13.14900 -3.27500 23.41400
H  12.97000 -1.69400 24.02800
H  13.63700 2.77300 25.78200
H  12.75200 2.87200 27.22300
H  12.48900 1.41400 26.17400
H  13.91200 0.62500 31.89000
H  15.74200 2.48400 35.14000
H  15.72400 3.84400 34.06300
H  16.93700 2.76500 33.83700
Mg 37.21500 50.49500 24.96400
C  37.57800 48.55000 27.94400
C  35.59000 52.88800 26.78900
C  36.26000 52.14000 22.01500
C  38.21100 47.73700 23.10900
N  36.57100 50.59000 27.09800
C  36.88700 49.79500 28.13400
C  36.64600 50.49200 29.47000
C  35.78300 51.66200 29.07200
C  35.92300 51.74400 27.53100
C  34.36100 51.60300 29.70400
C  37.98700 50.75700 30.14900
C  37.98700 50.25700 31.56100
H  36.75400 50.44400 32.42900
N  36.22300 52.33300 24.46300
C  35.65200 53.16300 25.38100
C  34.95500 54.25200 24.73100
C  35.21400 54.09100 23.33300
C  35.90100 52.82800 23.20900
C  34.16300 55.17900 25.47700
C  34.78900 54.96700 22.14800
O  35.17200 54.70600 21.00300
C  33.82900 56.20800 22.30600
N  37.17500 49.98200 22.87200
C  36.75800 50.80900 21.90500
C  37.03900 50.18200 20.53200
C  37.97800 48.93300 20.87800
C  37.73800 48.84300 22.39100
C  35.71900 49.98400 19.71900
C  39.48900 49.05000 20.54600
C  40.08200 47.87700 19.66300
N  37.96600 48.61800 25.35700
C  38.27800 47.57800 24.55400
C  38.58900 46.39600 25.24000
C  38.46000 46.77200 26.62700
C  37.95700 48.10800 26.69200
C  38.89400 45.11800 24.65200
C  38.44900 46.30100 27.96900
O  38.81300 45.19700 28.38000
C  38.10200 47.43800 28.95000
C  36.98400 46.86600 29.70200
O  35.79700 46.78100 29.35600
O  37.48400 46.48700 30.95200
C  36.54300 45.81300 31.86900
H  35.03600 53.63900 27.35600
H  36.06900 52.50500 21.00400
H  38.75800 47.01200 22.50300
H  36.07300 49.76400 30.04600
H  36.25500 52.51300 29.56300
H  33.70200 51.66100 28.83800
H  34.12700 52.51600 30.25200
H  34.09400 50.76100 30.34300
H  38.28600 51.79200 29.97700
H  38.68600 50.18800 29.53600
H  38.67300 50.90000 32.11300
H  38.21800 49.19100 31.54100
H  34.00600 56.07300 24.87400
H  34.66500 55.48900 26.39400
H  33.21100 54.75800 25.80100
H  33.51600 56.51800 21.30900
H  34.42300 57.05800 22.64200
H  33.00600 56.06600 23.00600
H  37.59700 50.91300 19.94600
H  37.48400 48.07000 20.43300
H  34.87400 49.94100 20.40600
H  35.77100 49.05900 19.14400
H  35.54300 50.79200 19.01000
H  40.10200 49.14300 21.44300
H  39.52700 49.89800 19.86200
H  41.08100 48.11800 19.30000
H  39.44700 47.87100 18.77700
H  40.21200 46.92300 20.17300
H  38.37100 44.27100 25.09400
H  39.95700 44.87700 24.67200
H  38.72800 45.06400 23.57600
H  38.88700 47.83300 29.59400
H  35.96700 45.11400 31.26200
H  36.00400 46.44500 32.57500
H  37.18300 45.12800 32.42500

