158

Mg 45.04000 5.38600 47.58300
C  43.00400 8.01100 47.33900
C  42.22200 3.27000 47.46300
C  47.08700 2.64200 47.47500
C  47.86800 7.45500 47.55800
N  42.82500 5.59400 47.45500
C  42.25700 6.83400 47.38100
C  40.72800 6.62700 47.02300
C  40.44900 5.17600 47.30100
C  41.94300 4.64000 47.47700
C  39.49400 4.96200 48.47500
C  40.47600 7.00600 45.51200
C  39.30900 8.05500 45.52900
H  38.45400 8.06600 44.21300
N  44.67400 3.23800 47.53700
C  43.45700 2.62100 47.54600
C  43.72500 1.19300 47.42300
C  45.10500 0.97800 47.30900
C  45.66000 2.31500 47.44700
C  42.67200 0.12200 47.40300
C  45.75500 -0.34900 47.06500
O  45.11100 -1.39100 46.97600
C  47.30200 -0.50700 46.84100
N  47.21000 5.09700 47.42900
C  47.82400 3.85500 47.47800
C  49.26300 3.94800 47.39700
C  49.51800 5.51600 47.54800
C  48.11500 6.09300 47.54700
C  50.13300 2.96600 48.33000
C  50.45000 6.02900 46.35200
C  51.88600 6.56200 46.71200
N  45.41800 7.33300 47.38200
C  46.57600 8.09100 47.48900
C  46.28100 9.50400 47.32300
C  44.89400 9.49200 47.38400
C  44.41000 8.14800 47.42000
C  47.16500 10.74200 47.04800
C  43.64700 10.39200 47.24100
O  43.63100 11.61400 47.13600
C  42.37700 9.41600 47.33100
C  41.47300 9.73700 48.50400
O  41.53900 9.11100 49.56300
O  40.48800 10.46900 48.05500
C  39.28700 10.55800 48.87800
H  41.35800 2.61200 47.34700
H  47.79300 1.81000 47.52800
H  48.71900 8.13400 47.47400
H  40.14500 7.28000 47.67300
H  40.20700 4.55500 46.43800
H  39.21700 5.92700 48.89900
H  40.02000 4.42400 49.26300
H  38.63200 4.40100 48.11500
H  40.26000 6.27700 44.73100
H  41.40200 7.50800 45.23100
H  39.81600 9.00400 45.70100
H  38.59600 7.88400 46.33600
H  42.81300 -0.54800 46.55500
H  41.69100 0.54700 47.19000
H  42.77100 -0.34600 48.38200
H  47.60300 0.06400 45.96200
H  47.48400 -1.57300 46.70500
H  47.89800 -0.20100 47.70100
H  49.44100 3.64300 46.36600
H  49.83900 5.77500 48.55700
H  49.46700 2.34400 48.92900
H  50.70900 3.58800 49.01500
H  50.90100 2.38600 47.81900
H  49.88700 6.82500 45.86500
H  50.70300 5.15200 45.75600
H  51.88800 7.56300 47.14400
H  52.53400 6.58200 45.83600
H  52.32200 5.88600 47.44700
H  48.09700 10.69600 47.61100
H  46.58100 11.63300 47.27800
H  47.33000 10.92600 45.98700
H  41.85200 9.67800 46.41200
H  39.05300 11.62200 48.83900
H  39.32600 10.14100 49.88400
H  38.56600 10.15800 48.16500
Mg 39.93900 9.12000 28.91500
C  41.86100 10.25500 31.55200
C  37.65400 7.76600 31.07300
C  38.18400 8.01400 26.25700
C  42.60400 9.90900 26.76300
N  39.90600 8.91600 31.06100
C  40.71800 9.54400 31.92900
C  40.15900 9.51200 33.32800
C  38.92500 8.52100 33.19500
C  38.76700 8.43200 31.67800
C  38.96900 7.19300 33.93800
C  39.85100 10.91700 33.86100
C  39.51000 11.17500 35.34800
H  40.50300 11.96100 36.19400
N  38.16000 8.06000 28.72200
C  37.29700 7.61300 29.72300
C  36.03800 7.12500 29.20800
C  36.22400 7.20900 27.73600
C  37.56800 7.79600 27.49700
C  34.85700 6.58700 30.03100
C  35.23600 6.99200 26.71900
O  35.49700 7.09200 25.51800
C  33.75100 6.59500 27.06300
N  40.41600 8.94300 26.83100
C  39.44900 8.52000 25.86200
C  40.00100 8.41200 24.41600
C  41.42500 9.11300 24.61800
C  41.52600 9.35200 26.15600
C  39.98100 6.98200 23.87500
C  41.45300 10.59600 23.92100
C  40.73800 11.81500 24.52700
N  41.81700 10.04200 29.03000
C  42.77700 10.33000 28.11200
C  43.88000 11.02700 28.71600
C  43.63500 11.00700 30.12700
C  42.34000 10.41100 30.21500
C  45.06900 11.61400 28.01400
C  44.11900 11.29200 31.43800
O  45.18100 11.75700 31.87600
C  42.94600 10.94300 32.42400
C  43.42200 10.10900 33.50500
O  44.16900 9.16600 33.33600
O  42.96000 10.63200 34.67300
C  43.36500 10.04600 35.90500
H  36.96600 7.37200 31.82400
H  37.62300 7.78400 25.34900
H  43.45900 10.05600 26.10000
H  40.83900 9.06600 34.05400
H  38.04300 9.07600 33.51600
H  39.81700 7.22600 34.62200
H  39.05400 6.36700 33.23200
H  38.04300 7.10100 34.50500
H  38.94200 11.22900 33.34700
H  40.74900 11.47900 33.60400
H  39.56200 10.13800 35.67700
H  38.50900 11.60800 35.34000
H  34.89800 6.76400 31.10500
H  34.62500 5.53500 29.86100
H  33.97300 7.14000 29.71100
H  33.59100 5.95500 27.93100
H  33.25300 6.14200 26.20600
H  33.18700 7.49900 27.29400
H  39.46700 9.01000 23.67700
H  42.29900 8.51600 24.35500
H  39.09100 6.85000 23.25900
H  39.88300 6.42100 24.80400
H  40.91000 6.81500 23.33100
H  41.04700 10.40300 22.92900
H  42.52500 10.74800 23.79100
H  40.12000 11.55400 25.38700
H  39.96400 12.13200 23.82900
H  41.41800 12.65800 24.64700
H  44.64200 11.81600 27.03200
H  45.82600 10.83000 27.99400
H  45.46100 12.54200 28.43200
H  42.59100 11.89800 32.81200
H  42.49700 9.88100 36.54300
H  44.03700 10.79200 36.32900
H  43.92900 9.11300 35.90200

