158

Mg 24.84200 -7.32600 47.65700
C  27.50900 -5.10600 46.68700
C  23.03400 -5.94500 44.98200
C  22.74100 -9.77500 48.01100
C  27.20900 -9.00300 49.74200
N  25.25500 -5.69500 46.12500
C  26.35300 -4.94200 45.88000
C  26.04300 -3.92700 44.74800
C  24.49900 -3.89900 44.74700
C  24.22600 -5.34100 45.26400
C  23.94100 -2.84200 45.72600
C  26.68000 -4.42400 43.36300
C  27.41300 -3.31700 42.53400
H  26.86300 -3.12800 41.10000
N  23.13800 -7.74700 46.75900
C  22.57000 -7.11300 45.60500
C  21.34900 -7.82100 45.15100
C  21.15600 -8.84900 46.12900
C  22.35100 -8.83900 47.05400
C  20.49500 -7.47800 43.88900
C  19.94600 -9.81200 46.08900
O  18.98600 -9.73800 45.26000
C  19.86200 -11.01500 47.06300
N  24.93400 -9.14500 48.76600
C  23.82400 -9.93400 48.85100
C  24.10800 -11.11700 49.77600
C  25.42500 -10.70400 50.47700
C  26.01300 -9.67900 49.53000
C  22.99100 -11.70100 50.59600
C  26.41700 -11.78100 50.80500
C  27.03300 -11.74100 52.23100
N  26.90500 -7.09100 48.25800
C  27.73000 -7.83200 49.06100
C  29.00500 -7.12500 49.21000
C  28.94700 -6.03100 48.31500
C  27.66500 -6.08700 47.72500
C  30.22900 -7.52800 49.99800
C  29.65600 -4.90200 47.74500
O  30.71800 -4.37600 47.97300
C  28.76800 -4.27000 46.61600
C  28.54000 -2.82000 46.80800
O  28.15900 -2.33500 47.84500
O  28.77300 -2.27200 45.58300
C  28.38400 -0.89800 45.51800
H  22.34900 -5.50900 44.25200
H  21.97600 -10.54200 48.14300
H  27.87600 -9.28700 50.55900
H  26.39600 -2.92000 44.96900
H  24.05100 -3.73600 43.76700
H  23.32700 -2.18900 45.10600
H  24.62800 -2.18500 46.26000
H  23.21300 -3.36200 46.34800
H  25.97700 -4.96100 42.72600
H  27.39800 -5.18000 43.68300
H  28.48400 -3.48200 42.41300
H  27.18800 -2.36500 43.01300
H  19.85400 -8.25800 43.47800
H  21.26300 -7.10800 43.21000
H  19.95400 -6.55700 44.10600
H  19.96200 -10.67600 48.09400
H  20.66300 -11.69300 46.77100
H  18.85300 -11.42400 47.01200
H  24.45700 -11.91300 49.11600
H  25.14600 -10.17200 51.38600
H  22.56100 -12.46200 49.94600
H  22.23100 -10.92700 50.70800
H  23.37300 -12.06200 51.55100
H  27.13700 -11.81400 49.98700
H  25.94500 -12.76400 50.81100
H  27.87100 -11.04300 52.25000
H  27.26300 -12.73800 52.60600
H  26.32600 -11.31100 52.94000
H  30.03000 -7.34900 51.05500
H  31.12300 -7.01500 49.64100
H  30.30000 -8.60100 49.82100
H  29.29100 -4.51100 45.69000
H  27.66200 -0.74500 44.71700
H  29.24700 -0.28500 45.25800
H  27.93600 -0.50200 46.42900
Mg 25.23300 -0.05900 28.39600
C  26.82100 -0.41300 31.45300
C  22.20900 0.03600 29.95100
C  23.86600 0.27900 25.26900
C  28.34400 -0.75900 26.75500
N  24.66200 -0.16200 30.46200
C  25.45300 -0.24400 31.55500
C  24.71200 -0.08600 32.90800
C  23.18300 -0.22900 32.39800
C  23.34400 -0.13300 30.78800
C  22.43200 -1.40200 32.90300
C  24.99900 1.20100 33.78900
C  25.23600 0.86600 35.22400
H  26.05100 1.76900 36.11000
N  23.33800 0.12500 27.72900
C  22.21200 0.22400 28.52000
C  21.13800 0.48600 27.64300
C  21.61900 0.65700 26.34900
C  23.04400 0.34800 26.38800
C  19.61400 0.45800 28.14900
C  20.81400 1.12000 25.05100
O  21.31400 1.18600 23.94100
C  19.30800 1.34500 25.16400
N  26.05200 -0.10700 26.27100
C  25.23400 0.05400 25.21100
C  26.03000 -0.03000 23.86300
C  27.47100 -0.40300 24.32300
C  27.31200 -0.48300 25.86000
C  25.54800 -1.07300 22.86800
C  28.56600 0.60400 23.89600
C  28.60700 1.94100 24.64700
N  27.15100 -0.48000 28.93700
C  28.32200 -0.81200 28.19200
C  29.38200 -1.10700 29.08600
C  28.85300 -0.95400 30.38600
C  27.51100 -0.60000 30.25800
C  30.84000 -1.39100 28.77200
C  29.19000 -0.94000 31.84600
O  30.23700 -1.10900 32.47500
C  27.91500 -0.59200 32.59800
C  27.74000 -1.62400 33.66600
O  26.96000 -2.59800 33.60000
O  28.45900 -1.30800 34.80500
C  28.25300 -2.03200 36.07600
H  21.28700 -0.02200 30.53400
H  23.34600 0.37200 24.31400
H  29.24900 -1.05400 26.21900
H  24.99500 -0.95200 33.50600
H  22.62100 0.62200 32.78300
H  22.11800 -1.23800 33.93400
H  23.05600 -2.29400 32.86000
H  21.61600 -1.61800 32.21300
H  24.22900 1.97000 33.73000
H  25.92500 1.71000 33.52100
H  25.74700 -0.09000 35.33600
H  24.24100 0.77600 35.66100
H  19.11200 -0.46500 27.85800
H  19.03400 1.25800 27.69000
H  19.41400 0.45900 29.22000
H  18.97600 1.68100 24.18100
H  19.07700 2.22900 25.75800
H  18.88200 0.40100 25.50400
H  26.04000 0.94600 23.37700
H  27.82100 -1.33800 23.88600
H  26.30500 -1.69500 22.39100
H  25.07700 -0.52500 22.05100
H  24.86300 -1.79700 23.31000
H  28.49800 0.85000 22.83700
H  29.52700 0.10300 24.00800
H  29.65800 2.02400 24.92400
H  27.95400 1.95400 25.52100
H  28.42100 2.72100 23.90900
H  30.96600 -1.84200 27.78800
H  31.14800 -2.15600 29.48500
H  31.45700 -0.49500 28.83700
H  28.01800 0.32300 33.18000
H  27.56400 -1.38000 36.61200
H  29.23100 -2.14400 36.54500
H  27.80600 -3.01400 35.92300

