158

Mg -2.12300 16.97400 26.25700
C  -2.32200 14.72600 28.95700
C  -2.14200 19.51500 28.47300
C  -2.65000 19.02300 23.59200
C  -2.56500 14.20000 24.01800
N  -2.61900 17.06300 28.52900
C  -2.55800 16.04200 29.41900
C  -2.83000 16.58100 30.83000
C  -2.73400 18.11600 30.50200
C  -2.41100 18.27400 29.05300
C  -4.02100 18.89100 30.93500
C  -2.00700 16.01300 32.02100
C  -1.80600 17.02400 33.19500
H  -1.45800 16.48800 34.59700
N  -2.32400 18.97800 26.07600
C  -2.22500 19.91900 27.11100
C  -2.15300 21.25100 26.47400
C  -2.25600 21.09100 25.07400
C  -2.45600 19.63000 24.85300
C  -1.93900 22.42100 27.26500
C  -2.07200 22.11500 24.01500
O  -2.26100 21.84100 22.80000
C  -1.44900 23.36600 24.33300
N  -2.71900 16.65400 24.11000
C  -2.82600 17.70200 23.24000
C  -3.34000 17.18300 21.85500
C  -2.88200 15.66700 21.91600
C  -2.69400 15.47200 23.42200
C  -4.82800 17.38500 21.79400
C  -1.67600 15.18400 20.99700
C  -0.35200 15.20500 21.77000
N  -2.28300 14.86300 26.40500
C  -2.52400 13.92200 25.40000
C  -2.49100 12.56600 26.03400
C  -2.36900 12.91200 27.46700
C  -2.34300 14.28500 27.64100
C  -2.54400 11.25500 25.33400
C  -2.31300 12.33800 28.79000
O  -2.37300 11.16300 29.16700
C  -2.26500 13.51000 29.80000
C  -1.00900 13.41300 30.58900
O  0.10400 13.80500 30.26900
O  -1.19300 12.66600 31.73000
C  -0.12000 12.62100 32.71200
H  -2.12000 20.34400 29.18500
H  -3.00500 19.69500 22.80800
H  -2.67100 13.36400 23.32400
H  -3.87100 16.37000 31.07200
H  -1.85600 18.48100 31.03500
H  -4.71300 18.21200 31.43300
H  -4.56500 19.42200 30.15400
H  -3.80600 19.70300 31.63000
H  -0.97200 15.82700 31.73300
H  -2.41200 15.07900 32.41000
H  -2.64600 17.69500 33.37300
H  -0.96300 17.66600 32.93900
H  -2.48300 23.28100 26.87500
H  -0.86100 22.53600 27.14900
H  -2.04000 22.33200 28.34700
H  -0.53100 23.19300 24.89500
H  -2.11900 24.05500 24.84800
H  -1.33400 23.78200 23.33200
H  -2.85800 17.74200 21.05200
H  -3.74200 15.07000 21.61500
H  -5.25800 17.34600 22.79500
H  -5.38300 16.66300 21.19500
H  -5.03100 18.34200 21.31400
H  -1.61300 15.86800 20.15100
H  -2.00700 14.16500 20.79700
H  0.44400 14.91600 21.08400
H  -0.37000 14.44600 22.55200
H  -0.15500 16.22300 22.10400
H  -3.57300 10.90200 25.40800
H  -1.94700 10.48700 25.82600
H  -2.23900 11.37900 24.29500
H  -3.08400 13.52600 30.51900
H  0.77700 13.21400 32.53800
H  0.26600 11.60200 32.72500
H  -0.44400 13.02800 33.67000
Mg 24.06700 -7.16600 45.85200
C  26.35700 -4.87700 44.52600
C  21.81600 -5.99600 43.57700
C  22.32300 -9.81000 46.54900
C  26.86000 -8.65500 47.65400
N  24.19000 -5.78700 44.04300
C  25.23600 -4.94000 43.76000
C  24.98200 -4.15200 42.48500
C  23.41000 -4.24800 42.35300
C  23.09900 -5.42400 43.34100
C  22.58900 -2.93500 42.70300
C  25.79400 -4.77400 41.24200
C  26.44800 -3.62300 40.27900
H  25.85300 -3.36900 38.93800
N  22.23300 -7.76300 45.22000
C  21.43300 -7.13100 44.33200
C  20.15000 -7.77800 44.19200
C  20.21300 -8.92600 45.10100
C  21.60600 -8.93600 45.65300
C  18.95500 -7.43000 43.29000
C  19.09000 -9.86400 45.45100
O  17.97700 -9.72600 44.99000
C  19.24800 -10.93200 46.49500
N  24.61900 -9.06200 46.76600
C  23.60600 -9.87400 47.09900
C  24.03400 -10.99500 48.06300
C  25.44000 -10.57600 48.46400
C  25.65400 -9.34600 47.57500
C  23.02700 -11.30900 49.22300
C  26.48500 -11.68900 48.51500
C  27.63700 -11.64300 49.53100
N  26.16400 -6.76700 46.27600
C  27.19700 -7.48400 46.93300
C  28.40000 -6.64300 47.00400
C  28.11400 -5.68800 45.99300
C  26.74700 -5.75000 45.61100
C  29.65700 -7.01000 47.86500
C  28.74100 -4.58300 45.25000
O  29.83900 -4.03600 45.36900
C  27.62200 -4.05100 44.31200
C  27.35200 -2.60800 44.59600
O  27.24700 -1.99400 45.65300
O  27.31900 -1.90800 43.43100
C  27.04900 -0.47300 43.40700
H  21.04100 -5.65000 42.89000
H  21.73900 -10.70300 46.78000
H  27.65900 -9.07100 48.27100
H  25.21500 -3.09200 42.58900
H  23.19500 -4.57700 41.33600
H  23.26100 -2.09600 42.88500
H  21.98900 -3.02600 43.60800
H  21.95400 -2.66100 41.86100
H  25.09200 -5.34200 40.63100
H  26.57700 -5.43000 41.62000
H  27.51300 -3.84200 40.20200
H  26.33000 -2.65900 40.77400
H  18.64800 -8.35500 42.80300
H  19.27900 -6.73700 42.51400
H  18.05500 -6.98600 43.71500
H  19.46100 -10.40100 47.42200
H  20.03000 -11.64100 46.22300
H  18.37700 -11.57800 46.60900
H  24.06900 -11.90900 47.47000
H  25.37900 -10.23000 49.49600
H  22.46300 -12.19700 48.93800
H  22.26900 -10.54400 49.39300
H  23.42200 -11.62600 50.18800
H  26.86300 -11.91100 47.51700
H  26.03400 -12.63300 48.82000
H  27.75800 -12.56400 50.10000
H  27.41100 -10.83800 50.23000
H  28.50500 -11.64300 48.87200
H  29.41600 -7.19300 48.91200
H  30.30900 -6.14500 47.97500
H  30.16700 -7.90800 47.51700
H  27.87600 -3.99600 43.25300
H  26.27300 -0.22200 44.13000
H  26.75200 -0.22400 42.38800
H  27.96600 0.05500 43.66800

