158

Mg 54.55000 24.43100 44.87100
C  52.16500 26.76200 43.77900
C  52.62400 21.89200 43.80300
C  57.28000 22.40000 45.18600
C  56.48900 27.18900 46.04500
N  52.67400 24.42300 43.84200
C  51.87400 25.41800 43.41100
C  50.71200 24.84900 42.66800
C  50.64600 23.41700 43.23100
C  52.08800 23.21000 43.63600
C  49.56700 23.20100 44.34300
C  50.75600 25.00900 41.11400
C  49.30600 24.75200 40.39800
H  49.39600 24.41800 38.91500
N  54.90700 22.43500 44.48700
C  53.96400 21.54500 44.08200
C  54.54600 20.28900 43.98600
C  55.88300 20.33500 44.37400
C  56.10500 21.76500 44.70300
C  53.69600 19.08200 43.70700
C  56.80000 19.18600 44.55800
O  56.43700 18.10500 44.23000
C  58.23900 19.29600 45.05600
N  56.60200 24.75400 45.48000
C  57.53000 23.77300 45.45300
C  58.87500 24.32300 45.97600
C  58.58800 25.76700 46.36000
C  57.12200 25.94900 45.91500
C  59.58300 23.53600 47.11000
C  59.51300 26.82300 45.63800
C  60.08700 27.83600 46.52800
N  54.34400 26.51200 45.08600
C  55.16000 27.48000 45.70000
C  54.51400 28.73800 45.59500
C  53.35900 28.51000 44.88200
C  53.27200 27.12600 44.58900
C  54.95400 30.06400 46.21800
C  52.16400 29.16400 44.38200
O  51.78900 30.31100 44.41200
C  51.40500 27.97900 43.61300
C  51.26800 28.30400 42.17000
O  52.22900 28.62800 41.50000
O  50.02700 28.04100 41.64400
C  49.97000 28.34900 40.18300
H  52.01100 21.02400 43.55000
H  58.25500 21.90800 45.22100
H  57.00200 27.99900 46.56900
H  49.81000 25.37600 42.98000
H  50.42200 22.75100 42.39800
H  50.13100 22.81000 45.19000
H  48.81000 22.46600 44.07200
H  49.06400 24.09900 44.70300
H  51.41700 24.29500 40.62400
H  51.26800 25.94900 40.90800
H  48.73000 25.67400 40.47400
H  48.68300 24.00600 40.89200
H  54.20300 18.30700 43.13400
H  52.86900 19.37600 43.06000
H  53.30400 18.74300 44.66600
H  58.67800 19.90800 44.26700
H  58.58000 18.26500 45.14500
H  58.38100 19.85300 45.98200
H  59.48100 24.21500 45.07600
H  58.50700 25.82000 47.44500
H  60.02400 24.19900 47.85300
H  60.32000 22.93300 46.57800
H  58.93800 22.78900 47.57300
H  59.02400 27.29800 44.78700
H  60.39100 26.23500 45.37200
H  60.11400 28.72400 45.89700
H  61.02900 27.53700 46.98800
H  59.42000 27.99500 47.37500
H  54.47300 30.12400 47.19400
H  54.41000 30.73400 45.55300
H  56.00600 30.31400 46.35900
H  50.39000 27.80200 43.96900
H  50.67200 27.70400 39.65400
H  50.36000 29.33100 39.91200
H  48.93600 28.28900 39.84500
Mg 41.70200 41.10300 26.56400
C  40.85800 43.26700 29.13100
C  42.75700 38.83900 28.85300
C  43.11600 39.48300 23.87400
C  40.87300 43.74300 24.28800
N  41.83200 41.07100 28.83000
C  41.40300 42.08200 29.67400
C  41.55900 41.70500 31.19200
C  42.30500 40.28200 31.08500
C  42.25900 39.95900 29.54000
C  43.78700 40.15700 31.63800
C  40.14900 41.64200 31.85800
C  40.02300 42.42800 33.25300
H  39.38700 41.77500 34.46600
N  42.63200 39.34200 26.38100
C  42.84400 38.56100 27.46900
C  43.57100 37.40300 26.91300
C  43.90400 37.61700 25.49700
C  43.24400 38.88700 25.19500
C  43.88600 36.18000 27.78900
C  44.77000 36.80500 24.56400
O  45.01700 37.18900 23.39900
C  45.50200 35.54800 24.98100
N  42.15100 41.65000 24.39100
C  42.57000 40.71400 23.54600
C  42.44100 41.16600 22.09200
C  41.40000 42.35800 22.21800
C  41.50200 42.70300 23.71700
C  43.83000 41.56700 21.48300
C  39.93600 42.01300 21.73200
C  39.04600 41.23700 22.70800
N  41.14600 43.10100 26.60200
C  40.71100 43.99400 25.69000
C  40.34900 45.24200 26.26500
C  40.23300 44.93100 27.61400
C  40.75900 43.60100 27.80300
C  39.94900 46.47200 25.63000
C  39.74300 45.43600 28.86500
O  39.12500 46.42900 29.17800
C  40.28700 44.43900 29.90500
C  41.32300 45.18200 30.75600
O  42.54300 45.11900 30.63900
O  40.67300 45.94900 31.71700
C  41.39200 46.22500 32.92900
H  43.30000 38.17600 29.53000
H  43.41600 38.80000 23.07600
H  40.47500 44.51900 23.63100
H  42.12000 42.53000 31.63000
H  41.81400 39.48300 31.64000
H  44.01200 39.15000 31.99100
H  43.93300 40.83600 32.47800
H  44.58200 40.49100 30.97200
H  39.96100 40.59300 32.08600
H  39.36900 42.01100 31.19200
H  39.51500 43.36800 33.03700
H  41.04900 42.69500 33.50900
H  43.63000 35.23900 27.30200
H  43.38600 36.15400 28.75700
H  44.96600 36.17800 27.94100
H  46.08300 35.80500 25.86700
H  46.22600 35.19900 24.24500
H  44.72700 34.80400 25.16400
H  42.14700 40.40000 21.37400
H  41.70500 43.23500 21.64800
H  44.48800 41.45300 22.34400
H  43.96500 42.61900 21.23000
H  44.11200 40.95200 20.62900
H  40.06500 41.37900 20.85400
H  39.36300 42.93300 21.62000
H  39.76100 40.69800 23.32900
H  38.41100 40.49500 22.22500
H  38.39300 41.88200 23.29700
H  40.56400 46.72300 24.76600
H  40.00100 47.15200 26.48000
H  38.89000 46.36800 25.39300
H  39.49800 44.25900 30.63600
H  42.24300 46.85000 32.66000
H  41.64700 45.27100 33.39100
H  40.71700 46.70900 33.63500

