158

Mg 17.09900 52.72500 26.30800
C  18.69800 51.03100 28.99900
C  14.66700 53.85900 28.50000
C  15.68200 54.05600 23.65100
C  19.61200 51.43800 24.19800
N  16.72500 52.42500 28.46600
C  17.52000 51.65800 29.35800
C  16.94200 51.79100 30.81400
C  15.53600 52.38700 30.50400
C  15.66500 53.05500 29.11300
C  14.37100 51.43400 30.50100
C  17.84200 52.63800 31.75600
C  17.99600 51.96400 33.14600
H  17.14000 52.35500 34.34600
N  15.44100 53.86200 26.07800
C  14.58600 54.28800 27.07800
C  13.57500 55.10000 26.54100
C  13.90200 55.25700 25.14200
C  15.06600 54.35400 24.88000
C  12.46800 55.72500 27.32700
C  13.15200 55.98400 24.06800
O  13.38200 55.94900 22.87200
C  11.98300 56.83600 24.44000
N  17.57400 52.72400 24.18800
C  16.73300 53.32400 23.29600
C  17.19100 53.01100 21.82100
C  18.61900 52.40100 22.05800
C  18.60100 52.12100 23.51200
C  16.26500 52.12300 21.00100
C  19.83200 53.36500 21.68500
C  20.58300 53.01400 20.34000
N  18.75000 51.45100 26.48600
C  19.70400 51.12800 25.54300
C  20.69600 50.22300 26.18100
C  20.35000 50.24600 27.57900
C  19.18900 50.96200 27.71200
C  21.96100 49.64300 25.50000
C  20.73700 49.67500 28.92600
O  21.66700 48.97400 29.22800
C  19.69600 50.26800 29.88200
C  19.05400 49.17000 30.56000
O  18.19200 48.44600 30.04400
O  19.51800 49.06800 31.88600
C  18.96500 48.10000 32.78800
H  13.90700 54.21900 29.19700
H  15.06000 54.39800 22.82100
H  20.32600 50.94900 23.53200
H  16.74600 50.78900 31.19800
H  15.33300 53.26000 31.12500
H  13.62400 51.73200 31.23700
H  14.67400 50.41300 30.73300
H  13.77700 51.31400 29.59500
H  17.40900 53.63100 31.87200
H  18.78200 52.84900 31.24500
H  19.06800 51.96300 33.34600
H  17.77700 50.89700 33.09400
H  11.48300 55.44500 26.95400
H  12.62000 56.80400 27.31800
H  12.44700 55.34900 28.35000
H  11.12200 56.23100 24.72300
H  11.69000 57.46600 23.60000
H  12.17100 57.42400 25.33800
H  17.26900 53.92700 21.23500
H  18.74900 51.45400 21.53400
H  15.78500 51.41900 21.68000
H  16.87200 51.59900 20.26200
H  15.54100 52.76900 20.50400
H  20.58000 53.46600 22.47100
H  19.36800 54.33000 21.47900
H  20.89300 53.98600 19.95600
H  19.84900 52.47600 19.74000
H  21.47000 52.39900 20.49100
H  22.28200 50.42400 24.81100
H  21.73000 48.72000 24.96700
H  22.65600 49.37300 26.29400
H  20.22100 50.91700 30.58200
H  19.45100 47.12500 32.75100
H  17.87600 48.10500 32.73800
H  19.18100 48.36400 33.82300
Mg -2.54600 34.56100 26.64500
C  -3.55200 32.36100 29.23100
C  -0.95000 36.51200 28.94400
C  -1.87600 36.77800 24.12300
C  -4.44300 32.68100 24.42000
N  -2.17400 34.25000 28.81400
C  -2.65600 33.31900 29.71900
C  -2.44500 33.77000 31.12800
C  -1.78500 35.18200 31.02200
C  -1.66200 35.34200 29.46900
C  -2.73200 36.38200 31.69700
C  -1.83600 32.78200 32.16600
C  -2.48800 32.86900 33.58000
H  -1.60300 32.52700 34.74500
N  -1.46000 36.30300 26.54500
C  -0.81800 36.91400 27.57600
C  -0.14300 38.09700 27.10700
C  -0.42200 38.17800 25.70900
C  -1.27300 37.04400 25.35600
C  0.81200 38.98500 27.89200
C  0.12100 39.21500 24.66200
O  -0.11500 39.13500 23.45600
C  0.90900 40.41200 25.09200
N  -3.24900 34.79000 24.51800
C  -2.61600 35.67700 23.73800
C  -3.04500 35.34600 22.30600
C  -3.72700 33.99800 22.32500
C  -3.90900 33.83900 23.80000
C  -4.07500 36.42200 21.82000
C  -2.97600 32.85400 21.51100
C  -1.80900 32.05200 22.16400
N  -3.77100 32.94700 26.76800
C  -4.43500 32.25400 25.80000
C  -5.19300 31.12100 26.38900
C  -4.84000 31.14600 27.69600
C  -3.95400 32.23400 27.91200
C  -5.98300 30.09300 25.70900
C  -4.97000 30.35700 28.90300
O  -5.54100 29.27200 29.07500
C  -4.41800 31.37300 30.04400
C  -5.54000 32.10400 30.73900
O  -6.12800 33.05400 30.23600
O  -5.81200 31.49900 31.93800
C  -6.63300 32.31900 32.91800
H  -0.41800 37.15200 29.65100
H  -1.66500 37.39000 23.24400
H  -5.03700 32.03100 23.77400
H  -3.45900 33.89000 31.51100
H  -0.80200 35.24900 31.48900
H  -3.71300 35.95600 31.90900
H  -2.75700 37.25900 31.05000
H  -2.22900 36.59900 32.63900
H  -0.76100 32.93700 32.25100
H  -1.89200 31.78800 31.72200
H  -3.07700 31.95200 33.56500
H  -3.13800 33.73300 33.71600
H  1.20000 38.44500 28.75600
H  0.28100 39.89300 28.18000
H  1.73200 39.16800 27.33700
H  1.18900 41.17000 24.36000
H  1.94800 40.10500 25.20400
H  0.33300 40.70200 25.97100
H  -2.15600 35.31600 21.67600
H  -4.79100 33.99600 22.08900
H  -4.34700 37.14100 22.59200
H  -5.04400 36.09700 21.43900
H  -3.67500 37.10000 21.06600
H  -2.62100 33.16000 20.52700
H  -3.67900 32.04000 21.33500
H  -0.99200 32.22400 21.46400
H  -1.90800 30.97900 22.33400
H  -1.56400 32.51500 23.12000
H  -5.80500 30.05700 24.63400
H  -6.98300 30.44500 25.96000
H  -5.85800 29.06400 26.04500
H  -3.84900 30.73300 30.71700
H  -5.97200 32.96900 33.49200
H  -7.05300 31.51100 33.51700
H  -7.41400 32.84700 32.37000

