158

Mg 24.73300 -5.54700 45.42400
C  26.81300 -3.10300 43.90900
C  22.18100 -4.50200 43.42000
C  23.00600 -8.31200 46.29800
C  27.55500 -6.73500 47.19500
N  24.57500 -3.98500 43.86400
C  25.50700 -3.06400 43.45500
C  24.97100 -2.25200 42.25200
C  23.36800 -2.40700 42.39500
C  23.37200 -3.72800 43.26800
C  22.63800 -1.16600 43.12600
C  25.56400 -2.88700 40.86000
C  26.47900 -1.93200 39.97900
H  26.08200 -2.03400 38.51500
N  22.90000 -6.29100 44.97400
C  21.98200 -5.75900 44.10700
C  20.82100 -6.53100 44.12500
C  20.92800 -7.60000 45.03100
C  22.28300 -7.40400 45.58100
C  19.65100 -6.05200 43.25700
C  19.92300 -8.57400 45.38000
O  18.87000 -8.69100 44.71600
C  20.10500 -9.41800 46.64100
N  25.25700 -7.31900 46.56900
C  24.36700 -8.37900 46.71000
C  25.00200 -9.50200 47.51800
C  26.31700 -8.87000 48.02700
C  26.38300 -7.51700 47.27700
C  24.20800 -10.08800 48.72700
C  27.57000 -9.82600 47.85800
C  28.30600 -10.14100 49.11300
N  26.78200 -5.02400 45.61100
C  27.77500 -5.60700 46.37000
C  29.02500 -4.96600 46.10200
C  28.71900 -3.95600 45.18100
C  27.33300 -4.06900 44.89600
C  30.31100 -5.33100 46.71600
C  29.26200 -2.83200 44.36700
O  30.32100 -2.26400 44.39100
C  28.02400 -2.27200 43.50200
C  27.84300 -0.83400 43.71200
O  27.27400 -0.34000 44.64300
O  28.28500 -0.14700 42.57200
C  28.00600 1.25900 42.40500
H  21.33600 -4.10500 42.85400
H  22.50100 -9.18800 46.71100
H  28.42800 -6.95600 47.81300
H  25.03300 -1.18300 42.45500
H  22.95600 -2.58800 41.40200
H  22.05700 -1.45700 44.00200
H  21.92100 -0.65300 42.48600
H  23.36700 -0.44400 43.49400
H  24.79900 -3.23000 40.16400
H  26.15100 -3.75600 41.15800
H  27.47800 -2.33200 40.15000
H  26.34700 -0.90100 40.30900
H  18.89300 -6.80800 43.05300
H  20.07300 -5.66600 42.32900
H  19.18000 -5.27000 43.85100
H  20.82900 -10.21200 46.46000
H  19.14500 -9.79200 46.99600
H  20.55400 -8.79300 47.41300
H  25.25800 -10.33000 46.85700
H  26.20800 -8.56300 49.06700
H  23.18300 -9.72900 48.81800
H  24.71500 -10.08200 49.69200
H  24.05200 -11.14100 48.49500
H  28.34800 -9.39400 47.22800
H  27.24300 -10.78000 47.44500
H  27.73200 -9.65800 49.90300
H  29.18000 -9.51400 48.94000
H  28.46500 -11.20500 49.29100
H  31.01200 -4.53300 46.47000
H  30.65100 -6.29800 46.34500
H  30.25500 -5.36500 47.80400
H  28.07300 -2.37600 42.41800
H  27.13000 1.53900 42.99000
H  27.84200 1.48500 41.35200
H  28.86000 1.85700 42.72400
Mg 42.41000 41.19200 26.35100
C  41.55100 43.78700 28.53000
C  43.38300 39.34300 29.20600
C  43.44400 38.84100 24.31100
C  41.87500 43.30700 23.58800
N  42.45500 41.57300 28.69000
C  41.95300 42.69200 29.28800
C  41.85000 42.58100 30.78800
C  42.44700 41.10200 31.02600
C  42.74600 40.60300 29.59700
C  43.69300 41.02400 32.00300
C  40.34300 42.50600 31.25000
C  40.01800 43.23300 32.56600
H  39.34700 42.52500 33.70700
N  43.43300 39.40700 26.72800
C  43.72400 38.81400 27.94500
C  44.32500 37.48000 27.65000
C  44.20000 37.25900 26.27300
C  43.70600 38.50000 25.70000
C  44.78200 36.52100 28.71400
C  44.43000 35.97500 25.42500
O  44.30900 35.93500 24.21400
C  44.82400 34.69700 26.12200
N  42.65600 41.16900 24.24600
C  43.01400 40.00600 23.65700
C  42.92700 40.12500 22.16700
C  42.56000 41.53400 21.88400
C  42.37000 42.10300 23.36800
C  44.23900 39.70100 21.39200
C  41.30700 41.72700 21.02200
C  41.21900 42.84500 19.94600
N  41.61400 43.00700 26.08600
C  41.56600 43.78900 24.93000
C  41.06600 45.15200 25.25600
C  41.02300 45.14400 26.67800
C  41.42100 43.87300 27.11400
C  40.87700 46.23500 24.26200
C  40.87200 46.05200 27.79400
O  40.69600 47.27000 27.79200
C  41.07300 45.12400 29.07500
C  42.13200 45.87300 29.88400
O  43.30300 45.89300 29.67300
O  41.45000 46.50500 30.92800
C  42.21700 46.94000 32.05400
H  43.50300 38.65000 30.04200
H  43.76300 38.07100 23.60700
H  41.64700 44.00500 22.77900
H  42.44800 43.41100 31.16300
H  41.67500 40.43900 31.41700
H  43.51800 40.20000 32.69500
H  43.92800 41.86400 32.65700
H  44.65100 40.73700 31.56900
H  40.12100 41.43900 31.22100
H  39.66300 42.80800 30.45400
H  39.34200 43.99800 32.18300
H  40.88300 43.68900 33.04900
H  44.06100 35.70400 28.75100
H  44.92400 37.08100 29.63900
H  45.72300 36.13500 28.32300
H  44.21700 34.46300 26.99600
H  45.89200 34.72500 26.33900
H  44.58200 33.91500 25.40300
H  42.18900 39.44500 21.74100
H  43.39200 42.05200 21.40700
H  44.65000 40.43700 20.70000
H  43.90700 38.91500 20.71400
H  44.99500 39.23000 22.02100
H  40.43500 41.90800 21.65100
H  41.04900 40.89100 20.37100
H  42.22100 43.16100 19.65700
H  40.64700 43.63200 20.43700
H  40.79500 42.40300 19.04400
H  40.70400 45.77600 23.28800
H  41.75200 46.87600 24.15500
H  39.97800 46.79700 24.51300
H  40.18100 45.05500 29.69800
H  43.28000 47.15300 31.93800
H  42.02800 46.19400 32.82600
H  41.71700 47.83900 32.41400

