158

Mg -1.56900 17.69100 27.11600
C  -1.93700 15.41200 29.80900
C  -1.59300 20.24300 29.32800
C  -1.54800 19.64200 24.47200
C  -2.03600 14.86900 24.96400
N  -1.90100 17.84600 29.31700
C  -1.90000 16.81600 30.24000
C  -2.09600 17.37400 31.73000
C  -2.21100 18.92700 31.49000
C  -1.91500 19.03300 29.97500
C  -3.65700 19.43400 31.86500
C  -0.85200 17.00700 32.63700
C  -0.81600 17.75000 33.95100
H  -0.28000 16.93900 35.17600
N  -1.49300 19.62500 26.97000
C  -1.40300 20.56500 27.98200
C  -1.29400 21.85100 27.41300
C  -1.22000 21.69900 25.99600
C  -1.44800 20.25700 25.73300
C  -1.26000 23.14200 28.26300
C  -0.96500 22.82200 25.01400
O  -0.94400 22.56200 23.77500
C  -0.69600 24.28500 25.40200
N  -1.77900 17.29100 25.01000
C  -1.69900 18.26400 24.11300
C  -1.83800 17.72900 22.69800
C  -1.54100 16.21900 22.86400
C  -1.78900 16.09600 24.38100
C  -3.25700 18.01600 22.14600
C  -0.16000 15.66100 22.50300
C  1.05700 16.38900 23.01400
N  -1.88800 15.59100 27.26100
C  -2.18700 14.60500 26.33200
C  -2.41000 13.31300 26.96100
C  -2.29700 13.59500 28.33200
C  -1.93500 14.98400 28.46800
C  -2.74300 12.04900 26.32700
C  -2.32600 12.97600 29.59900
O  -2.53100 11.84400 29.98700
C  -2.10300 14.10600 30.68400
C  -0.87500 13.74100 31.47800
O  0.28100 14.04900 31.18700
O  -1.19500 13.07900 32.60100
C  -0.03200 12.85100 33.45400
H  -1.57700 21.07600 30.03500
H  -1.50700 20.30900 23.60900
H  -2.08400 14.17400 24.12300
H  -2.98700 16.91200 32.15600
H  -1.60100 19.45400 32.22400
H  -4.25700 18.78400 32.50100
H  -4.18900 19.59100 30.92600
H  -3.52100 20.37900 32.39100
H  0.02600 17.17900 32.01400
H  -0.86100 15.94800 32.89200
H  -1.77700 18.19800 34.20000
H  -0.10800 18.57800 33.91700
H  -2.20900 23.65900 28.11800
H  -0.39900 23.77500 28.04500
H  -1.16800 22.94500 29.33100
H  0.29400 24.38700 25.84600
H  -1.43600 24.77100 26.03800
H  -0.65700 24.84300 24.46700
H  -1.03000 18.19100 22.13000
H  -2.24800 15.69500 22.22100
H  -3.62300 18.89100 22.68400
H  -3.95900 17.19200 22.27400
H  -3.12400 18.21400 21.08300
H  -0.00900 15.58400 21.42600
H  -0.17000 14.62300 22.83700
H  1.59400 16.55400 22.08000
H  1.56800 15.80700 23.78000
H  0.77100 17.29600 23.54700
H  -2.99100 12.23500 25.28200
H  -3.54800 11.63300 26.93300
H  -1.87100 11.39600 26.35600
H  -2.96600 14.17500 31.34700
H  0.07700 13.72900 34.09100
H  0.95500 12.60800 33.06200
H  -0.43400 12.03800 34.05900
Mg 29.99900 58.19600 40.00800
C  27.03400 56.37600 39.28900
C  31.77900 55.88800 38.16400
C  32.64700 60.25600 39.94300
C  28.00800 60.82800 40.97500
N  29.41800 56.31200 38.94200
C  28.18200 55.71700 38.77100
C  28.24900 54.36600 38.05500
C  29.77500 54.21000 37.92100
C  30.36200 55.58800 38.29500
C  30.34600 52.99700 38.70200
C  27.60900 54.22100 36.60600
C  27.18000 55.49100 35.90200
H  27.56900 55.59900 34.40100
N  32.00800 57.94100 39.43700
C  32.55300 56.92500 38.70400
C  33.93600 57.08600 38.54000
C  34.26000 58.35000 39.07400
C  32.96200 58.91900 39.54800
C  34.90200 56.08600 37.93500
C  35.67700 58.99600 39.10500
O  36.65000 58.47400 38.60700
C  35.86400 60.29300 39.84700
N  30.27700 60.20700 40.31700
C  31.50000 60.77000 40.39800
C  31.40500 62.25400 40.95500
C  29.88500 62.35600 41.23000
C  29.36100 61.05900 40.76900
C  32.39300 62.52700 42.13200
C  29.25200 63.63600 40.52000
C  28.12300 64.36500 41.24500
N  27.87800 58.57000 40.28000
C  27.24400 59.67900 40.67600
C  25.84900 59.40700 40.84400
C  25.72900 58.08500 40.34500
C  27.01100 57.67400 39.88400
C  24.72400 60.30700 41.44300
C  24.82200 57.00800 40.12400
O  23.64000 56.90500 40.33900
C  25.63200 55.92000 39.34600
C  25.42100 54.59800 39.83700
O  25.94300 54.09100 40.82100
O  24.54000 53.93200 38.99900
C  23.87700 52.72500 39.58500
H  32.38700 55.23400 37.53500
H  33.35800 61.06300 40.12900
H  27.39000 61.69700 41.20600
H  27.76000 53.62100 38.68300
H  30.12200 54.10400 36.89300
H  31.07800 52.36700 38.19800
H  29.58900 52.28400 39.02900
H  30.55800 53.34600 39.71300
H  26.71800 53.67300 36.91200
H  28.17000 53.58600 35.92100
H  27.45300 56.42400 36.39500
H  26.09100 55.48100 35.84900
H  35.57500 55.68400 38.69200
H  35.59500 56.52000 37.21400
H  34.49300 55.21700 37.41800
H  36.92600 60.46700 40.02500
H  35.26200 60.22800 40.75300
H  35.43200 61.08000 39.22800
H  31.62000 62.98700 40.17700
H  29.65800 62.47000 42.29000
H  31.92100 63.12100 42.91500
H  33.30500 62.99200 41.75900
H  32.70600 61.52300 42.42100
H  28.86700 63.27500 39.56600
H  29.89100 64.49400 40.31000
H  28.40000 65.40600 41.41000
H  28.14400 64.01800 42.27800
H  27.17100 64.11400 40.77800
H  23.85700 59.67400 41.62700
H  24.48500 61.13300 40.77300
H  25.17600 60.73100 42.34000
H  25.12600 55.87900 38.38100
H  24.60000 52.39900 40.33200
H  23.74900 51.86200 38.93100
H  22.89400 52.98800 39.97700

