158

Mg 41.12100 9.42900 29.72100
C  43.10800 10.76100 32.31000
C  38.95200 8.29900 32.06700
C  39.64500 7.78500 27.21200
C  43.86600 10.13300 27.47400
N  41.23200 9.34200 31.94400
C  42.00400 10.13300 32.76300
C  41.59700 9.91300 34.21000
C  40.27400 9.05300 34.12600
C  40.12500 8.86200 32.63500
C  40.23300 7.73500 34.96600
C  41.44100 11.29800 34.97600
C  40.59200 11.32000 36.26800
H  41.06000 12.27500 37.44400
N  39.46200 8.33400 29.59900
C  38.68500 7.92900 30.69700
C  37.52400 7.12200 30.22300
C  37.63400 7.08000 28.80100
C  38.99000 7.75400 28.47200
C  36.50800 6.48800 31.19000
C  36.66600 6.46600 27.83600
O  36.89700 6.40300 26.65100
C  35.30500 6.13600 28.30700
N  41.74300 8.82700 27.62000
C  40.91600 8.21500 26.78400
C  41.39300 8.38800 25.30600
C  42.63000 9.26100 25.48700
C  42.73500 9.46200 26.98400
C  41.51500 7.08400 24.44700
C  42.67700 10.50300 24.61600
C  43.83300 10.54600 23.58700
N  43.12000 10.25000 29.77200
C  44.07300 10.51800 28.79900
C  45.19800 11.17800 29.42000
C  44.83400 11.32000 30.76600
C  43.55300 10.74900 30.93800
C  46.44300 11.64900 28.73300
C  45.34300 11.78500 32.00900
O  46.41600 12.29400 32.33600
C  44.24700 11.41100 33.08700
C  44.89100 10.49300 34.03000
O  44.94800 9.28100 33.84500
O  45.32600 11.03100 35.17300
C  45.86100 10.07000 36.24300
H  38.17200 8.16500 32.82000
H  39.08000 7.26800 26.43300
H  44.64000 10.52300 26.81000
H  42.36900 9.38500 34.77100
H  39.42000 9.66900 34.40700
H  40.10100 6.85300 34.33900
H  39.44800 7.82600 35.71700
H  41.19000 7.68400 35.48500
H  41.26100 12.09600 34.25700
H  42.42300 11.45400 35.42400
H  40.37800 10.32600 36.66200
H  39.61400 11.70300 35.97700
H  36.79600 6.58700 32.23700
H  36.39100 5.45700 30.85900
H  35.53600 6.97400 31.11300
H  34.98800 6.91900 28.99500
H  35.21200 5.14200 28.74400
H  34.58200 6.12600 27.49100
H  40.58400 8.89400 24.77800
H  43.50700 8.68100 25.19800
H  42.31400 6.41100 24.75700
H  41.60200 7.40000 23.40700
H  40.55700 6.61200 24.66800
H  42.80600 11.40700 25.21100
H  41.74300 10.62900 24.06900
H  44.70200 11.09500 23.94800
H  43.57000 10.96400 22.61500
H  44.25800 9.58400 23.30000
H  46.66400 10.93700 27.93800
H  47.19500 11.52400 29.51100
H  46.36300 12.64700 28.30200
H  43.85300 12.30800 33.56400
H  46.51200 10.73100 36.81500
H  46.52700 9.34800 35.76900
H  45.08600 9.60800 36.85500
Mg -1.60400 35.25300 27.01800
C  -3.42600 33.62600 29.69800
C  -0.48400 37.40500 29.34900
C  -0.05000 36.91000 24.50300
C  -3.06200 33.15700 24.75700
N  -2.14300 35.53600 29.21900
C  -2.78900 34.78000 30.16500
C  -2.50100 35.20800 31.55800
C  -1.64700 36.47100 31.36700
C  -1.36600 36.43500 29.89000
C  -2.44600 37.69400 31.73200
C  -1.64400 33.99300 32.25000
C  -2.25700 33.38300 33.54700
H  -1.48400 33.47400 34.92200
N  -0.53300 37.05400 26.89100
C  -0.11600 37.73700 27.99700
C  0.69200 38.88000 27.48400
C  0.78900 38.80900 26.05300
C  0.07800 37.56600 25.76300
C  1.35900 39.85600 28.36000
C  1.41500 39.79700 25.01900
O  1.30500 39.60300 23.82600
C  2.32900 40.80500 25.49800
N  -1.57500 35.02900 24.95600
C  -0.76600 35.78800 24.07500
C  -0.60200 35.13100 22.73100
C  -1.53900 33.83800 22.83100
C  -2.09000 34.03200 24.26100
C  -0.90300 35.99600 21.51900
C  -0.83600 32.43700 22.70800
C  0.44400 32.11900 23.51000
N  -2.96200 33.70900 27.13100
C  -3.45500 32.94800 26.10600
C  -4.12700 31.79000 26.67200
C  -4.08500 31.96500 28.07400
C  -3.41800 33.14300 28.30600
C  -4.66300 30.59200 25.81900
C  -4.48000 31.42600 29.38200
O  -5.12200 30.40600 29.65000
C  -4.06500 32.49700 30.47200
C  -5.17100 32.94300 31.32800
O  -5.79600 33.99000 31.29400
O  -5.28700 32.03700 32.33200
C  -6.04000 32.39100 33.54900
H  -0.03500 38.12400 30.03700
H  0.66000 37.33100 23.78700
H  -3.38300 32.44700 23.99100
H  -3.37800 35.18500 32.20600
H  -0.70000 36.42900 31.90500
H  -3.46600 37.42800 31.45500
H  -2.07900 38.51400 31.11500
H  -2.34400 37.94300 32.78800
H  -0.71200 34.48100 32.53700
H  -1.45800 33.16100 31.57100
H  -2.31600 32.31000 33.36400
H  -3.27000 33.72700 33.75700
H  2.41300 39.58300 28.40200
H  1.11600 39.72400 29.41400
H  1.07300 40.83500 27.97500
H  3.08500 40.37500 26.15600
H  1.78000 41.56400 26.05400
H  2.82700 41.24100 24.63100
H  0.44000 34.82600 22.63300
H  -2.28000 33.73400 22.03900
H  -1.45900 35.41400 20.78400
H  -0.06000 36.46300 21.00900
H  -1.55800 36.83000 21.76900
H  -0.54900 32.25900 21.67100
H  -1.64400 31.71000 22.79100
H  0.58000 31.11100 23.90300
H  0.63100 32.86500 24.28200
H  1.25900 32.36700 22.83000
H  -3.96400 30.33100 25.02500
H  -5.62400 30.78600 25.34200
H  -4.84500 29.76000 26.49900
H  -3.42500 31.89700 31.11800
H  -5.68000 33.29700 34.03800
H  -5.81200 31.59200 34.25400
H  -7.10000 32.27900 33.32400

