158

Mg 41.24700 8.89700 29.96700
C  43.01200 10.34400 32.62100
C  38.82400 7.89100 32.12700
C  39.73500 7.34000 27.27800
C  43.87100 9.89100 27.81500
N  41.00200 9.06400 32.14700
C  41.78200 9.78900 33.01400
C  41.15600 9.91700 34.40000
C  39.74700 9.22100 34.18800
C  39.79000 8.72200 32.70400
C  39.33900 8.17100 35.26700
C  40.99400 11.37100 34.85400
C  40.17200 11.56500 36.18400
H  40.89300 12.29600 37.31300
N  39.63600 7.72900 29.77100
C  38.67400 7.47700 30.76400
C  37.49800 6.83800 30.18100
C  37.71000 6.82800 28.78300
C  39.10800 7.30900 28.55600
C  36.25100 6.44300 30.93100
C  36.71000 6.41400 27.60600
O  36.96600 6.69800 26.41500
C  35.26000 6.02600 27.99800
N  41.72000 8.57800 27.79900
C  40.91900 7.96600 26.92300
C  41.46000 8.02700 25.44800
C  42.74600 8.87500 25.68100
C  42.80500 9.17600 27.19000
C  41.67800 6.67200 24.68600
C  42.79500 10.05100 24.81700
C  42.30400 11.43700 25.33500
N  43.10000 9.90900 30.16800
C  44.00000 10.25300 29.19400
C  45.11500 10.92100 29.80500
C  44.81200 10.92600 31.21100
C  43.52400 10.39900 31.34700
C  46.40700 11.35700 29.11700
C  45.30100 11.20700 32.50000
O  46.43500 11.47900 32.93800
C  44.08900 10.96300 33.44000
C  44.51500 10.21700 34.70100
O  44.95300 9.05000 34.65900
O  44.49700 11.11900 35.78000
C  44.94800 10.57300 37.07900
H  37.94400 7.77000 32.76200
H  39.21400 6.92500 26.41200
H  44.72800 10.02300 27.15100
H  41.67800 9.29900 35.13000
H  39.00700 10.01800 34.26400
H  39.91100 8.42600 36.15900
H  39.58300 7.18000 34.88400
H  38.28000 8.18500 35.52600
H  40.68900 12.00500 34.02200
H  42.01800 11.64600 35.11000
H  39.70500 10.64700 36.54200
H  39.23200 12.09100 36.01400
H  36.10400 5.36300 30.90400
H  35.33300 6.78700 30.45500
H  36.21700 6.80800 31.95700
H  35.20700 5.20000 28.70800
H  34.90500 5.58000 27.06900
H  34.72600 6.94800 28.22900
H  40.70300 8.71400 25.06900
H  43.63100 8.28500 25.44000
H  41.82900 5.78900 25.30600
H  42.54400 6.64600 24.02500
H  40.76800 6.52800 24.10400
H  42.22300 9.79300 23.92600
H  43.80300 10.17800 24.42200
H  41.64800 11.80400 24.54600
H  43.10300 12.16800 25.45400
H  41.60000 11.39000 26.16600
H  46.49400 12.38500 29.46700
H  46.19400 11.19800 28.05900
H  47.25800 10.75800 29.44300
H  43.72800 11.94300 33.75100
H  44.17200 10.78800 37.81400
H  45.84300 11.12300 37.37000
H  45.22500 9.52000 37.12600
Mg -12.12000 16.99700 41.83600
C  -9.05700 15.35400 41.33900
C  -10.87500 19.81800 40.35400
C  -15.35000 18.13400 41.45700
C  -13.47900 14.01200 43.06500
N  -10.21100 17.49800 40.92100
C  -9.06800 16.70200 40.88800
C  -7.93300 17.45200 40.23500
C  -8.40300 18.92200 40.27200
C  -9.94900 18.74700 40.43500
C  -7.77900 19.81200 41.32800
C  -7.71500 16.84000 38.78700
C  -6.23700 16.90400 38.23500
H  -5.82500 17.78000 37.01200
N  -13.02100 18.84800 41.13400
C  -12.31500 19.83000 40.63500
C  -13.21300 20.91800 40.41800
C  -14.54100 20.50800 40.72600
C  -14.39600 19.08700 41.06400
C  -12.69000 22.29600 39.97700
C  -15.73900 21.46500 40.84100
O  -15.67900 22.64700 40.47200
C  -17.14500 20.97000 41.31500
N  -14.19900 16.14700 42.09900
C  -15.31600 16.90500 42.01700
C  -16.54400 16.15600 42.52900
C  -15.91600 14.91900 43.20800
C  -14.36600 15.00400 42.78500
C  -17.44100 16.96500 43.50100
C  -16.65700 13.58100 42.93800
C  -17.30500 12.70800 43.95700
N  -11.47100 15.09600 42.15100
C  -12.13300 13.96100 42.71500
C  -11.24900 12.85700 42.78000
C  -10.02900 13.35800 42.24700
C  -10.21300 14.70300 41.87400
C  -11.56900 11.58800 43.42000
C  -8.61500 13.06700 41.91300
O  -7.95500 12.02400 42.00400
C  -7.89200 14.33600 41.28200
C  -6.79000 14.76600 42.13200
O  -6.80300 14.76800 43.32000
O  -5.79200 15.20700 41.33000
C  -4.72800 15.91300 42.05700
H  -10.37000 20.73800 40.05000
H  -16.37400 18.51400 41.46900
H  -14.03000 13.19200 43.52900
H  -7.07000 17.23200 40.86300
H  -8.18100 19.40400 39.31900
H  -7.24200 20.59000 40.78600
H  -7.07500 19.25800 41.94800
H  -8.59000 20.29100 41.87800
H  -8.44900 17.35900 38.17200
H  -8.03400 15.80800 38.64400
H  -5.85200 15.90100 38.05100
H  -5.64300 17.20900 39.09600
H  -13.10600 23.17300 40.47300
H  -12.89600 22.38800 38.91100
H  -11.61000 22.39900 40.07600
H  -17.87000 21.77900 41.40300
H  -16.97600 20.51100 42.28900
H  -17.71600 20.31200 40.66000
H  -17.09900 15.84600 41.64400
H  -15.93800 14.99200 44.29500
H  -17.28900 18.04200 43.57200
H  -17.37900 16.57000 44.51500
H  -18.46800 16.81100 43.17100
H  -15.97600 12.90900 42.41500
H  -17.45600 13.67300 42.20200
H  -17.59500 13.37800 44.76500
H  -16.68800 11.94600 44.43400
H  -18.33400 12.37300 43.82500
H  -11.11600 10.89100 42.71500
H  -12.65700 11.57300 43.48500
H  -11.08100 11.45200 44.38500
H  -7.58600 14.14500 40.25400
H  -4.76600 16.96600 41.77800
H  -3.74900 15.44300 41.96000
H  -4.89500 15.96000 43.13300

