158

Mg 55.30600 23.76000 44.67200
C  52.81900 26.13300 43.52100
C  53.17300 21.28000 43.76000
C  57.91100 21.67200 44.82900
C  57.40600 26.55300 45.28000
N  53.28400 23.75200 43.77300
C  52.38100 24.85000 43.52100
C  51.02000 24.26900 43.08200
C  51.07200 22.82900 43.56500
C  52.60000 22.56900 43.69200
C  50.22100 22.54500 44.83900
C  50.83000 24.43200 41.50900
C  49.41000 24.72100 41.01700
H  48.89900 24.03400 39.75300
N  55.56700 21.67600 44.32200
C  54.54400 20.80700 43.98600
C  55.06900 19.44500 43.86100
C  56.47400 19.56400 44.22100
C  56.69500 20.96500 44.53900
C  54.35300 18.15600 43.52400
C  57.51500 18.52000 44.10000
O  57.12400 17.45200 43.71800
C  58.98100 18.67700 44.61500
N  57.29300 24.07800 44.91200
C  58.22200 23.00100 45.03600
C  59.66800 23.57600 45.21600
C  59.52300 25.05500 45.25300
C  57.92600 25.26900 45.13600
C  60.37300 22.95300 46.38400
C  60.27800 25.84100 44.07700
C  61.66700 26.45400 44.49500
N  55.17600 25.91500 44.52100
C  56.07900 26.94100 44.91500
C  55.39000 28.20900 44.89400
C  54.18300 27.91200 44.22900
C  54.10800 26.52500 44.02600
C  55.84700 29.54100 45.36200
C  52.98600 28.50700 43.60900
O  52.77500 29.70000 43.58300
C  52.07200 27.42700 43.12000
C  51.95900 27.55200 41.64000
O  52.84900 27.50600 40.78800
O  50.58900 27.81200 41.40800
C  50.26000 28.10600 39.97100
H  52.54900 20.39000 43.65300
H  58.79500 21.07300 45.05800
H  58.08400 27.32700 45.64700
H  50.25300 24.86700 43.57400
H  50.60100 22.21900 42.79400
H  50.81900 22.16400 45.66700
H  49.46900 21.76500 44.71300
H  49.65600 23.42500 45.14800
H  51.06300 23.49900 40.99600
H  51.50000 25.20400 41.13100
H  49.33400 25.80200 40.90400
H  48.71500 24.60800 41.84900
H  53.29400 18.39200 43.42200
H  54.54500 17.50000 44.37300
H  54.64600 17.68200 42.58700
H  59.45700 19.24900 43.81800
H  59.43600 17.68700 44.58400
H  58.92000 19.01500 45.64900
H  60.24200 23.32900 44.32300
H  59.76900 25.52600 46.20400
H  60.33700 23.62800 47.23900
H  61.38200 22.92500 45.97300
H  59.96200 21.98400 46.66600
H  59.66500 26.66700 43.71800
H  60.56600 25.29000 43.18200
H  62.40300 25.71000 44.19000
H  61.73300 26.68800 45.55800
H  61.93600 27.34200 43.92400
H  55.20600 29.74000 46.22100
H  55.69200 30.28400 44.58000
H  56.89900 29.44400 45.62900
H  51.13800 27.56200 43.66400
H  49.45500 28.83800 39.91100
H  49.82200 27.23800 39.47900
H  51.12400 28.44100 39.39600
Mg -2.20100 35.33700 26.37500
C  -3.89800 33.99100 29.08400
C  -1.16200 37.91000 28.48100
C  -0.55400 36.63700 23.68800
C  -3.88100 33.06400 24.26000
N  -2.46700 35.83200 28.59800
C  -3.12600 35.06600 29.49400
C  -2.91900 35.45700 30.98100
C  -2.08100 36.79200 30.74600
C  -1.91300 36.92200 29.17800
C  -2.46700 38.14700 31.43300
C  -2.18900 34.33700 31.88400
C  -1.56100 34.79700 33.18700
H  -2.25200 34.26500 34.43600
N  -0.98900 36.95100 26.08100
C  -0.75800 37.94100 27.07900
C  0.17000 38.89900 26.54000
C  0.47900 38.53800 25.19600
C  -0.39200 37.35700 24.88200
C  0.91300 40.00500 27.36000
C  1.39200 39.22800 24.18100
O  1.53400 38.85600 23.00100
C  2.16900 40.40000 24.56300
N  -2.06300 34.73200 24.25500
C  -1.30600 35.42800 23.38900
C  -1.18000 34.60900 22.12700
C  -2.39300 33.54500 22.18800
C  -2.93100 33.84100 23.64200
C  -1.14200 35.61000 20.88500
C  -2.08000 31.97100 22.00700
C  -2.81800 31.23600 20.88300
N  -3.58600 33.87500 26.53900
C  -4.23200 33.05800 25.59200
C  -5.21300 32.20800 26.26400
C  -5.07100 32.60900 27.61500
C  -4.17200 33.63300 27.73200
C  -6.17200 31.34300 25.58600
C  -5.62300 32.18800 28.98200
O  -6.34000 31.22500 29.21900
C  -4.74000 32.97900 29.93700
C  -5.77800 33.51800 30.90500
O  -6.47400 34.42500 30.74200
O  -5.76800 32.73700 32.02800
C  -6.81200 33.11500 33.03400
H  -0.84300 38.76100 29.08700
H  -0.05100 37.07000 22.82100
H  -4.31200 32.42800 23.48400
H  -3.83100 35.72400 31.51500
H  -1.13200 36.65300 31.26400
H  -1.58600 38.65000 31.83000
H  -3.16900 38.01000 32.25500
H  -3.04200 38.65500 30.65900
H  -1.49100 33.78900 31.25100
H  -2.97400 33.65900 32.22000
H  -1.71300 35.87400 33.11000
H  -0.50000 34.59600 33.33600
H  1.97500 39.81900 27.19800
H  0.86200 39.80500 28.43100
H  0.70100 41.04600 27.11600
H  2.98400 39.94600 25.12800
H  1.67900 41.14400 25.19100
H  2.84700 40.79200 23.80500
H  -0.23600 34.09600 22.30600
H  -3.22200 33.82700 21.54000
H  -1.76900 36.49900 20.95200
H  -1.52800 35.02400 20.05100
H  -0.09900 35.87700 20.71100
H  -2.19500 31.46300 22.96500
H  -1.06000 31.81100 21.65900
H  -3.73900 30.67500 21.04900
H  -2.15000 30.50900 20.42100
H  -3.01800 31.99700 20.12900
H  -6.49700 31.93600 24.73100
H  -6.90700 31.31200 26.38900
H  -5.63300 30.43400 25.31600
H  -4.05900 32.35900 30.52100
H  -6.66900 34.12900 33.40900
H  -6.83000 32.41800 33.87100
H  -7.79700 32.98100 32.58600

