158

Mg -9.26600 18.43000 42.54400
C  -5.84600 18.10700 42.65200
C  -8.92800 21.79400 41.59100
C  -12.58700 18.52100 41.62100
C  -9.57700 14.95500 42.72400
N  -7.64900 19.78100 42.03700
C  -6.29500 19.38100 42.16000
C  -5.37900 20.62800 42.10700
C  -6.39200 21.81600 42.16000
C  -7.73700 21.08400 41.86900
C  -6.43200 22.60700 43.48900
C  -4.58100 20.75900 40.76600
C  -5.35800 20.83000 39.44900
H  -4.90700 19.99300 38.25300
N  -10.58500 20.02000 41.83300
C  -10.27100 21.29600 41.50600
C  -11.44800 21.99000 41.06600
C  -12.52600 21.05900 41.10800
C  -11.95400 19.78800 41.55900
C  -11.43600 23.51200 40.69200
C  -13.93900 21.35400 40.54000
O  -14.18700 22.46800 40.03900
C  -15.01600 20.33000 40.41600
N  -10.87600 16.90300 42.16100
C  -12.15300 17.23600 41.92100
C  -13.13300 15.97900 41.91600
C  -12.13600 14.81100 42.36900
C  -10.78600 15.56000 42.53100
C  -14.40700 16.20000 42.75400
C  -12.04600 13.50400 41.47300
C  -12.51600 12.17700 42.19700
N  -8.00400 16.80600 42.66800
C  -8.26800 15.46800 42.88600
C  -7.04300 14.73700 43.12000
C  -6.07300 15.73900 43.12200
C  -6.71900 16.98000 42.87100
C  -6.88900 13.23200 43.29000
C  -4.64900 16.01000 43.18000
O  -3.67200 15.24300 43.19400
C  -4.45600 17.60300 43.03300
C  -3.82900 18.11400 44.25300
O  -2.70400 18.46000 44.38300
O  -4.68600 17.98100 45.32700
C  -4.10600 18.53000 46.62000
H  -8.74400 22.84700 41.36400
H  -13.64000 18.55200 41.33400
H  -9.69500 13.93200 43.09000
H  -4.76000 20.56300 43.00200
H  -6.19400 22.54100 41.37100
H  -5.67900 22.15900 44.13800
H  -7.34700 22.42600 44.05200
H  -6.27600 23.66900 43.29900
H  -3.78600 20.01400 40.72600
H  -4.09000 21.72700 40.85600
H  -5.39800 21.87600 39.14500
H  -6.29700 20.35300 39.73200
H  -11.87100 23.70500 39.71100
H  -10.41500 23.87300 40.81600
H  -12.09100 24.04300 41.38200
H  -15.33600 20.02800 41.41300
H  -14.65200 19.49200 39.82100
H  -15.82300 20.74500 39.81300
H  -13.47000 15.79100 40.89600
H  -12.49400 14.46500 43.33800
H  -14.56700 17.19700 43.16400
H  -14.33900 15.43000 43.52300
H  -15.25200 16.07500 42.07700
H  -10.98500 13.48100 41.22400
H  -12.69700 13.70900 40.62300
H  -12.90100 11.46000 41.47100
H  -13.35100 12.40300 42.86000
H  -11.80600 11.64800 42.83300
H  -6.31500 12.81700 42.46200
H  -7.84700 12.71200 43.30900
H  -6.41900 12.93700 44.22800
H  -3.72400 17.86600 42.26900
H  -3.14100 18.09300 46.87800
H  -4.83100 18.44800 47.43000
H  -3.94600 19.60500 46.53800
Mg -6.08100 25.70600 26.35600
C  -4.14900 27.27300 28.88100
C  -7.07300 23.38200 28.78500
C  -7.55200 24.00800 23.96000
C  -4.48600 27.72900 24.03900
N  -5.56200 25.29700 28.54600
C  -4.95800 26.21900 29.34300
C  -5.45500 25.99200 30.80700
C  -5.99300 24.53100 30.79500
C  -6.28100 24.39100 29.30800
C  -4.97500 23.42500 31.35900
C  -6.42600 27.08400 31.31100
C  -6.63000 27.08400 32.83600
H  -5.81700 26.07000 33.65900
N  -7.16900 23.95600 26.36900
C  -7.47600 23.16600 27.43800
C  -8.29400 22.01400 26.97500
C  -8.53300 22.16200 25.57300
C  -7.77400 23.40400 25.24600
C  -8.90600 20.95500 27.95000
C  -9.31300 21.27700 24.56100
O  -9.44100 21.55700 23.36200
C  -9.99800 20.01200 25.01900
N  -6.16700 25.91800 24.36600
C  -6.87000 25.12000 23.49100
C  -6.86100 25.65900 22.01700
C  -5.60500 26.56800 22.01700
C  -5.33100 26.74000 23.57400
C  -6.90600 24.55900 20.89000
C  -5.84800 27.98700 21.41300
C  -5.25000 28.12500 20.00500
N  -4.60400 27.20500 26.38000
C  -4.08200 27.97900 25.37100
C  -3.12700 28.95800 25.94100
C  -3.17100 28.71100 27.32400
C  -4.06800 27.65000 27.51400
C  -2.18800 29.91900 25.36900
C  -2.60400 29.11900 28.58200
O  -1.86300 29.99800 28.97300
C  -3.14900 28.11900 29.69800
C  -1.92700 27.38800 30.21700
O  -1.34500 26.41400 29.66400
O  -1.78500 27.75300 31.54500
C  -1.03900 26.83400 32.42300
H  -7.47500 22.75100 29.58000
H  -8.12800 23.38600 23.27200
H  -3.90100 28.31800 23.33000
H  -4.53700 26.18400 31.36200
H  -6.91200 24.53400 31.38100
H  -4.69500 22.88800 30.45300
H  -5.56300 22.78700 32.01900
H  -4.06000 23.78800 31.82700
H  -7.35700 26.88900 30.77800
H  -6.15200 27.99200 30.77400
H  -7.70400 27.08000 33.02400
H  -6.39800 28.06600 33.24800
H  -9.98100 20.90000 27.77800
H  -8.66000 21.11400 28.99900
H  -8.52600 19.96200 27.70900
H  -10.72500 20.22500 25.80200
H  -9.32100 19.19600 25.27300
H  -10.58500 19.59400 24.20100
H  -7.77200 26.24000 21.87400
H  -4.81200 26.01500 21.51300
H  -7.93000 24.39400 20.55200
H  -6.60100 23.58300 21.27000
H  -6.19900 24.90400 20.13600
H  -5.50700 28.77600 22.08300
H  -6.91700 28.18100 21.32700
H  -4.87900 27.13500 19.73900
H  -4.35600 28.71500 20.20500
H  -5.91500 28.42300 19.19400
H  -2.62700 30.91500 25.31900
H  -1.71300 29.64100 24.42900
H  -1.34000 30.10100 26.03100
H  -3.68600 28.57700 30.52900
H  -0.00700 27.17700 32.49000
H  -1.03900 25.83000 31.99700
H  -1.59000 26.92600 33.35900

