158

Mg 2.38500 -1.41200 43.81700
C  5.85900 -0.82800 43.27000
C  1.75500 1.06900 41.64000
C  -0.79200 -2.50500 43.74000
C  3.35300 -4.44300 45.52600
N  3.73700 -0.14000 42.52000
C  5.09800 0.02400 42.53500
C  5.53900 1.04300 41.52300
C  4.13500 1.63500 41.08000
C  3.07500 0.86900 41.87400
C  4.01200 3.12600 41.26600
C  6.34200 0.43400 40.36400
C  7.71700 1.17300 40.22900
H  8.16200 1.64000 38.80900
N  0.67700 -0.73800 42.89800
C  0.61000 0.40500 42.07500
C  -0.78600 0.67800 41.80300
C  -1.58400 -0.37500 42.39200
C  -0.57800 -1.29400 43.05000
C  -1.24100 1.82900 41.06400
C  -3.08300 -0.48200 42.35100
O  -3.81800 0.30300 41.78700
C  -3.86300 -1.64500 43.07700
N  1.48600 -3.28100 44.39900
C  0.12700 -3.35200 44.35500
C  -0.34800 -4.59600 45.15300
C  0.90300 -5.40100 45.48800
C  2.00500 -4.31100 45.17000
C  -1.26900 -4.09300 46.38000
C  1.06100 -6.69800 44.70800
C  0.95000 -8.01200 45.46300
N  4.21100 -2.42400 44.35500
C  4.39200 -3.56300 45.06900
C  5.81500 -3.77600 45.36000
C  6.41900 -2.63800 44.66200
C  5.40500 -1.90000 44.05200
C  6.46500 -4.93600 46.09300
C  7.63500 -1.97200 44.49500
O  8.72000 -2.20400 44.98000
C  7.41200 -0.77200 43.52200
C  7.97900 0.40200 44.15100
O  7.63400 0.86700 45.24800
O  8.90100 0.91900 43.33500
C  9.37600 2.27300 43.62700
H  1.47400 1.87700 40.96200
H  -1.84500 -2.78200 43.82000
H  3.62600 -5.37100 46.03100
H  6.14100 1.65000 42.20000
H  4.08300 1.50100 39.99900
H  4.98500 3.61000 41.34900
H  3.56400 3.35600 42.23200
H  3.47300 3.61100 40.45200
H  5.73900 0.42600 39.45600
H  6.69600 -0.57400 40.57800
H  8.54600 0.53000 40.52400
H  7.81400 2.06500 40.84800
H  -2.03800 2.34600 41.59900
H  -1.70300 1.48400 40.13900
H  -0.49500 2.60200 40.88100
H  -4.87000 -1.23300 43.13400
H  -3.51200 -1.63700 44.10900
H  -3.77900 -2.63900 42.63800
H  -1.01000 -5.17100 44.50600
H  1.00900 -5.50100 46.56800
H  -1.73400 -3.14500 46.10800
H  -0.65500 -3.92900 47.26600
H  -2.06300 -4.81700 46.55800
H  1.95600 -6.68200 44.08600
H  0.24000 -6.69500 43.99200
H  1.74900 -8.67700 45.13500
H  -0.02800 -8.43400 45.23200
H  0.92000 -7.79400 46.53000
H  6.36400 -4.68800 47.15000
H  7.46800 -5.04800 45.67900
H  5.93400 -5.88100 45.97900
H  7.93800 -1.05600 42.61100
H  10.19500 2.19400 44.34100
H  8.58400 2.88100 44.06400
H  9.65700 2.77400 42.70100
Mg 0.90900 43.59300 26.00700
C  2.99100 43.94900 28.87100
C  -1.55600 42.72000 28.21200
C  -0.94000 42.96500 23.31800
C  3.73500 44.24700 24.02000
N  0.81400 43.28700 28.27200
C  1.66700 43.69900 29.21900
C  1.03200 43.78800 30.68100
C  -0.39400 43.21000 30.46200
C  -0.37000 43.05200 28.88000
C  -0.85700 41.96800 31.24400
C  1.00400 45.26900 31.34700
C  0.97000 45.33500 32.83500
H  0.71600 43.96000 33.52800
N  -0.99200 42.93500 25.77000
C  -1.86900 42.68300 26.74900
C  -3.14100 42.48000 26.22200
C  -2.94700 42.46400 24.80200
C  -1.59900 42.75800 24.55800
C  -4.37200 42.20900 27.00300
C  -4.02000 41.93800 23.83300
O  -3.73400 41.85900 22.59700
C  -5.42400 41.65100 24.18800
N  1.46700 43.36900 24.03700
C  0.40600 43.10900 23.15100
C  0.96900 43.19200 21.69900
C  2.36100 43.89100 21.94000
C  2.54700 43.82200 23.40300
C  1.15800 41.86900 21.04700
C  2.56900 45.31700 21.32900
C  2.51600 46.60200 22.21400
N  2.94500 44.14400 26.33000
C  3.96500 44.31100 25.39100
C  5.27400 44.45800 26.09300
C  4.93200 44.29000 27.43800
C  3.50700 44.13900 27.57400
C  6.58700 44.65300 25.34600
C  5.37900 44.09800 28.78100
O  6.53500 44.13800 29.12700
C  4.22300 43.98400 29.77200
C  4.31300 42.76800 30.52900
O  4.17600 41.64000 30.12500
O  4.58700 43.05800 31.82100
C  4.60600 42.04800 32.85200
H  -2.41100 42.56400 28.87400
H  -1.54100 42.98700 22.40600
H  4.52900 44.44400 23.29600
H  1.64800 43.15900 31.32300
H  -1.02900 44.03700 30.78000
H  -1.68000 42.36100 31.84100
H  -0.07000 41.53500 31.86300
H  -1.20700 41.08300 30.71400
H  0.19500 45.77700 30.82100
H  1.85200 45.80500 30.92100
H  0.20300 46.04600 33.14400
H  1.95800 45.72300 33.08200
H  -5.23900 42.84100 26.81000
H  -4.08500 42.51200 28.01000
H  -4.57900 41.14100 26.92900
H  -5.44700 40.81700 24.89000
H  -5.85100 41.34600 23.23300
H  -5.90200 42.57800 24.50300
H  0.33800 43.80200 21.05200
H  3.16400 43.28700 21.51800
H  2.05500 41.55100 20.51600
H  0.32500 41.76300 20.35200
H  0.84000 41.01000 21.63900
H  1.74600 45.53400 20.64800
H  3.49700 45.28500 20.75800
H  1.96900 46.43700 23.14200
H  1.91900 47.43300 21.83800
H  3.52500 46.94600 22.44400
H  7.41700 44.20100 25.88900
H  6.77900 45.69900 25.10600
H  6.62700 44.16400 24.37300
H  4.24000 44.92600 30.32100
H  4.58300 42.48200 33.85200
H  5.50900 41.43900 32.85200
H  3.73000 41.43800 32.63200

