158

Mg 9.51600 3.57100 27.57200
C  10.53200 1.84300 30.38100
C  7.61200 5.62000 29.68600
C  8.04900 4.91000 24.80800
C  10.88700 1.03800 25.52800
N  9.12600 3.72500 29.81300
C  9.64900 2.89100 30.75200
C  9.51600 3.53400 32.13700
C  8.54100 4.72600 31.82900
C  8.40800 4.72100 30.40500
C  7.13400 4.76100 32.48200
C  10.85300 4.08000 32.82200
C  10.59700 4.88200 34.06900
H  11.37500 4.26000 35.28600
N  8.29100 5.18600 27.28000
C  7.54800 5.85500 28.30700
C  6.73800 6.88500 27.64200
C  6.90100 6.74900 26.24400
C  7.81800 5.60100 26.02300
C  5.87200 7.79100 28.42400
C  6.30500 7.52600 25.09100
O  6.69000 7.42200 23.88800
C  5.30000 8.53400 25.44900
N  9.37900 2.99600 25.42500
C  8.78400 3.70500 24.55500
C  8.82300 2.94200 23.16500
C  9.95400 1.99000 23.38000
C  10.09400 1.96200 24.82300
C  7.44800 2.32500 22.79500
C  11.30300 2.39600 22.68800
C  12.07900 1.31500 22.02200
N  10.54500 1.82200 27.83600
C  11.07000 0.91100 26.94600
C  11.61100 -0.22800 27.63800
C  11.58000 0.17600 29.00800
C  10.85500 1.36700 29.04100
C  12.15000 -1.50000 27.10600
C  11.91400 -0.20400 30.37400
O  12.63100 -1.13500 30.76900
C  11.28000 0.87800 31.28000
C  10.44600 0.24400 32.39900
O  9.49600 -0.51000 32.27100
O  10.82900 0.74700 33.60900
C  10.07400 0.15600 34.76200
H  7.09300 6.35500 30.30400
H  7.34000 5.26400 24.05700
H  11.48600 0.31800 24.96700
H  9.11100 2.83400 32.86900
H  9.09400 5.65300 31.98300
H  6.55700 4.25100 31.71100
H  6.76700 5.76100 32.71000
H  6.97700 4.18500 33.39400
H  11.45300 4.61700 32.08700
H  11.52800 3.26200 33.07200
H  9.53400 4.89400 34.30800
H  10.99400 5.89500 33.99900
H  5.67400 7.63200 29.48400
H  4.89900 7.87400 27.94000
H  6.31300 8.78600 28.36900
H  5.73300 9.22100 26.17600
H  4.45100 7.98100 25.85200
H  4.88100 8.99600 24.55500
H  9.13700 3.77400 22.53400
H  9.82600 0.93600 23.13300
H  6.69700 2.30300 23.58400
H  7.71300 1.29700 22.54700
H  7.15000 2.84200 21.88300
H  11.99600 2.76100 23.44600
H  11.15300 3.19600 21.96300
H  11.41800 0.86000 21.28400
H  12.47400 0.63000 22.77200
H  12.96500 1.74000 21.54900
H  12.97100 -1.77600 27.76700
H  12.51800 -1.47000 26.08100
H  11.37400 -2.26100 27.19700
H  12.12500 1.39100 31.74000
H  10.28000 -0.91400 34.75400
H  9.00200 0.32800 34.85500
H  10.55800 0.53600 35.66200
Mg 53.93000 22.43200 44.52200
C  51.51900 24.83500 43.49400
C  51.76600 19.98400 43.48400
C  56.46400 20.24000 44.76400
C  56.06300 24.97500 45.28400
N  51.91100 22.50300 43.56700
C  51.09300 23.56900 43.13200
C  49.88800 23.03600 42.38000
C  49.89200 21.55100 42.63700
C  51.23600 21.33600 43.39200
C  48.67200 21.00800 43.47600
C  49.89300 23.36100 40.87400
C  48.50000 23.45400 40.17000
H  48.15800 22.73400 38.81000
N  54.09900 20.37400 44.12600
C  53.08500 19.52200 43.75200
C  53.56800 18.16300 43.65500
C  54.92700 18.18200 44.16200
C  55.21000 19.66500 44.39000
C  52.77000 16.97200 43.20600
C  55.86900 16.90400 44.29900
O  55.50600 15.77600 44.01100
C  57.32600 17.09600 44.67200
N  56.01900 22.58900 44.69400
C  56.84900 21.55100 44.90700
C  58.27200 21.94700 45.20100
C  58.06000 23.38100 45.59800
C  56.60200 23.71500 45.13800
C  58.95800 21.13400 46.34000
C  59.13500 24.51800 45.09500
C  60.10600 25.01700 46.22900
N  53.79200 24.51200 44.51200
C  54.76300 25.42300 44.92300
C  54.11300 26.74400 45.00400
C  52.88300 26.54500 44.37600
C  52.73800 25.17300 44.14800
C  54.77300 28.00300 45.56600
C  51.65100 27.22700 43.97700
O  51.26500 28.36500 44.13500
C  50.70400 26.10400 43.37400
C  50.48800 26.51600 41.90400
O  51.44100 26.55900 41.11300
O  49.22200 26.90100 41.65800
C  48.93900 27.37600 40.30000
H  51.05300 19.15800 43.45200
H  57.21900 19.55800 45.15900
H  56.69600 25.72700 45.76200
H  49.02900 23.43600 42.91800
H  49.83900 21.06600 41.66200
H  48.93900 20.50400 44.40500
H  48.13800 20.31900 42.82100
H  47.93300 21.77800 43.69800
H  50.40100 22.60600 40.27300
H  50.43500 24.29400 40.71800
H  48.20900 24.48200 39.95100
H  47.75900 23.10100 40.88600
H  53.37900 16.51400 42.42600
H  51.78200 17.16800 42.78900
H  52.63100 16.40900 44.12900
H  57.67100 17.74600 43.86800
H  57.80500 16.11700 44.68200
H  57.48800 17.52300 45.66200
H  58.88900 21.90000 44.30400
H  57.92400 23.50500 46.67300
H  59.62400 20.35700 45.96500
H  58.09700 20.67000 46.82100
H  59.49900 21.72500 47.07900
H  58.65100 25.25700 44.45500
H  59.73800 23.98800 44.35800
H  61.05700 24.63400 45.85700
H  59.90600 24.46200 47.14500
H  59.97600 26.08900 46.37500
H  55.85500 27.98300 45.44200
H  54.48400 28.19900 46.59900
H  54.41500 28.79300 44.90600
H  49.73600 26.08900 43.87500
H  48.79500 28.45600 40.33400
H  47.99400 26.96400 39.94600
H  49.68000 27.21200 39.51800

