158

Mg -1.64400 34.27800 26.78900
C  -3.29600 32.93800 29.58700
C  -0.04100 36.39900 29.00400
C  -0.41300 35.86300 24.15800
C  -3.63200 32.36500 24.70600
N  -1.74100 34.63400 29.02900
C  -2.38900 33.92800 29.96000
C  -1.97600 34.24000 31.41200
C  -1.08900 35.52700 31.18600
C  -0.94800 35.53500 29.62800
C  -1.48900 36.88000 31.91400
C  -1.26100 32.96000 32.01200
C  -2.08300 32.24300 33.14800
H  -1.42700 31.97800 34.54200
N  -0.32100 35.78500 26.57700
C  0.21000 36.55100 27.56200
C  1.19900 37.41600 26.97600
C  1.13300 37.28500 25.59200
C  0.05200 36.34400 25.41500
C  2.14000 38.28700 27.81000
C  1.88800 38.10200 24.55800
O  1.62400 38.02600 23.34100
C  2.98600 39.04500 24.92600
N  -1.99200 34.14300 24.68500
C  -1.32600 34.85600 23.80700
C  -1.63500 34.41700 22.35400
C  -2.70900 33.26900 22.55300
C  -2.76600 33.16200 24.06000
C  -2.13400 35.50500 21.43400
C  -2.29400 31.97900 21.74200
C  -1.21000 31.12900 22.42100
N  -3.12800 32.95700 27.02700
C  -3.85600 32.17200 26.08300
C  -4.73500 31.33000 26.72400
C  -4.50900 31.53600 28.08900
C  -3.61100 32.60000 28.24200
C  -5.75700 30.49200 25.93400
C  -4.94700 31.10000 29.39200
O  -5.82700 30.30300 29.76100
C  -4.20200 31.99600 30.37200
C  -5.23800 32.76700 31.11600
O  -5.72300 33.81900 30.78500
O  -5.50600 32.12000 32.29900
C  -6.62200 32.62800 33.05900
H  0.67700 36.98600 29.57900
H  0.03000 36.43700 23.34200
H  -4.09500 31.58500 24.09900
H  -2.86400 34.44900 32.00900
H  -0.13600 35.30000 31.66400
H  -2.26300 36.67000 32.65200
H  -1.81100 37.66900 31.23400
H  -0.63800 37.34400 32.41300
H  -0.29900 33.17900 32.47500
H  -1.02400 32.16600 31.30400
H  -2.38600 31.25500 32.80100
H  -3.07500 32.65900 33.32700
H  3.16300 38.13100 27.46600
H  2.25800 38.07400 28.87300
H  1.82300 39.32200 27.68200
H  2.57900 39.80400 25.59400
H  3.34100 39.49600 24.00000
H  3.81700 38.42800 25.26800
H  -0.70500 34.14200 21.85700
H  -3.71900 33.57800 22.28400
H  -1.33000 35.70000 20.72400
H  -2.24200 36.47300 21.92400
H  -3.05900 35.19500 20.95000
H  -1.99300 32.18700 20.71500
H  -3.19000 31.37600 21.59300
H  -0.76200 31.63200 23.27900
H  -0.41300 30.77500 21.76800
H  -1.69800 30.26600 22.87300
H  -6.70100 30.51600 26.47700
H  -5.47000 29.44600 25.83300
H  -5.99400 30.95600 24.97700
H  -3.69300 31.39400 31.12400
H  -7.44700 32.78800 32.36500
H  -6.25500 33.62500 33.30400
H  -6.90900 31.97300 33.88100
Mg -6.17300 25.51300 26.13500
C  -4.64300 26.68800 28.94900
C  -8.33500 23.84800 28.00500
C  -7.18300 23.85300 23.32100
C  -3.62900 27.10800 24.16100
N  -6.22400 25.10300 28.21100
C  -5.64300 25.82500 29.25000
C  -6.28700 25.42400 30.58800
C  -7.26000 24.24600 30.23800
C  -7.30400 24.38600 28.72400
C  -6.75800 22.83100 30.63300
C  -6.89900 26.62100 31.43000
C  -6.74500 26.60900 32.93600
H  -6.12400 25.33500 33.61600
N  -7.60900 24.03700 25.67800
C  -8.41000 23.51600 26.58700
C  -9.26400 22.57200 26.04300
C  -8.88300 22.46300 24.66800
C  -7.83300 23.44100 24.47100
C  -10.35700 21.81500 26.90400
C  -9.47900 21.58700 23.60400
O  -9.06500 21.70200 22.43700
C  -10.71500 20.83500 23.88800
N  -5.57900 25.58900 24.10600
C  -6.06900 24.68500 23.13300
C  -5.33600 24.74300 21.80800
C  -4.29500 25.87800 22.03000
C  -4.53100 26.27200 23.49900
C  -4.71200 23.38700 21.42800
C  -4.30600 27.02000 20.92200
C  -3.02400 27.38700 20.17600
N  -4.59600 26.79800 26.42000
C  -3.69200 27.35100 25.55500
C  -2.87500 28.32200 26.30400
C  -3.22400 28.05600 27.65900
C  -4.15000 27.06100 27.69700
C  -1.74600 29.21100 25.84300
C  -2.89500 28.42800 29.02800
O  -2.07500 29.27400 29.48000
C  -3.89300 27.55600 29.94100
C  -3.14600 26.80300 30.92500
O  -2.74700 25.63000 30.83300
O  -2.89100 27.51300 32.05900
C  -1.96400 27.00800 33.06600
H  -9.13600 23.49100 28.65600
H  -7.55600 23.34800 22.42800
H  -2.89300 27.70500 23.61900
H  -5.44100 25.12100 31.20600
H  -8.19100 24.42800 30.77500
H  -6.02100 23.08800 31.39400
H  -6.30200 22.40500 29.73900
H  -7.58500 22.23000 31.01000
H  -7.97800 26.64200 31.27700
H  -6.53100 27.53500 30.96400
H  -7.70800 26.77100 33.42100
H  -6.23100 27.54300 33.16300
H  -10.30700 22.14600 27.94200
H  -10.11300 20.75700 26.81400
H  -11.33100 22.09300 26.50300
H  -10.53800 19.92700 24.46500
H  -11.11300 20.55400 22.91300
H  -11.50200 21.45100 24.32200
H  -5.98400 25.11700 21.01500
H  -3.26900 25.51200 22.08400
H  -5.03500 22.64900 22.16100
H  -3.63200 23.27300 21.33400
H  -5.09100 23.13600 20.43700
H  -4.54600 27.96700 21.40400
H  -5.06600 26.83400 20.16300
H  -2.17700 26.79500 20.52200
H  -2.74000 28.43500 20.07900
H  -3.11200 27.28400 19.09400
H  -2.23800 30.16900 25.67100
H  -1.38500 28.94000 24.85100
H  -1.09800 29.34500 26.70900
H  -4.50600 28.23700 30.53000
H  -1.66600 25.96300 32.97700
H  -2.50600 27.12200 34.00500
H  -1.09100 27.64200 33.22200

