158

Mg 42.70500 41.46200 26.79100
C  42.21400 44.08000 29.18300
C  43.33800 39.46800 29.38700
C  43.42300 39.16100 24.56200
C  42.34000 43.91500 24.17800
N  42.83400 41.81800 29.06800
C  42.49100 42.85900 29.80600
C  42.69700 42.71500 31.35100
C  43.14300 41.20100 31.34100
C  43.18500 40.80300 29.83300
C  44.45200 40.83100 32.11300
C  41.36900 43.03300 32.08100
C  41.17600 42.33700 33.39800
H  41.45600 43.23300 34.58800
N  43.29000 39.55000 26.95500
C  43.35300 38.88800 28.11500
C  43.76100 37.51600 27.78200
C  43.90300 37.40100 26.33500
C  43.59400 38.72700 25.84200
C  44.13400 36.50800 28.91300
C  44.14800 36.21300 25.37400
O  44.20300 36.36100 24.10300
C  44.30300 34.86900 25.97100
N  43.06400 41.56800 24.67200
C  43.20200 40.40500 23.96600
C  43.14500 40.63400 22.38300
C  42.48600 42.04200 22.36800
C  42.61200 42.59200 23.82200
C  44.53200 40.53600 21.69800
C  40.98000 41.96000 22.01600
C  40.14600 40.86300 22.74300
N  42.33200 43.59200 26.62900
C  42.18600 44.41900 25.49800
C  41.82200 45.74200 25.95500
C  41.79000 45.62600 27.37400
C  42.15100 44.33000 27.73200
C  41.50000 46.90000 25.07300
C  41.55900 46.37300 28.60500
O  41.06900 47.50500 28.83000
C  41.89600 45.41600 29.78900
C  42.89700 46.13500 30.58100
O  44.11900 46.13700 30.41300
O  42.32900 46.73000 31.71200
C  43.16900 47.24000 32.78500
H  43.50300 38.92900 30.32200
H  43.46600 38.45800 23.72700
H  42.07000 44.61000 23.38000
H  43.45100 43.31800 31.85800
H  42.30000 40.59000 31.66400
H  45.27900 40.50600 31.48200
H  44.20800 39.98300 32.75200
H  44.78800 41.64600 32.75400
H  40.50400 42.94300 31.42400
H  41.40500 44.08700 32.35700
H  41.71400 41.39400 33.50300
H  40.11700 42.12000 33.53900
H  44.10400 36.97900 29.89500
H  45.17100 36.27900 28.66800
H  43.73600 35.49300 28.88200
H  43.31500 34.49100 26.23500
H  45.01400 34.90900 26.79600
H  44.58000 34.15000 25.20000
H  42.50000 39.85000 21.98600
H  43.01800 42.78200 21.77000
H  44.87100 41.39500 21.11900
H  44.34900 39.64500 21.09800
H  45.33200 40.25100 22.38000
H  41.00800 41.78400 20.94000
H  40.41800 42.88800 22.12200
H  39.40900 41.48500 23.25200
H  40.77100 40.29100 23.42900
H  39.64500 40.12700 22.11400
H  41.11100 47.63100 25.78100
H  40.66300 46.68300 24.41000
H  42.34700 47.26100 24.48900
H  41.10400 45.43700 30.53700
H  44.06800 47.72900 32.40800
H  43.52200 46.31900 33.24800
H  42.55900 47.86500 33.43800
Mg -1.81300 34.04500 26.58500
C  -3.56600 32.07100 28.70700
C  -0.24300 35.64200 29.17800
C  -0.32900 36.24800 24.30400
C  -3.44200 32.49700 23.85800
N  -1.98600 33.86300 28.69700
C  -2.67000 32.91600 29.34600
C  -2.30700 32.93900 30.85300
C  -1.35300 34.16700 30.93900
C  -1.15800 34.56900 29.54900
C  -1.87100 35.29900 31.90300
C  -1.76600 31.63600 31.47400
C  -2.42500 31.20400 32.83300
H  -1.54800 30.84200 34.07500
N  -0.49200 35.72400 26.72200
C  0.12700 36.17400 27.89200
C  1.03000 37.17500 27.62100
C  1.11400 37.21200 26.16500
C  0.03400 36.35400 25.64000
C  1.80500 38.03900 28.76400
C  2.14100 38.06800 25.31300
O  2.08900 38.09700 24.08400
C  3.14100 38.91000 25.93100
N  -2.00700 34.49200 24.38200
C  -1.27800 35.42500 23.68300
C  -1.33200 35.13200 22.13900
C  -2.28300 33.96000 22.08700
C  -2.58300 33.58200 23.56500
C  -1.87400 36.36900 21.36100
C  -1.67900 32.87000 21.19400
C  -0.78900 31.75300 21.93200
N  -3.24800 32.57500 26.25200
C  -3.84600 31.99700 25.09900
C  -4.75100 30.94600 25.47700
C  -4.63400 30.92900 26.90000
C  -3.80700 31.94200 27.29500
C  -5.53600 30.05100 24.52700
C  -5.18200 30.25100 28.12000
O  -6.02200 29.27900 28.25200
C  -4.44800 30.97400 29.35300
C  -5.49900 31.43300 30.32700
O  -6.14500 32.47700 30.28300
O  -5.52600 30.53500 31.32600
C  -6.31700 30.90900 32.54900
H  0.39800 36.09300 29.93800
H  0.24800 36.84900 23.59700
H  -3.97900 32.10900 22.99000
H  -3.26600 33.15900 31.32200
H  -0.39500 33.71400 31.19600
H  -2.91300 35.10300 32.15900
H  -1.79200 36.23600 31.35200
H  -1.21500 35.29400 32.77300
H  -0.71800 31.85100 31.68400
H  -1.80400 30.87000 30.70000
H  -2.96900 30.27800 32.65300
H  -3.13900 31.99900 33.05000
H  2.81100 37.64900 28.91500
H  1.25800 38.05400 29.70700
H  1.85300 39.05400 28.37000
H  2.57300 39.71100 26.40400
H  3.65900 39.44600 25.13500
H  3.77500 38.33100 26.60300
H  -0.27000 34.92500 22.01100
H  -3.23400 34.15200 21.59000
H  -2.86100 36.15400 20.95200
H  -1.15100 36.69200 20.61300
H  -1.97800 37.26800 21.96800
H  -1.11200 33.24900 20.34400
H  -2.54400 32.34600 20.78800
H  -0.41200 32.28400 22.80600
H  0.15800 31.62200 21.40900
H  -1.33200 30.80900 21.97400
H  -6.24200 29.43000 25.07900
H  -4.86700 29.43500 23.92500
H  -6.11300 30.66800 23.83800
H  -3.80600 30.22000 29.80700
H  -5.69600 31.44300 33.26900
H  -6.85700 30.02600 32.88900
H  -7.17900 31.49700 32.23400

