158

Mg 7.73300 2.73700 27.58900
C  9.16600 1.36300 30.44000
C  5.95400 4.86400 29.50600
C  6.50600 3.95400 24.74900
C  9.33500 0.21500 25.77500
N  7.56500 3.02400 29.65000
C  8.27100 2.37900 30.65000
C  7.85600 2.88900 32.05000
C  6.67100 3.78500 31.80800
C  6.73300 3.90200 30.21600
C  5.31900 3.23400 32.38200
C  9.15900 3.53800 32.81200
C  9.45100 3.01700 34.23500
H  9.94900 4.04900 35.29400
N  6.51700 4.27900 27.17700
C  5.82600 5.05200 28.09500
C  5.14800 6.09200 27.44300
C  5.31800 5.93000 26.02700
C  6.16100 4.66900 25.90500
C  4.38700 7.07700 28.16000
C  4.82900 6.74100 24.90400
O  4.96800 6.37800 23.77200
C  4.14800 7.98700 25.08200
N  7.89400 2.13300 25.51400
C  7.15400 2.69000 24.61300
C  7.38100 2.05300 23.21600
C  8.35000 0.84900 23.50200
C  8.63300 1.10600 25.00000
C  5.99800 1.77900 22.55500
C  9.67600 0.89700 22.72200
C  9.70500 0.27200 21.35000
N  9.00900 1.03700 27.98600
C  9.62400 0.15900 27.14900
C  10.35900 -0.80600 27.89300
C  10.27200 -0.32300 29.18600
C  9.44600 0.79700 29.20900
C  11.17700 -1.97600 27.37200
C  10.70400 -0.54700 30.56200
O  11.54500 -1.34900 31.00400
C  10.02600 0.58500 31.39800
C  9.35500 -0.04900 32.43200
O  8.18800 -0.51100 32.38500
O  10.25100 -0.04500 33.49200
C  9.79000 -0.69900 34.74100
H  5.46000 5.57800 30.16800
H  6.09200 4.19800 23.76800
H  9.73200 -0.62000 25.19400
H  7.62300 1.95300 32.55700
H  6.71300 4.77700 32.25900
H  4.63900 3.33600 31.53600
H  4.97100 3.82300 33.23100
H  5.40500 2.20800 32.74000
H  9.07800 4.62500 32.80700
H  10.09700 3.23600 32.34600
H  10.25800 2.29400 34.11700
H  8.55800 2.52400 34.61700
H  4.70700 7.09400 29.20200
H  3.34600 6.76300 28.23500
H  4.38000 8.07900 27.73100
H  3.21000 7.93900 25.63600
H  4.21700 8.38200 24.06800
H  4.85700 8.54300 25.69500
H  7.84800 2.80700 22.58200
H  7.95900 -0.16800 23.54500
H  5.23700 1.89300 23.32700
H  5.82000 0.73700 22.29000
H  5.66000 2.48800 21.79900
H  10.46700 0.42800 23.30700
H  9.85700 1.96200 22.57800
H  9.76700 1.10100 20.64600
H  8.80600 -0.22600 20.98600
H  10.50500 -0.45700 21.21600
H  10.95200 -2.66300 28.18800
H  12.24400 -1.81500 27.21200
H  10.73800 -2.36900 26.45500
H  10.87200 1.12300 31.82700
H  9.08000 -1.51900 34.63700
H  9.32100 0.02900 35.40200
H  10.63200 -1.09700 35.30800
Mg 24.36600 0.55600 29.69800
C  26.46100 0.55400 32.56200
C  21.68700 0.55100 31.75100
C  22.45500 0.53100 26.97300
C  27.31300 -0.10600 27.76100
N  24.15000 0.69100 31.90500
C  25.09600 0.74600 32.88100
C  24.44200 1.00700 34.28000
C  22.92100 0.67000 33.88900
C  22.85700 0.63600 32.45500
C  22.52400 -0.74600 34.36200
C  24.83100 2.42100 34.78100
C  24.50900 2.58300 36.27200
H  25.55100 2.23300 37.28500
N  22.32200 0.65200 29.39200
C  21.35000 0.59400 30.38400
C  19.99600 0.67700 29.71600
C  20.25300 0.67800 28.28500
C  21.70300 0.61200 28.18800
C  18.67300 0.66000 30.43500
C  19.33000 0.77300 27.15200
O  19.54200 0.53300 25.97500
C  17.94800 1.09400 27.56900
N  24.84900 0.15000 27.66400
C  23.89800 0.40800 26.73000
C  24.48800 0.19000 25.29100
C  26.02500 0.10600 25.55400
C  26.06000 0.09100 27.10700
C  23.92200 -1.08100 24.60500
C  26.93900 1.20300 24.98600
C  27.15200 2.45600 25.78700
N  26.44500 0.22200 29.98700
C  27.53100 0.02100 29.11600
C  28.76500 0.03200 29.86300
C  28.41300 0.26800 31.13000
C  27.02000 0.28800 31.23300
C  30.13100 -0.20500 29.20400
C  28.93900 0.53700 32.46800
O  30.10700 0.65100 32.87400
C  27.65800 0.70600 33.45400
C  27.79500 -0.41100 34.43400
O  27.09000 -1.36400 34.46100
O  28.82200 -0.08700 35.27500
C  28.91300 -0.90000 36.43200
H  20.73600 0.67300 32.27500
H  21.88300 0.57700 26.04300
H  28.12900 -0.19400 27.04000
H  24.90000 0.38100 35.04600
H  22.24400 1.40500 34.32400
H  23.22600 -0.84300 35.19000
H  22.56400 -1.62600 33.72000
H  21.56000 -0.72700 34.87200
H  24.24100 3.16100 34.24100
H  25.89300 2.43100 34.53300
H  23.53700 2.12000 36.44500
H  24.27500 3.64700 36.29700
H  18.03500 1.46800 30.07800
H  18.76800 0.74100 31.51800
H  18.17800 -0.30200 30.29900
H  17.99200 2.05400 28.08200
H  17.58000 0.28400 28.19900
H  17.31600 1.36200 26.72200
H  24.24000 0.99500 24.60000
H  26.34300 -0.89800 25.27600
H  22.85200 -1.26800 24.70300
H  24.42000 -1.97900 24.97000
H  24.08600 -0.93700 23.53700
H  26.37400 1.57300 24.13000
H  27.86500 0.76300 24.61700
H  26.66000 2.59700 26.75000
H  27.14100 3.38400 25.21700
H  28.21400 2.34000 26.00300
H  30.12100 -0.12600 28.11700
H  30.43400 -1.21500 29.47800
H  30.98600 0.41600 29.46900
H  27.85500 1.68000 33.90200
H  28.82300 -1.95400 36.17100
H  28.12200 -0.73800 37.16500
H  29.85800 -0.65900 36.92000

