158

Mg 35.41400 2.72400 30.04300
C  32.90600 3.89300 32.19700
C  37.55700 2.76700 32.71800
C  37.95500 1.95300 27.99500
C  33.26500 2.99000 27.29000
N  35.27500 3.50600 32.12200
C  34.10100 3.71500 32.83300
C  34.37100 3.64300 34.33900
C  35.90100 3.72000 34.39300
C  36.27900 3.25600 33.00400
C  36.46600 5.16500 34.75800
C  33.71900 2.46700 34.97000
C  33.07600 2.69700 36.37200
H  33.66700 3.79900 37.29800
N  37.47100 2.50600 30.27400
C  38.09000 2.49400 31.46500
C  39.48300 2.13800 31.27100
C  39.68400 1.97800 29.88700
C  38.35700 2.14000 29.28500
C  40.49400 1.92300 32.41800
C  40.99200 1.56700 29.19300
O  41.11200 1.44700 27.97700
C  42.20500 1.23300 29.98800
N  35.62900 2.43600 27.99000
C  36.74500 1.95500 27.38100
C  36.46900 1.72000 25.89500
C  34.99600 2.10600 25.68600
C  34.59900 2.61200 27.10300
C  37.48000 2.41100 24.92500
C  34.14200 1.01900 24.93000
C  33.84600 -0.28600 25.72900
N  33.49100 3.31900 29.73400
C  32.74900 3.36200 28.54100
C  31.37400 3.82700 28.94200
C  31.35600 3.94600 30.35900
C  32.66700 3.77000 30.78800
C  30.13300 4.03100 28.02000
C  30.57400 4.24000 31.49800
O  29.41700 4.59900 31.51900
C  31.51700 4.21100 32.75000
C  31.56400 5.54400 33.47500
O  31.90700 6.61300 32.96300
O  31.16700 5.33200 34.75700
C  31.08400 6.49600 35.64300
H  38.24200 2.73100 33.56800
H  38.77900 1.72400 27.31600
H  32.62000 3.10700 26.41700
H  33.90800 4.57900 34.65100
H  36.36100 2.96900 35.03600
H  35.63300 5.85600 34.88200
H  36.94500 5.46200 33.82600
H  37.03800 5.15000 35.68600
H  34.48300 1.69700 35.07300
H  32.95200 2.16100 34.25900
H  33.01900 1.80500 36.99600
H  32.03300 3.00800 36.30600
H  41.53400 2.06600 32.12300
H  40.41500 0.87300 32.70000
H  40.34000 2.58800 33.26700
H  42.56300 2.22600 30.26000
H  42.95000 0.71900 29.38100
H  41.90500 0.55600 30.78800
H  36.58000 0.66400 25.64700
H  34.94900 2.96700 25.02000
H  37.03400 3.05200 24.16400
H  38.04800 1.59900 24.47200
H  38.21400 3.03200 25.43900
H  34.76900 0.71300 24.09200
H  33.20700 1.40900 24.52800
H  34.49500 -0.46500 26.58600
H  34.21200 -1.09300 25.09500
H  32.78100 -0.33600 25.95700
H  30.26200 4.89900 27.37400
H  29.29800 4.16300 28.70800
H  29.86900 3.13900 27.45200
H  31.27100 3.38700 33.42000
H  31.83500 7.21700 35.32100
H  31.29200 6.07500 36.62700
H  30.08800 6.92400 35.53800
Mg 54.71800 24.36900 44.64300
C  52.07600 26.36900 43.39200
C  52.83500 21.49700 44.04500
C  57.52900 22.53000 45.07000
C  56.52000 27.30500 45.32100
N  52.63500 24.02500 44.00400
C  51.78700 24.94800 43.36900
C  50.54400 24.22900 42.88700
C  50.67600 22.76400 43.47500
C  52.15500 22.70500 43.92300
C  49.67000 22.15900 44.56000
C  50.32200 24.33100 41.35500
C  48.89900 23.97400 40.93300
H  48.84200 22.79500 40.01700
N  55.24500 22.27700 44.52300
C  54.28700 21.30600 44.34500
C  54.96000 20.03000 44.35500
C  56.31400 20.27500 44.70400
C  56.42100 21.75000 44.75100
C  54.26200 18.69800 43.91200
C  57.31300 19.19900 44.95700
O  56.97200 17.99800 44.97700
C  58.70100 19.55200 45.40500
N  56.80000 24.89300 44.87700
C  57.71100 23.89800 45.14600
C  59.04100 24.47600 45.76000
C  58.69200 26.03900 45.78200
C  57.22800 26.11500 45.26700
C  59.43400 24.00400 47.16300
C  59.61300 26.83000 44.88000
C  59.94700 28.26400 45.39200
N  54.41800 26.47100 44.40900
C  55.22800 27.57300 44.76800
C  54.44500 28.76400 44.63000
C  53.24600 28.34200 44.08600
C  53.27600 26.91200 43.89700
C  54.98500 30.13600 44.94100
C  52.00400 28.78700 43.56100
O  51.56400 29.88000 43.34600
C  51.24700 27.55800 42.92200
C  51.28900 27.70200 41.40200
O  52.25800 27.57300 40.67700
O  49.99700 27.92000 41.06500
C  49.75100 28.00200 39.64800
H  52.25100 20.57500 44.01400
H  58.45500 22.06300 45.41200
H  57.07000 28.22700 45.52400
H  49.78700 24.71800 43.50000
H  50.61400 22.09500 42.61600
H  49.07800 23.00900 44.89700
H  50.23900 21.70800 45.37300
H  49.05400 21.41700 44.05000
H  51.00800 23.65900 40.83800
H  50.49900 25.31600 40.92400
H  48.31600 24.81400 40.55600
H  48.38800 23.68900 41.85200
H  54.04800 18.09600 44.79500
H  54.93000 18.01700 43.38500
H  53.38300 18.97900 43.33100
H  59.19900 20.04100 44.56900
H  59.24400 18.63500 45.63400
H  58.59900 20.13700 46.31900
H  59.84300 24.32400 45.03700
H  58.86300 26.47600 46.76600
H  59.11100 22.98000 47.34900
H  59.04800 24.62300 47.97300
H  60.51400 23.86200 47.13000
H  59.14400 27.07600 43.92700
H  60.59900 26.37600 44.77900
H  60.76600 28.14800 46.10300
H  59.18900 28.90600 45.84000
H  60.31400 28.85800 44.55400
H  54.76200 30.39900 45.97500
H  54.53100 30.95700 44.38600
H  56.07500 30.13600 44.94900
H  50.29400 27.29700 43.38300
H  49.64500 27.02900 39.16900
H  50.61200 28.47400 39.17300
H  48.86200 28.58400 39.40700

