158

Mg 10.55700 46.77300 25.51400
C  8.39900 47.22700 28.11100
C  13.13500 47.80300 27.47400
C  12.55000 46.35400 22.87800
C  7.83300 46.09500 23.38500
N  10.67400 47.70400 27.49100
C  9.77700 47.48000 28.44900
C  10.36400 47.67000 29.81100
C  11.81100 48.27000 29.50300
C  11.86100 47.87200 28.05000
C  11.86800 49.78300 29.75400
C  10.37400 46.27200 30.62900
C  11.29300 45.93100 31.78200
H  10.60100 45.12100 32.84500
N  12.53200 46.97400 25.21800
C  13.49100 47.36400 26.13100
C  14.87000 47.15100 25.65900
C  14.70400 46.60900 24.38400
C  13.17500 46.59900 24.09500
C  16.09000 47.64200 26.38000
C  15.69800 46.27900 23.33700
O  15.42500 45.82100 22.21300
C  17.17600 46.36000 23.69500
N  10.20500 46.45200 23.32200
C  11.23800 46.26100 22.46100
C  10.84000 46.05700 21.04900
C  9.29500 45.92100 21.22000
C  9.03200 46.18200 22.72600
C  11.26200 47.21700 20.24300
C  8.78400 44.54900 20.69300
C  8.23200 44.60100 19.23000
N  8.50200 46.72400 25.66600
C  7.48300 46.34600 24.73400
C  6.22300 46.35000 25.39500
C  6.52700 46.63000 26.75700
C  7.90700 46.87200 26.85800
C  4.84800 46.19300 24.88500
C  5.96700 46.69500 28.04400
O  4.78500 46.54900 28.45600
C  7.17000 46.95900 28.96000
C  7.27100 45.64400 29.78200
O  7.90800 44.66900 29.38400
O  6.59400 45.76300 31.00300
C  6.68000 44.49800 31.85400
H  14.01200 48.05200 28.07500
H  13.25400 46.40900 22.04500
H  6.88200 46.01400 22.85300
H  9.70000 48.44000 30.20300
H  12.57200 47.68200 30.01700
H  10.87400 50.22200 29.67700
H  12.41600 50.29300 28.96200
H  12.16700 50.03000 30.77300
H  10.36700 45.33800 30.06800
H  9.37100 46.37800 31.04300
H  11.67000 46.83900 32.25300
H  12.23400 45.47100 31.48100
H  16.00500 47.49300 27.45700
H  16.06800 48.71700 26.20000
H  17.04400 47.23300 26.04800
H  17.94600 46.15800 22.95100
H  17.28300 45.57900 24.44800
H  17.30800 47.40100 23.99100
H  11.23200 45.12600 20.63900
H  8.77500 46.71100 20.67800
H  12.15400 46.97000 19.66800
H  11.59500 48.08900 20.80600
H  10.46300 47.39500 19.52300
H  7.93400 44.11900 21.22200
H  9.50600 43.74300 20.82700
H  7.87400 45.60500 19.00100
H  7.43500 43.87500 19.06500
H  8.96600 44.27200 18.49500
H  4.90900 46.58400 23.86900
H  4.03600 46.76400 25.33600
H  4.53900 45.14900 24.83200
H  7.01300 47.63000 29.80500
H  7.63600 43.99700 31.70000
H  5.93900 43.73200 31.62500
H  6.50900 44.64800 32.92000
Mg -11.37000 38.20300 41.25200
C  -9.36100 35.38600 40.61100
C  -8.99600 40.17500 39.93500
C  -13.64500 40.62400 40.90500
C  -13.85300 35.99600 42.25900
N  -9.38200 37.81700 40.37700
C  -8.69900 36.56900 40.27100
C  -7.28000 36.83200 39.59400
C  -7.23700 38.43900 39.57200
C  -8.63900 38.87700 39.98900
C  -6.12900 38.91700 40.63400
C  -7.30300 36.21300 38.15000
C  -6.12300 35.19700 37.83400
H  -5.19000 35.60800 36.77600
N  -11.18000 40.27400 40.88200
C  -10.19100 40.82300 40.28100
C  -10.40700 42.24700 40.11400
C  -11.80000 42.47700 40.32700
C  -12.31100 41.10600 40.73500
C  -9.38700 43.26700 39.55700
C  -12.56700 43.76400 40.13000
O  -12.02100 44.88300 39.85900
C  -14.05400 43.73500 40.18700
N  -13.52300 38.35900 41.48900
C  -14.23200 39.45600 41.35700
C  -15.73300 39.09000 41.32800
C  -15.78500 37.63700 41.99500
C  -14.27500 37.31400 41.90600
C  -16.72000 40.13300 42.05100
C  -16.70100 36.57700 41.33200
C  -17.93200 36.34200 42.19300
N  -11.59100 36.18500 41.53700
C  -12.60700 35.46400 42.03300
C  -12.20100 34.08600 42.35100
C  -10.95700 33.96400 41.65800
C  -10.57300 35.31200 41.27800
C  -12.97700 33.06300 43.11600
C  -9.83700 33.09100 41.31200
O  -9.68700 31.91400 41.57000
C  -8.84800 33.92900 40.51900
C  -7.46300 33.75400 40.99200
O  -6.60600 33.12700 40.43000
O  -7.25300 34.46400 42.13200
C  -5.92900 34.23500 42.81200
H  -8.20400 40.85100 39.60700
H  -14.47300 41.25200 40.56900
H  -14.52000 35.20500 42.60700
H  -6.52100 36.28600 40.15400
H  -6.94300 38.85100 38.60700
H  -5.10300 38.66500 40.36500
H  -6.52100 38.44700 41.53600
H  -6.20800 39.98100 40.86000
H  -7.23200 37.03300 37.43600
H  -8.27000 35.72000 38.05600
H  -6.58300 34.23600 37.60500
H  -5.54700 34.96600 38.73000
H  -9.65400 43.47900 38.52200
H  -8.34900 42.99700 39.75300
H  -9.39300 44.12100 40.23500
H  -14.44400 44.75200 40.15700
H  -14.30500 43.32100 41.16400
H  -14.47900 43.09900 39.41100
H  -16.00500 39.15900 40.27500
H  -15.87300 37.83800 43.06300
H  -17.10300 40.74900 41.23800
H  -16.24100 40.82600 42.74300
H  -17.59700 39.63400 42.46200
H  -16.25500 35.60100 41.13600
H  -17.12100 37.04600 40.44200
H  -18.01900 35.26700 42.34500
H  -18.83900 36.75100 41.74600
H  -17.87100 36.72200 43.21300
H  -14.04000 33.29600 43.17300
H  -12.58400 33.00900 44.13100
H  -12.69000 32.09800 42.69700
H  -8.76400 33.59800 39.48400
H  -5.11100 33.90700 42.17000
H  -6.05200 33.55000 43.65100
H  -5.49000 35.16700 43.16900

