158

Mg 16.80900 -1.26600 27.28300
C  15.60700 0.69900 30.13200
C  18.91700 -2.86800 29.34700
C  17.90700 -2.87700 24.56800
C  14.70200 0.76500 25.33000
N  17.16600 -1.09000 29.52900
C  16.50400 -0.36700 30.45100
C  17.06100 -0.60000 31.87500
C  18.22400 -1.70800 31.58900
C  18.11400 -1.95400 30.08400
C  19.60700 -1.38500 32.14500
C  15.91900 -1.04000 32.94100
C  16.03800 -0.46700 34.36400
H  17.40700 0.13600 34.86700
N  18.28400 -2.60800 26.99400
C  18.99400 -3.23200 27.96300
C  19.83000 -4.15700 27.42500
C  19.54400 -4.16200 26.05300
C  18.54400 -3.21300 25.81200
C  20.81200 -5.07700 28.26400
C  20.11500 -5.01300 25.03900
O  19.73800 -5.07100 23.86400
C  21.22900 -6.01300 25.39100
N  16.39400 -0.99100 25.23000
C  16.93900 -1.84800 24.29300
C  16.47400 -1.51400 22.88400
C  15.42000 -0.36900 23.17400
C  15.50000 -0.19200 24.63200
C  17.50800 -1.10200 21.93600
C  14.05800 -0.72300 22.60800
C  13.15900 -1.70000 23.41900
N  15.39400 0.32700 27.57700
C  14.70000 1.08200 26.71400
C  13.90100 2.10100 27.35200
C  14.24100 2.01500 28.66300
C  15.09500 0.91000 28.80700
C  12.95800 3.03500 26.67100
C  14.04000 2.57700 29.95500
O  13.30900 3.51100 30.29200
C  14.92700 1.69800 30.98800
C  15.75700 2.74900 31.62400
O  16.70300 3.36800 31.24900
O  15.05900 3.06600 32.73600
C  15.46700 4.20600 33.62000
H  19.64800 -3.34600 30.00300
H  18.02500 -3.40800 23.62000
H  14.07100 1.33400 24.64300
H  17.44000 0.38200 32.15900
H  17.93200 -2.64600 32.06100
H  19.92500 -2.18200 32.81700
H  19.64000 -0.46100 32.72300
H  20.26100 -1.37500 31.27300
H  16.12100 -2.09600 33.12000
H  15.01000 -0.76800 32.40500
H  15.62300 -1.17100 35.08600
H  15.39900 0.41500 34.31500
H  20.51500 -6.12400 28.20100
H  20.67900 -4.88700 29.32900
H  21.83500 -4.88500 27.94100
H  20.90300 -6.72900 26.14500
H  21.98200 -5.31100 25.74900
H  21.68800 -6.48800 24.52400
H  15.94600 -2.41800 22.57900
H  15.73700 0.57600 22.73300
H  18.47100 -1.07100 22.44400
H  17.22700 -0.13900 21.50900
H  17.61100 -1.88000 21.17900
H  14.19000 -1.14700 21.61300
H  13.52200 0.21000 22.43900
H  12.34200 -1.14500 23.88100
H  13.77000 -2.22100 24.15700
H  12.78300 -2.38600 22.66100
H  12.29000 3.52000 27.38200
H  12.27500 2.46200 26.04300
H  13.40000 3.88800 26.15600
H  14.20800 1.25300 31.67600
H  15.12300 4.11300 34.65000
H  15.22800 5.20000 33.24000
H  16.55700 4.22700 33.64300
Mg 25.45500 0.97300 29.79300
C  27.67300 0.48300 32.43600
C  23.01400 1.70100 32.05600
C  23.09800 1.14000 27.23000
C  27.74100 -0.21700 27.58700
N  25.45800 1.14300 31.95700
C  26.45200 0.83900 32.82600
C  26.01500 1.08100 34.25800
C  24.50100 1.12800 34.16300
C  24.31200 1.41400 32.60500
C  23.58000 -0.02100 34.63600
C  26.75500 2.27000 34.93400
C  26.85700 2.23400 36.45300
H  26.31000 3.32500 37.34000
N  23.36000 1.36900 29.65700
C  22.52600 1.64200 30.69600
C  21.24700 1.91500 30.24500
C  21.21700 1.67100 28.86200
C  22.59300 1.37200 28.53800
C  19.97400 2.14400 31.11000
C  20.11100 1.60900 27.96100
O  20.20600 1.22300 26.80800
C  18.69200 2.14700 28.34300
N  25.51400 0.84000 27.67900
C  24.40100 0.89000 26.83000
C  24.76000 0.34300 25.38700
C  26.33500 0.13400 25.48200
C  26.51600 0.23500 27.00900
C  23.91700 -0.87100 24.80700
C  27.32400 1.05800 24.74000
C  27.51200 2.46000 25.29000
N  27.41800 0.47100 29.93500
C  28.19500 -0.07400 28.92300
C  29.53400 -0.36200 29.46800
C  29.36700 -0.17800 30.84700
C  28.02900 0.29500 31.06800
C  30.69000 -0.90000 28.72100
C  30.01100 -0.23900 32.10900
O  31.11600 -0.66000 32.28500
C  29.01500 0.27000 33.18900
C  28.89800 -0.72100 34.28800
O  28.55300 -1.89600 34.14200
O  29.26100 -0.14700 35.46000
C  29.40900 -1.05800 36.61300
H  22.21100 1.94200 32.75600
H  22.44000 1.13100 26.35800
H  28.50200 -0.57300 26.88900
H  26.23500 0.16200 34.80200
H  24.23800 2.02600 34.72100
H  22.65200 -0.14500 34.07700
H  23.44100 0.14000 35.70500
H  24.21000 -0.91000 34.66000
H  26.22200 3.17500 34.64300
H  27.79800 2.33500 34.62200
H  27.91600 2.29600 36.70200
H  26.51500 1.27400 36.84100
H  20.17700 2.15300 32.18100
H  19.25200 1.34300 30.95400
H  19.50300 3.10900 30.92100
H  18.28300 1.40300 29.02600
H  18.04500 2.18700 27.46700
H  18.82700 3.13800 28.77500
H  24.61700 1.26500 24.82300
H  26.59900 -0.85200 25.09900
H  23.51900 -0.45900 23.88000
H  23.12000 -1.25700 25.44300
H  24.50800 -1.75000 24.55100
H  26.96500 1.14700 23.71400
H  28.33000 0.73600 24.47200
H  28.52600 2.56200 25.67500
H  26.90400 2.74800 26.14700
H  27.58000 3.28300 24.57800
H  31.49300 -1.03200 29.44700
H  30.96800 -0.37100 27.81000
H  30.35800 -1.86300 28.33500
H  29.40800 1.19600 33.60800
H  29.19400 -2.11500 36.46000
H  28.79500 -0.63000 37.40600
H  30.40800 -0.87200 37.00800

