158

Mg 1.85700 -2.75500 44.64600
C  5.05100 -1.52000 43.80300
C  0.44500 -0.71700 42.27700
C  -1.07300 -4.41100 45.09600
C  3.46100 -5.42500 46.44000
N  2.71900 -1.37800 43.14400
C  4.00600 -0.88000 43.08300
C  4.07100 0.35600 42.13100
C  2.55500 0.49100 41.63100
C  1.78500 -0.59200 42.49500
C  1.98400 1.89900 41.80100
C  5.09300 0.28500 40.96200
C  5.90300 1.56600 40.69700
H  5.44300 2.27500 39.47000
N  -0.13400 -2.43200 43.87800
C  -0.47900 -1.52900 42.94200
C  -1.93800 -1.54800 42.77700
C  -2.40900 -2.59900 43.67000
C  -1.18500 -3.25100 44.25400
C  -2.73100 -0.61400 41.86200
C  -3.86800 -2.93000 44.02600
O  -4.74000 -2.34400 43.41700
C  -4.18500 -3.95100 45.01400
N  1.29600 -4.60600 45.69300
C  0.01900 -4.94800 45.75400
C  -0.22400 -6.22200 46.59700
C  1.27900 -6.50300 47.09000
C  2.08900 -5.45200 46.36800
C  -1.41500 -6.28600 47.69100
C  1.78500 -7.96700 47.16200
C  2.14400 -8.48000 48.61400
N  3.83000 -3.36700 45.09300
C  4.33000 -4.42600 45.89100
C  5.69600 -4.21900 46.00300
C  6.01000 -3.05600 45.28200
C  4.85900 -2.62800 44.64400
C  6.65200 -5.05700 46.77900
C  7.15000 -2.25500 44.85600
O  8.35900 -2.33300 45.08500
C  6.48900 -1.08200 44.03400
C  6.61100 0.15500 44.81300
O  5.93700 0.52900 45.75500
O  7.79000 0.79800 44.53300
C  7.93800 2.11200 45.25000
H  0.04500 0.02100 41.57800
H  -2.00600 -4.88700 45.40400
H  3.90000 -6.16600 47.11100
H  4.25500 1.16700 42.83500
H  2.48100 0.21700 40.57800
H  1.04400 1.98400 42.34500
H  1.83200 2.37400 40.83200
H  2.66900 2.56800 42.32200
H  4.64100 -0.07100 40.03600
H  5.84300 -0.44300 41.27300
H  6.95300 1.30400 40.56900
H  5.87500 2.25800 41.53900
H  -2.06200 -0.15300 41.13500
H  -3.24700 0.07600 42.52900
H  -3.60600 -1.09000 41.41900
H  -3.85500 -4.90400 44.59800
H  -5.24200 -3.97600 45.27700
H  -3.67400 -3.62800 45.92000
H  -0.49600 -6.96100 45.84300
H  1.20500 -6.19700 48.13400
H  -2.12600 -7.05200 47.38300
H  -1.77600 -5.27100 47.52300
H  -1.15600 -6.34800 48.74800
H  2.66700 -8.05000 46.52600
H  0.97900 -8.62800 46.84400
H  3.09600 -8.99900 48.50200
H  1.44400 -9.21100 49.01900
H  2.39500 -7.60500 49.21400
H  6.46100 -5.10300 47.85200
H  7.64700 -4.61900 46.70200
H  6.76600 -6.08700 46.44100
H  7.00600 -1.02600 43.07600
H  9.02600 2.13200 45.30900
H  7.52300 2.14900 46.25700
H  7.66800 3.01800 44.70800
Mg 0.31600 8.27700 25.65100
C  1.17100 10.05000 28.67400
C  0.27600 5.40900 27.50400
C  0.42400 6.42100 22.81300
C  1.15700 11.08300 23.87700
N  0.94700 7.75600 27.85600
C  0.98200 8.68200 28.88200
C  0.86800 7.91000 30.24300
C  0.61600 6.37900 29.87100
C  0.58900 6.54600 28.29500
C  1.76000 5.39900 30.29400
C  -0.17600 8.56900 31.15500
C  0.09400 8.61600 32.70400
H  1.28500 7.95300 33.35300
N  0.18100 6.16900 25.23900
C  0.22700 5.15400 26.11900
C  0.01400 3.88200 25.46400
C  0.01000 4.19100 24.03000
C  0.23600 5.66200 23.96000
C  -0.00900 2.57500 26.26400
C  -0.04300 3.21100 22.79200
O  0.09500 3.57800 21.61000
C  -0.29800 1.71600 23.12500
N  0.73300 8.76400 23.62800
C  0.66700 7.82400 22.62600
C  0.74500 8.50100 21.25400
C  0.74900 9.94700 21.62800
C  0.78600 9.97100 23.13800
C  1.84500 8.00200 20.27700
C  -0.30900 10.82700 20.97200
C  -1.67500 10.98300 21.68300
N  0.84900 10.24900 26.20800
C  1.22500 11.20700 25.30700
C  1.70300 12.36800 26.05300
C  1.64100 11.95500 27.39000
C  1.21000 10.62500 27.39500
C  2.11200 13.65100 25.33900
C  1.98300 12.36600 28.72400
O  2.38400 13.39400 29.16900
C  1.60500 11.08600 29.63200
C  2.81100 10.77400 30.53500
O  3.69100 9.99300 30.32400
O  2.80100 11.62900 31.68000
C  3.87100 11.48700 32.62500
H  -0.05200 4.57100 28.12300
H  0.24400 5.78900 21.94000
H  1.39800 11.91900 23.21700
H  1.83500 8.02100 30.73200
H  -0.38000 6.00600 30.11200
H  2.49900 5.90500 30.91500
H  2.18600 4.88500 29.43200
H  1.33300 4.64500 30.95500
H  -1.04500 7.95200 30.92600
H  -0.36800 9.57500 30.78100
H  -0.83500 8.22600 33.12100
H  0.16500 9.67400 32.95300
H  -1.03600 2.31800 26.52800
H  0.50000 2.76500 27.20900
H  0.44800 1.72100 25.76400
H  0.62800 1.34400 23.56300
H  -0.35100 1.15400 22.19200
H  -1.20600 1.50400 23.69000
H  -0.21700 8.28700 20.79000
H  1.67600 10.46500 21.38100
H  2.60600 7.51500 20.88700
H  2.31100 8.87400 19.81700
H  1.67500 7.30700 19.45500
H  -0.44700 10.50100 19.94100
H  0.19500 11.78100 20.81500
H  -1.73200 10.22600 22.46600
H  -2.52000 11.09300 21.00400
H  -1.55100 11.98600 22.09200
H  3.18500 13.79400 25.21700
H  1.85100 14.44200 26.04100
H  1.51100 13.72300 24.43300
H  0.74900 11.49600 30.16800
H  4.77500 11.24300 32.06600
H  3.68400 10.62000 33.25800
H  4.10500 12.39800 33.17500

