158

Mg 45.45200 4.32300 47.55600
C  43.37800 7.03800 47.51400
C  42.61400 2.26800 47.11900
C  47.54600 1.71400 46.74400
C  48.25100 6.44100 47.42700
N  43.28100 4.63400 47.18600
C  42.66600 5.85600 47.19400
C  41.12400 5.82800 47.00600
C  40.90600 4.25100 47.07600
C  42.35000 3.66100 47.08400
C  39.94600 3.78100 48.22500
C  40.52100 6.38500 45.65000
C  41.43400 6.22000 44.48900
H  40.65200 5.57300 43.31000
N  45.12800 2.33800 47.07500
C  43.85300 1.66800 47.10700
C  44.13700 0.23100 47.05200
C  45.52100 0.04700 46.84500
C  46.12100 1.42300 46.83800
C  42.97700 -0.76700 47.14800
C  46.18300 -1.38900 46.63500
O  45.62800 -2.42400 46.87600
C  47.71700 -1.53100 46.32500
N  47.62700 4.16000 47.07100
C  48.20700 2.88900 47.01900
C  49.69600 2.92300 47.09200
C  49.86600 4.47100 47.39200
C  48.53600 5.07800 47.27700
C  50.22000 1.95600 48.21300
C  50.88600 5.20100 46.52200
C  52.31600 4.84000 46.97400
N  45.83900 6.37200 47.44200
C  47.04200 7.10700 47.47400
C  46.72200 8.50700 47.51400
C  45.31600 8.52800 47.58400
C  44.83400 7.19700 47.44600
C  47.70000 9.61600 47.55500
C  44.21700 9.34800 47.74500
O  44.20900 10.55200 47.82000
C  42.95000 8.51400 47.62000
C  42.09200 8.74100 48.74300
O  42.40600 8.52200 49.88800
O  40.90500 9.17200 48.34400
C  39.81600 9.26700 49.35100
H  41.70000 1.72400 46.86900
H  48.19700 0.83800 46.69100
H  49.10700 7.11600 47.48800
H  40.59000 6.17700 47.89000
H  40.40200 3.81300 46.21500
H  40.52500 3.27300 48.99600
H  39.24000 3.11700 47.72500
H  39.36500 4.58100 48.68500
H  40.35500 7.46100 45.71500
H  39.52700 6.03600 45.37200
H  42.25300 5.52800 44.68600
H  41.92700 7.14100 44.17800
H  42.04400 -0.35400 47.53000
H  43.18400 -1.68900 47.69000
H  42.61400 -1.05300 46.16100
H  47.87600 -2.50700 45.86700
H  48.29500 -1.40700 47.24100
H  47.96300 -0.85200 45.50900
H  50.12100 2.57800 46.14900
H  50.16800 4.59600 48.43200
H  50.71600 1.12600 47.71000
H  49.41000 1.57100 48.83200
H  50.93600 2.53100 48.80000
H  50.90100 6.29000 46.53900
H  50.92500 4.89400 45.47600
H  52.33900 3.96500 47.62400
H  52.81200 5.72100 47.37900
H  52.90000 4.61900 46.08100
H  48.16300 9.75200 48.53200
H  47.27200 10.60100 47.36900
H  48.51400 9.45200 46.84900
H  42.42100 8.78300 46.70500
H  40.20400 10.10600 49.92800
H  39.86900 8.34700 49.93200
H  38.80300 9.44800 48.99100
Mg 48.51800 44.83800 42.64500
C  44.94700 44.38500 42.32100
C  48.93600 41.52000 42.12900
C  51.93200 45.49400 42.36900
C  47.91200 48.31800 42.44100
N  47.03900 43.18000 42.39500
C  45.70900 43.21800 42.12200
C  45.16000 41.88500 41.89100
C  46.43400 40.86800 42.14400
C  47.60300 41.89700 42.22500
C  46.46200 40.03200 43.44100
C  44.35600 41.76700 40.57800
C  44.62900 42.76000 39.38700
H  44.77600 41.99900 38.01800
N  50.17300 43.65000 42.33400
C  50.16000 42.31800 42.09300
C  51.50300 41.88400 41.84900
C  52.38800 42.97400 41.92300
C  51.48000 44.14000 42.24000
C  51.70900 40.44400 41.52000
C  53.88400 42.81700 41.61700
O  54.29300 41.69600 41.46800
C  54.75400 44.02700 41.45600
N  49.79700 46.56000 42.54200
C  51.13900 46.60600 42.50200
C  51.63400 48.06900 42.52400
C  50.34000 48.92700 42.19800
C  49.25700 47.85100 42.51100
C  52.48100 48.46900 43.79800
C  50.26200 49.65900 40.83100
C  50.35700 51.21100 40.94600
N  46.84300 46.13000 42.48100
C  46.75800 47.52700 42.42100
C  45.37500 47.91500 42.32100
C  44.65600 46.72800 42.36900
C  45.59000 45.69200 42.34500
C  44.82100 49.32600 42.17700
C  43.33100 46.14300 42.36000
O  42.22400 46.75000 42.35900
C  43.47400 44.51300 42.32200
C  42.93500 43.95800 43.54400
O  42.09800 43.05200 43.59800
O  43.69600 44.33800 44.65500
C  43.36800 43.48300 45.82700
H  49.13400 40.46200 41.94600
H  52.97200 45.71200 42.11900
H  47.79700 49.40200 42.50300
H  44.50900 41.66900 42.73800
H  46.49200 40.21800 41.27100
H  45.64200 40.42600 44.04200
H  47.42500 40.18100 43.92800
H  46.34400 38.95500 43.32300
H  43.31700 41.77800 40.90600
H  44.57800 40.74300 40.27500
H  45.59200 43.26700 39.43900
H  43.72500 43.36700 39.33600
H  52.22600 40.24000 40.58300
H  50.86300 39.75700 41.54000
H  52.24300 39.84000 42.25500
H  54.69300 44.60300 42.38000
H  54.36000 44.66100 40.66200
H  55.78200 43.67400 41.37300
H  52.28200 48.26000 41.66900
H  50.23000 49.62200 43.03000
H  51.93500 48.82100 44.67300
H  53.21400 49.19300 43.44200
H  52.87700 47.49100 44.07200
H  49.33700 49.45400 40.29200
H  51.12400 49.34700 40.24000
H  51.11500 51.60700 40.27000
H  50.41500 51.65900 41.93800
H  49.46700 51.61300 40.46100
H  44.48000 49.83600 43.07800
H  43.99500 49.08400 41.50800
H  45.48800 49.97000 41.60400
H  43.01300 44.04200 41.45400
H  42.31100 43.65400 46.02900
H  44.05900 43.67800 46.64700
H  43.50600 42.44700 45.51800

