158

Mg 47.31900 25.48900 28.78200
C  48.10000 27.80500 31.30600
C  46.05200 23.47900 31.19700
C  46.77700 23.38500 26.41500
C  49.12900 27.51500 26.45400
N  47.04900 25.69200 31.05800
C  47.48100 26.70400 31.86900
C  47.05100 26.47200 33.37200
C  46.60900 24.88000 33.31900
C  46.53700 24.66800 31.76700
C  47.65700 23.92600 34.05100
C  45.90900 27.48000 33.73800
C  45.74400 27.86400 35.19500
H  46.24600 26.94700 36.24500
N  46.53200 23.67700 28.81000
C  46.05100 23.00200 29.89700
C  45.45300 21.74200 29.45200
C  45.66900 21.69200 28.06100
C  46.35800 22.95400 27.71100
C  44.82500 20.67200 30.28900
C  45.17100 20.65000 27.08600
O  45.28100 20.83300 25.92700
C  44.44700 19.40100 27.49000
N  47.71400 25.49600 26.71900
C  47.46400 24.44900 26.00900
C  48.17900 24.54700 24.61700
C  48.50800 26.06300 24.48400
C  48.47700 26.38100 26.00700
C  49.38500 23.55200 24.53000
C  47.56000 26.91200 23.66100
C  47.83300 28.47000 23.62400
N  48.37400 27.22900 28.79000
C  49.04900 27.99000 27.76800
C  49.49000 29.28200 28.29400
C  49.10300 29.25500 29.68000
C  48.50700 27.99800 29.95100
C  50.23000 30.35900 27.51200
C  49.17100 30.03400 30.93700
O  49.62900 31.09100 31.28000
C  48.57200 29.02700 31.97900
C  49.56400 28.81400 33.06600
O  50.70800 28.32400 32.93000
O  48.97800 29.23900 34.23900
C  49.88400 29.30400 35.42300
H  45.70600 22.74500 31.92800
H  46.54000 22.75700 25.55400
H  49.75800 28.03200 25.72700
H  47.95400 26.66400 33.95000
H  45.58800 24.76600 33.68400
H  47.97400 23.22100 33.28200
H  47.14500 23.33800 34.81300
H  48.40800 24.61500 34.43600
H  45.00000 27.06100 33.30700
H  46.09800 28.39100 33.17000
H  44.73100 28.26400 35.24200
H  46.38300 28.74100 35.29400
H  43.77000 20.46100 30.11400
H  44.77400 21.05400 31.30900
H  45.39500 19.75900 30.11400
H  45.16300 18.98100 28.19700
H  44.27800 18.77600 26.61200
H  43.48600 19.68300 27.91900
H  47.39800 24.28100 23.90500
H  49.52200 26.24500 24.12800
H  49.18500 22.87700 23.69800
H  49.41800 22.93300 25.42700
H  50.32500 24.10200 24.47200
H  46.58900 26.70900 24.11200
H  47.71300 26.59100 22.63000
H  48.91400 28.56600 23.72300
H  47.24500 28.86900 24.45100
H  47.41200 28.93200 22.73100
H  50.94100 29.72700 26.98100
H  50.74300 31.05800 28.17400
H  49.51100 30.86500 26.86800
H  47.74100 29.50500 32.49700
H  49.29500 29.02800 36.29700
H  50.21100 30.33800 35.53500
H  50.78500 28.69000 35.40100
Mg 43.51100 42.05200 26.23100
C  42.62000 44.53300 28.63100
C  44.66400 40.09300 28.84200
C  44.68700 39.95500 23.88800
C  43.32500 44.60100 23.86900
N  43.54200 42.23000 28.43800
C  42.95600 43.25100 29.21900
C  43.03400 42.91900 30.69900
C  44.13900 41.81400 30.73800
C  44.11300 41.29300 29.28800
C  45.50500 42.32300 31.11700
C  41.70200 42.45700 31.38000
C  41.26100 43.33500 32.60700
H  41.95200 43.12000 33.91000
N  44.38700 40.20000 26.32900
C  44.68600 39.56100 27.50400
C  45.12200 38.19000 27.12200
C  45.05700 38.13300 25.68400
C  44.66200 39.45700 25.23300
C  45.53300 37.15500 28.13700
C  45.33700 36.94500 24.80800
O  45.17900 36.93300 23.60600
C  45.88700 35.66900 25.50100
N  44.06600 42.20100 24.17400
C  44.44800 41.17700 23.37200
C  44.43300 41.59600 21.90900
C  44.00000 43.08100 21.98400
C  43.86000 43.38600 23.46200
C  45.82500 41.40500 21.13900
C  42.73500 43.36100 21.12700
C  41.31000 43.26900 21.76000
N  42.93800 44.08200 26.13000
C  42.91400 44.98900 25.12400
C  42.39100 46.26900 25.62000
C  42.27800 46.16700 26.98700
C  42.64600 44.79400 27.23300
C  41.83300 47.36600 24.68300
C  41.89600 46.84000 28.23900
O  41.34800 47.91500 28.43300
C  42.12300 45.82100 29.40100
C  43.07700 46.36100 30.29300
O  44.29500 46.29900 30.19500
O  42.38000 46.90700 31.41100
C  43.41300 47.20000 32.46500
H  45.01200 39.39500 29.60700
H  44.90600 39.14400 23.19000
H  43.18000 45.41800 23.15900
H  43.40100 43.84500 31.14100
H  43.84500 40.97600 31.37100
H  45.99100 41.49300 31.63000
H  45.46600 43.17500 31.79600
H  46.15200 42.68000 30.31600
H  41.74800 41.41700 31.70500
H  40.86600 42.48900 30.68100
H  40.20000 43.18700 32.81000
H  41.34600 44.41600 32.49600
H  45.14400 36.14800 27.98500
H  45.15300 37.56100 29.07500
H  46.62000 37.16300 28.21500
H  46.33700 35.04000 24.73300
H  45.05300 35.10300 25.91500
H  46.63100 35.94600 26.24800
H  43.67500 41.00300 21.39700
H  44.86300 43.63700 21.61600
H  45.61500 41.47200 20.07200
H  46.27900 40.46400 21.45000
H  46.53100 42.18200 21.43100
H  42.73200 42.65000 20.30100
H  42.78600 44.37200 20.72100
H  41.24500 43.07800 22.83100
H  40.60900 42.54300 21.34800
H  40.76900 44.20800 21.64500
H  42.62900 48.03800 24.36400
H  41.08100 48.04900 25.07800
H  41.33100 46.91700 23.82600
H  41.19600 45.54800 29.90600
H  44.31800 47.73200 32.17300
H  43.66900 46.30000 33.02500
H  42.89100 47.84500 33.17200

