158

Mg 17.08100 -1.12700 28.28600
C  15.67500 1.05000 30.76700
C  19.00100 -2.51700 30.60600
C  18.76300 -2.58200 25.82200
C  15.53700 1.02800 25.90100
N  17.18500 -0.71100 30.42800
C  16.52200 0.05300 31.27500
C  16.92900 -0.05200 32.81500
C  18.26500 -0.92800 32.57700
C  18.14600 -1.48200 31.09700
C  19.59400 -0.27000 32.96000
C  15.78100 -0.67700 33.69300
C  16.15200 -0.92200 35.16900
H  17.52700 -0.49100 35.85600
N  18.57600 -2.43800 28.27100
C  19.22500 -2.94900 29.37300
C  20.04300 -4.07100 28.95000
C  19.79100 -4.23200 27.53300
C  19.02100 -3.03000 27.16500
C  20.82700 -4.96800 29.83400
C  20.31200 -5.33300 26.65900
O  19.90400 -5.46000 25.50500
C  21.22500 -6.51900 27.12400
N  17.03500 -0.93300 26.10700
C  17.88400 -1.60400 25.35000
C  17.78600 -1.24900 23.88600
C  16.88400 0.06500 23.93000
C  16.48900 0.10300 25.40400
C  19.15800 -0.90500 23.33000
C  15.69800 0.00200 22.93500
C  14.41000 -0.54300 23.57300
N  15.69500 0.47200 28.29000
C  15.12100 1.23900 27.27200
C  14.20600 2.24600 27.74900
C  14.39300 2.19200 29.13000
C  15.30800 1.14900 29.40700
C  13.38100 3.19500 26.94400
C  14.08200 2.78300 30.43500
O  13.34100 3.70600 30.69200
C  14.88300 2.08600 31.48600
C  15.81500 3.04200 32.25500
O  16.61400 3.80000 31.71200
O  15.65100 2.89200 33.64500
C  16.59200 3.73100 34.46600
H  19.63600 -2.97900 31.36400
H  19.27900 -3.11500 25.02100
H  15.10200 1.69600 25.15400
H  17.11000 0.96000 33.17500
H  18.19400 -1.65200 33.38900
H  19.55800 0.71000 33.43600
H  20.39800 -0.18600 32.22900
H  20.00100 -0.96000 33.70000
H  15.57400 -1.62700 33.20000
H  14.84600 -0.13400 33.56200
H  16.04400 -1.99100 35.35600
H  15.40800 -0.32900 35.70000
H  20.41500 -5.95100 30.06400
H  20.91000 -4.50300 30.81600
H  21.81300 -4.95400 29.37000
H  20.75500 -7.21200 27.82100
H  22.14700 -6.06200 27.48500
H  21.57100 -6.99800 26.20800
H  17.20800 -2.03700 23.40200
H  17.46100 0.96500 23.71800
H  19.69000 -0.36400 24.11200
H  19.10700 -0.23300 22.47400
H  19.82400 -1.74600 23.13500
H  15.88100 -0.54400 22.00900
H  15.62000 1.03300 22.58900
H  13.80000 -0.94500 22.76400
H  13.76000 0.09800 24.16800
H  14.66900 -1.38900 24.21100
H  12.62300 3.63800 27.58900
H  12.81800 2.67100 26.17200
H  13.98200 4.07600 26.71900
H  14.19900 1.60000 32.18200
H  17.61500 3.62600 34.10400
H  16.37900 3.42100 35.48900
H  16.15800 4.73000 34.50500
Mg 9.57100 48.44500 25.99000
C  7.11100 48.99400 28.36200
C  11.95300 49.47100 28.22300
C  11.85900 47.96800 23.68200
C  7.05500 48.22800 23.54300
N  9.54500 49.08100 28.08100
C  8.41800 49.07600 28.90100
C  8.85500 49.31800 30.37100
C  10.28200 49.95100 30.11300
C  10.62900 49.46100 28.73100
C  10.45500 51.49200 30.25400
C  8.79300 47.97300 31.10400
C  9.45200 47.82400 32.42800
H  8.64300 47.36600 33.69200
N  11.66200 48.58700 25.96700
C  12.46900 49.09900 26.93900
C  13.87700 49.11300 26.50000
C  13.80300 48.58600 25.13800
C  12.40000 48.28900 24.91800
C  15.12700 49.41600 27.31700
C  14.92400 48.23400 24.16300
O  14.84100 47.64200 23.12800
C  16.34600 48.69900 24.53400
N  9.46900 48.25600 23.95500
C  10.56300 47.93800 23.20700
C  10.29300 47.57700 21.72800
C  8.73200 47.83500 21.64200
C  8.34400 48.07900 23.13200
C  11.02600 48.31700 20.68100
C  7.97900 46.75300 20.81700
C  7.19800 47.10600 19.64800
N  7.48400 48.38600 25.94200
C  6.60500 48.33600 24.89300
C  5.25500 48.34800 25.37600
C  5.43000 48.58500 26.74900
C  6.80400 48.66000 27.01500
C  4.04200 48.06100 24.50100
C  4.65400 48.78400 27.99800
O  3.47800 48.80000 28.17300
C  5.71500 49.25700 29.03500
C  5.57700 48.42000 30.24800
O  5.29300 47.26200 30.26900
O  5.36100 49.21800 31.27600
C  4.83900 48.70300 32.60600
H  12.70000 49.83900 28.93000
H  12.57800 47.75900 22.88700
H  6.32500 48.04400 22.75200
H  8.19400 50.03100 30.86400
H  10.87200 49.53700 30.93000
H  9.62200 52.04000 30.69300
H  10.48200 51.84400 29.22300
H  11.32800 51.69000 30.87500
H  9.21500 47.28300 30.37400
H  7.78000 47.60500 31.26500
H  9.94600 48.72500 32.79200
H  10.25600 47.09800 32.31000
H  15.82000 50.05900 26.77300
H  15.61400 48.46700 27.54100
H  14.88000 49.92300 28.25000
H  16.67400 48.28200 25.48600
H  16.39800 49.78800 24.53900
H  17.06400 48.30400 23.81400
H  10.60700 46.53400 21.68800
H  8.63000 48.77900 21.10500
H  12.10200 48.21400 20.82100
H  10.89700 49.38900 20.83600
H  10.64400 48.03400 19.70100
H  7.24000 46.31000 21.48400
H  8.61500 45.89400 20.60100
H  6.13000 46.89000 19.67300
H  7.66200 46.63600 18.78100
H  7.24800 48.18500 19.49700
H  3.53700 48.98000 24.20200
H  3.21500 47.58200 25.02400
H  4.36800 47.50200 23.62400
H  5.63100 50.31600 29.28000
H  4.12700 49.44200 32.97400
H  5.67600 48.72600 33.30500
H  4.26800 47.77700 32.65800

