158

Mg 1.53100 -1.67800 44.17100
C  4.67400 -0.55300 43.41100
C  0.14400 0.89500 42.59700
C  -1.43400 -3.47600 43.98200
C  3.06300 -4.70200 45.29100
N  2.32200 -0.19900 42.82800
C  3.59500 0.19200 42.88700
C  3.76700 1.63400 42.40100
C  2.25200 2.19500 42.54900
C  1.50900 0.87700 42.62000
C  2.06700 3.08900 43.81800
C  4.41300 1.70400 40.94300
C  5.79100 2.17200 40.76900
H  6.57800 1.57900 39.61400
N  -0.46800 -1.21800 43.57100
C  -0.81200 -0.08400 42.88600
C  -2.31500 -0.10300 42.70300
C  -2.73700 -1.33600 43.15700
C  -1.53900 -2.09000 43.55000
C  -3.05900 1.09700 42.34300
C  -4.20700 -1.83500 43.16200
O  -5.20000 -1.10800 42.93600
C  -4.54000 -3.32500 43.44100
N  0.95800 -3.76900 44.56500
C  -0.37900 -4.16400 44.49200
C  -0.52500 -5.64800 44.81900
C  0.89400 -5.97700 45.39100
C  1.74900 -4.75400 45.09800
C  -1.61200 -5.98800 45.85200
C  1.48100 -7.36300 44.87000
C  1.85400 -8.36400 46.00100
N  3.47200 -2.49600 44.36800
C  3.89600 -3.64600 44.97100
C  5.36200 -3.59000 45.12500
C  5.68100 -2.41700 44.46900
C  4.50300 -1.79100 44.02400
C  6.25400 -4.51000 45.77400
C  6.76300 -1.55300 44.11200
O  7.97400 -1.64500 44.31900
C  6.14100 -0.25200 43.49500
C  6.41200 0.89500 44.43300
O  5.56900 1.23300 45.23000
O  7.66500 1.54200 44.26900
C  7.79200 2.73100 45.12900
H  -0.35100 1.79900 42.23400
H  -2.34000 -4.08400 43.93000
H  3.56000 -5.60700 45.64400
H  4.38200 2.20500 43.09700
H  1.90500 2.70800 41.65200
H  1.40100 2.58200 44.51700
H  1.53500 3.94900 43.41000
H  2.95100 3.35600 44.39700
H  3.68400 2.24000 40.33500
H  4.48200 0.69900 40.52700
H  6.35100 2.08800 41.70000
H  5.71600 3.25000 40.62400
H  -4.14000 0.96200 42.36400
H  -2.84500 1.32000 41.29700
H  -2.86100 1.90300 43.04800
H  -4.32900 -3.51200 44.49400
H  -4.09800 -4.07200 42.78100
H  -5.60500 -3.54000 43.34400
H  -0.71700 -6.20900 43.90400
H  0.92400 -5.80200 46.46700
H  -2.31700 -5.16400 45.74100
H  -1.26500 -6.15900 46.87100
H  -2.20200 -6.82300 45.47400
H  2.32400 -7.19100 44.20100
H  0.71600 -7.86500 44.27700
H  2.94100 -8.42800 46.05700
H  1.56400 -9.38300 45.74800
H  1.42400 -7.98200 46.92700
H  5.82900 -5.00700 46.64500
H  7.07300 -3.83500 46.02500
H  6.53800 -5.25000 45.02500
H  6.60200 -0.07900 42.52200
H  8.25400 2.47000 46.08100
H  6.90900 3.27600 45.46300
H  8.43200 3.51200 44.71900
Mg 35.00000 3.55100 29.56500
C  32.56200 4.25800 32.12400
C  37.27600 2.98300 32.00300
C  37.10900 2.81100 27.18300
C  32.31100 4.10800 27.18200
N  34.96700 3.76000 31.78900
C  33.86400 3.96500 32.60500
C  34.30300 3.99100 34.13500
C  35.87000 3.70200 33.99000
C  36.07500 3.47400 32.48800
C  36.90200 4.71700 34.64000
C  33.48800 2.89600 34.92300
C  32.89600 3.47400 36.23500
H  33.76200 4.44500 37.03700
N  36.90800 2.92200 29.58900
C  37.68800 2.63200 30.68600
C  38.93800 1.98500 30.28900
C  38.91500 2.08300 28.80400
C  37.62400 2.65200 28.51500
C  40.05400 1.50600 31.20800
C  39.95600 1.60000 27.77100
O  39.76900 1.61500 26.56000
C  41.31900 1.11800 28.27200
N  34.69700 3.53300 27.41100
C  35.81000 3.08800 26.70000
C  35.41600 2.96800 25.23000
C  33.86900 3.21800 25.24700
C  33.57000 3.65800 26.67500
C  36.21600 3.96200 24.30200
C  32.97500 1.95400 24.89600
C  31.70100 2.42400 24.12900
N  32.89600 4.22800 29.60000
C  31.96300 4.35400 28.51500
C  30.71800 4.66200 29.09400
C  30.90400 4.65600 30.53400
C  32.24500 4.40300 30.78400
C  29.34900 4.78300 28.42600
C  30.21600 4.82200 31.79600
O  29.10000 5.08000 31.98000
C  31.33900 4.71800 32.95800
C  31.52200 6.03000 33.63600
O  31.97800 7.00300 33.06300
O  30.98600 6.07800 34.85800
C  30.92300 7.32700 35.61200
H  37.89000 2.53400 32.78700
H  37.67300 2.39900 26.34400
H  31.53900 4.22100 26.41900
H  34.16300 4.98000 34.57100
H  36.11300 2.74000 34.44000
H  37.45800 4.31300 35.48600
H  36.41900 5.58100 35.09700
H  37.72600 4.95600 33.96700
H  34.12300 2.03600 35.13400
H  32.65600 2.61100 34.27900
H  32.86500 2.57800 36.85500
H  31.88700 3.86700 36.10800
H  40.54400 0.57000 30.93900
H  39.66200 1.38800 32.21800
H  40.86300 2.22800 31.31600
H  41.63100 1.70700 29.13400
H  42.06200 1.06100 27.47600
H  41.03900 0.10700 28.57000
H  35.57600 1.92700 24.95000
H  33.82900 4.13700 24.66200
H  36.63400 4.76600 24.90800
H  35.49600 4.40200 23.61200
H  37.04100 3.48400 23.77500
H  32.67200 1.34700 25.74900
H  33.51200 1.33200 24.18100
H  31.63300 2.09300 23.09300
H  31.55300 3.50300 24.12800
H  30.81700 1.99900 24.60400
H  29.46300 5.46500 27.58300
H  28.63900 5.22500 29.12500
H  29.09300 3.75500 28.17200
H  30.98600 4.10100 33.78500
H  30.27300 7.16500 36.47200
H  30.31400 8.04200 35.05900
H  31.90600 7.56300 36.01900

