158

Mg 54.08700 25.40300 45.25800
C  51.46800 27.79500 44.61400
C  52.09200 22.92300 44.00100
C  56.77900 23.45800 44.80700
C  56.11600 28.23800 45.95700
N  52.11300 25.45600 44.30100
C  51.20800 26.47200 44.15700
C  49.93800 25.95200 43.53700
C  50.05200 24.45700 43.82500
C  51.50900 24.28000 44.05900
C  49.19400 23.87200 45.03900
C  49.73200 26.33200 42.04100
C  48.37400 26.00300 41.45400
H  48.24400 25.28900 40.15300
N  54.41100 23.34700 44.54600
C  53.41900 22.49500 44.24000
C  53.97200 21.13800 44.08700
C  55.34600 21.24200 44.49600
C  55.58200 22.71300 44.63100
C  53.08700 19.91400 43.77400
C  56.38600 20.14700 44.67200
O  56.13600 18.94800 44.38300
C  57.69800 20.42700 45.37800
N  56.13500 25.89200 45.15400
C  57.05000 24.85200 45.04600
C  58.48200 25.38000 45.25300
C  58.26300 27.01000 45.28700
C  56.70800 27.08400 45.51800
C  58.88800 24.85600 46.60800
C  58.78000 27.73700 44.02600
C  60.02300 28.68500 44.20200
N  53.79900 27.49400 45.60900
C  54.69400 28.49800 45.98500
C  53.95400 29.66800 46.38100
C  52.76500 29.51300 45.64600
C  52.70800 28.18200 45.22400
C  54.52100 30.99800 46.96700
C  51.53200 30.18100 45.24500
O  51.16000 31.31600 45.58600
C  50.68600 29.08200 44.53800
C  50.33500 29.52700 43.13900
O  51.14400 29.72200 42.27500
O  48.99600 29.51400 42.90300
C  48.54600 29.99000 41.59700
H  51.31500 22.17600 43.82500
H  57.71300 22.89500 44.85700
H  56.87600 28.97900 46.21100
H  49.02700 26.30800 44.01800
H  49.85100 23.85100 42.94100
H  49.70400 24.07000 45.98200
H  49.17300 22.78600 44.94900
H  48.19000 24.29500 45.02700
H  50.51200 25.85100 41.45100
H  49.99000 27.34900 41.74400
H  47.78400 26.92000 41.43800
H  47.83900 25.44800 42.22400
H  53.41200 19.39700 42.87100
H  52.02500 20.14000 43.68500
H  53.14100 19.25300 44.64000
H  58.41700 20.94300 44.74100
H  58.16200 19.55300 45.83400
H  57.45200 21.03900 46.24600
H  59.25900 25.14700 44.52400
H  58.71200 27.47500 46.16500
H  59.87500 24.39300 46.61200
H  58.21300 24.16200 47.10800
H  59.22000 25.63700 47.29200
H  57.90900 28.27900 43.65800
H  59.11600 26.97100 43.32700
H  60.53600 28.70200 43.24000
H  60.76600 28.30600 44.90300
H  59.57800 29.65200 44.43400
H  55.29600 30.65100 47.65000
H  53.73100 31.60100 47.41500
H  54.94000 31.61400 46.17100
H  49.75200 28.84300 45.04500
H  48.58400 29.29400 40.76000
H  48.98900 30.96500 41.39400
H  47.46600 30.11500 41.68600
Mg -13.31700 15.91000 43.43300
C  -10.00600 14.84900 42.61000
C  -12.52000 18.92800 41.99600
C  -16.57200 16.62200 43.45900
C  -13.90400 12.67500 44.62500
N  -11.35400 16.87500 42.49100
C  -10.20400 16.16400 42.17300
C  -9.24100 17.10200 41.42100
C  -10.11700 18.40300 41.22100
C  -11.41500 18.10600 41.94800
C  -9.49200 19.74500 41.70300
C  -8.79500 16.42100 40.05300
C  -7.24300 16.36900 39.92700
H  -6.66000 15.19800 39.20400
N  -14.37700 17.59300 42.84000
C  -13.81300 18.80600 42.52900
C  -14.86600 19.77400 42.35100
C  -16.11300 19.14100 42.62800
C  -15.77000 17.70100 43.02500
C  -14.63300 21.13500 41.77700
C  -17.41000 19.74000 42.48700
O  -17.61600 20.87100 42.02400
C  -18.65600 18.99300 42.84300
N  -15.01900 14.80700 43.86400
C  -16.26500 15.40000 43.96900
C  -17.28400 14.50900 44.79500
C  -16.33300 13.27500 45.12300
C  -14.94900 13.57600 44.45900
C  -17.85100 15.10700 46.10000
C  -16.82000 11.94500 44.49300
C  -17.73800 11.13700 45.39400
N  -12.23800 14.12000 43.61700
C  -12.56200 12.90600 44.16600
C  -11.40900 12.01000 44.13300
C  -10.39200 12.73600 43.53400
C  -10.90000 13.96800 43.31800
C  -11.39000 10.63400 44.61200
C  -9.00400 12.67800 43.19400
O  -8.24700 11.72300 43.34200
C  -8.70500 14.09800 42.64000
C  -7.76100 14.66400 43.60700
O  -7.91400 15.48400 44.50100
O  -6.47200 14.28100 43.18200
C  -5.43400 15.18900 43.72600
H  -12.25700 19.82900 41.43800
H  -17.65000 16.78500 43.52400
H  -14.20100 11.72700 45.07900
H  -8.42400 17.26700 42.12400
H  -10.30100 18.55400 40.15700
H  -10.06700 20.08100 42.56600
H  -9.34000 20.58300 41.02300
H  -8.43800 19.60600 41.94200
H  -9.17700 17.01600 39.22400
H  -9.15900 15.43000 39.77900
H  -6.84100 16.34600 40.94000
H  -6.90700 17.30500 39.48000
H  -15.10100 21.18700 40.79400
H  -13.58200 21.42600 41.77300
H  -15.25500 21.89900 42.24400
H  -18.90900 18.12000 42.24200
H  -19.49000 19.69500 42.84900
H  -18.54500 18.66400 43.87600
H  -18.01200 14.21700 44.03800
H  -16.17100 13.31900 46.20000
H  -17.28800 15.96900 46.45700
H  -17.95000 14.31200 46.84000
H  -18.86100 15.48000 45.93200
H  -16.00000 11.30000 44.17500
H  -17.27700 12.22300 43.54400
H  -18.61400 10.83400 44.82100
H  -18.16800 11.68900 46.22900
H  -17.37500 10.17600 45.75700
H  -10.53500 10.19500 44.09800
H  -12.33100 10.21100 44.25900
H  -11.39900 10.60800 45.70200
H  -8.24600 14.09500 41.65100
H  -4.46000 14.82100 43.40500
H  -5.39500 15.08000 44.81000
H  -5.53800 16.23500 43.43800

