158

Mg 53.76800 23.87300 44.26600
C  50.78800 25.52700 43.44000
C  52.34800 21.05100 43.01100
C  56.76300 22.46600 44.23400
C  55.16800 26.97800 45.17800
N  51.84300 23.50300 43.23800
C  50.73800 24.25800 42.98100
C  49.61300 23.48000 42.33900
C  50.01500 21.94500 42.72900
C  51.57800 22.16000 43.03900
C  49.21800 21.17200 43.87600
C  49.50600 23.83400 40.82000
C  48.05700 24.01700 40.22000
H  47.83800 23.23900 38.88000
N  54.47300 21.99000 43.64900
C  53.71800 20.95400 43.26500
C  54.57000 19.74300 43.04800
C  55.88400 20.10200 43.50800
C  55.80800 21.55500 43.77900
C  54.12700 18.39500 42.35500
C  57.10400 19.25800 43.50600
O  56.98500 18.07700 43.19400
C  58.43500 19.72200 44.13800
N  55.67300 24.68900 44.42000
C  56.80500 23.83600 44.37500
C  58.13900 24.70400 44.42800
C  57.56800 26.02000 45.07400
C  56.07600 25.92100 44.90400
C  59.33800 24.15900 45.19100
C  58.11200 27.42200 44.66800
C  59.10200 28.03000 45.66100
N  53.19800 25.87900 44.32200
C  53.82000 26.98100 44.85700
C  52.73600 27.92300 45.12900
C  51.58200 27.44700 44.53100
C  51.91400 26.21000 44.01400
C  53.02400 29.21300 45.79300
C  50.23000 27.73200 44.35000
O  49.62200 28.73900 44.67000
C  49.64300 26.52100 43.44300
C  49.21100 27.05000 42.12200
O  50.00800 27.43200 41.28700
O  47.86600 27.21000 42.04000
C  47.25700 27.84900 40.84700
H  51.82900 20.14700 42.68500
H  57.78000 22.07000 44.21400
H  55.53200 27.77300 45.83200
H  48.74800 23.89600 42.85500
H  49.91300 21.34100 41.82700
H  48.60000 21.89900 44.40300
H  49.93900 20.74100 44.57100
H  48.60300 20.34800 43.51400
H  49.97700 23.03000 40.25600
H  50.12600 24.70700 40.61400
H  47.85700 25.08500 40.12600
H  47.27000 23.72300 40.91600
H  54.20800 18.50400 41.27400
H  53.11600 18.29200 42.75000
H  54.63000 17.46900 42.63400
H  58.93500 20.35900 43.40800
H  59.00600 18.82700 44.38800
H  58.19600 20.20600 45.08400
H  58.40700 24.86000 43.38300
H  57.63100 26.01300 46.16200
H  59.60300 24.89500 45.95000
H  60.11800 23.92800 44.46600
H  59.12900 23.22700 45.71800
H  57.30000 28.06300 44.32400
H  58.56600 27.29600 43.68500
H  59.99300 28.27200 45.08200
H  59.27500 27.35900 46.50200
H  58.55200 28.90600 46.00500
H  54.07900 29.28800 46.05600
H  52.50800 29.24300 46.75300
H  52.81400 29.96300 45.03100
H  48.78200 26.13900 43.99100
H  46.23100 27.50400 40.97400
H  47.62800 27.39400 39.92800
H  47.27900 28.92300 41.02700
Mg -5.57300 25.24900 26.22100
C  -3.79000 26.69500 28.85700
C  -6.88200 23.00800 28.28700
C  -7.03200 23.83300 23.47400
C  -3.71100 27.27100 24.00100
N  -5.46700 25.07500 28.36800
C  -4.69300 25.72900 29.25000
C  -5.11200 25.29700 30.70200
C  -5.82700 23.90400 30.45400
C  -6.18000 24.05600 28.97300
C  -4.98500 22.65200 30.80200
C  -6.10500 26.35700 31.32400
C  -5.86400 26.63100 32.84500
H  -5.35700 25.30700 33.71000
N  -6.97100 23.78900 25.97900
C  -7.30200 22.86700 26.95800
C  -8.21800 21.88000 26.40100
C  -8.30800 22.16500 24.98900
C  -7.42900 23.33500 24.77500
C  -8.73800 20.72500 27.17100
C  -9.04000 21.49600 23.91900
O  -9.12200 21.85300 22.72700
C  -9.69000 20.23100 24.24400
N  -5.40000 25.44700 24.03200
C  -6.12100 24.79100 23.14300
C  -5.82200 25.17400 21.65700
C  -4.95200 26.41400 21.90900
C  -4.64400 26.38800 23.39000
C  -5.06300 24.02800 20.88600
C  -5.61300 27.76300 21.46100
C  -5.43300 28.14600 20.00500
N  -3.98200 26.67800 26.36500
C  -3.33600 27.37800 25.33000
C  -2.36600 28.22700 26.00100
C  -2.55600 28.02500 27.37400
C  -3.48100 27.05600 27.53400
C  -1.40400 29.31000 25.34200
C  -2.06100 28.41100 28.68700
O  -1.28700 29.29200 29.02000
C  -2.87600 27.51100 29.73200
C  -2.01300 26.66300 30.62800
O  -1.57000 25.55500 30.34400
O  -1.83900 27.22400 31.82700
C  -1.07600 26.58900 32.86400
H  -7.24500 22.15600 28.86600
H  -7.40700 23.30800 22.59300
H  -3.37900 27.99800 23.25700
H  -4.20700 25.15700 31.29400
H  -6.81100 23.79500 30.90900
H  -5.56600 21.93500 31.38100
H  -4.07100 22.99800 31.28500
H  -4.63500 22.23200 29.85900
H  -7.13100 25.99100 31.28400
H  -6.14400 27.33800 30.85100
H  -6.74900 27.10000 33.27400
H  -5.05500 27.35900 32.91500
H  -9.82000 20.82000 27.26000
H  -8.42400 20.58500 28.20500
H  -8.48500 19.78800 26.67500
H  -8.95600 19.50800 24.59800
H  -10.27600 19.83000 23.41700
H  -10.39100 20.45100 25.04900
H  -6.70600 25.50800 21.11200
H  -4.02600 26.38200 21.33600
H  -4.05000 24.34900 20.64300
H  -5.76000 23.81900 20.07500
H  -4.98400 23.11900 21.48200
H  -5.12000 28.63200 21.89700
H  -6.65500 27.91000 21.74400
H  -6.47500 28.30900 19.72700
H  -5.06200 27.28800 19.44400
H  -4.98900 29.12100 19.80300
H  -0.78600 28.97200 24.51100
H  -0.76600 29.75100 26.10800
H  -2.00200 30.09700 24.88300
H  -3.44400 28.17000 30.38900
H  -0.70000 25.57500 32.73100
H  -1.68800 26.67500 33.76200
H  -0.24300 27.29200 32.85100

