158

Mg 16.54500 -1.39500 27.97000
C  15.18200 0.91400 30.48300
C  18.51200 -2.65800 30.54900
C  18.18300 -2.98600 25.66800
C  15.02400 0.72400 25.66900
N  16.83300 -0.87200 30.29100
C  16.15900 0.07200 31.03600
C  16.44600 -0.18500 32.49900
C  17.60200 -1.19100 32.46000
C  17.67400 -1.68100 30.99800
C  18.96200 -0.64900 32.97100
C  15.19200 -0.79200 33.22000
C  15.03500 -0.36300 34.71100
H  16.15600 0.43000 35.54200
N  18.05700 -2.79800 28.09300
C  18.68400 -3.19900 29.17500
C  19.63000 -4.17500 28.80100
C  19.52700 -4.43900 27.42000
C  18.62500 -3.39000 26.96800
C  20.51100 -4.84900 29.83100
C  20.27100 -5.40400 26.50100
O  20.24100 -5.47600 25.24100
C  21.05400 -6.47500 27.08400
N  16.55400 -1.21500 25.89400
C  17.35600 -2.01000 25.19400
C  17.20800 -1.67200 23.64700
C  16.21700 -0.43700 23.74000
C  15.89600 -0.29100 25.21500
C  18.52900 -1.26500 22.97200
C  15.06100 -0.81200 22.84900
C  14.75200 -0.13900 21.53500
N  15.18700 0.26000 27.99200
C  14.67100 0.91300 26.99400
C  13.72500 1.94500 27.47600
C  13.92900 1.94800 28.84700
C  14.84000 0.95700 29.09100
C  12.75900 2.81800 26.66400
C  13.42200 2.54800 30.10100
O  12.50500 3.32200 30.26100
C  14.20700 1.79800 31.30300
C  14.93400 2.82700 32.07700
O  15.95500 3.45800 31.75600
O  14.34500 2.92200 33.25900
C  14.91000 3.82000 34.25300
H  19.17500 -3.16500 31.25300
H  18.71000 -3.57600 24.91600
H  14.58200 1.39600 24.93100
H  16.71300 0.72600 33.03500
H  17.31600 -1.95800 33.18000
H  19.33100 -1.41500 33.65400
H  18.87100 0.21800 33.62600
H  19.61600 -0.34700 32.15300
H  15.16300 -1.87300 33.08400
H  14.33100 -0.55100 32.59800
H  15.02700 -1.29600 35.27400
H  14.08500 0.14100 34.89000
H  21.39800 -5.30100 29.38600
H  20.05800 -5.64000 30.42900
H  20.92000 -3.98700 30.35800
H  20.58900 -6.78100 28.02100
H  22.04300 -6.01700 27.10000
H  20.98700 -7.40900 26.52600
H  16.74200 -2.49300 23.10300
H  16.70400 0.45000 23.33400
H  19.28900 -0.84000 23.62700
H  18.39200 -0.49700 22.21000
H  18.92500 -2.17400 22.51900
H  14.11200 -0.73800 23.37900
H  14.87700 -1.86900 22.65600
H  14.78700 -0.86300 20.72100
H  15.52600 0.59500 21.31100
H  13.79900 0.38800 21.48700
H  11.81000 2.28800 26.75100
H  13.06100 2.95200 25.62500
H  12.63500 3.83800 27.02700
H  13.52100 1.32100 32.00200
H  14.56600 4.84900 34.15200
H  15.99800 3.78100 34.31600
H  14.48100 3.47600 35.19400
Mg 26.83700 49.23300 26.60400
C  24.83100 50.57500 29.22300
C  29.17800 48.38300 28.97000
C  28.81700 48.49800 24.00900
C  24.46800 50.33000 24.36400
N  26.91100 49.47100 28.89900
C  25.93900 49.95500 29.72100
C  26.26000 49.57500 31.19800
C  27.67500 48.94600 31.05800
C  27.94000 48.85900 29.54200
C  28.90200 49.65900 31.76500
C  25.22000 48.59800 31.77000
C  24.70400 48.78800 33.17200
H  25.47400 49.64200 34.12800
N  28.75400 48.63000 26.54000
C  29.55600 48.25600 27.59600
C  30.83400 47.75100 27.13400
C  30.73200 47.81500 25.72700
C  29.39500 48.35400 25.37600
C  31.97900 47.19400 28.01200
C  31.74200 47.51900 24.71300
O  31.67000 47.74400 23.52500
C  33.04300 46.84200 25.09700
N  26.60200 49.33600 24.47900
C  27.53600 48.87400 23.62800
C  27.02400 48.91800 22.20200
C  25.47900 49.28800 22.42600
C  25.50600 49.67300 23.84000
C  27.74000 49.97200 21.31000
C  24.44500 48.25500 22.04600
C  23.16900 48.80800 21.41200
N  25.13600 50.45700 26.70800
C  24.30800 50.82600 25.67900
C  23.19000 51.56800 26.18800
C  23.34600 51.48800 27.61600
C  24.55700 50.85400 27.85000
C  21.95000 52.15000 25.38200
C  22.75600 51.87900 28.88700
O  21.66500 52.38200 29.21400
C  23.73500 51.23100 29.98500
C  24.22600 52.25100 30.95800
O  25.04800 53.09300 30.78400
O  23.38500 52.28700 32.05200
C  23.66800 53.26400 33.11200
H  29.88200 47.97500 29.69900
H  29.40900 47.99800 23.24000
H  23.55600 50.44000 23.77300
H  26.25600 50.48500 31.79800
H  27.52000 47.96600 31.51000
H  29.29800 49.12300 32.62800
H  28.53900 50.60800 32.15900
H  29.65000 49.92800 31.01900
H  25.40700 47.53500 31.61900
H  24.34300 48.72600 31.13600
H  24.30700 47.84900 33.55800
H  23.78600 49.37500 33.15500
H  32.26000 46.22900 27.59200
H  31.60600 47.11300 29.03400
H  32.81400 47.88600 27.90400
H  33.56200 47.57800 25.71100
H  33.64400 46.72800 24.19500
H  32.81400 45.85900 25.50800
H  27.19200 47.92900 21.77600
H  25.24100 50.22000 21.91300
H  27.06700 50.76500 20.98500
H  28.20300 49.41900 20.49300
H  28.55800 50.45300 21.84600
H  24.26400 47.62800 22.91900
H  24.97100 47.59500 21.35500
H  22.28500 48.76500 22.04800
H  22.94500 48.20500 20.53200
H  23.30300 49.84600 21.10600
H  22.27800 52.64400 24.46700
H  21.35100 52.79100 26.02900
H  21.24400 51.41400 24.99800
H  23.20600 50.59800 30.69800
H  22.65100 53.54500 33.38800
H  24.28300 54.10300 32.78500
H  24.09100 52.78800 33.99700

