158

Mg 52.83400 23.97000 45.01300
C  50.18500 25.96400 43.85000
C  50.89300 21.28100 43.86500
C  55.62500 22.12400 45.03000
C  54.48900 26.72200 45.92400
N  50.88100 23.72600 43.68300
C  49.95800 24.69000 43.35600
C  48.77000 24.09200 42.67300
C  48.95200 22.58900 42.84500
C  50.33600 22.48500 43.44400
C  47.81000 21.80700 43.56500
C  48.76600 24.46200 41.13600
C  50.10200 24.69000 40.34100
H  50.17600 25.31400 38.90600
N  53.19300 21.90800 44.64100
C  52.24100 20.96000 44.27600
C  52.88900 19.66300 44.22800
C  54.28000 19.84900 44.58000
C  54.45500 21.34800 44.79700
C  52.21500 18.34100 43.96800
C  55.29700 18.76600 44.73000
O  54.89200 17.58000 44.54900
C  56.71700 19.08400 45.08700
N  54.81600 24.40700 45.25300
C  55.75900 23.48700 45.31100
C  57.16500 24.08200 45.48900
C  56.83700 25.58400 45.91800
C  55.32300 25.62800 45.66900
C  58.04200 23.44700 46.61600
C  57.61000 26.71500 45.18600
C  58.90000 27.25600 45.80100
N  52.45100 26.04300 44.88500
C  53.16300 26.99000 45.51100
C  52.40500 28.24600 45.57800
C  51.18200 27.85100 44.90500
C  51.26900 26.52700 44.54000
C  52.69900 29.38600 46.34300
C  49.80000 28.26900 44.51200
O  49.18200 29.31500 44.56200
C  49.12000 27.00900 43.79700
C  48.90400 27.51100 42.38800
O  49.80600 27.77300 41.65600
O  47.58100 27.69800 42.07500
C  47.42900 28.50300 40.88200
H  50.27500 20.39200 43.72300
H  56.56300 21.58900 45.18900
H  55.11800 27.51500 46.33300
H  47.88800 24.42400 43.22000
H  48.99000 22.06500 41.89000
H  48.33000 21.29500 44.37400
H  47.32600 21.05400 42.94200
H  47.04400 22.43100 44.02600
H  48.12000 25.33700 41.06700
H  48.18800 23.72600 40.57700
H  50.51500 23.68200 40.29200
H  50.83200 25.26900 40.90700
H  52.59500 17.89100 43.05100
H  51.14400 18.41300 43.78100
H  52.37200 17.69200 44.83000
H  57.27000 18.14900 45.17700
H  56.81100 19.60800 46.03700
H  57.06500 19.64100 44.21700
H  57.74500 23.98500 44.57100
H  56.92600 25.68000 47.00000
H  57.45300 22.93000 47.37400
H  58.55100 24.17800 47.24500
H  58.79700 22.79700 46.17300
H  57.08800 27.65600 45.01000
H  57.84500 26.27700 44.21600
H  59.76100 26.93300 45.21600
H  59.16100 26.94500 46.81300
H  58.83800 28.33000 45.97500
H  53.42800 29.18200 47.12700
H  51.72700 29.55100 46.80800
H  52.96900 30.24000 45.72100
H  48.14600 26.73900 44.20500
H  46.35400 28.54100 40.70800
H  47.72500 27.97100 39.97800
H  47.78100 29.53200 40.95900
Mg 10.00600 47.67000 26.70500
C  7.90800 47.72800 29.51100
C  12.53200 49.04600 28.59500
C  11.86400 47.78900 23.99400
C  7.09600 47.49300 24.68600
N  10.18600 48.15300 28.83400
C  9.25300 48.10100 29.88700
C  9.88300 48.45700 31.20400
C  11.10600 49.29600 30.69000
C  11.36600 48.71900 29.29800
C  10.87400 50.78400 30.59600
C  10.23700 47.16600 32.05700
C  10.23800 47.21700 33.62300
H  9.70200 46.03400 34.54000
N  11.99000 48.12100 26.34500
C  12.86900 48.70300 27.29000
C  14.17000 48.70300 26.54200
C  14.00300 48.04100 25.26800
C  12.59300 47.98600 25.12700
C  15.46600 49.17100 27.24000
C  14.97700 47.49900 24.20000
O  14.65800 46.78500 23.26300
C  16.46000 47.73500 24.36800
N  9.51900 47.49900 24.59600
C  10.46600 47.71100 23.67800
C  10.00200 47.31300 22.26900
C  8.48300 47.19800 22.45400
C  8.32000 47.41300 23.97800
C  10.49300 48.21100 21.09100
C  7.92400 45.81000 22.06300
C  6.95500 45.87100 20.90100
N  7.91600 47.62700 26.98700
C  6.87700 47.54800 26.10100
C  5.61400 47.44600 26.77600
C  5.96200 47.53400 28.14100
C  7.40200 47.63700 28.20700
C  4.27600 47.41700 26.16200
C  5.45200 47.58600 29.51500
O  4.35700 47.59900 30.00100
C  6.69300 47.70400 30.44600
C  6.90000 46.43300 31.21000
O  7.16700 45.31800 30.79400
O  6.66900 46.71800 32.54000
C  6.64800 45.46000 33.35600
H  13.28000 49.55600 29.20600
H  12.37200 47.48500 23.07600
H  6.28300 47.35500 23.97000
H  9.09600 48.92400 31.79600
H  12.00800 49.17200 31.28800
H  10.89300 51.07900 29.54700
H  11.70000 51.36100 31.01100
H  9.89700 51.04300 31.00500
H  11.25800 46.88800 31.79400
H  9.64700 46.34100 31.65800
H  9.72200 48.11600 33.96000
H  11.25600 47.41000 33.95900
H  15.16700 49.47800 28.24300
H  15.84900 50.07000 26.75700
H  16.25700 48.42300 27.30300
H  16.73600 48.33300 25.23600
H  16.96300 48.03100 23.44700
H  16.92000 46.77300 24.59400
H  10.33100 46.29500 22.05900
H  7.89500 47.98700 21.98700
H  11.07100 49.06900 21.43600
H  9.69800 48.53800 20.42100
H  11.13300 47.64900 20.41100
H  7.31500 45.46900 22.90000
H  8.68100 45.07300 21.79600
H  6.01600 45.35600 21.10000
H  7.39400 45.58300 19.94500
H  6.58700 46.88500 20.74100
H  4.02600 46.44100 25.74600
H  4.16200 48.14600 25.35900
H  3.48300 47.58600 26.89100
H  6.80900 48.55600 31.11700
H  6.65900 45.72800 34.41300
H  7.54600 44.87500 33.16000
H  5.74600 44.86200 33.23000

