158

Mg 35.18600 2.92600 29.89300
C  33.07300 4.16600 32.32200
C  37.87900 3.30400 32.04700
C  37.14500 1.95400 27.23000
C  32.37000 2.76600 27.74700
N  35.50400 3.78900 31.83800
C  34.45800 3.97700 32.71500
C  35.03600 3.90500 34.23000
C  36.49800 4.09700 33.91800
C  36.65900 3.71900 32.52400
C  37.14400 5.48200 34.20800
C  34.51400 2.72200 35.10100
C  34.13300 3.18200 36.56300
H  35.01600 4.21900 37.34300
N  37.27500 2.59800 29.72500
C  38.22300 2.70100 30.77100
C  39.45900 2.16300 30.20500
C  39.31500 1.87200 28.81100
C  37.85700 2.09800 28.55300
C  40.73700 2.24300 30.98600
C  40.30200 1.31400 27.65700
O  39.89500 1.04100 26.49000
C  41.77100 1.03000 27.91400
N  34.86600 2.50400 27.80300
C  35.79700 2.18800 26.90100
C  35.30200 2.05000 25.52100
C  33.76200 2.07900 25.67800
C  33.60400 2.43800 27.21400
C  35.90000 2.92700 24.41600
C  32.99500 0.83800 25.18600
C  32.64300 -0.27300 26.16200
N  33.09800 3.41900 29.91500
C  32.06000 3.26400 28.98800
C  30.84900 3.78400 29.54000
C  31.11200 4.10900 30.89600
C  32.53000 3.89500 31.04300
C  29.53800 3.90600 28.78700
C  30.65800 4.53000 32.12000
O  29.50400 4.75100 32.51600
C  31.88900 4.51300 33.19100
C  32.02900 5.83500 33.79600
O  32.58400 6.77900 33.24800
O  31.41900 5.72900 35.02800
C  31.57800 6.91900 35.89700
H  38.74600 3.30700 32.71000
H  37.77100 1.74100 26.36000
H  31.53200 2.76200 27.04800
H  34.57500 4.82400 34.59300
H  36.99700 3.37400 34.56400
H  36.48600 6.18200 34.72300
H  37.46200 5.99800 33.30300
H  38.03000 5.45100 34.84100
H  35.27900 1.94700 35.13100
H  33.60300 2.30900 34.66900
H  34.14400 2.31200 37.21900
H  33.07000 3.41700 36.61900
H  41.58100 2.72700 30.49400
H  41.00400 1.20700 31.19300
H  40.66900 2.70200 31.97300
H  42.17200 0.36400 27.15000
H  41.77500 0.60200 28.91600
H  42.25800 2.00500 27.95900
H  35.65400 1.02500 25.40200
H  33.47800 2.94000 25.07400
H  36.51600 3.70600 24.86400
H  35.21000 3.47700 23.77400
H  36.47600 2.22200 23.81700
H  33.62100 0.44600 24.38400
H  32.02600 0.99800 24.71400
H  32.89900 -1.21400 25.67600
H  31.57900 -0.15300 26.36300
H  33.24000 -0.21600 27.07200
H  29.43100 3.28000 27.90100
H  29.34500 4.94900 28.53700
H  28.72300 3.55400 29.41900
H  31.63200 3.78800 33.96400
H  32.30500 6.64800 36.66200
H  30.59600 7.08000 36.34200
H  31.88100 7.85200 35.42100
Mg 5.97200 54.35100 40.81300
C  5.05100 51.01900 40.36600
C  9.11400 53.63100 39.39200
C  6.63500 57.55500 41.02500
C  2.58200 55.03700 41.85000
N  6.93600 52.56700 40.03800
C  6.38400 51.33600 39.89600
C  7.42000 50.30000 39.40500
C  8.81300 51.06000 39.52300
C  8.25700 52.49900 39.52100
C  9.56700 50.60700 40.81000
C  7.04700 49.99400 37.96300
C  7.67600 48.77800 37.28400
H  6.86300 48.13800 36.11100
N  7.55800 55.43100 40.22500
C  8.78200 54.96400 39.73900
C  9.63800 56.08300 39.53700
C  9.08900 57.23700 40.05800
C  7.69000 56.78600 40.48600
C  10.91900 56.00800 38.78400
C  9.72700 58.53300 40.09700
O  10.85700 58.71600 39.60800
C  9.07400 59.59000 40.79900
N  4.79100 56.06800 41.28200
C  5.33400 57.26300 41.39500
C  4.34600 58.37100 41.85400
C  3.03000 57.59200 41.88400
C  3.45600 56.10500 41.64200
C  4.64600 59.03400 43.27200
C  1.97900 57.96800 40.83200
C  0.93000 59.08200 41.20100
N  4.17200 53.26600 41.08200
C  2.94100 53.64400 41.58500
C  2.17800 52.44800 41.84800
C  3.00400 51.38500 41.34300
C  4.16100 51.91800 40.88800
C  0.85900 52.40000 42.50200
C  3.03300 49.94600 41.25300
O  2.31200 49.03800 41.65400
C  4.42500 49.70800 40.66300
C  4.36100 48.69200 39.56100
O  3.81400 48.75500 38.43900
O  5.09100 47.57800 39.98000
C  4.75200 46.35800 39.18100
H  10.16800 53.40500 39.21700
H  6.69200 58.64100 41.13400
H  1.62200 55.37000 42.25000
H  7.30400 49.39200 39.99600
H  9.36000 50.99200 38.58200
H  9.17900 49.72200 41.31300
H  9.45300 51.43400 41.51100
H  10.63200 50.60000 40.57500
H  7.26500 50.87500 37.35800
H  5.96800 49.90800 37.84000
H  8.00000 48.04400 38.02200
H  8.55000 49.18900 36.77700
H  11.79000 56.13900 39.42600
H  10.93300 56.83800 38.07700
H  11.01000 55.07200 38.23300
H  8.28700 59.97800 40.15200
H  9.72000 60.38200 41.17700
H  8.69200 59.02100 41.64700
H  4.55500 59.14700 41.11800
H  2.56000 57.58500 42.86700
H  3.66300 59.33100 43.63900
H  5.15500 59.94400 42.95300
H  5.35100 58.55800 43.95300
H  1.40600 57.16800 40.36400
H  2.56100 58.36200 39.99900
H  0.94100 59.79600 40.37700
H  1.26800 59.54900 42.12600
H  -0.06800 58.67000 41.35300
H  0.15700 52.32200 41.67200
H  0.66600 53.31900 43.05500
H  0.94300 51.48100 43.08300
H  5.05300 49.27400 41.44100
H  3.70000 46.08200 39.25100
H  5.38900 45.58400 39.61000
H  5.01300 46.51600 38.13400

