158

Mg 3.35000 0.76000 44.07900
C  6.35400 2.58900 43.97500
C  1.87200 3.54600 42.54500
C  0.73100 -1.06400 43.47400
C  5.28300 -2.04000 44.94100
N  4.10700 2.70600 43.09400
C  5.31900 3.23400 43.31400
C  5.42100 4.62200 42.78800
C  3.93900 4.94800 42.33500
C  3.22500 3.71100 42.69600
C  3.32800 6.23600 42.89600
C  6.51800 4.80600 41.71300
C  6.85400 3.67000 40.73800
H  7.15800 4.11100 39.26700
N  1.46300 1.20400 43.21900
C  1.05700 2.42300 42.76200
C  -0.28800 2.28800 42.37500
C  -0.65400 0.91000 42.53700
C  0.51200 0.25900 43.03500
C  -1.05900 3.37900 41.73400
C  -2.02300 0.40200 42.23900
O  -2.87400 1.14400 41.84300
C  -2.38700 -1.06700 42.32900
N  3.10500 -1.37600 43.92300
C  1.87000 -1.83500 43.76800
C  1.79800 -3.34500 44.12300
C  3.29100 -3.68300 44.57400
C  3.93700 -2.25800 44.56400
C  0.65200 -3.89600 45.18600
C  4.20100 -4.66800 43.77100
C  4.83600 -5.95600 44.36900
N  5.36400 0.30200 44.52800
C  5.96000 -0.80600 44.96700
C  7.30000 -0.53300 45.36200
C  7.51300 0.82000 45.03000
C  6.29300 1.28400 44.51400
C  8.33200 -1.50300 45.89400
C  8.50400 1.89800 45.03300
O  9.68400 1.99200 45.39800
C  7.74800 3.14900 44.31800
C  7.71600 4.34900 45.22700
O  8.58200 5.19100 45.19900
O  6.61000 4.38700 46.11000
C  6.56400 5.51600 46.98900
H  1.43700 4.41500 42.04700
H  -0.21700 -1.60100 43.55400
H  5.66200 -2.94100 45.42900
H  5.58900 5.40800 43.52400
H  3.83500 5.00600 41.25200
H  4.14000 6.85200 43.28200
H  2.56600 6.00200 43.63900
H  2.89700 6.77300 42.05100
H  7.38300 5.11100 42.30000
H  6.17300 5.65300 41.12000
H  5.99800 3.02600 40.53700
H  7.84300 3.28100 40.98000
H  -1.99500 3.45200 42.28800
H  -1.13800 3.28200 40.65200
H  -0.70500 4.40400 41.84000
H  -2.53400 -1.19200 43.40200
H  -1.56100 -1.63400 41.89800
H  -3.25100 -1.34200 41.72400
H  1.66400 -3.76500 43.12600
H  3.22000 -4.18500 45.53900
H  0.38500 -2.95000 45.65700
H  0.96100 -4.70800 45.84500
H  -0.19000 -4.35800 44.66900
H  5.03000 -4.11500 43.32900
H  3.54000 -5.12400 43.03500
H  4.72500 -6.80200 43.69000
H  4.48100 -6.29600 45.34200
H  5.91400 -5.85200 44.48700
H  8.21800 -1.48800 46.97800
H  9.29500 -1.06800 45.62700
H  8.19900 -2.49500 45.46000
H  8.41200 3.29800 43.46600
H  7.48900 6.07700 47.12300
H  6.45900 4.97900 47.93200
H  5.71100 6.15600 46.76700
Mg -10.76800 39.74000 42.76500
C  -9.00800 36.92000 41.63400
C  -8.55600 41.59000 40.95300
C  -12.90100 42.35700 43.16200
C  -13.37600 37.60800 43.91000
N  -9.01000 39.19900 41.29000
C  -8.40800 38.01900 41.08500
C  -7.08100 38.08600 40.18900
C  -6.83400 39.67200 40.28500
C  -8.19800 40.22400 40.83400
C  -5.63000 40.07800 41.12900
C  -7.32200 37.55200 38.74400
C  -6.54200 36.33800 38.23800
H  -5.94400 36.52100 36.90000
N  -10.73300 41.70400 42.19000
C  -9.79500 42.23600 41.40700
C  -10.05100 43.70600 41.23900
C  -11.15100 43.98500 42.05900
C  -11.66400 42.65400 42.52400
C  -9.26900 44.57500 40.39600
C  -11.60900 45.40100 42.32300
O  -11.06300 46.38900 41.86600
C  -12.91000 45.68500 43.11500
N  -12.83200 39.93500 43.56100
C  -13.51000 41.15200 43.60900
C  -14.90700 40.95100 44.20400
C  -15.07600 39.40100 44.29000
C  -13.66200 38.95200 43.86200
C  -15.10300 41.77700 45.50800
C  -16.26000 38.83800 43.37300
C  -17.05100 37.62900 43.92700
N  -11.05100 37.71400 42.93600
C  -12.15200 36.98700 43.46400
C  -11.83800 35.55900 43.42000
C  -10.59500 35.49600 42.65700
C  -10.11800 36.82700 42.43300
C  -12.72200 34.42100 43.91500
C  -9.63500 34.63300 42.12300
O  -9.60800 33.38400 42.10600
C  -8.58000 35.53600 41.44400
C  -7.24100 35.21900 41.87200
O  -6.88900 35.29300 43.04500
O  -6.66700 34.51000 40.86900
C  -5.37300 33.85800 41.08000
H  -7.79000 42.27600 40.58600
H  -13.51500 43.26000 43.15700
H  -14.19900 36.91100 44.08000
H  -6.29000 37.47800 40.62800
H  -6.65800 40.12400 39.30900
H  -4.88500 40.59500 40.52500
H  -5.14000 39.29300 41.70500
H  -5.95900 40.92000 41.73800
H  -7.42400 38.39200 38.05700
H  -8.34600 37.18300 38.69600
H  -7.21300 35.49500 38.07400
H  -5.68000 36.23600 38.89700
H  -8.74200 43.90600 39.71600
H  -8.54800 45.02500 41.07800
H  -9.89100 45.32800 39.91000
H  -12.87400 45.19400 44.08700
H  -13.78500 45.38500 42.53800
H  -13.06000 46.75100 43.28600
H  -15.70000 41.46300 43.66000
H  -15.27100 39.06400 45.30900
H  -14.13300 42.10700 45.87700
H  -15.63500 41.14000 46.21600
H  -15.68100 42.65500 45.22100
H  -15.82200 38.57300 42.41000
H  -16.87100 39.65700 42.99200
H  -18.01300 37.86400 44.38300
H  -16.44500 36.99900 44.57800
H  -17.17700 37.01700 43.03400
H  -12.23300 33.44900 43.86300
H  -13.65100 34.39200 43.34500
H  -13.06100 34.49900 44.94900
H  -8.67500 35.27600 40.39000
H  -4.67300 34.41000 41.70500
H  -4.87800 33.86100 40.10900
H  -5.55200 32.93700 41.63500

