158

Mg -1.69600 18.38700 27.19500
C  -2.10900 16.08800 29.78400
C  -2.15100 20.88900 29.35100
C  -1.53400 20.46500 24.62000
C  -1.54700 15.67400 24.94200
N  -2.26000 18.45900 29.30400
C  -2.28000 17.43700 30.20100
C  -2.51000 17.85300 31.74400
C  -2.57500 19.44900 31.43600
C  -2.29700 19.63700 29.95700
C  -3.92000 20.14500 31.85000
C  -1.41600 17.50600 32.78500
C  -1.19200 18.41300 34.01400
H  -0.88900 17.77500 35.35100
N  -1.97700 20.42000 27.02000
C  -2.10400 21.29400 28.00200
C  -2.16100 22.63600 27.47600
C  -1.75800 22.53500 26.07700
C  -1.77000 21.08000 25.85700
C  -2.21400 23.87300 28.29300
C  -1.48300 23.66400 25.03000
O  -1.03500 23.33900 23.94200
C  -1.63800 25.05300 25.36100
N  -1.74500 18.11100 25.07100
C  -1.50100 19.16400 24.21400
C  -1.37000 18.70300 22.73700
C  -0.99500 17.21300 22.96100
C  -1.55800 16.96300 24.35700
C  -2.68800 18.95400 21.81700
C  0.49700 16.72700 22.80000
C  0.76500 15.27100 22.37000
N  -1.73200 16.31700 27.29700
C  -1.64300 15.34600 26.30700
C  -1.65100 14.01300 26.98700
C  -1.92500 14.27600 28.31100
C  -1.86800 15.73100 28.48600
C  -1.60900 12.69200 26.31300
C  -2.17500 13.70600 29.63300
O  -2.28100 12.52700 30.00700
C  -2.27400 14.82100 30.62700
C  -1.18400 14.66500 31.56300
O  -0.04000 15.11500 31.39900
O  -1.71500 14.01300 32.67200
C  -0.77900 13.76400 33.74400
H  -2.14900 21.72100 30.05900
H  -1.44500 21.12000 23.75100
H  -1.29300 14.82500 24.30400
H  -3.44900 17.38800 32.04500
H  -1.77800 20.00000 31.93600
H  -3.57100 21.03800 32.37000
H  -4.55500 19.51100 32.46900
H  -4.51600 20.48900 31.00500
H  -0.45500 17.30200 32.31300
H  -1.62500 16.61700 33.38000
H  -2.03800 19.09800 34.06900
H  -0.29000 18.94600 33.71500
H  -1.17500 24.19400 28.37200
H  -2.57200 23.56400 29.27500
H  -2.87800 24.66800 27.95400
H  -2.65200 25.38100 25.13600
H  -0.90100 25.59300 24.76700
H  -1.29500 25.27800 26.37100
H  -0.49800 19.16900 22.27900
H  -1.56200 16.64600 22.22200
H  -3.43200 19.62200 22.25100
H  -3.16600 18.03600 21.47700
H  -2.26100 19.57500 21.02900
H  1.10200 16.91500 23.68600
H  0.90800 17.33300 21.99200
H  1.66000 14.91500 22.88100
H  0.86800 15.24000 21.28500
H  -0.12000 14.65900 22.54200
H  -1.14800 11.79000 26.71400
H  -1.11300 12.75100 25.34400
H  -2.57900 12.44500 25.88100
H  -3.25800 14.80500 31.09400
H  -0.61700 14.63600 34.37800
H  0.14500 13.43200 33.27000
H  -1.23000 12.91800 34.26200
Mg 1.94000 -1.04400 43.68400
C  5.44800 -0.54200 43.47200
C  1.48100 1.87800 42.06300
C  -1.04600 -2.17300 43.05100
C  2.84500 -4.45800 44.89300
N  3.29000 0.48000 42.84100
C  4.66100 0.49000 42.91900
C  5.13000 1.76300 42.23000
C  3.91800 2.61900 41.95600
C  2.77200 1.64800 42.27800
C  3.94900 3.91500 42.80300
C  5.86600 1.30700 40.84800
C  7.23100 1.94800 40.61200
H  7.23700 3.07300 39.62400
N  0.38700 -0.23100 42.79100
C  0.31900 1.00300 42.20800
C  -0.93200 1.20200 41.72500
C  -1.73400 0.09300 42.20600
C  -0.82200 -0.89600 42.63400
C  -1.36700 2.43000 40.97200
C  -3.29900 0.06300 42.06400
O  -3.90800 1.07000 41.62900
C  -4.07100 -1.13100 42.54200
N  1.06300 -3.04300 44.07300
C  -0.25900 -3.14900 43.70400
C  -0.83500 -4.60200 44.10000
C  0.43700 -5.41100 44.57100
C  1.52800 -4.22900 44.49100
C  -1.96000 -4.54900 45.15800
C  0.77700 -6.68400 43.74300
C  1.33400 -7.91500 44.50500
N  3.71500 -2.23700 44.24500
C  3.91200 -3.50500 44.77200
C  5.34700 -3.66600 45.06800
C  5.93600 -2.51700 44.66500
C  4.90900 -1.70000 44.08400
C  5.99400 -4.87400 45.71600
C  7.22100 -1.75900 44.64300
O  8.28000 -1.90300 45.20100
C  6.94000 -0.44400 43.79200
C  7.32300 0.71500 44.55100
O  6.90600 1.16000 45.60700
O  8.24000 1.40000 43.76100
C  8.52100 2.72400 44.17800
H  1.29800 2.83100 41.56200
H  -2.04400 -2.57000 42.85700
H  3.00700 -5.48800 45.21400
H  5.81700 2.39900 42.78800
H  3.85800 2.79500 40.88200
H  4.79400 4.04700 43.47900
H  2.99800 3.94200 43.33500
H  3.98000 4.81900 42.19400
H  5.20800 1.47400 39.99600
H  5.97900 0.22300 40.86400
H  7.98800 1.20600 40.35900
H  7.65000 2.39700 41.51300
H  -0.49500 2.91100 40.53000
H  -1.80900 3.07300 41.73300
H  -2.07600 2.18400 40.18100
H  -5.12900 -0.93000 42.37400
H  -3.94800 -1.20100 43.62300
H  -3.78800 -1.96900 41.90600
H  -1.25100 -5.02000 43.18300
H  0.41200 -5.75700 45.60400
H  -1.47400 -4.91600 46.06200
H  -2.86400 -5.15200 45.06800
H  -2.33100 -3.52600 45.20400
H  1.46600 -6.28300 43.00000
H  -0.17900 -7.00700 43.33000
H  2.37900 -8.10300 44.25800
H  0.79200 -8.80600 44.19000
H  1.25800 -7.73800 45.57800
H  5.22200 -5.49300 46.17400
H  6.77300 -4.60300 46.42900
H  6.56400 -5.39000 44.94400
H  7.49000 -0.50700 42.85300
H  7.96100 3.41300 43.54700
H  9.57700 2.92500 44.00000
H  8.31100 2.94600 45.22400

