158

Mg 41.13500 7.86700 28.67600
C  42.83200 9.23200 31.51600
C  38.79200 6.44700 30.69700
C  39.88300 6.33000 25.97100
C  43.96700 8.77700 26.74800
N  40.87800 7.85100 30.88100
C  41.62000 8.57400 31.83700
C  40.97800 8.42100 33.23800
C  39.72100 7.55200 32.95100
C  39.72500 7.30800 31.37700
C  39.68800 6.13500 33.65200
C  40.55100 9.81800 33.79400
C  39.93100 9.88100 35.19600
H  40.60500 10.59800 36.39300
N  39.52700 6.71100 28.41000
C  38.61400 6.25700 29.31700
C  37.57600 5.49100 28.65100
C  37.79900 5.66300 27.20300
C  39.13400 6.24700 27.13700
C  36.46000 4.71900 29.29600
C  37.01200 5.12300 25.99500
O  37.30400 5.26100 24.81200
C  35.65600 4.43600 26.26000
N  41.87700 7.53600 26.66400
C  41.16500 6.82100 25.72700
C  41.88300 6.77000 24.43800
C  43.27700 7.51100 24.70500
C  43.01100 8.05900 26.10000
C  42.08200 5.35200 23.80400
C  43.61600 8.60300 23.64100
C  43.94200 8.08900 22.24900
N  42.89400 8.89800 28.95600
C  43.89700 9.20500 28.08400
C  45.00400 9.98900 28.80300
C  44.57900 9.95200 30.14000
C  43.37400 9.21000 30.19800
C  46.27200 10.56300 28.24600
C  44.88600 10.34800 31.47600
O  45.88500 10.88300 31.88200
C  43.80200 9.90100 32.42200
C  44.33500 9.03100 33.48900
O  44.86500 7.94000 33.29700
O  44.01500 9.50000 34.73800
C  44.64600 8.72400 35.84800
H  38.10400 5.88200 31.33000
H  39.40800 5.76000 25.17000
H  44.77000 9.17000 26.12200
H  41.70700 7.92000 33.87400
H  38.82400 8.09500 33.25000
H  40.57500 6.03800 34.27800
H  39.71300 5.26500 32.99700
H  38.83000 5.93100 34.29200
H  39.84500 10.23100 33.07400
H  41.32200 10.58400 33.88000
H  39.83800 8.84200 35.51300
H  38.92200 10.29300 35.20500
H  36.41600 4.90700 30.36900
H  36.60400 3.66200 29.07200
H  35.63300 5.20100 28.77700
H  35.87600 3.67800 27.01200
H  35.30300 4.10000 25.28500
H  35.04600 5.27900 26.58700
H  41.34600 7.38400 23.71500
H  44.18300 6.90900 24.77800
H  41.51300 4.51100 24.20200
H  43.13900 5.08700 23.81700
H  41.64100 5.44100 22.81100
H  44.33600 9.37400 23.91400
H  42.77700 9.26500 23.42500
H  43.27000 8.54200 21.52000
H  43.82400 7.00600 22.26000
H  44.97800 8.36800 22.05400
H  46.98000 10.94700 28.98100
H  45.97300 11.30200 27.50200
H  46.86400 9.90300 27.61200
H  43.38300 10.77400 32.92100
H  44.40600 7.66100 35.83300
H  44.53400 9.11600 36.85900
H  45.71400 8.72800 35.63300
Mg 26.58700 52.26400 25.80100
C  24.00100 53.04000 28.19800
C  28.58400 51.66100 28.40900
C  29.07800 51.82700 23.59800
C  24.47100 53.45600 23.33600
N  26.32400 52.54500 28.12600
C  25.16300 52.73300 28.83800
C  25.41500 52.35900 30.35100
C  26.93900 51.97400 30.32000
C  27.34100 52.05100 28.85100
C  27.92900 52.78700 31.31300
C  24.50100 51.20200 30.83200
C  23.56800 51.55500 32.02300
H  23.62500 50.62100 33.25400
N  28.60300 51.70700 26.00100
C  29.22000 51.53500 27.17500
C  30.52200 51.05000 26.94600
C  30.73300 51.08600 25.49000
C  29.49800 51.52500 24.96200
C  31.42700 50.46500 27.99700
C  31.84800 50.54100 24.66200
O  31.83800 50.60300 23.43900
C  32.92900 49.73500 25.30900
N  26.75500 52.52200 23.78600
C  27.93000 52.29500 23.12300
C  27.74800 52.67000 21.66700
C  26.27400 53.21300 21.52600
C  25.78300 53.04600 22.92000
C  28.92000 53.50800 21.07100
C  25.41400 52.66600 20.35200
C  25.30700 53.43200 19.00500
N  24.58900 53.04200 25.77800
C  23.86700 53.42200 24.66200
C  22.48600 53.75700 25.01600
C  22.49600 53.60400 26.42900
C  23.76600 53.19800 26.78200
C  21.34300 54.09700 24.08400
C  21.73100 53.68100 27.68400
O  20.57900 53.92900 27.87700
C  22.65500 53.42800 28.83400
C  22.78600 54.78800 29.47400
O  23.03000 55.82300 28.91000
O  22.69600 54.68900 30.80800
C  22.60000 55.97600 31.51500
H  29.33000 51.32800 29.13300
H  29.81000 51.65200 22.80700
H  23.76200 53.68800 22.53900
H  25.34800 53.18800 31.05500
H  27.02700 50.94600 30.67100
H  28.85500 53.09500 30.82900
H  28.34500 52.05900 32.00900
H  27.48200 53.50300 32.00300
H  25.08800 50.32100 31.09400
H  23.80200 51.02400 30.01600
H  22.49400 51.55500 31.83500
H  23.88000 52.52700 32.40400
H  31.37700 49.40200 27.76000
H  31.14000 50.64900 29.03200
H  32.45500 50.80200 27.86700
H  32.54000 48.90700 25.90200
H  33.50900 50.32700 26.01700
H  33.55100 49.28100 24.53800
H  27.77000 51.73000 21.11600
H  26.23900 54.28900 21.36000
H  29.57200 54.04400 21.76000
H  28.52200 54.25200 20.38100
H  29.56600 52.85000 20.49000
H  24.38900 52.41400 20.62700
H  25.88000 51.74600 20.00000
H  24.33800 53.27300 18.53200
H  25.96000 53.20400 18.16300
H  25.54800 54.47800 19.19400
H  20.40900 54.01700 24.64100
H  21.29200 53.27400 23.37200
H  21.49100 55.04200 23.56100
H  22.26900 52.67300 29.51800
H  23.59900 56.32000 31.78200
H  22.01400 55.68400 32.38700
H  22.04200 56.77800 31.03300

