158

Mg 8.96300 3.18700 27.20500
C  10.17700 1.65300 30.08300
C  7.29800 5.42900 29.22600
C  7.77700 4.52600 24.43900
C  10.56300 0.69600 25.34500
N  8.67200 3.40200 29.51300
C  9.31800 2.73000 30.49700
C  9.05000 3.34600 31.90300
C  8.02700 4.49300 31.54800
C  7.98700 4.43300 30.01300
C  6.69500 4.51100 32.20300
C  10.44600 3.79900 32.50300
C  10.54700 4.58800 33.81800
H  11.22100 4.00200 35.03600
N  7.80800 4.82100 26.82700
C  7.14900 5.58300 27.80200
C  6.42500 6.56200 27.11600
C  6.62200 6.32500 25.73600
C  7.45900 5.20000 25.59000
C  5.80000 7.72600 27.77000
C  6.02700 7.20200 24.61400
O  6.20500 7.00400 23.42200
C  4.86600 8.16300 24.93700
N  9.21100 2.69400 25.15100
C  8.58300 3.41200 24.15000
C  8.74000 2.79800 22.74000
C  9.72700 1.63000 23.10100
C  9.84400 1.63900 24.62800
C  7.44000 2.22200 22.05600
C  11.11500 1.93100 22.51500
C  11.37100 1.70700 20.95400
N  10.00200 1.39300 27.59700
C  10.66500 0.53600 26.74800
C  11.40100 -0.40400 27.50700
C  11.12100 -0.08600 28.85800
C  10.31900 1.09300 28.85600
C  12.24200 -1.58400 27.03900
C  11.37100 -0.50200 30.16500
O  12.08700 -1.41800 30.59100
C  10.86700 0.68100 31.07100
C  10.03400 0.08500 32.12500
O  8.96600 -0.38900 32.08200
O  10.82300 0.06900 33.20600
C  10.07000 0.17500 34.44500
H  6.75300 6.20000 29.77500
H  7.29400 5.06100 23.61800
H  11.10000 -0.02000 24.71900
H  8.58500 2.51300 32.43000
H  8.49800 5.44600 31.79000
H  5.99000 5.03700 31.55900
H  6.79400 5.10400 33.11200
H  6.33400 3.56400 32.60400
H  10.86500 4.31200 31.63800
H  10.96300 2.84800 32.63700
H  9.52300 4.70800 34.17000
H  10.95000 5.58000 33.61600
H  6.26200 7.86700 28.74700
H  4.75900 7.45200 27.93900
H  5.93300 8.67200 27.24400
H  4.40200 8.32600 23.96500
H  5.50400 9.01700 25.16400
H  4.21500 7.87200 25.76200
H  9.17700 3.59100 22.13300
H  9.42200 0.65300 22.72500
H  7.25500 2.75600 21.12400
H  6.62300 2.29000 22.77400
H  7.51100 1.15200 21.86400
H  11.83200 1.37600 23.12100
H  11.35100 2.97200 22.73800
H  11.61300 2.62300 20.41500
H  10.51000 1.43000 20.34400
H  12.15300 0.97900 20.73800
H  13.04900 -1.86600 27.71600
H  12.56100 -1.25200 26.05100
H  11.53700 -2.41400 27.02400
H  11.75100 1.16000 31.49200
H  9.70100 1.20100 34.46300
H  10.62500 0.09400 35.38000
H  9.17800 -0.44700 34.52400
Mg 45.12600 3.48500 47.76300
C  43.03000 6.03100 46.79300
C  42.67300 1.22300 47.11800
C  47.35400 1.03400 48.03700
C  47.73800 5.79800 47.03100
N  43.07600 3.61900 46.86300
C  42.42300 4.78700 46.65900
C  40.92200 4.45900 46.25400
C  40.79900 2.93900 46.71600
C  42.28100 2.55800 46.85700
C  39.95700 2.71400 47.96700
C  40.70400 4.71400 44.78800
C  39.59200 5.75600 44.62500
H  38.56900 5.55200 43.42400
N  45.02600 1.45400 47.68700
C  43.91500 0.70500 47.43600
C  44.15100 -0.75600 47.64100
C  45.50400 -0.88300 48.02200
C  46.03900 0.53000 47.90000
C  43.14200 -1.85000 47.38200
C  46.23800 -2.12300 48.40500
O  45.61300 -3.20500 48.51000
C  47.67800 -2.12700 48.77700
N  47.23600 3.49400 47.66400
C  47.89800 2.31200 47.92100
C  49.46700 2.57100 47.86600
C  49.55500 4.06500 47.41400
C  48.12100 4.47800 47.29800
C  50.11000 2.19000 49.23800
C  50.36400 4.14700 46.06700
C  51.87800 4.43000 46.25300
N  45.42800 5.59900 47.30300
C  46.51700 6.42900 47.12300
C  46.10700 7.83800 46.96800
C  44.69800 7.72300 46.90300
C  44.34600 6.29600 47.03700
C  47.06700 8.99700 46.67400
C  43.54500 8.45400 46.51800
O  43.25600 9.59400 46.18200
C  42.38000 7.41000 46.63500
C  41.38600 7.90000 47.70700
O  41.49400 7.63900 48.85900
O  40.26200 8.37000 47.08900
C  39.13000 8.81600 47.86400
H  41.75900 0.66200 46.91000
H  48.06500 0.23300 48.25000
H  48.58300 6.48500 46.96100
H  40.28000 5.03300 46.92200
H  40.31600 2.32300 45.95700
H  39.59400 3.63100 48.43000
H  40.60400 2.08600 48.58100
H  39.02600 2.22500 47.68100
H  40.39600 3.78400 44.31100
H  41.55100 5.14200 44.25200
H  40.06300 6.73800 44.56400
H  38.89900 5.90000 45.45400
H  42.17100 -1.51400 47.01800
H  42.98200 -2.58300 48.17300
H  43.59400 -2.46800 46.60600
H  48.37600 -1.82200 47.99800
H  47.87300 -3.16900 49.02900
H  47.93000 -1.61700 49.70800
H  49.71600 1.83500 47.10100
H  49.88600 4.63600 48.28100
H  49.49300 1.96300 50.10700
H  50.84900 2.96500 49.44300
H  50.74200 1.30200 49.25300
H  49.88900 4.89700 45.43500
H  50.32000 3.26900 45.42300
H  52.11800 4.75700 47.26500
H  52.03600 5.28100 45.59000
H  52.49900 3.60800 45.89400
H  48.12800 8.76900 46.77200
H  46.80800 9.78600 47.38000
H  46.79000 9.20600 45.64000
H  41.87600 7.37300 45.66900
H  39.52200 9.29900 48.75900
H  38.55600 7.89800 47.98800
H  38.77300 9.41500 47.02600

