158

Mg 9.21400 4.59300 27.28700
C  10.39700 2.78100 30.17900
C  7.26700 6.38900 29.45300
C  8.05700 6.09000 24.68600
C  10.64000 2.05100 25.35300
N  8.95500 4.66200 29.65800
C  9.60800 3.86900 30.60400
C  9.16800 4.29200 32.00400
C  7.99900 5.41000 31.78700
C  8.05300 5.55800 30.23200
C  6.56200 5.05400 32.28900
C  10.47000 4.84300 32.68200
C  10.88400 4.16100 34.04100
H  10.87300 4.91400 35.35600
N  7.80000 5.99500 27.05800
C  7.08600 6.66200 28.07700
C  6.18500 7.59600 27.48000
C  6.30800 7.46300 26.11300
C  7.45400 6.52200 25.88400
C  5.39900 8.43300 28.42300
C  5.51100 8.07400 25.03400
O  5.76300 8.00200 23.82800
C  4.27200 8.95800 25.48700
N  9.38000 4.15500 25.31600
C  8.91700 5.00600 24.34500
C  9.26200 4.47500 22.93100
C  10.07900 3.22900 23.23700
C  9.97700 3.11900 24.70000
C  8.06400 4.07000 22.03300
C  11.57800 3.28300 22.70500
C  11.80200 2.28300 21.58800
N  10.38900 2.79000 27.63000
C  10.76000 1.83000 26.71000
C  11.39300 0.73100 27.39300
C  11.26800 1.02000 28.77800
C  10.68600 2.28900 28.89100
C  12.01300 -0.51300 26.73900
C  11.61000 0.61600 30.14000
O  12.18500 -0.40500 30.50600
C  11.02400 1.70500 31.04500
C  10.09000 0.98700 32.04300
O  8.97700 0.63400 31.83400
O  10.66400 0.83600 33.27300
C  9.97200 0.09500 34.31800
H  6.69600 6.97400 30.17700
H  7.90600 6.59900 23.73200
H  11.03600 1.28200 24.68600
H  8.77400 3.33500 32.34700
H  8.15800 6.42200 32.15900
H  5.94000 5.94800 32.26100
H  6.57800 4.84000 33.35700
H  6.04700 4.29200 31.70400
H  10.45900 5.92200 32.84000
H  11.33100 4.85900 32.01400
H  11.91100 3.82500 33.89300
H  10.34200 3.22300 34.15800
H  4.46600 7.88900 28.57000
H  5.06700 9.39900 28.04400
H  6.00700 8.66300 29.29800
H  3.44800 8.46300 26.00100
H  3.87800 9.23200 24.50900
H  4.65400 9.87700 25.93100
H  9.99000 5.13200 22.45500
H  9.66100 2.30600 22.83500
H  7.63300 3.15600 22.44300
H  8.32100 3.83800 20.99900
H  7.38400 4.92100 21.98700
H  12.28600 3.01100 23.48800
H  11.91200 4.24500 22.31700
H  10.90800 2.36800 20.97100
H  11.97600 1.25200 21.89500
H  12.68500 2.60200 21.03500
H  12.03500 -0.39700 25.65600
H  11.51500 -1.44500 27.00500
H  13.05000 -0.56100 27.07100
H  11.86700 2.13100 31.59000
H  9.18300 -0.49600 33.85300
H  9.55000 0.83500 34.99800
H  10.71400 -0.54400 34.79600
Mg 49.14400 45.33000 42.62100
C  45.73800 45.77100 41.71000
C  48.80700 42.02000 42.03400
C  52.49100 45.03100 42.49600
C  49.46900 48.87900 42.38600
N  47.42000 44.12400 41.84600
C  46.13100 44.42100 41.61800
C  45.29200 43.17900 41.19600
C  46.26000 41.96200 41.54300
C  47.58700 42.75600 41.80000
C  45.91500 41.08800 42.75100
C  44.54900 43.24800 39.80700
C  45.32400 44.10200 38.69200
H  45.67900 43.27100 37.42600
N  50.50300 43.77000 42.44000
C  50.13100 42.46900 42.34400
C  51.30200 41.64200 42.28600
C  52.44400 42.47200 42.42800
C  51.82400 43.80500 42.43100
C  51.22600 40.18000 42.24200
C  53.96800 42.04200 42.54900
O  54.30000 40.87800 42.48500
C  55.06400 43.01700 42.86100
N  50.68800 46.73100 42.28200
C  51.99900 46.36800 42.47200
C  52.89400 47.60400 42.64300
C  51.98000 48.82000 42.50400
C  50.61800 48.11800 42.34500
C  53.70000 47.54200 43.93700
C  52.31000 49.84000 41.39300
C  51.93500 51.27300 41.71400
N  47.86900 47.05500 42.37400
C  48.10400 48.40200 42.33300
C  46.85700 49.12400 42.26500
C  45.92500 48.13500 42.04200
C  46.60400 46.82500 42.06300
C  46.76500 50.62800 42.36900
C  44.55000 47.92200 41.72500
O  43.67000 48.77700 41.68600
C  44.37800 46.40600 41.34200
C  43.25200 45.85300 42.17800
O  42.36500 45.10600 41.72900
O  43.26300 46.23800 43.49500
C  42.14600 45.77900 44.42600
H  48.64500 40.94100 41.98300
H  53.56300 44.88900 42.64900
H  49.58400 49.96500 42.38600
H  44.54900 43.12900 41.99100
H  46.32100 41.26900 40.70400
H  46.05000 40.02300 42.56000
H  44.88100 41.26300 43.04800
H  46.56200 41.27900 43.60700
H  43.53600 43.59900 40.00500
H  44.43100 42.20900 39.49900
H  46.33200 44.44100 38.93300
H  44.71500 44.96500 38.42300
H  51.03400 40.06000 41.17600
H  50.40300 39.71600 42.78600
H  52.16800 39.66200 42.42200
H  54.88100 43.52800 43.80600
H  55.13200 43.70800 42.02100
H  56.07000 42.59700 42.86800
H  53.60300 47.61800 41.81500
H  51.78300 49.39000 43.41200
H  53.64700 46.62400 44.52200
H  53.39600 48.40600 44.52900
H  54.69900 47.86500 43.64700
H  51.84700 49.49200 40.47000
H  53.39200 49.80200 41.26200
H  52.74700 51.98500 41.57000
H  51.45600 51.44300 42.67900
H  51.25700 51.45600 40.88000
H  47.17000 51.06100 43.28300
H  45.74300 51.00700 42.36600
H  47.24700 51.14400 41.53800
H  44.15800 46.16700 40.30100
H  41.22000 45.89800 43.86300
H  42.15500 46.38500 45.33200
H  42.21100 44.72700 44.70300

