158

Mg 47.65700 25.81700 29.91500
C  48.73500 28.19100 32.12100
C  46.42400 23.86400 32.39600
C  47.05900 23.34200 27.70600
C  49.27900 27.56100 27.32800
N  47.56300 26.08900 31.95200
C  47.98100 27.16200 32.67500
C  47.46000 27.16300 34.13100
C  46.94200 25.65400 34.24200
C  46.95700 25.15800 32.76200
C  47.82800 24.71200 35.17700
C  46.26500 28.08300 34.48100
C  45.77700 28.18300 35.94400
H  46.70500 27.66100 37.06800
N  46.78900 23.83800 30.03100
C  46.32200 23.22700 31.17700
C  45.90200 21.86900 30.86600
C  45.80300 21.83100 29.49200
C  46.52000 23.06200 28.95100
C  45.21200 21.05100 31.91200
C  45.23600 20.75100 28.62100
O  45.31100 20.71900 27.35800
C  44.58100 19.58800 29.26700
N  48.06500 25.54000 27.80700
C  47.71100 24.45000 27.14900
C  47.94700 24.55000 25.66500
C  48.59700 25.93700 25.46900
C  48.59100 26.39800 26.94700
C  48.81000 23.35400 25.10500
C  47.85600 26.86900 24.43200
C  48.71900 27.34500 23.29900
N  48.77400 27.56100 29.71100
C  49.39900 28.13600 28.59600
C  50.01300 29.40500 29.07600
C  49.69200 29.49900 30.40100
C  49.06100 28.30900 30.74600
C  50.68500 30.45100 28.20900
C  49.78700 30.37800 31.58500
O  50.24200 31.52900 31.79700
C  49.26000 29.50600 32.81600
C  50.34500 29.31300 33.82900
O  51.24000 28.54000 33.68000
O  50.01400 30.01200 34.93700
C  50.74600 29.66400 36.20700
H  46.03000 23.20100 33.16900
H  46.93900 22.52000 26.99700
H  49.66000 28.11900 26.47000
H  48.23300 27.30900 34.88500
H  45.94600 25.68000 34.68300
H  48.26300 23.86400 34.64900
H  47.06300 24.17000 35.73400
H  48.61600 25.15200 35.78800
H  45.41300 27.76800 33.87800
H  46.56500 29.11900 34.32500
H  44.86700 27.59300 36.06100
H  45.53700 29.24500 35.97600
H  44.13700 20.97500 31.74700
H  45.21400 21.39400 32.94700
H  45.70700 20.08400 31.99400
H  45.18600 19.10000 30.03200
H  44.18800 18.88800 28.52900
H  43.73900 19.98700 29.83300
H  46.92300 24.54300 25.29100
H  49.65300 25.78300 25.24500
H  48.35100 22.39600 25.34800
H  49.78400 23.38800 25.59200
H  48.93600 23.57000 24.04400
H  47.50300 27.80100 24.87300
H  46.94800 26.31200 24.20000
H  48.19400 27.08200 22.38100
H  49.70800 26.89500 23.38900
H  48.75600 28.43400 23.30500
H  51.03900 29.98300 27.29000
H  51.55900 30.88400 28.69500
H  50.07400 31.26800 27.82600
H  48.38100 29.97100 33.26200
H  51.38800 30.47900 36.54100
H  51.46400 28.85000 36.10200
H  50.00900 29.37100 36.95500
Mg 17.06700 51.24900 25.92500
C  18.94700 50.16400 28.52800
C  14.39600 51.81300 28.00500
C  15.15300 52.26800 23.32800
C  19.54200 50.23600 23.60000
N  16.72700 51.06200 28.05900
C  17.70000 50.64000 28.97000
C  17.15400 50.88000 30.37600
C  15.55500 50.93200 30.17000
C  15.54200 51.31600 28.70000
C  14.86700 49.53700 30.38900
C  17.76500 52.11700 31.25100
C  18.14800 51.85400 32.73500
H  17.23700 52.48900 33.82500
N  15.13400 52.20100 25.75000
C  14.15000 52.30600 26.73300
C  12.98800 52.88100 26.21200
C  13.15200 52.99600 24.80900
C  14.59400 52.54500 24.57100
C  11.78600 53.21800 27.10600
C  12.34400 53.63300 23.76700
O  12.86100 53.91500 22.66900
C  10.89600 54.04200 23.96400
N  17.29300 51.14000 23.76100
C  16.38700 51.67400 22.90200
C  16.78700 51.57500 21.47600
C  18.27800 51.14900 21.57100
C  18.41900 50.83200 23.05000
C  15.90100 50.68800 20.62500
C  19.45700 52.04300 21.10800
C  20.27700 51.50200 19.96300
N  18.91000 50.34500 25.98900
C  19.80300 49.96200 24.99700
C  20.89500 49.35100 25.62100
C  20.68600 49.56700 26.97100
C  19.39900 50.05800 27.18800
C  22.08200 48.99500 24.86100
C  21.24300 49.31700 28.30100
O  22.25300 48.69900 28.69900
C  20.18000 49.78100 29.32300
C  19.83600 48.62400 30.21300
O  19.19400 47.68800 29.85000
O  20.24300 48.73600 31.50900
C  19.80400 47.67300 32.46200
H  13.58600 51.72100 28.73200
H  14.58600 52.48800 22.42100
H  20.28300 50.00200 22.83300
H  17.31500 49.98500 30.97800
H  15.17600 51.66300 30.88400
H  14.55300 49.47700 31.43100
H  15.49200 48.72300 30.02300
H  13.96000 49.46600 29.78700
H  16.97200 52.86000 31.33200
H  18.66200 52.55000 30.80800
H  19.14800 52.21900 32.96800
H  18.09200 50.78000 32.91300
H  11.20500 54.07300 26.75800
H  12.18600 53.38800 28.10500
H  11.18100 52.32000 27.23000
H  10.43700 53.27300 24.58500
H  10.50900 54.04600 22.94500
H  10.79300 55.04900 24.36800
H  16.74900 52.55400 20.99900
H  18.52000 50.21800 21.05900
H  15.51400 51.36600 19.86300
H  14.97600 50.49200 21.16600
H  16.34200 49.80100 20.17000
H  20.15100 52.20000 21.93400
H  19.00000 52.97100 20.76400
H  19.73300 50.72800 19.42200
H  21.26400 51.10900 20.20800
H  20.39100 52.36000 19.30100
H  22.90500 48.74700 25.53100
H  22.30500 49.76200 24.11900
H  21.91900 48.11000 24.24600
H  20.52100 50.65800 29.87300
H  20.35400 46.79100 32.13300
H  18.75200 47.44100 32.29700
H  20.03300 47.93500 33.49500

