158

Mg 8.93900 47.37000 24.41300
C  6.84800 47.56600 27.19300
C  11.54600 48.49000 26.26700
C  10.72900 47.26200 21.62700
C  5.98200 47.15500 22.40200
N  9.15400 47.78800 26.48200
C  8.21200 47.86800 27.44100
C  8.74200 48.40700 28.78200
C  10.11100 48.97900 28.29800
C  10.29800 48.41100 26.89800
C  10.05500 50.55400 28.24100
C  8.88600 47.33900 29.87100
C  8.03900 47.61100 31.11200
H  8.04100 46.40100 32.12500
N  10.94600 47.78800 24.03300
C  11.87100 48.14300 24.93400
C  13.15400 48.25300 24.25900
C  12.93100 47.82800 22.94100
C  11.48700 47.60400 22.82000
C  14.45700 48.61700 24.90000
C  13.85000 47.65700 21.81100
O  13.49200 47.17200 20.75400
C  15.35200 47.85700 22.08000
N  8.37400 47.39100 22.27000
C  9.30500 47.17100 21.36200
C  8.71800 46.78300 19.99600
C  7.16900 46.68700 20.29400
C  7.17000 47.06700 21.74200
C  9.11500 47.80700 18.82800
C  6.58500 45.27900 19.94300
C  5.24800 45.24000 19.21800
N  6.87200 47.24300 24.71400
C  5.82600 47.24800 23.79300
C  4.52200 47.12600 24.46900
C  4.88700 47.30200 25.86000
C  6.28200 47.41400 25.93600
C  3.23100 46.92400 23.82800
C  4.35100 47.28800 27.21000
O  3.20600 47.28000 27.61400
C  5.63400 47.53600 28.10900
C  5.58600 46.36000 29.02400
O  6.27600 45.38400 29.01600
O  4.65400 46.62300 29.99900
C  4.70200 45.72000 31.21000
H  12.42300 48.85200 26.80800
H  11.24100 46.90900 20.73000
H  5.03600 46.93900 21.90200
H  8.01500 49.17000 29.06100
H  10.86000 48.60900 28.99800
H  10.73100 50.96900 28.98900
H  9.06900 50.96200 28.46000
H  10.32300 50.84400 27.22500
H  9.90000 47.18400 30.24000
H  8.52600 46.40400 29.44100
H  7.00600 47.64600 30.76500
H  8.35200 48.58900 31.47800
H  14.41400 49.04500 25.90100
H  14.86700 49.43500 24.30700
H  15.20600 47.82600 24.95200
H  15.49400 48.91400 22.30600
H  15.82400 47.65800 21.11800
H  15.82600 47.15100 22.76000
H  9.16300 45.82700 19.72100
H  6.63100 47.44500 19.72400
H  9.80300 48.55800 19.21500
H  8.31900 48.32700 18.29400
H  9.70000 47.30600 18.05700
H  6.34900 44.71000 20.84300
H  7.28300 44.67200 19.36600
H  4.55900 44.69600 19.86400
H  5.44600 44.71300 18.28500
H  4.92500 46.21900 18.86400
H  2.37100 47.14000 24.46200
H  3.22300 45.94000 23.35900
H  3.20800 47.61000 22.98100
H  5.57400 48.45300 28.69500
H  5.24400 46.31100 31.94800
H  5.07200 44.71900 30.98600
H  3.70000 45.77400 31.63500
Mg -5.75500 24.90000 27.33800
C  -4.09800 26.83900 29.76400
C  -6.54500 22.74500 29.82900
C  -7.23700 22.97100 24.96900
C  -4.54700 26.99400 24.77400
N  -5.34900 24.96000 29.56400
C  -4.71000 25.80400 30.34100
C  -4.75800 25.41500 31.84800
C  -5.56600 24.06200 31.79000
C  -5.88800 23.94600 30.28900
C  -4.99000 22.76300 32.35300
C  -5.27900 26.51400 32.84700
C  -6.43400 26.26800 33.69300
H  -6.19000 25.35400 34.85700
N  -6.72000 23.10000 27.34100
C  -6.90500 22.35600 28.49300
C  -7.54600 21.09900 28.13200
C  -7.74300 21.14600 26.66400
C  -7.28600 22.45100 26.20100
C  -7.90700 19.97800 29.20000
C  -8.33700 20.10100 25.72200
O  -8.52000 20.24900 24.52500
C  -8.50800 18.69900 26.27000
N  -5.80200 24.99800 25.11700
C  -6.59600 24.09100 24.44300
C  -6.87400 24.63100 23.02600
C  -5.89400 25.88900 22.90100
C  -5.34600 25.95500 24.32000
C  -6.58700 23.64100 21.92400
C  -6.64200 27.24000 22.41700
C  -6.22400 27.77300 21.04400
N  -4.47200 26.54600 27.17200
C  -4.01700 27.25000 26.13200
C  -3.13500 28.25600 26.56800
C  -3.13400 28.14800 27.98800
C  -3.91200 27.06400 28.34400
C  -2.44300 29.25900 25.65200
C  -2.68600 28.72100 29.23600
O  -2.09300 29.72400 29.43500
C  -3.22200 27.86700 30.41200
C  -2.15200 27.22700 31.14700
O  -1.46300 26.25400 30.86200
O  -2.00600 27.87000 32.39300
C  -0.80400 27.48800 33.18100
H  -6.84900 22.06500 30.62800
H  -7.75900 22.37200 24.21900
H  -4.25700 27.54800 23.87800
H  -3.73700 25.15600 32.12600
H  -6.57700 24.15000 32.19000
H  -5.78200 22.26400 32.91200
H  -4.12700 22.93100 32.99900
H  -4.57600 22.08300 31.60900
H  -5.39900 27.46100 32.32200
H  -4.48700 26.63200 33.58700
H  -7.27000 25.81500 33.15900
H  -6.83000 27.24000 33.98700
H  -8.90700 19.62600 28.94700
H  -8.04400 20.38800 30.20100
H  -7.18600 19.16200 29.16600
H  -7.53400 18.35600 26.61800
H  -8.88500 18.07800 25.45800
H  -9.37800 18.64700 26.92400
H  -7.91100 24.96600 23.03600
H  -5.11000 25.64300 22.18500
H  -6.49400 22.62300 22.30200
H  -5.89900 23.89300 21.11700
H  -7.52400 23.55000 21.37400
H  -6.32400 28.02800 23.10000
H  -7.73100 27.20900 22.40500
H  -5.79900 26.94800 20.47300
H  -5.39800 28.46200 21.21900
H  -7.09600 28.07800 20.46500
H  -2.89800 29.11100 24.67200
H  -1.40600 29.00800 25.43200
H  -2.57000 30.30700 25.92300
H  -3.78100 28.49100 31.11000
H  -0.82700 28.14400 34.05100
H  0.08200 27.68500 32.57600
H  -0.83900 26.41200 33.35200

