158

Mg 2.19400 -1.47800 43.30400
C  5.63900 -1.09800 43.09700
C  1.77200 1.20400 41.23800
C  -1.12800 -2.30400 42.97500
C  2.66900 -4.60400 44.75700
N  3.62900 -0.12700 42.27300
C  5.02600 -0.08100 42.33900
C  5.58500 1.02900 41.47900
C  4.32800 1.72300 40.90500
C  3.10800 0.86900 41.47100
C  4.08200 3.24500 41.23700
C  6.50800 0.38900 40.45600
C  8.01400 0.83100 40.45600
H  8.52500 1.20300 39.06400
N  0.53700 -0.55500 42.35200
C  0.55200 0.51300 41.62000
C  -0.82100 0.79300 41.08200
C  -1.62700 -0.11100 41.73900
C  -0.74000 -1.09100 42.38800
C  -1.13400 2.07000 40.34400
C  -3.11200 -0.17700 41.65500
O  -3.71200 0.63700 40.96000
C  -3.97800 -0.94000 42.54000
N  0.94800 -3.28300 43.85800
C  -0.40600 -3.31300 43.51000
C  -1.09300 -4.53400 44.22500
C  0.13900 -5.29200 44.76900
C  1.33500 -4.40200 44.42000
C  -2.19600 -4.11300 45.24800
C  0.34700 -6.73600 44.35300
C  -0.04400 -7.81100 45.43700
N  3.74200 -2.64700 43.86400
C  3.78100 -3.82400 44.52900
C  5.19200 -4.11600 44.86700
C  5.91700 -3.07700 44.30300
C  4.98900 -2.23000 43.74500
C  5.73900 -5.35300 45.47400
C  7.24200 -2.59800 44.16000
O  8.25400 -2.96600 44.57000
C  7.10700 -1.27100 43.36600
C  7.49800 -0.18100 44.16900
O  7.37300 -0.17900 45.37300
O  8.11800 0.78800 43.49900
C  8.33500 2.08200 44.08600
H  1.71500 2.02600 40.52000
H  -2.18100 -2.52300 42.79000
H  2.95400 -5.44300 45.39600
H  6.11100 1.68700 42.17100
H  4.39400 1.64200 39.82000
H  4.09200 3.79400 40.29500
H  4.91100 3.65700 41.81200
H  3.11700 3.41800 41.71500
H  6.10900 0.62100 39.46900
H  6.48100 -0.69500 40.56100
H  8.60200 0.00900 40.86500
H  8.20800 1.64800 41.15100
H  -0.22200 2.31200 39.79800
H  -1.50800 2.93700 40.89000
H  -1.70000 1.80700 39.45100
H  -5.02600 -0.64100 42.53500
H  -3.62500 -0.92200 43.57100
H  -4.12200 -2.00200 42.33900
H  -1.46100 -5.08700 43.36100
H  -0.02200 -5.17300 45.84100
H  -2.17700 -3.03500 45.40600
H  -2.20800 -4.54100 46.25000
H  -3.13900 -4.19100 44.70700
H  1.37900 -6.87500 44.03000
H  -0.15500 -7.01400 43.42600
H  0.91300 -8.19600 45.78900
H  -0.65000 -8.61800 45.02500
H  -0.54200 -7.44700 46.33600
H  5.34900 -5.54700 46.47300
H  6.82700 -5.38200 45.40900
H  5.43500 -6.22600 44.89700
H  7.75300 -1.34800 42.49100
H  7.61400 2.88200 43.91600
H  9.24900 2.44300 43.61300
H  8.64600 1.98200 45.12600
Mg 0.42300 7.92800 24.83900
C  1.16400 9.53600 27.93200
C  0.35000 5.02800 26.55700
C  0.36600 6.42800 21.90600
C  1.11300 10.96500 23.29600
N  0.75100 7.36000 27.00100
C  0.94100 8.15000 28.12300
C  0.87700 7.38100 29.40700
C  0.59200 5.97100 28.90900
C  0.54100 6.12600 27.38500
C  1.65100 4.83400 29.33100
C  -0.17700 7.82500 30.48300
C  0.21600 7.63200 31.99000
H  1.46400 6.87900 32.44000
N  0.31400 6.03900 24.29900
C  0.29000 4.94500 25.19300
C  0.16900 3.70800 24.47100
C  0.07800 4.09700 23.10400
C  0.30400 5.55500 23.05600
C  0.08200 2.33700 25.09400
C  -0.10800 3.25600 21.86600
O  -0.06100 3.71400 20.67200
C  -0.43200 1.82700 22.05000
N  0.82500 8.63300 22.84300
C  0.60300 7.85200 21.77200
C  0.52200 8.67800 20.46000
C  0.93400 10.07900 20.91900
C  0.92300 9.93600 22.47000
C  1.49100 8.17200 19.24900
C  -0.00300 11.22200 20.31700
C  -1.25800 11.62200 21.07600
N  0.87400 9.92000 25.41000
C  1.21500 11.01300 24.69400
C  1.39800 12.11600 25.62800
C  1.35200 11.54200 26.85700
C  1.12900 10.22700 26.70600
C  1.55000 13.51800 25.13300
C  1.54400 11.92200 28.28200
O  1.93800 13.05400 28.75600
C  1.34700 10.59000 28.96400
C  2.39300 10.44800 30.04100
O  3.38900 9.66200 29.90100
O  2.09100 11.24800 31.09100
C  3.11200 11.13900 32.09500
H  0.29900 4.11500 27.15400
H  0.41000 5.85800 20.97600
H  1.28500 11.88600 22.73400
H  1.89500 7.38200 29.79700
H  -0.40300 5.65800 29.22500
H  1.76200 4.79700 30.41400
H  2.59800 5.14600 28.89100
H  1.44900 3.85400 28.89800
H  -1.09900 7.32300 30.19000
H  -0.22800 8.91000 30.38700
H  -0.70400 7.31200 32.48100
H  0.27800 8.65800 32.35100
H  -0.96100 2.13000 25.32900
H  0.78900 2.23900 25.91800
H  0.40700 1.54400 24.42000
H  0.38700 1.15300 22.30000
H  -0.84400 1.39200 21.14000
H  -1.14200 1.70800 22.86900
H  -0.49900 8.79200 20.09500
H  1.98600 10.20100 20.65900
H  0.88400 7.84600 18.40400
H  2.05600 7.30400 19.58800
H  2.18400 8.91300 18.85000
H  -0.27500 11.02300 19.28000
H  0.56900 12.14400 20.21000
H  -2.14400 11.59200 20.44200
H  -1.19700 12.64200 21.45300
H  -1.33200 10.79800 21.78600
H  0.58300 13.67400 24.65600
H  2.44000 13.57000 24.50600
H  1.74500 14.13300 26.01200
H  0.40700 10.78100 29.48300
H  2.96600 10.18200 32.59600
H  2.99500 11.91300 32.85300
H  4.15800 11.14000 31.78800

