158

Mg 36.01700 48.82400 25.85300
C  36.19600 47.06300 28.91600
C  35.07100 51.52600 27.58700
C  35.49000 50.35000 22.85000
C  36.64600 45.80800 24.15900
N  35.51400 49.17700 28.01700
C  35.87300 48.41200 29.09500
C  35.60000 49.10900 30.40400
C  35.02000 50.49100 29.96300
C  35.22400 50.43100 28.41600
C  33.50200 50.57600 30.34800
C  36.82500 49.40800 31.26400
C  36.65900 48.87200 32.73700
H  36.44500 49.93500 33.85000
N  35.52500 50.69100 25.27900
C  35.16900 51.68600 26.13400
C  35.14400 52.96200 25.39300
C  35.41900 52.60200 24.07600
C  35.38000 51.12300 24.04900
C  34.84800 54.29700 26.04000
C  35.48200 53.56300 22.90200
O  35.68000 53.19500 21.75700
C  35.27300 55.09700 23.16400
N  36.04500 48.10900 23.84300
C  35.75600 48.97300 22.75400
C  35.62000 48.22000 21.44500
C  36.47000 46.86500 21.81800
C  36.35400 46.88900 23.33700
C  34.18100 47.94400 20.92700
C  37.92800 46.90400 21.30400
C  38.23600 46.29300 19.93100
N  36.32600 46.82100 26.36200
C  36.56300 45.71700 25.58700
C  36.60800 44.50500 26.43000
C  36.48600 44.98000 27.73900
C  36.36100 46.40000 27.71100
C  36.84600 43.11400 25.96000
C  36.54800 44.56800 29.12200
O  36.70200 43.49200 29.60400
C  36.34400 45.91400 29.93200
C  35.10800 45.71700 30.78000
O  34.01400 45.29400 30.42200
O  35.51500 45.78700 32.09300
C  34.44700 45.71100 33.11800
H  34.84000 52.46500 28.09400
H  35.51800 50.81500 21.86300
H  36.93900 44.90600 23.61700
H  34.94000 48.49800 31.02000
H  35.48700 51.41300 30.31000
H  33.35700 51.42000 31.02300
H  33.16300 49.71700 30.92600
H  32.90100 50.60100 29.43900
H  37.17800 50.43900 31.29700
H  37.67000 48.87300 30.83000
H  37.49800 48.18600 32.85700
H  35.84200 48.18600 32.96200
H  35.74500 54.88200 25.83500
H  34.78700 54.17800 27.12200
H  33.98500 54.90900 25.77900
H  34.24300 55.29200 23.46200
H  35.45800 55.54000 22.18600
H  36.08800 55.41200 23.81600
H  36.17100 48.72100 20.64800
H  35.85700 46.05500 21.42200
H  33.45200 48.49700 21.51800
H  33.92200 46.88800 21.00200
H  34.05700 48.32500 19.91300
H  38.44700 46.31700 22.06100
H  38.34400 47.91200 21.31900
H  38.60800 47.04000 19.23100
H  37.29600 45.95900 19.49200
H  38.89600 45.43100 20.03300
H  36.14100 42.75700 25.20900
H  36.72600 42.52600 26.87000
H  37.88500 42.87200 25.73600
H  37.23800 46.12900 30.51800
H  34.56800 46.55900 33.79200
H  34.42800 44.87700 33.82000
H  33.45800 45.80500 32.67000
Mg 6.29700 54.53800 40.50300
C  5.55700 51.10000 40.48200
C  9.46200 53.96700 39.43900
C  6.50800 57.77900 39.99400
C  2.59000 55.06200 40.73500
N  7.34000 52.76600 39.95500
C  6.80800 51.48600 40.02800
C  7.89700 50.51900 39.61100
C  9.24700 51.34800 39.62200
C  8.70300 52.77400 39.73300
C  10.30300 51.15000 40.69900
C  7.64700 49.84200 38.24100
C  6.91200 50.61400 37.05500
H  5.99100 49.90200 36.07600
N  7.77500 55.75200 39.76900
C  9.03300 55.33500 39.39700
C  9.86000 56.51500 39.13100
C  9.01500 57.62800 39.18300
C  7.70300 57.09200 39.70300
C  11.35800 56.38400 38.83100
C  9.45000 59.01700 38.92700
O  10.61000 59.26800 38.51800
C  8.53800 60.09300 39.16900
N  4.74400 56.11100 40.13400
C  5.18400 57.35400 40.21500
C  4.00200 58.41100 40.40300
C  2.74800 57.57700 40.25400
C  3.40600 56.17600 40.36000
C  4.08900 59.42000 41.60000
C  1.88400 57.73800 38.94900
C  2.20000 56.82700 37.73800
N  4.45800 53.36700 40.72000
C  3.16200 53.76400 40.86600
C  2.45000 52.53600 41.15700
C  3.30800 51.46300 41.13900
C  4.52300 52.02000 40.80300
C  0.92200 52.40100 41.36300
C  3.47300 50.04200 41.28300
O  2.65400 49.17800 41.55600
C  4.91500 49.74400 40.79100
C  4.83900 48.89100 39.63600
O  4.42900 49.14700 38.50900
O  5.16000 47.53900 40.03800
C  5.10500 46.49300 38.99800
H  10.48500 53.74800 39.12700
H  6.60200 58.86600 40.04700
H  1.54400 55.28600 40.95700
H  8.01600 49.69900 40.32000
H  9.71700 51.22900 38.64600
H  10.44500 52.06100 41.28000
H  11.27300 50.82700 40.32100
H  9.86400 50.44800 41.40700
H  7.13500 48.89300 38.39700
H  8.61000 49.47800 37.88300
H  7.61800 50.80600 36.24700
H  6.40600 51.52800 37.36400
H  11.63100 55.42200 38.39900
H  11.89500 56.44800 39.77800
H  11.67200 57.19500 38.17400
H  7.70000 59.84700 38.51600
H  8.96100 60.96600 38.67100
H  8.52100 60.16600 40.25600
H  4.00300 59.07300 39.53800
H  2.06100 57.49800 41.09700
H  3.18900 59.42600 42.21600
H  4.31700 60.39500 41.16800
H  4.83200 59.07600 42.32000
H  1.96100 58.76900 38.60400
H  0.83600 57.81900 39.23900
H  2.52500 57.42200 36.88500
H  1.36700 56.22800 37.36900
H  3.11200 56.24300 37.86500
H  0.40600 53.36000 41.33200
H  0.74300 51.90500 42.31700
H  0.36500 51.80800 40.63700
H  5.55800 49.29600 41.54900
H  5.43900 46.88700 38.03800
H  4.12000 46.04100 38.88100
H  5.80900 45.72700 39.32400

