158

Mg 25.39900 51.29300 26.22400
C  23.49600 52.57800 28.82800
C  27.78200 50.17700 28.53800
C  27.65400 50.83400 23.70500
C  23.22200 52.64500 23.95900
N  25.55300 51.36300 28.38800
C  24.63000 51.88600 29.27800
C  25.06000 51.63100 30.71600
C  26.49500 51.00900 30.56400
C  26.63100 50.86800 29.05200
C  27.73500 51.78400 31.18100
C  24.06100 50.77400 31.54600
C  23.72200 51.33700 32.90900
H  24.96800 51.45200 33.84100
N  27.38500 50.55900 26.15300
C  28.16600 50.07100 27.16400
C  29.19200 49.33400 26.67200
C  29.24700 49.60800 25.22000
C  28.03600 50.40600 24.97700
C  30.01300 48.38600 27.47500
C  30.16000 48.99900 24.18800
O  30.07100 49.20300 22.97200
C  31.14400 47.95000 24.58900
N  25.46500 51.80500 24.13500
C  26.48600 51.45000 23.31300
C  26.19700 51.86800 21.89200
C  24.71700 52.18500 21.95600
C  24.38200 52.17700 23.43700
C  26.98100 53.06500 21.23100
C  23.87400 51.33700 21.01300
C  23.13600 50.07500 21.63600
N  23.56900 52.31800 26.30000
C  22.83500 52.86800 25.35100
C  21.58700 53.53000 25.88300
C  21.77900 53.39100 27.26200
C  23.06300 52.74400 27.42400
C  20.49400 54.20800 25.14700
C  21.26100 53.68300 28.55200
O  20.29300 54.33000 28.92700
C  22.31200 53.22500 29.55400
C  22.67200 54.23700 30.48800
O  23.59500 55.04700 30.33200
O  21.75900 54.33300 31.46000
C  21.72000 55.64900 32.27000
H  28.57900 49.96400 29.25500
H  28.16300 50.46200 22.81300
H  22.52200 52.98900 23.19500
H  25.01400 52.58100 31.24800
H  26.58600 50.13500 31.20900
H  27.16100 52.61000 31.60100
H  28.43700 52.12400 30.42000
H  28.30600 51.12000 31.83000
H  24.48600 49.78100 31.69500
H  23.21400 50.49600 30.91900
H  22.90500 50.82200 33.41500
H  23.34200 52.34500 32.74000
H  31.05200 48.70900 27.53300
H  30.05300 47.34300 27.16400
H  29.74300 48.33000 28.53000
H  31.71000 48.25900 25.46800
H  31.82100 47.66300 23.78500
H  30.58900 47.05700 24.87700
H  26.38300 51.08100 21.16200
H  24.57200 53.24800 21.76200
H  27.79800 52.69000 20.61500
H  27.37800 53.69100 22.03000
H  26.45500 53.65700 20.48300
H  24.39300 51.04700 20.10000
H  23.08500 51.95500 20.58300
H  22.09100 50.31900 21.82700
H  23.64800 49.76500 22.54700
H  23.19600 49.20800 20.97700
H  20.45100 53.90900 24.09900
H  20.82500 55.24600 25.15600
H  19.46800 54.05000 25.47900
H  21.93900 52.40300 30.16600
H  21.98300 56.49300 31.63200
H  22.39200 55.50800 33.11600
H  20.72800 55.76200 32.70800
Mg 15.95700 53.27600 24.99300
C  17.45900 51.96000 27.79900
C  13.34500 54.34400 26.89500
C  14.42600 54.21300 22.14300
C  18.34500 51.45000 23.11100
N  15.43300 53.01400 27.06500
C  16.24900 52.70100 28.08300
C  15.70700 53.11900 29.42500
C  14.21400 53.58200 29.09200
C  14.25400 53.57500 27.54800
C  13.12400 52.49700 29.60600
C  16.64900 54.21200 30.06000
C  16.98800 53.99800 31.53200
H  16.03500 53.22000 32.46000
N  14.19100 54.37500 24.63400
C  13.25500 54.73700 25.55000
C  12.20900 55.41400 24.84900
C  12.54400 55.39500 23.47000
C  13.79900 54.65800 23.33000
C  11.00800 55.92900 25.63000
C  11.78900 55.88500 22.24700
O  12.16500 55.77400 21.06700
C  10.45200 56.46700 22.42800
N  16.28800 52.82000 22.90800
C  15.48100 53.30200 21.92500
C  16.12100 53.03900 20.55100
C  17.46700 52.20500 20.88800
C  17.40700 52.21600 22.39200
C  15.26900 52.31500 19.48200
C  18.77900 52.83900 20.22700
C  19.30100 52.18800 18.93200
N  17.48400 51.97500 25.33200
C  18.43100 51.39500 24.51400
C  19.40100 50.67100 25.17200
C  19.08600 50.95500 26.50100
C  17.85700 51.65100 26.52900
C  20.51400 49.82900 24.57500
C  19.58600 50.79400 27.80300
O  20.68800 50.36200 28.13600
C  18.50900 51.40800 28.77800
C  18.09300 50.42800 29.72400
O  17.14000 49.62500 29.54600
O  18.91000 50.59000 30.84900
C  18.43600 49.88200 32.03500
H  12.63000 54.78100 27.59500
H  14.00400 54.50700 21.18000
H  19.07800 50.92700 22.49400
H  15.59000 52.21700 30.02600
H  13.93600 54.55500 29.49700
H  12.62500 52.68200 30.55700
H  13.53200 51.49200 29.71700
H  12.42200 52.56600 28.77500
H  16.24300 55.22300 30.05600
H  17.61500 54.23900 29.55400
H  17.21000 54.99200 31.92100
H  17.99000 53.57100 31.56600
H  10.27700 55.13100 25.76300
H  10.53700 56.73900 25.07300
H  11.27500 56.37900 26.58500
H  10.12000 56.66400 21.40900
H  10.55400 57.42700 22.93500
H  9.66200 55.89900 22.92000
H  16.45500 54.01600 20.20100
H  17.26200 51.17600 20.59500
H  15.75100 51.71800 18.70800
H  14.96400 53.18500 18.89900
H  14.42800 51.81100 19.95900
H  19.54500 52.89900 20.99900
H  18.54300 53.85300 19.90500
H  18.57600 51.55500 18.42000
H  20.12500 51.55500 19.26300
H  19.63600 52.94800 18.22600
H  20.32800 49.31500 23.63200
H  20.46600 49.13200 25.41100
H  21.41000 50.44200 24.48000
H  18.98400 52.19600 29.36300
H  18.68900 48.83300 31.88000
H  17.36800 49.87600 32.25200
H  18.91200 50.29900 32.92200

