158

Mg 47.77600 15.78700 28.18700
C  45.91200 15.45000 31.20200
C  49.73200 18.16600 29.72300
C  49.18700 16.61500 25.19400
C  45.23100 13.91900 26.50000
N  47.80900 16.72500 30.22900
C  47.04000 16.30800 31.27300
C  47.58700 17.04900 32.48500
C  48.63600 18.06800 31.96600
C  48.83200 17.52800 30.56800
C  48.23000 19.61100 31.89100
C  48.10000 15.98900 33.53700
C  47.87800 16.18800 35.00500
H  47.89700 17.57200 35.56600
N  49.40200 17.01200 27.62200
C  50.07200 17.91800 28.35400
C  51.09600 18.55600 27.56400
C  51.05000 18.01800 26.27700
C  49.86500 17.07800 26.31400
C  52.04100 19.57500 28.13900
C  51.87700 18.31600 25.06000
O  51.79100 17.60100 24.08900
C  52.76700 19.45800 25.13400
N  47.31100 15.33700 26.18500
C  48.00100 15.83600 25.12500
C  47.38900 15.36900 23.76600
C  46.26800 14.41400 24.18300
C  46.31700 14.47100 25.74600
C  46.95300 16.56900 22.91500
C  46.36000 12.89300 23.75800
C  45.19900 12.34900 22.87100
N  45.96100 14.74300 28.70200
C  45.10100 13.97700 27.93800
C  44.07900 13.35900 28.82700
C  44.37000 13.92800 30.06500
C  45.51300 14.72100 29.98500
C  42.97400 12.54400 28.19700
C  43.94200 13.96100 31.45300
O  43.01800 13.39500 31.97100
C  44.89700 14.92100 32.20200
C  44.25600 16.01600 32.96900
O  44.10000 17.12500 32.37100
O  43.89800 15.68100 34.26700
C  43.15600 16.73200 34.99200
H  50.11200 19.10200 30.13600
H  49.49400 16.83100 24.16900
H  44.52700 13.32600 25.91300
H  46.71400 17.60100 32.83300
H  49.51600 17.90700 32.58800
H  48.01000 19.92400 30.87000
H  48.97700 20.26700 32.33800
H  47.26800 19.85700 32.33800
H  49.14700 15.77900 33.31700
H  47.79800 15.05200 33.07000
H  48.74000 15.67300 35.43000
H  46.96600 15.64800 35.25900
H  53.06700 19.37000 27.83300
H  52.03000 19.56900 29.22900
H  51.62600 20.49000 27.71500
H  52.07300 20.24900 25.41900
H  53.00800 19.84700 24.14500
H  53.64700 19.28000 25.75200
H  48.16100 14.75200 23.30600
H  45.31000 14.82100 23.86000
H  47.31500 16.44900 21.89400
H  47.47800 17.43600 23.31800
H  45.89200 16.74300 23.09400
H  46.42100 12.19000 24.58900
H  47.30900 12.70400 23.25700
H  45.68500 12.05100 21.94200
H  44.50500 13.12900 22.55800
H  44.61300 11.53100 23.29100
H  43.53100 11.79000 27.64000
H  42.26300 13.02600 27.52500
H  42.34500 12.08800 28.96100
H  45.47500 14.41400 32.97500
H  42.10400 16.70500 34.70800
H  43.57800 17.72000 34.80700
H  43.14400 16.44100 36.04200
Mg -1.15200 35.28900 26.66700
C  -3.01700 33.60600 29.14700
C  -0.01900 37.43600 28.96600
C  0.36700 36.92900 24.06400
C  -2.59900 33.11100 24.17800
N  -1.45500 35.44800 28.82700
C  -2.23000 34.62200 29.61200
C  -2.15900 35.17200 31.07500
C  -1.33900 36.46900 30.98400
C  -0.85300 36.38500 29.47600
C  -2.21100 37.67600 31.42000
C  -1.44400 33.96500 31.87600
C  -2.18600 33.47700 33.13200
H  -1.34800 33.21600 34.41600
N  -0.01700 37.00800 26.48000
C  0.42800 37.71000 27.59800
C  1.24200 38.85000 27.13600
C  1.27600 38.74200 25.69600
C  0.51700 37.52600 25.33100
C  1.86400 39.80500 28.10900
C  1.78400 39.70700 24.64700
O  1.66600 39.51400 23.46400
C  2.55000 40.97300 25.12100
N  -1.01900 34.98400 24.43000
C  -0.32800 35.83600 23.62200
C  -0.32000 35.37800 22.16700
C  -1.29300 34.13000 22.16500
C  -1.64300 34.02400 23.67200
C  -0.66600 36.50300 21.17400
C  -0.73600 32.78100 21.65800
C  0.35400 32.18200 22.48800
N  -2.46200 33.72400 26.62400
C  -3.00600 32.97800 25.57200
C  -3.94400 31.97900 26.13000
C  -3.91600 32.17700 27.47800
C  -3.04000 33.24700 27.77600
C  -4.69600 30.85500 25.40900
C  -4.42900 31.69400 28.78200
O  -5.29100 30.81900 28.99300
C  -3.83200 32.52900 29.86300
C  -4.84200 33.24300 30.65000
O  -5.32000 34.33800 30.36600
O  -5.14500 32.51500 31.79200
C  -6.40200 32.88300 32.57500
H  0.33700 38.00200 29.83000
H  1.01900 37.33400 23.28600
H  -3.06300 32.54500 23.36800
H  -3.13500 35.37200 31.51700
H  -0.44900 36.32500 31.59700
H  -3.20200 37.47800 31.82900
H  -2.35900 38.25300 30.50800
H  -1.62700 38.29100 32.10400
H  -0.44700 34.22300 32.23400
H  -1.15500 33.16200 31.19900
H  -2.45800 32.43400 32.97000
H  -3.07000 34.08100 33.33900
H  2.94100 39.73600 27.96200
H  1.65600 39.63500 29.16500
H  1.58700 40.82900 27.86100
H  1.97600 41.70300 25.69100
H  2.85100 41.52300 24.22900
H  3.41200 40.67300 25.71500
H  0.68600 35.06800 21.88600
H  -2.23800 34.31500 21.65500
H  -1.13800 37.33500 21.69700
H  -1.26700 36.14100 20.33900
H  0.23000 36.86500 20.67100
H  -0.31100 32.94300 20.66800
H  -1.57900 32.09100 21.62500
H  -0.17600 31.38200 23.00500
H  0.85500 32.84300 23.19600
H  1.11900 31.75700 21.83800
H  -5.00800 30.02300 26.04100
H  -4.09500 30.42900 24.60500
H  -5.62700 31.30900 25.07000
H  -3.24600 31.91900 30.55100
H  -6.20400 33.20900 33.59600
H  -6.91900 31.92500 32.64700
H  -7.01200 33.56300 31.98100

