158

Mg 27.17800 50.63600 26.26800
C  25.16000 51.53600 29.05100
C  29.42000 49.29600 28.45300
C  29.13000 49.66800 23.56400
C  24.82300 51.99000 24.21800
N  27.34500 50.57700 28.58000
C  26.36700 50.82000 29.51700
C  26.88800 50.63600 30.94600
C  28.25400 49.98300 30.69700
C  28.35600 49.89300 29.14800
C  29.54300 50.69300 31.30900
C  25.89800 49.81400 31.79800
C  25.40900 50.52600 33.00800
H  24.89100 49.75400 34.24400
N  28.99800 49.55100 26.00100
C  29.80300 49.18300 27.06000
C  31.08900 48.71700 26.47800
C  30.85600 48.65600 25.08000
C  29.59600 49.31100 24.79700
C  32.18600 48.09500 27.38200
C  31.89600 48.12800 24.05500
O  31.67500 47.99100 22.86100
C  33.31600 47.80300 24.53000
N  27.11000 50.98900 24.16800
C  27.94800 50.41900 23.28300
C  27.55700 50.89200 21.87600
C  26.14100 51.45500 22.07500
C  25.99100 51.48500 23.55900
C  28.60700 51.75700 21.14100
C  24.93000 50.67300 21.37000
C  24.05400 49.66600 22.12500
N  25.38400 51.70100 26.51600
C  24.54700 52.20000 25.60600
C  23.29300 52.64000 26.22900
C  23.49800 52.51500 27.63500
C  24.82900 51.95400 27.69700
C  22.03800 53.13000 25.53000
C  23.02900 52.73300 28.95400
O  21.94300 53.16200 29.33400
C  24.03000 52.17800 29.91100
C  24.59100 53.23500 30.80800
O  25.64700 53.79600 30.67400
O  23.64400 53.55300 31.76700
C  23.98400 54.68300 32.60100
H  30.16400 48.91100 29.15400
H  29.62000 49.40500 22.62500
H  24.12800 52.51200 23.55800
H  26.99100 51.61400 31.41600
H  28.18700 48.94800 31.03300
H  29.14000 51.33600 32.09100
H  29.91100 51.35800 30.52600
H  30.26300 49.96900 31.69000
H  26.25800 48.84500 32.14400
H  25.10800 49.51200 31.11000
H  24.58000 51.14800 32.67200
H  26.12300 51.16000 33.53300
H  32.21800 47.00500 27.36300
H  32.02100 48.33900 28.43200
H  33.18600 48.48100 27.18500
H  33.79700 48.76100 24.73000
H  33.71100 47.31200 23.64100
H  33.29600 47.03800 25.30500
H  27.43500 49.97800 21.29600
H  26.15900 52.48800 21.72700
H  29.55900 51.72600 21.67100
H  28.18600 52.73900 20.92600
H  28.88000 51.34000 20.17200
H  25.34000 50.19100 20.48300
H  24.31400 51.46000 20.93500
H  23.99600 48.78700 21.48300
H  23.06000 50.04500 22.36300
H  24.46600 49.41000 23.10100
H  21.14400 52.73700 26.01500
H  21.98000 52.72200 24.52100
H  22.05700 54.21700 25.46400
H  23.53400 51.41500 30.51100
H  23.16600 55.04700 33.22300
H  24.39600 55.50800 32.01900
H  24.76400 54.35400 33.28800
Mg 9.81200 47.83700 25.61400
C  7.49200 47.84300 28.17700
C  12.19600 49.01800 27.89100
C  12.16900 48.11300 23.04200
C  7.24300 47.63300 23.28000
N  9.90600 48.24500 27.82100
C  8.79000 48.12200 28.66600
C  9.23600 48.43200 30.12400
C  10.59100 49.17500 29.90700
C  10.95000 48.73600 28.48700
C  10.56000 50.72500 30.07900
C  9.44400 47.15800 31.09000
C  9.85200 47.57100 32.51500
H  9.19100 46.80600 33.72900
N  11.86700 48.37000 25.46500
C  12.65600 48.88300 26.52600
C  14.06600 48.96300 26.04800
C  14.11200 48.51000 24.69900
C  12.67400 48.33600 24.29500
C  15.17100 49.40000 26.97700
C  15.29900 48.23700 23.77800
O  15.19000 47.82000 22.63700
C  16.70600 48.40800 24.40500
N  9.72700 47.96700 23.43500
C  10.81400 47.85900 22.64400
C  10.33600 47.59000 21.24500
C  8.87700 47.42500 21.35900
C  8.53200 47.69000 22.79300
C  10.72800 48.72200 20.23900
C  8.31800 46.03600 20.85600
C  8.31300 44.81900 21.79800
N  7.80400 47.61500 25.70800
C  6.84600 47.59900 24.65700
C  5.53100 47.44400 25.19600
C  5.72000 47.52200 26.59600
C  7.09800 47.67900 26.83000
C  4.26000 47.35000 24.44500
C  4.99000 47.63200 27.85700
O  3.81800 47.66700 28.12900
C  6.18400 47.73800 28.91000
C  6.23700 46.50200 29.68100
O  6.90500 45.51800 29.33700
O  5.42000 46.58600 30.75100
C  5.12300 45.34200 31.50400
H  12.87100 49.38300 28.66800
H  12.88200 48.14400 22.21600
H  6.49200 47.53700 22.49300
H  8.49200 49.14900 30.47100
H  11.31900 48.73400 30.58800
H  10.61400 51.23200 29.11600
H  11.46300 51.00400 30.62200
H  9.70700 51.06600 30.66700
H  10.21300 46.56500 30.59400
H  8.45000 46.74400 31.26000
H  9.70800 48.65000 32.58200
H  10.91700 47.33700 32.52700
H  14.91900 49.63300 28.01100
H  15.48100 50.27500 26.40600
H  15.96600 48.65500 27.00800
H  17.45300 47.97200 23.74100
H  16.80700 47.76900 25.28300
H  16.85900 49.46000 24.64300
H  10.77300 46.64200 20.93300
H  8.38100 48.12600 20.68900
H  10.39500 49.65200 20.70000
H  10.24100 48.61500 19.27000
H  11.80000 48.65800 20.05000
H  8.89900 45.69400 19.99900
H  7.29600 46.15700 20.49700
H  8.50600 45.07300 22.84000
H  9.12000 44.11100 21.61100
H  7.40000 44.22400 21.78300
H  3.41900 47.53700 25.11200
H  4.10600 46.42700 23.88600
H  4.42100 48.13300 23.70400
H  6.03700 48.55100 29.62000
H  4.05400 45.17600 31.36700
H  5.44300 45.55200 32.52500
H  5.66800 44.46600 31.15300

