158

Mg 1.70300 -1.12900 43.88200
C  4.99400 0.02300 43.28600
C  0.60100 1.88500 42.75800
C  -1.38800 -2.47900 43.90400
C  3.11300 -4.24200 44.73600
N  2.72300 0.72800 43.19700
C  4.06900 0.95300 42.99700
C  4.33100 2.41400 42.64700
C  2.87600 3.01400 42.68300
C  1.94900 1.78600 42.82900
C  2.59300 4.14100 43.80100
C  5.02800 2.49300 41.23900
C  5.81100 3.70700 40.86500
H  5.52100 4.52200 39.55300
N  -0.14400 -0.32500 43.47900
C  -0.43800 0.93800 43.04300
C  -1.88900 1.08500 42.90200
C  -2.43900 -0.20900 43.19200
C  -1.27900 -1.06900 43.59900
C  -2.54200 2.35200 42.57000
C  -3.92000 -0.56900 43.19600
O  -4.73400 0.31900 42.76400
C  -4.53500 -1.84400 43.78400
N  0.90800 -3.11900 44.17800
C  -0.39800 -3.36200 44.26600
C  -0.68500 -4.85600 44.70200
C  0.78700 -5.39500 44.95100
C  1.68800 -4.20000 44.62200
C  -1.72500 -5.02300 45.83300
C  1.32200 -6.50900 44.08300
C  1.68500 -7.89200 44.77500
N  3.59400 -1.98400 43.99400
C  3.97600 -3.22600 44.48200
C  5.40900 -3.24700 44.51200
C  5.80900 -2.02000 44.06300
C  4.74500 -1.30500 43.70300
C  6.17900 -4.43300 44.85400
C  6.95000 -1.15600 43.88900
O  8.15700 -1.32000 44.05800
C  6.48400 0.16800 43.24800
C  7.00000 1.25200 44.14100
O  6.62400 1.39500 45.29100
O  7.86400 2.13800 43.53700
C  8.32100 3.31200 44.39700
H  0.22400 2.83500 42.37400
H  -2.42400 -2.72000 44.15100
H  3.60800 -5.14800 45.09300
H  4.93000 2.94500 43.38700
H  2.71600 3.47800 41.71000
H  3.49400 4.36200 44.37400
H  1.89600 3.82400 44.57700
H  2.31900 5.09100 43.34100
H  4.23200 2.49500 40.49400
H  5.57100 1.57600 41.01200
H  6.83800 3.44100 40.61600
H  5.87000 4.39100 41.71100
H  -1.82200 3.14700 42.37600
H  -3.20800 2.55000 43.41000
H  -3.25700 2.24000 41.75500
H  -5.59500 -1.59600 43.72600
H  -4.20600 -2.09200 44.79300
H  -4.30000 -2.72500 43.18600
H  -0.96900 -5.52400 43.88900
H  1.02300 -5.56100 46.00300
H  -2.26000 -4.09600 46.03800
H  -1.17500 -5.40300 46.69400
H  -2.57800 -5.67700 45.64600
H  2.15100 -6.33000 43.39800
H  0.54700 -6.83800 43.39100
H  0.79400 -8.46000 45.04300
H  2.23700 -7.74800 45.70300
H  2.31600 -8.53200 44.15800
H  5.97700 -5.26100 44.17500
H  6.05500 -4.71100 45.90100
H  7.23800 -4.17600 44.84000
H  6.89500 0.23200 42.24000
H  8.52900 3.13900 45.45300
H  7.58500 4.10200 44.54600
H  9.18600 3.77500 43.92200
Mg 16.92400 52.70500 26.80900
C  18.84600 51.09300 29.09000
C  14.47400 53.16800 29.11500
C  14.60300 53.49000 24.30500
C  19.12700 51.56600 24.26400
N  16.70100 52.25900 28.86100
C  17.73100 51.66700 29.61800
C  17.46000 51.86700 31.11400
C  15.90200 52.26900 31.03000
C  15.63700 52.59100 29.58100
C  15.01000 51.04300 31.44600
C  18.27100 52.91200 31.93800
C  18.44800 52.68500 33.42100
H  17.39700 51.86800 34.08800
N  14.92100 53.40300 26.74500
C  14.06000 53.53000 27.82800
C  12.87500 54.24900 27.44800
C  12.93900 54.40500 26.08100
C  14.19800 53.73600 25.66300
C  11.96700 54.78800 28.51800
C  11.99000 55.13500 25.12900
O  12.41500 55.36400 24.03600
C  10.74500 55.71400 25.58300
N  16.88200 52.53800 24.61200
C  15.86400 52.99100 23.84400
C  16.20700 52.80500 22.32600
C  17.76000 52.62400 22.36400
C  17.97400 52.21500 23.84600
C  15.34800 51.69300 21.56400
C  18.61000 53.92000 21.95600
C  19.28900 53.95200 20.51600
N  18.60000 51.59000 26.67000
C  19.38800 51.21500 25.61900
C  20.51200 50.51000 26.12100
C  20.28200 50.35800 27.49400
C  19.09800 51.06900 27.75800
C  21.75400 50.11700 25.23100
C  20.88300 49.87200 28.77300
O  21.84300 49.09900 28.99100
C  19.86200 50.24400 29.83900
C  19.26800 49.01500 30.43300
O  18.72500 48.09500 29.82300
O  19.37400 49.04600 31.75600
C  18.74300 48.08700 32.66000
H  13.69700 53.22900 29.88000
H  13.90500 53.64500 23.47900
H  19.87000 51.17400 23.56700
H  17.63900 50.82200 31.36900
H  15.72400 53.16400 31.62700
H  15.58000 50.12100 31.33600
H  14.15900 51.05500 30.76500
H  14.64700 51.14600 32.46800
H  17.83100 53.90700 31.87600
H  19.27800 52.98700 31.52700
H  18.59000 53.65700 33.89400
H  19.33000 52.04900 33.50100
H  11.11400 54.14500 28.73900
H  11.59600 55.78500 28.28100
H  12.61100 55.00200 29.37100
H  11.03800 56.64700 26.06500
H  10.22100 55.00700 26.22600
H  10.19000 56.00600 24.69100
H  16.07000 53.73400 21.77100
H  18.05700 51.71400 21.84400
H  14.54600 51.37700 22.23000
H  15.95200 50.83500 21.26800
H  14.93700 52.19400 20.68700
H  19.47100 53.95200 22.62400
H  17.97200 54.79300 22.09700
H  18.80600 53.21100 19.87900
H  20.36200 53.76000 20.48100
H  19.09100 54.91500 20.04500
H  22.71800 50.07100 25.73700
H  21.96200 50.88000 24.48000
H  21.58700 49.12100 24.82000
H  20.45500 50.73100 30.61300
H  19.33100 47.17200 32.72700
H  17.79100 47.80700 32.20900
H  18.65400 48.58000 33.62800

