158

Mg 8.01600 1.77400 27.90600
C  9.76600 0.73700 30.75100
C  6.23000 3.78500 30.11300
C  6.31700 2.76400 25.32400
C  9.88000 -0.51000 26.04900
N  8.00600 2.12600 30.21300
C  8.88700 1.70600 31.19800
C  8.57300 2.29100 32.54100
C  7.27500 3.03000 32.25200
C  7.12100 2.98300 30.73900
C  5.96400 2.65000 33.12900
C  9.80400 3.24900 32.98600
C  10.67700 2.77900 34.20800
H  10.95300 3.68000 35.38600
N  6.38900 3.05200 27.69700
C  5.89200 3.86800 28.68800
C  4.90700 4.72300 28.19600
C  4.97400 4.58000 26.73500
C  5.96100 3.44800 26.53400
C  3.94500 5.62400 28.99200
C  4.14500 5.18100 25.64200
O  4.03400 4.79400 24.47800
C  3.36800 6.41500 26.03000
N  7.98800 1.15300 25.98700
C  7.28400 1.83000 25.06900
C  7.43500 1.19500 23.71000
C  8.68900 0.18500 23.82300
C  8.89000 0.30400 25.36100
C  6.21200 0.34200 23.14900
C  9.92600 0.78600 23.14100
C  10.17100 0.16500 21.70400
N  9.61800 0.40100 28.25600
C  10.18100 -0.51500 27.43500
C  11.15700 -1.33400 28.14700
C  11.05900 -0.87600 29.40700
C  10.06900 0.18900 29.43700
C  12.10400 -2.30900 27.57300
C  11.53600 -1.06400 30.71900
O  12.38500 -1.86500 31.11100
C  10.85800 0.02300 31.60000
C  10.31400 -0.68800 32.78800
O  9.28100 -1.31200 32.79600
O  11.28200 -0.62600 33.80500
C  10.91100 -1.21000 35.09600
H  5.70000 4.43800 30.81000
H  5.84400 3.04000 24.37900
H  10.32100 -1.26600 25.39600
H  8.36500 1.60300 33.36100
H  7.43500 4.10000 32.38200
H  6.14000 1.69300 33.62000
H  5.05400 2.75700 32.53800
H  5.84400 3.43300 33.87700
H  9.66900 4.32800 33.05900
H  10.53600 3.09200 32.19400
H  11.63600 2.36200 33.90100
H  10.16900 1.90300 34.61100
H  4.31100 6.63200 28.79600
H  3.90600 5.37400 30.05200
H  2.96200 5.45500 28.55200
H  2.36300 6.12100 26.33400
H  3.19100 7.15700 25.25100
H  3.89700 6.92100 26.83900
H  7.66100 1.98900 22.99900
H  8.51500 -0.83800 23.48900
H  5.37900 0.19000 23.83600
H  6.54100 -0.57900 22.66700
H  5.74300 1.03000 22.44500
H  10.87500 0.64300 23.65900
H  9.77200 1.86500 23.14600
H  9.62700 -0.75100 21.47500
H  11.24100 -0.00800 21.58500
H  9.91700 0.96000 21.00200
H  12.25400 -2.21500 26.49800
H  11.68900 -3.30600 27.72200
H  13.08900 -2.24900 28.03400
H  11.52200 0.77600 32.02300
H  10.50800 -0.41700 35.72600
H  11.77300 -1.60700 35.63200
H  10.12100 -1.93200 34.88600
Mg 36.54200 49.98100 24.20300
C  36.73900 48.24100 27.35200
C  34.87000 52.56100 26.06000
C  36.01700 51.47200 21.41000
C  37.55600 47.18000 22.67500
N  35.85600 50.31700 26.52900
C  36.18500 49.50100 27.55100
C  35.80600 50.19900 28.85800
C  35.18400 51.57200 28.41100
C  35.31600 51.50600 26.87700
C  33.64800 51.70800 28.76000
C  36.97600 50.26500 29.88400
C  36.68600 49.84700 31.34400
H  35.29500 49.51000 31.70700
N  35.55400 51.75800 23.78200
C  35.01100 52.66700 24.65800
C  34.62300 53.83300 23.83400
C  34.85600 53.46800 22.45400
C  35.45600 52.15700 22.49500
C  34.02400 55.06100 24.50700
C  34.37500 54.07600 21.11600
O  34.48700 53.58800 19.98200
C  33.59800 55.40600 21.18500
N  36.62000 49.33800 22.24500
C  36.56100 50.23200 21.23400
C  36.92000 49.55100 19.91700
C  37.44600 48.13500 20.31500
C  37.24500 48.21000 21.79300
C  35.77900 49.63100 18.86900
C  38.94100 47.93200 19.86300
C  39.99700 48.56900 20.77800
N  37.27400 48.24000 24.77200
C  37.62200 47.08000 24.06600
C  37.87200 45.93900 24.92200
C  37.63600 46.40400 26.20300
C  37.17500 47.76500 26.08100
C  38.28900 44.56400 24.50400
C  37.63800 45.94500 27.65300
O  37.98800 44.85300 28.07800
C  37.09100 47.22000 28.38500
C  35.94900 46.65100 29.11700
O  34.83100 46.50300 28.72700
O  36.43600 46.14800 30.32800
C  35.58100 45.14500 31.02100
H  34.59600 53.38100 26.72600
H  35.98700 51.99600 20.45200
H  38.01000 46.30200 22.20900
H  34.89900 49.70600 29.20700
H  35.80400 52.39800 28.76200
H  33.07500 51.66100 27.83400
H  33.49000 52.69800 29.18500
H  33.27900 50.99200 29.49400
H  37.56600 51.18100 29.84500
H  37.79200 49.62500 29.54600
H  37.01700 50.68500 31.95800
H  37.32200 49.00500 31.62100
H  33.06400 55.27200 24.03600
H  34.63800 55.87600 24.12200
H  34.08900 55.21300 25.58400
H  33.49100 55.81400 20.18000
H  34.15700 56.13300 21.77400
H  32.62400 55.16900 21.61300
H  37.66800 50.20700 19.47200
H  36.84300 47.36500 19.83500
H  34.89800 50.03500 19.36800
H  35.52300 48.60800 18.59200
H  36.09500 50.33400 18.09800
H  38.97500 48.41600 18.88700
H  39.14400 46.86800 19.73900
H  40.99700 48.63000 20.35000
H  39.96700 47.99000 21.70100
H  39.82800 49.62400 20.99500
H  37.88800 43.88200 25.25400
H  39.37600 44.49000 24.47700
H  37.96100 44.44900 23.47100
H  37.84200 47.57500 29.09100
H  35.26800 45.67500 31.92000
H  36.09200 44.21000 31.25500
H  34.72600 44.91500 30.38600

