158

Mg 48.02600 35.52300 27.60600
C  46.25500 33.53100 29.99100
C  48.29300 37.94900 30.19400
C  49.43700 37.57000 25.35000
C  47.62800 33.12100 25.24800
N  47.25300 35.77500 29.79700
C  46.68100 34.76500 30.59000
C  46.67600 35.08200 32.05900
C  47.04400 36.61600 32.12900
C  47.55700 36.84900 30.65200
C  45.94700 37.58300 32.70600
C  47.78700 34.28200 32.73000
C  47.76200 34.01400 34.24700
H  46.92500 34.91400 35.19100
N  48.71000 37.45000 27.75300
C  48.64400 38.29600 28.89900
C  49.23600 39.57500 28.51800
C  49.75600 39.42200 27.19600
C  49.31500 38.07700 26.70800
C  49.27300 40.77700 29.42400
C  50.48300 40.46600 26.38600
O  50.84000 40.28400 25.20100
C  51.05300 41.67500 27.05100
N  48.20200 35.52000 25.48400
C  48.89100 36.47000 24.78900
C  49.30600 35.99200 23.38300
C  48.90400 34.49700 23.41300
C  48.17800 34.34100 24.78100
C  48.64200 36.95100 22.30500
C  50.03600 33.38800 23.17400
C  49.94000 32.66900 21.79300
N  46.92400 33.87900 27.45500
C  46.92800 32.92100 26.47300
C  46.22500 31.73400 26.85200
C  45.80200 32.04700 28.21100
C  46.36600 33.25700 28.57000
C  46.03000 30.50200 26.08900
C  45.15100 31.40200 29.33000
O  44.63000 30.26700 29.39700
C  45.22100 32.53800 30.47900
C  45.50900 31.88200 31.79500
O  46.22400 30.88700 31.91500
O  44.72300 32.50800 32.68300
C  44.44200 31.92400 34.01400
H  48.54600 38.71700 30.92800
H  49.94900 38.15300 24.58200
H  47.68100 32.28400 24.54900
H  45.72800 34.91500 32.57200
H  47.94400 36.67300 32.74100
H  46.07000 37.67500 33.78500
H  44.98000 37.09800 32.57600
H  45.93000 38.57200 32.24800
H  48.74800 34.74600 32.50900
H  47.88500 33.26600 32.34800
H  48.79000 34.22900 34.53600
H  47.54800 32.96200 34.43900
H  48.91700 41.67500 28.92000
H  50.28000 40.96300 29.79800
H  48.62400 40.58600 30.27900
H  51.68700 42.13000 26.29000
H  51.75300 41.37300 27.83100
H  50.26900 42.35200 27.39000
H  50.38700 36.11000 23.44700
H  48.17000 34.36400 22.61800
H  48.02400 36.31100 21.67500
H  49.27900 37.64400 21.75600
H  47.92800 37.57800 22.84100
H  50.14100 32.60400 23.92400
H  50.94400 33.98900 23.13600
H  48.92900 32.75600 21.39700
H  50.17000 31.62000 21.98000
H  50.44200 33.11100 20.93200
H  44.97100 30.29500 25.93900
H  46.38200 29.61800 26.62000
H  46.59300 30.46500 25.15600
H  44.25600 33.04400 30.46300
H  43.38800 31.64700 34.00700
H  44.74000 32.62700 34.79200
H  45.00800 30.99600 34.10000
Mg 36.22100 49.17500 26.05100
C  36.12700 47.17400 28.79600
C  35.12600 51.82200 27.92100
C  35.79400 51.13200 23.11100
C  36.90100 46.48400 23.95700
N  35.53700 49.46100 28.09100
C  35.70000 48.47400 29.00100
C  35.56400 49.08300 30.45500
C  35.03100 50.52600 30.17000
C  35.28200 50.63800 28.60500
C  33.61700 50.84800 30.62600
C  36.94500 48.96600 31.13500
C  36.94000 48.15200 32.50500
H  35.84800 48.56500 33.50800
N  35.58400 51.24800 25.59300
C  35.16100 52.13900 26.55800
C  34.83000 53.39100 25.91400
C  35.06100 53.20600 24.49100
C  35.51800 51.84700 24.35900
C  34.43600 54.66500 26.71100
C  34.93700 54.18300 23.33700
O  35.37900 53.95400 22.17500
C  34.29600 55.54300 23.52500
N  36.32300 48.85100 23.89700
C  36.12200 49.82300 22.91000
C  36.08000 49.20300 21.48800
C  36.45600 47.69900 21.80600
C  36.62700 47.65100 23.30800
C  34.79900 49.48400 20.67300
C  37.83500 47.30500 21.11300
C  39.20900 47.79000 21.82900
N  36.48300 47.19200 26.29200
C  36.81600 46.21300 25.37300
C  36.97600 44.95500 26.09200
C  36.78400 45.33800 27.46600
C  36.44000 46.62100 27.53300
C  37.28700 43.61700 25.48700
C  36.74700 44.81300 28.75200
O  36.95000 43.68700 29.18800
C  36.37000 46.00700 29.72900
C  35.16800 45.57900 30.47200
O  34.02400 45.67700 30.14200
O  35.54300 45.17600 31.73200
C  34.47900 44.85400 32.72400
H  34.79400 52.61500 28.59400
H  35.64100 51.64900 22.16200
H  37.17500 45.59000 23.39200
H  34.84000 48.47500 30.99600
H  35.74500 51.29200 30.47100
H  32.76800 50.83700 29.94300
H  33.68600 51.85900 31.02700
H  33.34700 50.22500 31.47900
H  37.31700 49.95500 31.40500
H  37.76900 48.52800 30.57200
H  37.84700 48.47300 33.01700
H  37.02400 47.07300 32.37700
H  33.40100 54.53800 27.02700
H  34.56200 55.62800 26.21600
H  35.19600 54.56000 27.48400
H  34.23600 55.89800 22.49700
H  34.95500 56.25300 24.02500
H  33.32700 55.57500 24.02200
H  37.02100 49.62300 21.13100
H  35.69900 47.01300 21.42800
H  33.86200 49.41400 21.22500
H  34.77300 48.61200 20.02000
H  34.90600 50.41300 20.11200
H  37.83300 47.67000 20.08600
H  37.86400 46.21700 21.04300
H  39.85600 48.27100 21.09500
H  39.73100 46.94200 22.27300
H  38.97800 48.51500 22.61000
H  38.37100 43.50800 25.47100
H  37.09300 43.71300 24.41900
H  36.74500 42.74900 25.86400
H  37.24400 46.22600 30.34200
H  34.42100 43.77000 32.82200
H  33.52400 45.27100 32.40600
H  34.64500 45.29500 33.70700

