158

Mg -2.12400 16.84500 25.87800
C  -2.50300 14.68200 28.61500
C  -2.74500 19.43100 27.96100
C  -2.19900 18.75400 23.18600
C  -1.88400 14.04700 23.82400
N  -2.76800 16.97200 28.04900
C  -2.68800 16.01600 29.00200
C  -2.98600 16.50500 30.43700
C  -3.34100 18.03600 30.11300
C  -3.00400 18.17800 28.67100
C  -4.78200 18.47600 30.48000
C  -1.73500 16.35400 31.37900
C  -2.00000 15.58700 32.71300
H  -2.51000 16.38700 33.94200
N  -2.35000 18.82000 25.61500
C  -2.60800 19.75800 26.59300
C  -2.52600 21.11200 25.97500
C  -2.23800 20.94400 24.59200
C  -2.29400 19.48200 24.38900
C  -2.69900 22.38600 26.81700
C  -1.88700 22.01200 23.59300
O  -1.58400 21.80700 22.42800
C  -1.80600 23.42700 24.05600
N  -2.14800 16.47600 23.84100
C  -2.27900 17.42600 22.89200
C  -2.14000 16.94700 21.46800
C  -1.82700 15.42100 21.68700
C  -1.94100 15.29900 23.23100
C  -3.44900 17.18500 20.65200
C  -0.40100 15.07100 21.18600
C  0.90900 15.51800 22.00200
N  -2.17100 14.76200 26.14800
C  -2.06900 13.70900 25.20500
C  -2.14600 12.45000 25.83200
C  -2.36700 12.79100 27.21300
C  -2.35800 14.20500 27.31600
C  -2.08400 11.17200 24.97700
C  -2.50600 12.27800 28.50400
O  -2.70700 11.11900 28.86000
C  -2.50900 13.40300 29.52800
C  -1.19100 13.21200 30.21400
O  -0.06500 13.48900 29.76200
O  -1.33700 12.63800 31.45500
C  -0.18200 12.17600 32.16900
H  -2.90300 20.25000 28.66600
H  -2.08700 19.38400 22.30100
H  -1.72400 13.17800 23.18200
H  -3.77700 15.82500 30.75400
H  -2.71500 18.78600 30.59800
H  -5.40800 17.63600 30.77800
H  -5.30800 18.97300 29.66500
H  -4.65500 19.14500 31.33100
H  -1.37100 17.28000 31.82400
H  -1.00400 15.82000 30.77100
H  -0.98500 15.26400 32.94600
H  -2.69500 14.76200 32.55600
H  -2.95500 22.25300 27.86800
H  -3.55200 22.81200 26.28800
H  -1.88100 23.09900 26.71100
H  -2.81400 23.63800 24.41300
H  -1.48700 24.07700 23.24200
H  -1.01800 23.39200 24.80900
H  -1.35000 17.45000 20.91000
H  -2.52300 14.70200 21.25700
H  -3.56500 18.14100 20.14000
H  -4.31100 17.11800 21.31500
H  -3.32000 16.40600 19.90000
H  -0.34600 15.39800 20.14800
H  -0.46100 13.98900 21.30300
H  0.55400 16.29200 22.68300
H  1.72100 15.90500 21.38600
H  1.34900 14.73600 22.62100
H  -1.64800 10.47500 25.69300
H  -1.58700 11.23700 24.01000
H  -3.07900 10.83100 24.69000
H  -3.35600 13.22600 30.19100
H  0.66200 11.90000 31.53600
H  -0.37700 11.36900 32.87500
H  0.15100 13.08200 32.67600
Mg 40.30800 8.35900 29.65900
C  42.28400 9.71500 32.23200
C  37.95900 7.53700 31.98000
C  38.55700 6.78800 27.19100
C  42.90700 9.03100 27.45000
N  40.27500 8.51100 31.82900
C  41.10300 9.24500 32.70600
C  40.50200 9.36200 34.03800
C  39.31100 8.40400 34.09500
C  39.12800 8.14500 32.50300
C  39.54200 7.07300 34.84900
C  40.04300 10.82800 34.47900
C  39.60000 10.93500 35.97000
H  40.52300 11.68500 36.86200
N  38.45500 7.35200 29.64600
C  37.61500 7.19200 30.67100
C  36.44800 6.37900 30.20700
C  36.57000 6.38600 28.80700
C  37.90600 6.86900 28.48900
C  35.32500 6.00200 31.12500
C  35.54900 6.00300 27.67000
O  35.71700 6.17500 26.48400
C  34.23100 5.39200 28.10000
N  40.74400 7.84100 27.63700
C  39.88200 7.16600 26.85400
C  40.36300 7.14300 25.38100
C  41.70900 7.95600 25.40700
C  41.83100 8.36000 26.94700
C  40.59300 5.65200 24.90200
C  41.74800 9.14400 24.39000
C  40.90300 10.28200 24.58900
N  42.26800 9.13000 29.72800
C  43.19900 9.42700 28.75600
C  44.39100 9.95400 29.31600
C  44.03700 10.24100 30.69300
C  42.72300 9.64900 30.88900
C  45.61300 10.20700 28.57100
C  44.46800 10.76200 31.96400
O  45.53100 11.27300 32.34300
C  43.30600 10.52100 32.90900
C  43.83700 9.81100 34.08500
O  44.28600 8.68100 33.94400
O  43.59400 10.51600 35.22400
C  44.01900 9.87700 36.45400
H  37.22400 7.43800 32.78200
H  38.11000 6.20800 26.38200
H  43.68800 9.17900 26.70100
H  41.27300 9.00700 34.72300
H  38.43400 8.89900 34.51100
H  40.49100 7.05400 35.38500
H  39.51500 6.16600 34.24500
H  38.86800 7.07000 35.70600
H  39.28100 11.20400 33.79600
H  40.89100 11.46200 34.22300
H  39.48900 9.94300 36.40900
H  38.62300 11.41700 35.94500
H  35.57400 6.23900 32.15900
H  35.22900 4.91600 31.10200
H  34.40500 6.53100 30.87700
H  33.77200 6.09000 28.80000
H  34.54400 4.47800 28.60400
H  33.59100 5.25600 27.22800
H  39.56300 7.39800 24.68600
H  42.57200 7.37800 25.07800
H  40.58700 5.69800 23.81300
H  39.74500 5.03500 25.20000
H  41.48700 5.21100 25.34200
H  41.69200 8.56000 23.47100
H  42.75500 9.53100 24.54700
H  40.16200 10.13500 23.80300
H  41.40700 11.21000 24.31800
H  40.46800 10.34400 25.58600
H  45.56800 11.17400 28.07000
H  45.74100 9.46600 27.78200
H  46.45300 10.25700 29.26400
H  42.83200 11.41100 33.32400
H  45.06700 10.08300 36.67300
H  43.80600 8.81200 36.54400
H  43.41300 10.29300 37.25900

