158

Mg 45.49800 4.61400 47.72100
C  43.26900 7.37700 47.32200
C  42.81200 2.53600 47.15000
C  47.72400 1.98700 47.50300
C  48.28600 6.88500 47.59200
N  43.28500 4.97200 47.31600
C  42.59100 6.17900 47.21700
C  41.10900 5.95800 46.72600
C  41.08700 4.39700 46.91300
C  42.53500 3.92700 47.14900
C  40.16600 3.91400 48.12900
C  40.94000 6.48300 45.28200
C  39.89700 7.50600 44.97000
H  39.16900 7.12900 43.69600
N  45.27000 2.54700 47.46300
C  44.09100 1.95500 47.27800
C  44.39200 0.51600 46.93400
C  45.80200 0.27400 47.02300
C  46.33700 1.62900 47.35400
C  43.31500 -0.48400 46.52000
C  46.47500 -1.01300 46.70300
O  45.73900 -2.01500 46.44800
C  48.04200 -1.16900 46.72100
N  47.69800 4.50900 47.22800
C  48.34900 3.27100 47.50300
C  49.82300 3.47500 47.67600
C  49.97500 5.02500 47.70500
C  48.54000 5.50100 47.59800
C  50.38400 2.81200 48.96800
C  50.92700 5.60900 46.70900
C  50.58800 5.30000 45.25400
N  45.78900 6.65600 47.65800
C  46.96700 7.42600 47.51600
C  46.56300 8.82400 47.48300
C  45.18100 8.83400 47.52700
C  44.71200 7.49200 47.47900
C  47.57500 9.94200 47.38300
C  43.98200 9.68400 47.50000
O  43.91800 10.92600 47.46200
C  42.74000 8.77900 47.23100
C  41.74500 9.08000 48.34200
O  41.55300 8.38900 49.38600
O  40.91600 10.05500 47.95300
C  39.68600 10.23200 48.70200
H  41.89900 1.97100 46.95200
H  48.43800 1.18900 47.71400
H  49.18600 7.50400 47.57600
H  40.28000 6.33600 47.32500
H  40.73300 3.85400 46.03700
H  39.61900 3.03600 47.78700
H  39.44900 4.66300 48.46600
H  40.78900 3.70300 48.99900
H  40.67700 5.60000 44.70000
H  41.92400 6.81500 44.95100
H  40.29500 8.49100 44.72700
H  39.20900 7.62900 45.80700
H  42.35700 -0.03800 46.25100
H  43.27100 -1.04400 47.45400
H  43.65500 -1.16800 45.74300
H  48.31400 -1.00400 47.76400
H  48.31500 -0.41500 45.98300
H  48.44300 -2.15000 46.46700
H  50.36100 3.04000 46.83400
H  50.29100 5.40700 48.67600
H  49.49700 2.38600 49.43600
H  50.70300 3.54300 49.71000
H  51.16100 2.04800 48.91900
H  51.86500 5.10000 46.93200
H  51.21200 6.62400 46.98700
H  49.66900 4.73100 45.11700
H  51.38700 4.71700 44.79600
H  50.52800 6.23300 44.69300
H  48.07500 9.81900 46.42200
H  48.36200 9.83400 48.12900
H  46.94900 10.83400 47.40600
H  42.30500 8.98700 46.25400
H  39.79800 10.09600 49.77800
H  38.97800 9.43500 48.47500
H  39.10000 11.12600 48.48800
Mg 49.83500 45.59000 41.30400
C  46.64400 46.16400 40.07500
C  49.55600 42.28100 40.23700
C  53.18800 45.21200 41.73000
C  50.21400 49.03700 41.76100
N  48.31200 44.39700 40.13800
C  47.02100 44.84500 39.88400
C  46.23500 43.75300 39.11900
C  47.16900 42.42100 39.29100
C  48.40200 43.02500 40.03800
C  46.60400 41.19500 40.02700
C  46.09200 44.28500 37.67500
C  44.74800 44.25800 37.08000
H  44.52300 44.27400 35.56000
N  51.15400 43.95900 41.16600
C  50.80500 42.66000 40.78900
C  51.90200 41.74600 41.03700
C  53.02300 42.57500 41.49200
C  52.52400 44.01200 41.46000
C  51.79800 40.29400 40.83700
C  54.46100 42.14000 41.80200
O  54.78700 40.92500 41.73200
C  55.46400 43.11400 42.27000
N  51.53400 46.95900 41.63000
C  52.77400 46.52000 41.84400
C  53.76300 47.67200 42.05000
C  52.77200 48.82500 42.25500
C  51.38700 48.24900 41.83400
C  54.92900 47.56300 43.07900
C  53.15500 50.08400 41.38500
C  53.08900 51.34700 42.18700
N  48.68800 47.28800 41.04600
C  48.92200 48.58100 41.32200
C  47.73000 49.41800 41.00100
C  46.90800 48.51200 40.47800
C  47.47800 47.17500 40.61300
C  47.61600 50.85300 41.07400
C  45.61800 48.41700 39.82900
O  44.78300 49.24900 39.46800
C  45.32700 46.86800 39.61700
C  44.03100 46.57500 40.35900
O  43.05500 46.20600 39.75500
O  44.19100 46.59600 41.70200
C  43.19600 45.87400 42.42800
H  49.42300 41.22700 39.98500
H  54.27400 45.22800 41.83800
H  50.44700 50.06800 42.03200
H  45.27500 43.63600 39.62200
H  47.53600 42.03100 38.34200
H  45.51600 41.25600 40.03600
H  47.00200 41.11200 41.03900
H  46.86600 40.24800 39.55500
H  46.77300 43.62100 37.14200
H  46.33800 45.34600 37.63900
H  44.06700 45.02800 37.44100
H  44.21300 43.36000 37.39100
H  52.20400 39.95500 39.88400
H  50.78400 39.95100 41.04000
H  52.31900 39.83800 41.67900
H  54.99600 43.72300 43.04300
H  55.87900 43.64800 41.41500
H  56.32600 42.63800 42.73800
H  54.26300 47.85500 41.10000
H  52.72300 49.08400 43.31300
H  54.80300 46.62300 43.61600
H  54.98900 48.34700 43.83500
H  55.86100 47.65700 42.52100
H  52.40800 50.24700 40.60800
H  54.14000 49.97600 40.93200
H  54.06100 51.83700 42.12000
H  52.89800 51.18000 43.24600
H  52.37800 52.03500 41.73000
H  46.61200 51.11500 41.40800
H  47.73200 51.31900 40.09500
H  48.33400 51.27200 41.77900
H  45.12300 46.69900 38.56000
H  42.93000 45.00200 41.83000
H  42.27300 46.44100 42.55000
H  43.60100 45.68400 43.42200

