158

Mg 2.06200 -1.20700 43.58200
C  5.43200 -0.20100 42.75000
C  0.91400 1.62800 42.06100
C  -0.95900 -2.69500 43.52400
C  3.46500 -4.20600 44.88800
N  3.07600 0.41700 42.46800
C  4.44900 0.61900 42.26300
C  4.67800 1.99600 41.62100
C  3.29900 2.67500 41.68400
C  2.32800 1.53500 42.13400
C  3.20400 3.95600 42.63700
C  5.09700 1.79000 40.13900
C  5.94800 2.81900 39.41800
H  5.38300 3.52800 38.24200
N  0.17200 -0.57900 42.98200
C  -0.12000 0.66200 42.44300
C  -1.50400 0.83600 42.37900
C  -2.11600 -0.37600 42.87300
C  -0.99700 -1.33200 43.15000
C  -2.12900 2.14100 41.85300
C  -3.60400 -0.65100 43.06900
O  -4.43000 0.27500 42.78800
C  -4.02000 -1.98900 43.50700
N  1.33100 -3.09900 44.13200
C  0.09800 -3.52800 43.89900
C  -0.14400 -5.01700 44.07500
C  1.23300 -5.40400 44.78900
C  2.07000 -4.16600 44.59500
C  -1.43800 -5.27100 44.90400
C  2.02300 -6.59600 44.19400
C  2.15700 -7.79600 45.11600
N  4.00600 -2.03500 43.95400
C  4.36900 -3.22800 44.58200
C  5.80600 -3.20100 44.77400
C  6.25000 -2.08400 44.01100
C  5.11300 -1.41500 43.51700
C  6.64400 -4.17100 45.43800
C  7.57100 -1.38200 43.58900
O  8.73300 -1.71500 43.71200
C  6.97400 -0.07500 42.89800
C  7.40500 1.09000 43.69300
O  6.79200 1.60800 44.62000
O  8.66300 1.48500 43.24900
C  8.99700 2.88000 43.73300
H  0.69400 2.64700 41.73800
H  -1.86000 -3.30100 43.40700
H  3.94000 -5.07300 45.35200
H  5.38700 2.65600 42.12000
H  3.05600 3.07000 40.69700
H  4.04600 3.96300 43.32900
H  2.29500 3.96200 43.23900
H  3.20400 4.87500 42.05200
H  4.17900 1.51800 39.61800
H  5.59200 0.84200 39.92900
H  6.78800 2.20200 39.10000
H  6.20100 3.60900 40.12600
H  -3.06300 1.84400 41.37700
H  -1.54200 2.58800 41.05100
H  -2.25700 2.95700 42.56500
H  -5.07300 -1.93100 43.78500
H  -3.57800 -2.28100 44.46000
H  -3.80500 -2.60800 42.63600
H  -0.23200 -5.32300 43.03200
H  1.06000 -5.44000 45.86400
H  -1.22000 -6.06300 45.62100
H  -2.26600 -5.54200 44.25000
H  -1.52900 -4.48100 45.65000
H  2.98000 -6.44900 43.69400
H  1.40100 -7.00100 43.39600
H  2.43800 -7.58100 46.14700
H  2.96900 -8.42100 44.74500
H  1.32500 -8.50000 45.09400
H  5.99700 -4.47000 46.26200
H  7.53000 -3.68000 45.84000
H  6.85500 -5.04500 44.82200
H  7.43700 0.06100 41.92000
H  9.75700 3.27100 43.05700
H  9.33100 2.78500 44.76600
H  8.13000 3.54000 43.68400
Mg 4.97500 54.99100 40.75300
C  4.55500 51.54000 40.68200
C  7.89900 54.67400 39.29800
C  4.97800 58.28100 40.40300
C  1.78900 55.14500 42.20600
N  5.99700 53.28100 39.94400
C  5.79500 51.91900 40.15000
C  6.92800 51.06200 39.69700
C  8.10500 52.12400 39.45100
C  7.26400 53.40600 39.53800
C  9.32600 52.09000 40.41400
C  6.66600 50.07800 38.44500
C  5.63800 50.51600 37.38200
H  6.16700 51.04000 36.03300
N  6.26300 56.33400 39.90000
C  7.46400 55.98100 39.41400
C  8.11200 57.12400 38.87000
C  7.40200 58.28100 39.31800
C  6.14300 57.66300 39.90400
C  9.45500 56.99200 38.08700
C  7.75600 59.66300 39.09800
O  8.77500 59.92700 38.49400
C  6.95600 60.82900 39.62800
N  3.49500 56.47100 41.07900
C  3.82600 57.76600 40.93200
C  2.63000 58.63300 41.39500
C  1.53200 57.63000 41.57100
C  2.26200 56.32400 41.60000
C  3.03600 59.54600 42.63900
C  0.39000 57.56700 40.48600
C  -0.99200 57.86500 40.96300
N  3.47000 53.61700 41.36700
C  2.28900 53.83900 41.99300
C  1.66200 52.58500 42.37400
C  2.57100 51.56300 41.87300
C  3.53600 52.30900 41.19600
C  0.42700 52.45200 43.17800
C  2.82500 50.18400 41.72000
O  2.11600 49.21900 42.12600
C  4.23300 50.07100 41.09200
C  4.12700 49.07100 40.01700
O  3.35200 49.22300 39.03000
O  4.85000 47.90800 40.33700
C  4.85700 46.83900 39.31500
H  8.89400 54.56900 38.86200
H  4.96000 59.35900 40.22600
H  0.78800 55.15500 42.64200
H  7.25200 50.37300 40.47600
H  8.54000 51.95700 38.46600
H  10.17400 51.79000 39.79900
H  9.28900 51.45900 41.30200
H  9.44500 53.09400 40.82000
H  6.42100 49.09800 38.85600
H  7.62600 50.10800 37.93000
H  4.87500 51.21400 37.72800
H  5.21800 49.54700 37.11200
H  10.12700 56.89700 38.93900
H  9.83400 57.91500 37.64800
H  9.46800 56.08800 37.47700
H  7.55600 61.73300 39.51800
H  6.65600 60.56800 40.64300
H  5.99400 60.93700 39.12900
H  2.40100 59.34300 40.60100
H  1.19400 57.69200 42.60500
H  2.65600 59.13700 43.57400
H  2.67200 60.57300 42.59700
H  4.09600 59.61200 42.88600
H  0.20100 56.60200 40.01500
H  0.51500 58.37800 39.76800
H  -1.28300 58.82900 40.54600
H  -0.95700 57.91000 42.05100
H  -1.70800 57.08000 40.71800
H  0.17100 51.42400 42.92100
H  -0.41600 53.13700 43.08900
H  0.79200 52.41000 44.20400
H  5.02600 49.78700 41.78400
H  4.57400 47.25200 38.34700
H  4.18400 46.04000 39.62500
H  5.83900 46.37400 39.22400

