158

Mg 17.30100 -1.30800 27.51000
C  16.43500 0.55500 30.33200
C  19.02100 -3.49300 29.64300
C  18.34600 -2.94100 24.81400
C  15.75100 1.14600 25.55700
N  17.77500 -1.36500 29.65300
C  17.28400 -0.50700 30.60400
C  17.78400 -0.91100 32.02300
C  18.73600 -2.10300 31.73000
C  18.47100 -2.41100 30.27700
C  20.22700 -1.73800 32.08200
C  16.54600 -1.24100 33.01500
C  16.44200 -0.62700 34.41400
H  17.76200 -0.10500 35.09600
N  18.54800 -3.03900 27.18100
C  19.04400 -3.83300 28.25900
C  19.68000 -4.90900 27.57400
C  19.64700 -4.76400 26.19500
C  18.78400 -3.63400 25.98700
C  20.25900 -6.07700 28.37500
C  20.26100 -5.53800 25.05000
O  20.09400 -5.13400 23.91100
C  21.07500 -6.78800 25.28000
N  17.13500 -0.92700 25.47100
C  17.65300 -1.77100 24.57400
C  17.38100 -1.23300 23.22000
C  16.23200 -0.14200 23.38400
C  16.43200 0.12600 24.90500
C  18.63500 -0.54700 22.54900
C  14.74200 -0.60600 22.99000
C  14.01300 -0.11900 21.66600
N  16.15100 0.43300 27.84700
C  15.53500 1.32700 26.97000
C  14.76600 2.27700 27.75200
C  15.09000 1.99000 29.05400
C  15.92700 0.90400 29.04900
C  13.80600 3.35300 27.18200
C  14.86000 2.40900 30.37300
O  14.07900 3.24500 30.89700
C  15.77000 1.54200 31.22400
C  16.72400 2.39200 31.99200
O  17.82800 2.70000 31.64500
O  15.98200 2.96100 33.06000
C  16.73600 4.03400 33.76700
H  19.61100 -4.17700 30.25600
H  18.76500 -3.39200 23.91200
H  15.11900 1.80100 24.95400
H  18.31800 -0.06300 32.45100
H  18.43100 -3.00100 32.26600
H  20.78800 -2.32100 31.35200
H  20.41600 -2.29300 33.00100
H  20.58800 -0.71100 32.11600
H  16.59600 -2.30500 33.24700
H  15.60700 -1.01900 32.50800
H  16.00500 -1.33500 35.11700
H  15.84700 0.28400 34.34400
H  21.32400 -5.92700 28.19800
H  19.94200 -7.07100 28.06000
H  19.91300 -6.07600 29.40800
H  21.50100 -7.17900 24.35600
H  20.55000 -7.61300 25.76200
H  21.82700 -6.39100 25.96200
H  17.01400 -2.02600 22.56900
H  16.66400 0.64400 22.76500
H  19.42200 -0.67300 23.29300
H  18.57800 0.44000 22.09000
H  18.87800 -1.18400 21.69900
H  14.10900 -0.34000 23.83700
H  14.77200 -1.69200 22.89500
H  13.18500 0.46900 22.06100
H  13.58400 -0.90000 21.03800
H  14.55700 0.64500 21.10900
H  12.89100 2.95000 26.74800
H  14.30800 4.01300 26.47500
H  13.44900 3.98500 27.99500
H  15.07200 1.06500 31.91300
H  16.22400 4.99600 33.74900
H  17.73600 4.28300 33.41300
H  16.90100 3.75900 34.80900
Mg 30.96200 58.25200 39.92100
C  28.45900 56.20800 38.34800
C  33.16700 55.70300 39.27900
C  33.56900 60.39900 40.34100
C  28.70400 60.86500 39.88500
N  30.81900 56.24500 38.75400
C  29.72000 55.59200 38.29800
C  29.96000 54.15600 37.87600
C  31.43100 53.95800 38.37200
C  31.85600 55.36900 38.81900
C  31.62800 52.82400 39.44200
C  29.70600 53.71400 36.37500
C  29.73500 54.89400 35.33800
H  28.61600 54.71000 34.21600
N  33.07300 58.09300 39.89600
C  33.72800 56.91400 39.66300
C  35.12300 57.16400 39.70600
C  35.31700 58.53300 40.12400
C  33.91700 59.04500 40.16900
C  36.12000 55.92600 39.41900
C  36.56900 59.13700 40.60700
O  37.55000 58.42500 40.76100
C  36.59800 60.50800 41.17200
N  31.18400 60.30500 40.14300
C  32.29300 60.97100 40.30100
C  31.99100 62.49000 40.56700
C  30.46800 62.55200 40.41000
C  30.07600 61.11400 40.05400
C  32.58900 62.84800 42.01100
C  29.89800 63.64200 39.47100
C  30.12800 63.44200 37.95800
N  28.93200 58.49200 39.25400
C  28.18000 59.68300 39.36700
C  26.88800 59.37600 38.90900
C  26.92000 58.02800 38.53000
C  28.23000 57.54500 38.71200
C  25.81500 60.44900 38.73400
C  26.12900 56.94600 37.94900
O  24.93800 56.89400 37.60300
C  27.12600 55.66000 37.92400
C  26.55800 54.70100 38.96300
O  26.97700 54.51400 40.09700
O  25.35700 54.17900 38.50600
C  24.69800 53.40300 39.45500
H  33.84200 54.85400 39.16100
H  34.37800 61.10100 40.55400
H  28.01400 61.71000 39.92900
H  29.30600 53.50200 38.45200
H  32.07700 53.69600 37.53400
H  30.69400 52.33500 39.71500
H  32.16200 52.99100 40.37700
H  32.11100 51.99600 38.92300
H  28.71500 53.26300 36.33500
H  30.56600 53.08300 36.15200
H  30.68800 54.89400 34.80900
H  29.42500 55.82600 35.81200
H  35.85100 55.34600 38.53600
H  35.95100 55.21800 40.23000
H  37.13700 56.31400 39.36200
H  35.72100 60.54200 41.81800
H  36.61600 61.21300 40.34000
H  37.49800 60.65700 41.76800
H  32.42400 63.11300 39.78500
H  29.97800 62.64900 41.37900
H  33.15600 63.77300 41.90200
H  33.18600 62.00300 42.35400
H  31.75100 63.01200 42.68900
H  30.40000 64.54200 39.82700
H  28.82400 63.72200 39.63800
H  29.25200 63.07200 37.42500
H  30.89800 62.70500 37.72700
H  30.45200 64.38400 37.51600
H  25.65400 60.88600 39.72000
H  24.84200 60.02700 38.48200
H  26.09100 61.23700 38.03400
H  26.90600 55.25000 36.93800
H  24.63900 53.98900 40.37200
H  25.26100 52.49500 39.67000
H  23.69700 53.09500 39.15000

