158

Mg 50.54500 44.94200 42.59700
C  47.43300 46.44600 41.79300
C  49.54500 41.99400 41.04900
C  53.66900 43.89800 42.89900
C  51.58100 48.21900 43.78600
N  48.73400 44.35500 41.56400
C  47.54300 45.07400 41.36400
C  46.50700 44.17500 40.76000
C  47.19000 42.76600 40.80000
C  48.62300 43.05900 41.07100
C  46.52400 41.87400 41.96400
C  46.14200 44.66300 39.30900
C  44.57100 44.59000 39.01300
H  44.03000 43.53100 37.99800
N  51.47800 43.13600 42.12800
C  50.88100 42.01800 41.55600
C  51.87800 41.00900 41.53100
C  53.05000 41.52500 42.15000
C  52.80500 42.91800 42.40000
C  51.62400 39.61200 40.85300
C  54.32600 40.72300 42.50200
O  54.27300 39.53900 42.22000
C  55.65600 41.27200 42.89200
N  52.36500 45.97000 43.23300
C  53.53200 45.23100 43.30000
C  54.65600 46.18100 43.76700
C  53.96300 47.55200 44.02700
C  52.56000 47.24000 43.71800
C  55.54400 45.59200 44.91900
C  54.53100 48.71800 43.12500
C  56.01600 49.09700 43.33300
N  49.66400 46.90500 42.93500
C  50.24200 48.06400 43.35500
C  49.19700 49.06900 43.31000
C  48.11600 48.47700 42.71500
C  48.43500 47.15300 42.43500
C  49.28400 50.46900 43.77600
C  46.82500 48.73300 42.10600
O  46.15500 49.73900 42.19200
C  46.33900 47.39700 41.48200
C  45.08700 47.01300 42.14100
O  45.03400 46.70100 43.32500
O  44.03500 47.17100 41.25000
C  42.66800 47.14300 41.86300
H  49.13900 41.07000 40.63400
H  54.66800 43.56800 43.19200
H  51.86700 49.23800 44.05300
H  45.61500 44.14700 41.38700
H  47.14500 42.21100 39.86300
H  45.47300 41.79800 41.68400
H  46.67800 42.36800 42.92300
H  47.03400 40.91100 41.96800
H  46.67600 44.06500 38.57100
H  46.51000 45.68900 39.29000
H  44.30000 45.53600 38.54400
H  43.97900 44.68300 39.92400
H  52.48100 38.99800 40.57700
H  51.15300 39.71200 39.87600
H  51.05000 38.92600 41.47600
H  55.68900 41.73100 43.88000
H  55.86600 42.03300 42.14000
H  56.27600 40.39000 42.73200
H  55.22400 46.33300 42.84900
H  54.11600 47.69900 45.09600
H  55.86300 46.30600 45.67700
H  56.49400 45.31900 44.46100
H  55.22600 44.69200 45.44500
H  54.06100 49.67000 43.36900
H  54.39300 48.48000 42.07000
H  56.36600 49.73200 42.52000
H  56.67900 48.26000 43.55000
H  56.00100 49.70400 44.23900
H  50.27500 50.72200 44.15300
H  48.42200 50.62500 44.42500
H  49.11800 51.01800 42.84900
H  46.17600 47.50000 40.41000
H  42.38400 46.12900 42.14400
H  41.94900 47.52100 41.13600
H  42.51300 47.82400 42.70100
Mg -1.91200 35.38900 26.33600
C  -3.85600 33.99700 28.94300
C  -0.97900 37.88200 28.56200
C  0.10100 36.63800 23.95600
C  -3.25300 33.12700 24.10200
N  -2.30300 35.72100 28.62700
C  -3.19600 35.08500 29.48200
C  -3.24200 35.76600 30.90700
C  -2.49500 37.06300 30.55900
C  -1.86700 36.90900 29.15900
C  -3.59600 38.20300 30.62400
C  -2.55600 34.83000 31.98000
C  -3.34600 34.60100 33.32200
H  -2.53500 34.25300 34.52300
N  -0.58500 36.99900 26.28300
C  -0.39200 37.95900 27.29200
C  0.59200 38.85200 26.90000
C  0.92100 38.53400 25.54200
C  0.17500 37.31600 25.16400
C  0.97100 40.05100 27.82200
C  1.83300 39.19000 24.53100
O  1.95100 39.02200 23.35200
C  2.60000 40.28700 25.03300
N  -1.80700 35.12500 24.26600
C  -0.80700 35.65900 23.50700
C  -0.87400 35.21600 22.09100
C  -1.66000 33.86600 22.28800
C  -2.35300 34.01800 23.63600
C  -1.62100 36.19200 21.12700
C  -0.70300 32.62900 22.30800
C  -1.33700 31.43900 21.57800
N  -3.22400 33.78200 26.45200
C  -3.76900 33.00400 25.44800
C  -4.54200 31.98400 26.08100
C  -4.72000 32.36000 27.46000
C  -3.83700 33.47900 27.63700
C  -5.35900 30.92900 25.31500
C  -5.29900 31.91300 28.70400
O  -6.06900 30.98600 29.04300
C  -4.78500 33.05000 29.71100
C  -5.86100 33.80100 30.48900
O  -6.40100 34.87200 30.18600
O  -5.93500 33.21900 31.77600
C  -6.99800 33.65700 32.71100
H  -0.56000 38.58900 29.28200
H  0.65000 36.95200 23.06600
H  -3.58600 32.28600 23.49100
H  -4.26100 35.96000 31.24400
H  -1.77700 37.22800 31.36200
H  -4.63600 37.92300 30.79400
H  -3.51400 38.83800 29.74200
H  -3.20400 38.89700 31.36800
H  -1.54900 35.17000 32.21900
H  -2.44100 33.81900 31.58900
H  -4.02300 33.76000 33.17000
H  -3.73400 35.60700 33.48200
H  0.92100 40.99000 27.27100
H  2.02100 39.93100 28.08800
H  0.30900 40.27000 28.66100
H  2.82300 40.09000 26.08100
H  1.92000 41.13200 24.91800
H  3.53600 40.39500 24.48500
H  0.16100 35.07000 21.78200
H  -2.42100 33.74500 21.51800
H  -1.43300 35.78500 20.13400
H  -1.16200 37.17100 21.26600
H  -2.68600 36.17100 21.35800
H  -0.72700 32.34900 23.36100
H  0.32000 32.74200 21.94600
H  -0.63200 30.89100 20.95300
H  -2.23000 31.63000 20.98400
H  -1.63000 30.69900 22.32200
H  -4.76000 30.30900 24.64700
H  -6.10100 31.41400 24.68100
H  -5.84500 30.25400 26.01900
H  -4.21800 32.61500 30.53400
H  -7.32200 32.78800 33.28300
H  -7.91400 34.04100 32.26300
H  -6.57300 34.47100 33.29800

