158

Mg 25.52400 1.66000 29.51400
C  27.34700 1.58000 32.44800
C  22.54500 1.88300 31.26200
C  24.01600 1.68500 26.52600
C  28.58900 1.46600 27.75900
N  25.04600 1.63800 31.66600
C  25.98200 1.82800 32.65700
C  25.23100 2.02300 34.00500
C  23.69400 2.07400 33.59700
C  23.73000 1.81200 32.07900
C  22.80300 1.07900 34.43900
C  25.70300 3.30700 34.82300
C  26.29800 3.20500 36.21500
H  25.98700 4.31900 37.25700
N  23.57300 1.64500 28.98600
C  22.51100 1.78500 29.82500
C  21.33500 1.76900 29.01600
C  21.70400 1.56300 27.67100
C  23.15300 1.65600 27.69900
C  19.85500 1.74800 29.65900
C  20.85800 1.29500 26.39100
O  21.34200 1.01900 25.28700
C  19.36700 1.22800 26.49100
N  26.26900 1.62100 27.33800
C  25.41000 1.76800 26.30500
C  26.07600 1.96500 24.93600
C  27.57200 1.93100 25.38100
C  27.52600 1.64000 26.90400
C  25.65200 0.94900 23.82600
C  28.29900 3.15200 25.03600
C  28.07000 4.47000 25.81300
N  27.53200 1.28300 29.87800
C  28.71200 1.32800 29.14100
C  29.89400 1.14900 29.99100
C  29.38300 1.23400 31.26100
C  27.99700 1.35500 31.16100
C  31.40700 0.92700 29.58500
C  29.76700 1.43500 32.61500
O  30.89400 1.38600 33.12100
C  28.45700 1.66500 33.47900
C  28.36200 0.60200 34.41300
O  27.85800 -0.48200 34.13700
O  29.01800 0.91100 35.54200
C  28.90300 -0.05100 36.63400
H  21.62900 2.20500 31.76200
H  23.48900 1.77500 25.57400
H  29.55900 1.67200 27.30200
H  25.41100 1.10900 34.57200
H  23.26100 3.06500 33.73400
H  23.43100 0.44100 35.06100
H  22.14900 0.48200 33.80400
H  22.19100 1.56600 35.19800
H  24.88600 4.02700 34.86700
H  26.44400 3.71100 34.13300
H  27.38600 3.18300 36.16000
H  26.06800 2.24700 36.68100
H  19.10800 2.25900 29.05200
H  19.88500 1.98500 30.72300
H  19.56400 0.73400 29.38600
H  18.98400 0.80600 25.56100
H  18.94800 2.22400 26.63800
H  19.14900 0.55000 27.31500
H  25.76900 2.94000 24.55800
H  28.05900 1.08900 24.88900
H  26.39800 0.16200 23.71900
H  25.39500 1.45200 22.89400
H  24.74900 0.42700 24.14300
H  27.92400 3.31000 24.02500
H  29.35900 2.92600 25.14900
H  27.60500 4.30400 26.78500
H  27.44000 5.19000 25.29100
H  29.03600 4.96800 25.89700
H  31.84600 1.70500 28.96000
H  31.53100 -0.10300 29.24900
H  31.89000 0.95300 30.56200
H  28.43000 2.64400 33.95700
H  27.85600 -0.21400 36.88900
H  29.27300 0.34300 37.58000
H  29.43200 -0.98500 36.44100
Mg 8.96800 47.91800 25.65300
C  6.82300 48.16500 28.47300
C  11.42800 49.59300 27.38000
C  10.68300 48.32700 22.83500
C  6.16800 46.98700 23.83400
N  8.98900 49.07900 27.63900
C  8.08200 48.80600 28.68300
C  8.64300 49.45100 29.99900
C  10.11300 49.97300 29.55900
C  10.22600 49.50800 28.08600
C  10.30300 51.53000 29.61800
C  8.70200 48.43900 31.20700
C  7.82000 48.80600 32.40400
H  8.06500 47.87100 33.65900
N  10.90200 48.55300 25.27500
C  11.78600 49.07600 26.10800
C  13.14400 49.04100 25.49000
C  12.97700 48.68800 24.12600
C  11.46700 48.50400 24.00900
C  14.38200 49.44000 26.24900
C  13.95700 48.51500 22.97800
O  13.62700 48.11600 21.88700
C  15.36800 48.83500 23.14400
N  8.45100 47.85600 23.67700
C  9.33200 48.01800 22.66700
C  8.72200 47.67000 21.28600
C  7.52400 46.72600 21.72800
C  7.32100 47.25300 23.19600
C  8.26100 48.95200 20.50700
C  7.75600 45.20300 21.66300
C  8.68700 44.45200 22.61100
N  6.95900 47.54200 26.08400
C  5.88600 47.21000 25.21300
C  4.58500 47.00400 25.94800
C  5.00000 47.34800 27.25200
C  6.39300 47.67100 27.23000
C  3.22500 46.68800 25.43200
C  4.51600 47.58900 28.62900
O  3.40800 47.57600 29.02400
C  5.76400 47.88200 29.50100
C  5.82300 46.58000 30.33400
O  6.60100 45.63900 30.10800
O  5.04700 46.53900 31.47100
C  5.40100 45.46900 32.39500
H  12.19700 50.13900 27.93000
H  11.26400 48.42400 21.91600
H  5.34300 46.59600 23.23400
H  8.10300 50.35100 30.29300
H  10.97800 49.44700 29.96200
H  11.36100 51.61700 29.86300
H  9.62300 51.99700 30.33100
H  10.14400 51.97400 28.63500
H  9.71200 48.27300 31.58300
H  8.28400 47.48000 30.90000
H  6.75300 48.69300 32.20900
H  8.03800 49.82900 32.70900
H  14.84800 50.24300 25.67900
H  15.07400 48.60300 26.15100
H  14.31600 49.91000 27.23000
H  15.51500 49.74300 23.72900
H  15.86000 48.87000 22.17200
H  15.86500 48.04200 23.70400
H  9.48000 47.14700 20.70300
H  6.61600 47.02000 21.20200
H  8.71200 49.81400 20.99800
H  7.20200 48.92100 20.25000
H  8.77500 48.90800 19.54700
H  8.19800 45.20600 20.66700
H  6.80000 44.68000 21.68000
H  9.02900 45.13600 23.38700
H  9.54200 44.15100 22.00600
H  8.20400 43.54300 22.97000
H  2.79500 45.84500 25.97300
H  3.13500 46.58100 24.35100
H  2.72600 47.63000 25.65800
H  5.54300 48.62400 30.26700
H  4.68600 44.64700 32.42900
H  5.37900 46.00700 33.34300
H  6.44000 45.16700 32.26400

