158

Mg 40.96200 8.98600 30.05500
C  42.65200 10.33300 32.66100
C  38.63600 7.62900 32.28400
C  39.42900 7.34700 27.47600
C  43.67000 9.60100 27.92100
N  40.74800 8.98600 32.22300
C  41.48400 9.73700 33.10000
C  41.00600 9.61700 34.53400
C  39.68800 8.78100 34.40300
C  39.67000 8.38500 32.87500
C  39.55600 7.54600 35.31100
C  40.80500 10.97700 35.14600
C  40.32800 10.98400 36.62200
H  40.98000 11.89800 37.57700
N  39.17800 7.75100 29.91200
C  38.38000 7.34200 30.96400
C  37.19700 6.67100 30.35400
C  37.36600 6.67700 28.97900
C  38.72000 7.29000 28.70300
C  35.95600 6.31300 31.14800
C  36.38400 6.31300 27.84300
O  36.62300 6.49300 26.63300
C  35.01000 5.82100 28.19400
N  41.41000 8.53500 27.98000
C  40.63400 7.86600 27.13700
C  41.17700 7.77800 25.74800
C  42.42000 8.75000 25.83700
C  42.50800 8.99800 27.37800
C  41.55300 6.25600 25.43800
C  42.22900 10.08800 25.09000
C  43.33200 10.73900 24.25900
N  42.79000 9.85900 30.17300
C  43.79400 10.06800 29.24400
C  44.95200 10.73500 29.87200
C  44.53300 10.86500 31.24400
C  43.20200 10.26600 31.37000
C  46.16600 11.32200 29.27700
C  44.97000 11.29800 32.51700
O  46.00300 11.84400 32.80000
C  43.77000 11.07000 33.44700
C  44.27300 10.18900 34.55200
O  44.62700 8.98500 34.45900
O  44.14100 10.81500 35.76200
C  44.39800 9.95800 36.94200
H  37.91700 7.33600 33.05300
H  38.98400 6.79700 26.64500
H  44.43000 9.78700 27.16000
H  41.76500 9.05000 35.07200
H  38.75700 9.33600 34.51600
H  40.47500 7.27800 35.83300
H  39.25800 6.65300 34.76100
H  38.74000 7.81800 35.98000
H  39.97400 11.34600 34.54500
H  41.68100 11.62200 35.07500
H  40.37800 9.97300 37.02400
H  39.26400 11.22100 36.63700
H  35.74400 5.26400 30.93900
H  35.07700 6.94200 31.00800
H  36.23100 6.40300 32.19900
H  34.43700 6.65800 28.59100
H  35.01400 5.05600 28.97100
H  34.55800 5.44500 27.27600
H  40.44800 7.97400 24.96100
H  43.33700 8.24000 25.54300
H  41.22700 5.52300 26.17600
H  42.61500 6.11900 25.23500
H  41.11900 5.96600 24.48100
H  41.83300 10.81500 25.79900
H  41.42500 10.05200 24.35500
H  43.38000 11.81200 24.44200
H  43.13000 10.65900 23.19100
H  44.31000 10.26600 24.35000
H  46.42200 10.79300 28.35900
H  47.03700 11.26400 29.93000
H  46.04200 12.35200 28.94300
H  43.39700 11.99400 33.88900
H  45.43200 9.96900 37.28800
H  43.96500 8.95800 36.91500
H  43.93100 10.49700 37.76700
Mg 47.25900 35.72200 27.84100
C  45.37900 33.86500 30.37100
C  47.30300 38.29500 29.96900
C  48.48600 37.46100 25.43700
C  46.73700 32.89600 25.70500
N  46.53500 35.91900 29.97700
C  45.88200 35.02800 30.86700
C  45.95600 35.57700 32.31100
C  46.22700 37.10300 31.98900
C  46.81100 37.08900 30.53700
C  44.85600 37.85400 32.23700
C  47.05000 34.84200 33.13300
C  46.97600 34.77300 34.67100
H  46.00600 35.67100 35.41400
N  47.84100 37.66400 27.66500
C  47.81000 38.53700 28.64700
C  48.38600 39.79700 28.27800
C  48.90200 39.52300 26.94700
C  48.39000 38.15600 26.62200
C  48.51500 40.98900 29.21500
C  49.60700 40.33500 25.96900
O  49.90800 39.95600 24.87400
C  49.86600 41.76200 26.22300
N  47.53500 35.15900 25.83000
C  48.03500 36.12800 25.06800
C  48.41200 35.50200 23.70600
C  48.26700 33.98500 23.92900
C  47.36600 34.00300 25.15600
C  47.48300 35.99900 22.53700
C  49.60400 33.22500 24.27400
C  49.90500 31.86800 23.50300
N  46.20200 33.77600 27.91800
C  46.07200 32.77300 26.93600
C  45.43200 31.70200 27.50000
C  45.08700 32.07600 28.81900
C  45.59400 33.37300 29.05900
C  45.09300 30.34900 26.89700
C  44.48300 31.61900 30.04900
O  43.99700 30.56900 30.37000
C  44.46200 32.87700 31.04400
C  44.82300 32.30200 32.41900
O  45.77700 31.52500 32.66900
O  43.83700 32.66500 33.31900
C  43.87000 32.05700 34.63600
H  47.29800 39.16100 30.63400
H  48.87900 37.93100 24.53300
H  47.06100 32.02100 25.13700
H  45.02700 35.38100 32.84500
H  46.98800 37.45500 32.68600
H  44.91000 38.47400 33.13200
H  44.04300 37.12900 32.26000
H  44.72400 38.51800 31.38300
H  48.02900 35.24100 32.86700
H  47.09200 33.82300 32.74800
H  47.97000 34.84700 35.11100
H  46.68700 33.74100 34.87000
H  49.11700 41.82000 28.84800
H  48.88100 40.72100 30.20600
H  47.55400 41.48000 29.37100
H  49.76100 42.41600 25.35700
H  50.85500 41.93600 26.64700
H  49.12600 42.24000 26.86500
H  49.44600 35.57500 23.37000
H  47.89700 33.45100 23.05400
H  46.97200 36.92000 22.81600
H  46.74600 35.23500 22.28700
H  48.11900 36.12700 21.66000
H  49.74400 33.07200 25.34400
H  50.50000 33.82800 24.12500
H  50.05200 31.10600 24.26900
H  50.72200 31.96100 22.78800
H  49.04100 31.57000 22.90900
H  44.66700 30.23500 25.90000
H  44.40200 29.81300 27.54800
H  46.04700 29.82400 26.93100
H  43.46400 33.31500 31.00700
H  44.54500 31.20700 34.73500
H  42.91200 31.60000 34.88200
H  44.17000 32.79800 35.37700

