158

Mg 26.95800 49.99100 27.11100
C  25.04100 51.22400 29.69600
C  29.42500 49.41900 29.44800
C  29.06700 49.35500 24.58000
C  24.71200 51.26800 24.79100
N  27.14000 50.24700 29.38700
C  26.10100 50.60800 30.24600
C  26.46500 50.26900 31.67500
C  27.97400 49.90200 31.48900
C  28.21200 49.84300 30.02900
C  28.94800 51.01600 32.10900
C  25.56400 49.17200 32.42600
C  24.91100 49.47000 33.79300
H  25.70500 50.12000 34.80500
N  28.92900 49.36100 27.04700
C  29.76300 49.11200 28.11100
C  30.99500 48.53000 27.63600
C  30.96200 48.66700 26.26700
C  29.64700 49.18200 25.90800
C  32.06100 47.97500 28.47800
C  31.95700 48.29400 25.21200
O  31.91800 48.67500 24.08600
C  33.13700 47.36500 25.52900
N  26.89300 50.37100 24.99100
C  27.81300 49.79100 24.21700
C  27.37700 49.73400 22.67700
C  25.88400 50.19600 22.85600
C  25.77700 50.58400 24.28500
C  28.17800 50.68100 21.79500
C  24.89500 49.12800 22.33900
C  24.31200 48.14300 23.35300
N  25.32100 51.13500 27.15000
C  24.48300 51.58600 26.16800
C  23.34400 52.18500 26.72000
C  23.49300 52.07800 28.07600
C  24.76100 51.52600 28.30000
C  22.20600 52.80800 25.91000
C  22.99800 52.41400 29.36300
O  21.97900 53.02900 29.67600
C  23.96200 51.81100 30.51600
C  24.46300 52.90400 31.43900
O  25.32300 53.72400 31.13000
O  23.78800 52.88100 32.64500
C  24.22900 53.84700 33.64200
H  30.09600 48.94300 30.16500
H  29.68100 49.03400 23.73600
H  23.94300 51.56200 24.07300
H  26.45800 51.24000 32.17100
H  28.13100 48.97900 32.04800
H  28.32800 51.78800 32.56500
H  29.60700 51.46000 31.36300
H  29.62200 50.50500 32.79700
H  26.10100 48.26300 32.69500
H  24.80000 48.82900 31.72800
H  24.35500 48.58400 34.09800
H  24.13000 50.17400 33.50500
H  32.31800 47.03500 27.98900
H  31.85400 47.82800 29.53800
H  32.93300 48.61600 28.34400
H  32.89900 46.38200 25.93600
H  33.80900 47.69100 26.32200
H  33.80200 47.20800 24.67900
H  27.52100 48.69300 22.38700
H  25.65800 51.08700 22.27000
H  29.10300 50.88900 22.33300
H  27.74200 51.65800 21.58600
H  28.27700 50.22000 20.81200
H  25.23700 48.52000 21.50200
H  24.03900 49.71100 21.99900
H  24.79600 48.31300 24.31400
H  24.45600 47.14700 22.93600
H  23.27600 48.41400 23.55700
H  21.93500 52.17600 25.06400
H  22.53900 53.81100 25.64400
H  21.37200 52.95500 26.59600
H  23.39700 51.09800 31.11700
H  23.81500 53.54800 34.60400
H  23.76900 54.80200 33.38600
H  25.31600 53.82300 33.72200
Mg 17.26400 52.13900 26.86400
C  19.08600 50.57400 29.42500
C  14.90200 52.97900 29.13000
C  15.58200 53.49900 24.33200
C  19.50800 50.77300 24.55900
N  16.97200 51.79100 29.05900
C  17.99800 51.27700 29.91200
C  17.46900 51.24400 31.38800
C  15.93400 51.66200 31.18300
C  15.92100 52.17100 29.70300
C  14.98200 50.43600 31.40400
C  18.26600 52.24900 32.32300
C  17.63700 52.72300 33.67700
H  16.63400 51.88800 34.44300
N  15.51000 53.21200 26.73100
C  14.64800 53.44100 27.80100
C  13.55800 54.32900 27.34500
C  13.84900 54.60200 25.94600
C  14.97000 53.70400 25.57600
C  12.35000 54.77900 28.22100
C  13.10600 55.57000 24.94800
O  13.58200 55.93200 23.88400
C  11.96300 56.28400 25.41400
N  17.41300 51.93700 24.72100
C  16.59200 52.66700 23.91500
C  17.05400 52.67600 22.48500
C  18.47700 51.94800 22.61900
C  18.49200 51.55100 24.03300
C  16.06400 51.90900 21.52300
C  19.68500 52.90800 22.21200
C  20.92100 52.34000 21.43900
N  18.89300 50.82700 26.94600
C  19.72700 50.44300 25.93500
C  20.83500 49.71500 26.49500
C  20.67300 49.70800 27.91200
C  19.46200 50.41500 28.09700
C  21.84000 49.09600 25.77200
C  21.16400 49.34000 29.11900
O  22.20100 48.77100 29.47400
C  20.18100 49.94600 30.21700
C  19.74400 48.83200 31.06600
O  19.43600 47.71400 30.61800
O  19.84000 49.24900 32.38400
C  19.10800 48.31300 33.24700
H  14.08200 53.12300 29.83500
H  15.02600 54.09500 23.60500
H  20.26800 50.44000 23.84800
H  17.43100 50.22100 31.76200
H  15.57400 52.44500 31.85100
H  14.11900 50.83700 31.93500
H  15.31100 49.72800 32.16500
H  14.72700 49.86900 30.50800
H  18.39200 53.06100 31.60700
H  19.26000 51.83500 32.49300
H  17.29500 53.75100 33.56100
H  18.49200 52.91600 34.32300
H  11.48700 54.12300 28.10800
H  12.20300 55.83600 28.00000
H  12.63700 54.83300 29.27100
H  11.53500 56.58300 24.45700
H  12.26300 57.12800 26.03500
H  11.25700 55.65600 25.95700
H  17.14800 53.75500 22.36200
H  18.56700 50.94400 22.20500
H  16.59900 51.07600 21.06700
H  15.75400 52.58300 20.72500
H  15.17600 51.59900 22.07400
H  19.97700 53.24400 23.20700
H  19.42800 53.81100 21.65900
H  21.82200 52.42900 22.04500
H  21.17600 52.94000 20.56500
H  20.64100 51.31900 21.17900
H  21.45500 48.18900 25.30500
H  22.70100 49.11100 26.43900
H  22.11900 49.75700 24.95200
H  20.62900 50.71600 30.84600
H  18.92800 48.78700 34.21200
H  19.59400 47.35500 33.43500
H  18.10200 48.16400 32.85500

