158

Mg 35.95300 50.09000 26.23400
C  35.57400 48.07100 29.13100
C  35.04300 52.81500 28.18200
C  36.40600 51.98400 23.59100
C  36.71400 47.13400 24.46500
N  35.46700 50.38800 28.30900
C  35.42300 49.44800 29.30200
C  35.42600 50.14900 30.69400
C  34.69400 51.51900 30.35300
C  35.08100 51.59300 28.84900
C  33.19000 51.56500 30.59000
C  36.79400 50.28600 31.34800
C  36.76100 50.09400 32.86400
H  35.48700 50.15900 33.66600
N  35.77500 52.10900 25.90500
C  35.40700 53.07300 26.83700
C  35.42600 54.33300 26.28800
C  35.94200 54.21800 24.91200
C  36.10400 52.74900 24.71200
C  34.95100 55.48700 27.05200
C  36.28200 55.28400 23.83700
O  36.63400 54.93800 22.73200
C  36.05400 56.73300 24.18000
N  36.27900 49.58900 24.29900
C  36.53900 50.57600 23.39100
C  36.84600 49.97900 22.03200
C  37.34000 48.56500 22.43500
C  36.64500 48.33500 23.77600
C  35.57200 50.07600 21.13000
C  38.85300 48.35100 22.52600
C  39.44500 47.26600 21.67700
N  36.13400 47.97300 26.68700
C  36.41800 46.91300 25.87000
C  36.42400 45.71800 26.64100
C  36.18300 46.10700 27.89400
C  35.94500 47.46600 27.90100
C  36.72400 44.34500 26.17400
C  36.01700 45.68000 29.26500
O  36.10500 44.57400 29.72400
C  35.63400 46.95200 30.16000
C  34.37100 46.75900 30.92700
O  33.22200 47.03500 30.57800
O  34.60000 46.13300 32.16100
C  33.41200 45.76700 32.87600
H  34.58200 53.53300 28.86300
H  36.77100 52.63400 22.79400
H  36.96700 46.22800 23.90900
H  34.77700 49.49700 31.27900
H  35.06500 52.32300 30.98800
H  32.88100 50.66000 31.11200
H  32.73200 51.64000 29.60400
H  32.82000 52.36900 31.22600
H  37.34500 51.17900 31.05500
H  37.42500 49.51500 30.90500
H  37.46200 50.72500 33.40900
H  37.14700 49.07700 32.92500
H  35.74800 55.90800 27.66400
H  34.10400 55.22500 27.68700
H  34.59400 56.27400 26.38800
H  36.47000 57.29000 23.34100
H  36.69800 57.00500 25.01700
H  35.01000 57.03700 24.25900
H  37.74000 50.44500 21.61600
H  36.94500 47.87100 21.69200
H  35.23900 51.10100 20.96700
H  34.64500 49.56300 21.38700
H  35.87700 49.72700 20.14400
H  39.13200 48.32400 23.57900
H  39.34700 49.23800 22.13100
H  40.02700 46.71400 22.41500
H  39.96600 47.62200 20.78800
H  38.67600 46.56500 21.35200
H  37.13200 44.43500 25.16700
H  35.85400 43.69400 26.08700
H  37.46800 44.02600 26.90400
H  36.48600 47.17200 30.80300
H  33.62500 45.12300 33.72900
H  32.59000 45.35600 32.28800
H  32.99800 46.62700 33.40200
Mg 0.59200 42.72600 26.10100
C  2.87000 42.69500 28.77100
C  -1.80400 41.61700 28.26200
C  -1.31500 42.04100 23.52100
C  3.42800 43.02200 23.90800
N  0.60000 42.08600 28.27900
C  1.56500 42.32200 29.16400
C  0.98800 42.29700 30.59500
C  -0.52900 41.90700 30.43700
C  -0.54800 41.82400 28.87700
C  -0.88000 40.50300 31.17000
C  1.15600 43.69500 31.41600
C  1.58900 43.64000 32.89800
H  1.29600 42.34300 33.66100
N  -1.39100 42.04900 25.96600
C  -2.22900 41.70300 26.93400
C  -3.43200 41.19500 26.40800
C  -3.29200 41.28700 24.98400
C  -1.97900 41.78100 24.74700
C  -4.64400 40.72300 27.17900
C  -4.34100 40.92100 23.86500
O  -3.97900 41.15200 22.68000
C  -5.73900 40.32900 24.24000
N  0.99100 42.79800 23.97700
C  0.02100 42.38400 23.18800
C  0.45900 42.36400 21.69600
C  1.90900 42.83200 21.73200
C  2.16300 42.85700 23.25200
C  0.29700 40.89500 21.08500
C  2.20200 44.07900 20.90300
C  2.15600 45.37900 21.63200
N  2.69600 42.95400 26.28100
C  3.70600 43.09900 25.29600
C  4.95100 43.32300 25.92600
C  4.71100 43.17800 27.38100
C  3.33900 42.95000 27.44900
C  6.22800 43.72000 25.30300
C  5.27100 43.15800 28.67800
O  6.40900 43.37300 29.10800
C  4.16200 42.84500 29.64800
C  4.61500 41.61900 30.34500
O  4.38500 40.49500 29.90000
O  5.19100 41.88400 31.55900
C  5.48600 40.83500 32.49000
H  -2.66600 41.45300 28.91100
H  -1.87900 41.81400 22.61400
H  4.23100 43.29500 23.22000
H  1.49800 41.44300 31.04200
H  -1.29900 42.63500 30.69200
H  -1.91500 40.66100 31.47200
H  -0.25500 40.34600 32.05000
H  -0.84000 39.71200 30.42100
H  0.18900 44.18200 31.29200
H  1.75300 44.42200 30.86400
H  0.85700 44.37000 33.24400
H  2.57100 44.02800 33.16800
H  -5.48300 41.41500 27.10700
H  -4.52300 40.64100 28.25900
H  -4.94000 39.77000 26.73800
H  -6.11200 40.79200 25.15400
H  -5.70700 39.29500 24.58200
H  -6.40700 40.54100 23.40600
H  -0.22700 43.04000 21.18600
H  2.58100 42.09200 21.29700
H  1.20700 40.29700 21.13800
H  0.15000 41.14800 20.03500
H  -0.50600 40.33600 21.56600
H  1.70500 44.04100 19.93400
H  3.27000 44.01900 20.69300
H  3.08100 45.69800 22.11400
H  1.29300 45.39500 22.29700
H  1.87600 46.13400 20.89700
H  7.06700 43.05900 25.52000
H  6.43100 44.66100 25.81500
H  6.10800 43.91200 24.23700
H  4.11200 43.60600 30.42600
H  6.56900 40.73300 32.56000
H  5.01600 39.91000 32.15400
H  5.08200 41.18900 33.43900

