158

Mg 48.56300 25.13100 27.97100
C  49.43100 27.26300 30.70800
C  47.55600 22.83100 30.50700
C  48.01500 22.84100 25.54300
C  50.10500 27.19000 25.80300
N  48.39900 25.15300 30.36500
C  48.85800 26.12200 31.22300
C  48.62800 25.72300 32.68000
C  48.00500 24.24600 32.56900
C  47.97600 24.05600 31.04000
C  48.73900 23.16100 33.44400
C  47.70100 26.79100 33.41700
C  47.15700 26.36400 34.82300
H  47.58500 27.15800 36.06900
N  47.77800 23.20300 27.97900
C  47.37700 22.40700 29.10500
C  46.83000 21.12200 28.60200
C  46.83600 21.15700 27.14400
C  47.59100 22.40900 26.81200
C  46.42000 19.95000 29.45900
C  46.42800 20.14800 26.08200
O  46.58600 20.10900 24.85000
C  45.61600 18.95900 26.70500
N  49.03500 24.94700 25.92000
C  48.76500 23.94000 25.09400
C  48.95000 24.36700 23.56000
C  49.32000 25.86900 23.72100
C  49.58600 26.02500 25.23300
C  50.20500 23.58100 22.99800
C  48.18200 26.80500 23.30400
C  48.48100 27.56600 22.01500
N  49.58700 26.78400 28.11900
C  50.08800 27.65800 27.16100
C  50.65200 28.76900 27.76800
C  50.57600 28.63300 29.10900
C  49.77500 27.46700 29.34000
C  51.33200 29.88900 27.02000
C  50.89300 29.27500 30.39800
O  51.57000 30.25800 30.61500
C  50.16800 28.40800 31.51100
C  51.24900 27.78900 32.25300
O  51.84200 26.76700 31.95800
O  51.50800 28.58000 33.32000
C  52.70300 28.36600 34.10600
H  47.14300 22.08900 31.19300
H  47.80400 22.18600 24.69600
H  50.32100 28.04700 25.16100
H  49.56800 25.61200 33.22000
H  46.95200 24.14100 32.83100
H  49.08400 22.29300 32.88300
H  47.99000 22.89700 34.19100
H  49.66900 23.53600 33.87100
H  46.84700 26.97300 32.76400
H  48.38000 27.63900 33.50800
H  47.32800 25.32200 35.09200
H  46.07100 26.35200 34.72900
H  46.72700 18.99500 29.03300
H  45.38600 20.10100 29.77100
H  46.91100 19.97600 30.43200
H  46.33200 18.21600 27.05700
H  44.96900 18.51200 25.95000
H  44.98100 19.36600 27.49100
H  47.97000 24.22900 23.10300
H  50.28300 26.11100 23.27100
H  50.37700 22.70000 23.61700
H  51.13500 24.14900 23.01500
H  49.92000 23.27200 21.99300
H  48.12400 27.55900 24.08800
H  47.19000 26.35500 23.26200
H  47.72000 27.45600 21.24300
H  49.40100 27.14300 21.60900
H  48.61900 28.59500 22.34600
H  50.62400 30.17100 26.24000
H  52.18000 29.53200 26.43600
H  51.60600 30.70300 27.69100
H  49.53200 29.04200 32.12900
H  53.60400 28.29600 33.49800
H  52.61000 27.44600 34.68400
H  52.82900 29.17700 34.82400
Mg -2.01000 34.09400 27.37100
C  -3.70200 32.28500 29.72900
C  -0.69800 36.00700 29.94900
C  -0.76200 36.20700 25.14200
C  -3.81800 32.44300 24.77100
N  -2.32500 34.20500 29.60400
C  -3.00800 33.29600 30.29600
C  -2.89600 33.52500 31.81900
C  -2.07300 34.92400 31.87800
C  -1.60400 35.05500 30.42900
C  -2.83200 36.16100 32.33300
C  -2.24300 32.28700 32.50800
C  -2.82100 32.05000 33.85300
H  -1.91100 31.94000 35.05600
N  -0.82700 35.77700 27.50600
C  -0.26600 36.34900 28.63300
C  0.81000 37.28200 28.23200
C  0.66200 37.49700 26.83200
C  -0.31500 36.48000 26.42800
C  1.72900 37.98100 29.19900
C  1.45100 38.41600 25.90700
O  1.09900 38.58900 24.70400
C  2.70800 38.88200 26.43700
N  -2.36400 34.48400 25.24200
C  -1.60100 35.30700 24.50900
C  -1.81200 35.14600 23.01600
C  -2.78100 33.90600 22.92300
C  -3.03300 33.57800 24.39700
C  -2.13900 36.44000 22.18500
C  -2.22400 32.66000 22.18700
C  -3.11800 32.09700 21.03600
N  -3.45300 32.65200 27.21400
C  -4.07900 32.01500 26.12100
C  -4.96100 30.99800 26.62300
C  -4.84900 31.06200 28.06400
C  -3.99200 32.13300 28.34000
C  -5.69200 30.00900 25.73600
C  -5.29100 30.43400 29.28300
O  -6.08700 29.52900 29.44000
C  -4.73900 31.28200 30.40100
C  -5.98700 31.89000 30.99200
O  -6.90900 32.51200 30.40900
O  -5.97300 31.55200 32.31800
C  -7.26200 31.57400 33.10400
H  -0.28800 36.55600 30.79900
H  -0.22000 36.78600 24.39100
H  -4.28500 31.86600 23.97000
H  -3.91000 33.79300 32.11500
H  -1.22600 34.79700 32.55300
H  -3.72500 35.95800 32.92500
H  -3.27300 36.82000 31.58500
H  -2.17400 36.61400 33.07500
H  -1.21400 32.63300 32.60800
H  -2.28600 31.40700 31.86600
H  -3.47500 31.17900 33.83300
H  -3.47400 32.87700 34.13400
H  1.40900 37.77400 30.22000
H  1.57000 39.05100 29.07200
H  2.75300 37.61300 29.12100
H  2.45200 39.60500 27.21100
H  3.44700 39.20900 25.70600
H  3.25200 38.11500 26.98800
H  -0.90100 34.76600 22.55400
H  -3.70600 34.21600 22.43700
H  -3.21800 36.40900 22.03000
H  -1.62600 36.40300 21.22400
H  -1.83700 37.36600 22.67300
H  -1.96500 31.88900 22.91300
H  -1.24100 32.88700 21.77300
H  -2.65900 32.15700 20.04900
H  -4.13500 32.48900 21.00300
H  -3.15300 31.04300 21.31200
H  -5.26500 29.02400 25.92100
H  -5.56800 30.30000 24.69300
H  -6.74100 30.02200 26.03200
H  -4.28700 30.57600 31.09700
H  -8.09600 32.00500 32.55000
H  -7.13100 32.16300 34.01100
H  -7.59200 30.54700 33.26100

