158

Mg 41.70000 40.97200 26.86000
C  41.03300 43.43100 29.36500
C  42.84400 39.01700 29.33600
C  42.66200 38.90400 24.39300
C  40.91600 43.45700 24.45400
N  41.95000 41.23500 29.13300
C  41.47100 42.25400 29.90700
C  41.43300 41.93200 31.44400
C  42.08000 40.47400 31.42300
C  42.38400 40.20800 29.88300
C  43.40400 40.22200 32.16300
C  40.00600 41.95000 32.08100
C  39.90300 42.80800 33.34800
H  38.95400 42.52600 34.50900
N  42.59800 39.17200 26.89400
C  43.00900 38.57400 27.99500
C  43.47400 37.24600 27.65300
C  43.43000 37.10300 26.23900
C  42.95400 38.42800 25.75900
C  43.78400 36.11200 28.70200
C  43.65700 35.94000 25.35000
O  43.44100 36.03100 24.12200
C  44.17700 34.63300 25.92200
N  41.81800 41.16900 24.82200
C  42.16500 40.13600 23.98400
C  41.97600 40.49000 22.50300
C  41.20000 41.81100 22.57300
C  41.33300 42.24300 24.05400
C  43.33000 40.75800 21.77600
C  39.73800 41.75000 22.08700
C  38.70700 41.04000 23.02200
N  41.05900 42.96900 26.73600
C  40.88700 43.88800 25.76200
C  40.49700 45.16500 26.30500
C  40.51400 44.98900 27.65800
C  40.91200 43.66400 27.93400
C  39.99900 46.29700 25.59100
C  40.27000 45.68200 28.95800
O  39.99800 46.81000 29.18000
C  40.59700 44.69900 30.03100
C  41.60000 45.27500 31.06600
O  42.78600 45.22100 31.09700
O  40.89800 45.80800 32.15500
C  41.81200 46.55600 33.05700
H  43.06500 38.27000 30.10200
H  42.87500 38.21000 23.57700
H  40.54500 44.06800 23.62800
H  42.13700 42.63300 31.89400
H  41.37600 39.73200 31.80100
H  44.20000 40.02200 31.44600
H  43.21900 39.46900 32.93000
H  43.77000 41.12700 32.64700
H  39.64200 40.94700 32.30700
H  39.29200 42.30800 31.34000
H  39.61700 43.84700 33.18200
H  40.92100 42.86100 33.73600
H  42.80500 35.68500 28.91900
H  44.08000 36.61100 29.62400
H  44.50100 35.33600 28.43200
H  45.24100 34.75400 26.12600
H  44.01700 33.99500 25.05200
H  43.57300 34.28100 26.75900
H  41.40500 39.70600 22.00500
H  41.59400 42.68700 22.05700
H  44.16300 40.63400 22.46800
H  43.41700 41.79800 21.46100
H  43.50200 40.00400 21.00800
H  39.64700 41.24000 21.12800
H  39.46900 42.80400 22.02500
H  39.04200 40.85000 24.04200
H  38.34600 40.06200 22.70400
H  37.81900 41.66300 22.91200
H  39.52200 45.91500 24.68900
H  40.74900 47.06400 25.40000
H  39.31000 46.73000 26.31600
H  39.71800 44.70200 30.67500
H  42.58100 47.09500 32.50400
H  42.39300 45.91800 33.72300
H  41.22900 47.30300 33.59700
Mg -10.91000 18.18300 40.91000
C  -7.37200 17.45800 40.82200
C  -10.07500 21.47600 40.29100
C  -14.02200 18.74400 40.27500
C  -11.49300 14.67400 40.63800
N  -8.94500 19.31800 40.40500
C  -7.61100 18.79700 40.52500
C  -6.53100 19.94100 40.22400
C  -7.44100 21.22100 40.54400
C  -8.91900 20.66700 40.43400
C  -6.97500 21.88700 41.89000
C  -6.19400 19.86900 38.65900
C  -4.79900 19.32500 38.20200
H  -4.77600 18.06500 37.20100
N  -11.97900 19.88500 40.42800
C  -11.45900 21.11200 40.17900
C  -12.49400 22.03000 39.90900
C  -13.67300 21.28600 39.81100
C  -13.28300 19.91800 40.11700
C  -12.26900 23.54000 39.80000
C  -15.06000 21.87100 39.47800
O  -15.26300 23.10600 39.38000
C  -16.25800 21.01300 39.17800
N  -12.47500 16.90700 40.26300
C  -13.72300 17.40400 40.36900
C  -14.74900 16.30900 40.37500
C  -14.00700 14.94800 40.17500
C  -12.56700 15.50300 40.36800
C  -15.63100 16.22400 41.60400
C  -14.29400 14.04100 38.91700
C  -13.34500 14.12200 37.67600
N  -9.77500 16.44100 40.92700
C  -10.15000 15.11000 40.78200
C  -9.00700 14.21500 41.00800
C  -7.90100 15.06500 40.98100
C  -8.42200 16.43900 40.95500
C  -8.89200 12.73800 41.01400
C  -6.49900 15.14900 40.92300
O  -5.64600 14.29400 40.84700
C  -6.08900 16.68600 40.95100
C  -5.28600 16.94300 42.25600
O  -4.08500 17.29500 42.23400
O  -5.98000 16.56800 43.37000
C  -5.11000 16.64000 44.59100
H  -9.76300 22.50500 40.10100
H  -15.09200 18.87600 40.10200
H  -11.82000 13.63200 40.64800
H  -5.67800 19.90200 40.90100
H  -7.36500 22.00000 39.78500
H  -7.81500 21.85600 42.58400
H  -6.66400 22.91200 41.69000
H  -6.04800 21.45000 42.26200
H  -6.20900 20.84800 38.18000
H  -6.89400 19.25700 38.09100
H  -4.30500 19.06300 39.13700
H  -4.15000 20.12300 37.84100
H  -12.02000 23.79000 40.83100
H  -13.22900 24.02500 39.62300
H  -11.52100 23.83200 39.06200
H  -15.98200 20.23000 38.47200
H  -17.15800 21.58100 38.94200
H  -16.58500 20.47600 40.06900
H  -15.45700 16.58800 39.59400
H  -14.19700 14.25900 40.99900
H  -15.19100 16.90800 42.33000
H  -15.77900 15.20700 41.96600
H  -16.63500 16.59500 41.39500
H  -15.34100 14.26200 38.70900
H  -14.40900 12.99800 39.21400
H  -13.74700 14.65900 36.81600
H  -13.22800 13.09400 37.33300
H  -12.36500 14.50000 37.96700
H  -8.37400 12.48200 40.09000
H  -9.84500 12.21000 40.99500
H  -8.32200 12.39100 41.87600
H  -5.34500 17.01600 40.22600
H  -5.31900 15.68200 45.06800
H  -5.57000 17.44100 45.17000
H  -4.07400 16.94100 44.43900

