158

Mg 0.93700 7.75300 25.86200
C  1.69100 9.45000 28.84100
C  0.75900 4.86500 27.65600
C  0.69000 6.24600 22.91900
C  1.61700 10.91200 24.12100
N  1.21600 7.22300 28.06300
C  1.42500 8.01400 29.06800
C  1.26000 7.28300 30.44600
C  1.31600 5.75600 29.97000
C  1.11200 5.93400 28.48300
C  2.58400 4.93100 30.21600
C  -0.05600 7.69100 31.12400
C  -0.08500 7.89200 32.63500
H  1.15000 7.70100 33.42200
N  0.75500 5.91900 25.38800
C  0.58000 4.83800 26.27100
C  0.31600 3.60500 25.52400
C  0.40000 3.95300 24.16300
C  0.61700 5.46500 24.11000
C  -0.06200 2.28200 26.08000
C  0.32800 3.06700 22.93300
O  0.38700 3.41700 21.76500
C  0.34400 1.57300 23.02000
N  1.20000 8.51200 23.81500
C  0.99600 7.60900 22.75600
C  1.04600 8.35200 21.41200
C  0.93700 9.85900 21.85800
C  1.33800 9.81100 23.34800
C  2.36600 8.13000 20.59600
C  -0.43500 10.62500 21.70100
C  -0.53000 11.41100 20.41000
N  1.51400 9.80200 26.34700
C  1.76400 10.91900 25.50900
C  1.96500 12.06200 26.46100
C  1.99500 11.53600 27.71900
C  1.76700 10.18200 27.64200
C  2.02600 13.51500 26.07200
C  2.21700 11.91200 29.11400
O  2.71600 12.92500 29.56900
C  1.88100 10.56000 29.91100
C  3.15200 10.47800 30.77100
O  4.17000 9.93400 30.45900
O  2.90300 11.17800 31.89500
C  4.02700 11.40700 32.83900
H  0.55000 3.93200 28.18300
H  0.61400 5.70700 21.97200
H  1.57700 11.88100 23.62100
H  2.20700 7.40700 30.97100
H  0.51300 5.15700 30.40000
H  3.18900 4.80300 29.31900
H  2.30000 3.97600 30.65800
H  3.22400 5.40000 30.96300
H  -0.72300 6.86400 30.87900
H  -0.42000 8.63600 30.72100
H  -0.98300 7.33100 32.89200
H  -0.46900 8.88100 32.88600
H  -1.03100 1.93000 25.72500
H  -0.29700 2.39900 27.13800
H  0.59800 1.42000 25.98600
H  1.04800 1.15300 23.73800
H  0.50200 1.14600 22.03000
H  -0.62300 1.16000 23.30700
H  0.27300 8.09400 20.68800
H  1.52500 10.67600 21.44000
H  3.04200 7.55100 21.22400
H  2.77900 9.11900 20.39800
H  2.02000 7.72200 19.64600
H  -0.70200 11.11300 22.63800
H  -1.27300 9.97900 21.43600
H  -1.14700 12.30300 20.51500
H  -0.98900 10.93700 19.54200
H  0.45800 11.77100 20.12400
H  0.97500 13.79600 26.14500
H  2.41900 13.71400 25.07500
H  2.63200 14.09200 26.77100
H  1.04400 10.78300 30.57200
H  4.84600 12.06500 32.54700
H  4.62900 10.51500 33.01300
H  3.53000 11.83400 33.71000
Mg 34.97400 49.15300 24.43100
C  35.17600 47.20900 27.33000
C  33.62700 51.65400 26.46500
C  34.68600 51.02700 21.67400
C  35.97500 46.33000 22.52800
N  34.27900 49.34000 26.65500
C  34.76800 48.51500 27.62300
C  34.42900 49.06500 29.06700
C  33.63300 50.38600 28.75700
C  33.79100 50.45300 27.17300
C  32.17200 50.59200 29.19400
C  35.66100 49.07100 30.01100
C  35.45700 48.42900 31.40500
H  34.00500 48.60500 32.02400
N  34.23200 51.07200 24.13300
C  33.80900 51.98500 25.07900
C  33.44000 53.20700 24.42700
C  33.75400 53.02700 23.03900
C  34.22800 51.65800 22.89200
C  32.99100 54.41400 25.32400
C  33.64800 54.10300 21.89900
O  33.98200 53.87600 20.73300
C  33.02900 55.50300 22.26900
N  35.27900 48.78600 22.41100
C  35.20500 49.75800 21.49500
C  35.60800 49.24800 20.06400
C  36.20700 47.81600 20.41800
C  35.83000 47.62700 21.83700
C  34.46500 49.34100 19.02300
C  37.75600 47.62600 20.37000
C  38.23600 46.18100 20.05900
N  35.33500 47.18500 24.74500
C  35.75200 46.19500 23.89000
C  35.87700 45.02300 24.62400
C  35.73000 45.35500 25.96300
C  35.34600 46.68200 26.00200
C  36.25900 43.73200 24.06700
C  35.74300 44.86000 27.34200
O  36.08000 43.82100 27.88900
C  35.35700 46.05900 28.25600
C  34.15500 45.73300 29.08000
O  33.04500 46.00100 28.69400
O  34.41300 44.95800 30.19100
C  33.33600 44.50600 31.05800
H  33.22300 52.43700 27.11000
H  34.54600 51.57300 20.73800
H  36.43100 45.54000 21.92700
H  33.70600 48.38200 29.51200
H  34.11700 51.18100 29.32500
H  31.95500 49.75700 29.86000
H  31.41000 50.64000 28.41700
H  32.01600 51.37000 29.94200
H  35.92500 50.12900 30.02000
H  36.47800 48.53600 29.52600
H  36.13000 48.73700 32.20500
H  35.68200 47.39100 31.16200
H  33.68200 55.22200 25.08200
H  32.93000 54.33800 26.41000
H  32.01300 54.81000 25.05000
H  33.13800 56.14000 21.39200
H  33.75700 55.86100 22.99700
H  31.98900 55.43100 22.58400
H  36.47700 49.81700 19.73400
H  35.67700 47.12400 19.76300
H  33.58900 49.73500 19.53900
H  34.09100 48.34900 18.77000
H  34.60400 50.00100 18.16700
H  38.00300 47.89400 21.39700
H  38.32100 48.23900 19.66700
H  38.83400 45.72100 20.84600
H  38.85600 46.21400 19.16400
H  37.44300 45.49000 19.77200
H  35.91700 43.00500 24.80400
H  37.30200 43.59700 23.78200
H  35.71200 43.56700 23.13900
H  36.26100 46.15100 28.85900
H  32.46700 45.16200 31.11700
H  33.69600 44.46000 32.08600
H  32.84000 43.58400 30.75300

