158

Mg 45.60200 4.41200 47.37000
C  43.44100 7.11500 46.70600
C  43.05100 2.30200 46.79500
C  47.85100 1.76600 47.14800
C  48.36000 6.56700 47.09600
N  43.48700 4.69900 46.76100
C  42.77300 5.88600 46.67100
C  41.31200 5.62500 46.28300
C  41.14800 4.16900 46.68400
C  42.66100 3.66800 46.72000
C  40.30100 4.09100 47.94600
C  41.01900 5.98100 44.77000
C  39.96400 7.13200 44.65800
H  40.24600 8.23600 43.56300
N  45.45600 2.26200 47.22800
C  44.31000 1.62100 46.99100
C  44.54800 0.26300 47.02100
C  45.94200 0.05100 47.17100
C  46.49800 1.42800 47.17200
C  43.39500 -0.70700 47.10000
C  46.67900 -1.38000 47.17600
O  45.94200 -2.41100 47.04100
C  48.19600 -1.64100 47.40400
N  47.83700 4.13900 46.75500
C  48.46600 2.98200 47.08300
C  50.02700 3.16800 47.18700
C  50.10800 4.68400 47.06900
C  48.69700 5.21400 46.92400
C  50.83000 2.55500 48.36500
C  50.83000 5.09700 45.72300
C  52.38000 5.04900 45.62200
N  45.91700 6.35500 47.06200
C  47.06500 7.14100 47.02000
C  46.74300 8.54300 46.92200
C  45.30600 8.56900 46.86800
C  44.82900 7.17900 46.96100
C  47.76100 9.61600 46.64400
C  44.23900 9.47000 46.65200
O  44.17800 10.71600 46.49600
C  42.89300 8.55000 46.51500
C  41.98600 8.90200 47.64800
O  42.11600 8.47900 48.79400
O  40.85200 9.45000 47.03600
C  39.78200 9.85500 47.98400
H  42.31000 1.51200 46.65800
H  48.46900 0.87000 47.05800
H  49.21100 7.19800 47.36100
H  40.79100 6.30000 46.96200
H  40.55600 3.54500 46.01400
H  41.02200 3.89700 48.73900
H  39.63900 3.22500 47.95900
H  39.68900 4.93100 48.27600
H  40.85300 5.08700 44.16900
H  41.93600 6.37400 44.33200
H  39.73400 7.50100 45.65800
H  39.04600 6.63400 44.34800
H  43.37100 -1.27300 46.16900
H  42.42400 -0.30200 47.38500
H  43.68600 -1.30300 47.96500
H  48.48100 -1.16700 48.34300
H  48.65000 -1.24700 46.49400
H  48.34200 -2.71400 47.52900
H  50.30600 2.65900 46.26500
H  50.74600 5.11700 47.84000
H  50.10300 2.32100 49.14200
H  51.63700 3.10800 48.84600
H  51.22300 1.59900 48.01800
H  50.54900 6.13000 45.51900
H  50.37400 4.59200 44.87100
H  52.52800 4.18100 44.98100
H  52.77500 4.89700 46.62700
H  52.71900 5.94700 45.10600
H  48.76700 9.21400 46.52000
H  47.73800 10.29800 47.49400
H  47.56300 10.20400 45.74700
H  42.48600 8.69300 45.51400
H  40.07800 9.81500 49.03200
H  38.80600 9.41600 47.77700
H  39.59600 10.92100 47.85000
Mg 48.83200 35.85700 27.66000
C  46.82800 33.95000 29.92300
C  49.33500 38.12000 30.09900
C  50.13900 37.91700 25.29000
C  47.88800 33.48600 25.22600
N  48.18600 35.98500 29.76800
C  47.45700 35.07900 30.48700
C  47.57000 35.39200 31.97800
C  47.89600 36.95700 31.95600
C  48.53100 37.01500 30.55200
C  46.60200 37.80800 31.97900
C  48.58000 34.53000 32.94200
C  48.69700 34.80700 34.41800
H  47.79700 35.88400 35.07700
N  49.67900 37.79400 27.74400
C  49.83800 38.53000 28.83700
C  50.47800 39.71900 28.45100
C  50.72000 39.74700 27.02300
C  50.14400 38.47700 26.62300
C  50.56000 40.92900 29.53300
C  51.20600 40.84800 26.12600
O  51.35600 40.59300 24.93200
C  51.59200 42.18300 26.75900
N  48.97600 35.80600 25.61600
C  49.63100 36.73200 24.87400
C  49.85300 36.26700 23.37500
C  49.40400 34.78800 23.46800
C  48.76800 34.62400 24.88200
C  49.04400 37.02700 22.30300
C  50.59800 33.72700 23.34400
C  50.63800 33.08100 21.90700
N  47.63700 34.01900 27.59100
C  47.35900 33.23300 26.45900
C  46.41600 32.19100 26.89500
C  46.21000 32.40100 28.28100
C  46.91700 33.60900 28.58400
C  45.82500 31.13000 26.05100
C  45.48600 32.00800 29.44900
O  44.69600 31.09700 29.65900
C  45.88800 32.92900 30.54700
C  46.51900 32.12600 31.64200
O  47.59200 31.51300 31.62400
O  45.68500 32.23800 32.70800
C  46.11600 31.68300 34.00900
H  49.44200 38.77800 30.96500
H  50.62000 38.59400 24.58200
H  47.74900 32.80400 24.38500
H  46.60800 35.19100 32.44800
H  48.51000 37.31400 32.78300
H  46.30500 38.17800 32.96100
H  45.71800 37.40000 31.48900
H  46.73900 38.63400 31.28100
H  49.45500 34.80000 32.35100
H  48.53700 33.44100 32.94200
H  49.70900 35.14900 34.63400
H  48.53900 33.85000 34.91600
H  51.59700 41.20600 29.72100
H  50.01900 40.61800 30.42600
H  49.94200 41.78200 29.25200
H  52.20300 41.89200 27.61400
H  50.77300 42.70500 27.25500
H  52.07200 42.97900 26.19000
H  50.90200 36.35900 23.09400
H  48.60400 34.56400 22.76300
H  48.04400 37.27600 22.65800
H  48.78800 36.54900 21.35800
H  49.48100 37.96500 21.95900
H  50.54500 33.01800 24.17000
H  51.52100 34.28300 23.50900
H  50.66100 31.99700 22.02300
H  51.47700 33.35700 21.26800
H  49.83200 33.50300 21.30700
H  45.03500 31.57500 25.44500
H  45.36600 30.46800 26.78500
H  46.64300 30.62200 25.54000
H  45.03700 33.50900 30.90300
H  45.67500 32.30800 34.78500
H  47.20300 31.74700 34.06300
H  45.77900 30.64600 34.00600

