158

Mg 54.88000 24.38000 44.10900
C  52.21300 26.69100 43.78700
C  52.60400 21.85000 43.28000
C  57.48800 22.40300 43.69200
C  57.07000 27.13800 44.63300
N  52.64100 24.34200 43.37100
C  51.72800 25.39200 43.43700
C  50.35600 24.89200 42.83400
C  50.46100 23.39100 43.17000
C  52.00600 23.11500 43.29800
C  49.73900 23.07800 44.49400
C  50.31700 25.14700 41.35700
C  48.92200 24.94700 40.71600
H  48.93300 24.66600 39.15600
N  55.09500 22.41400 43.58400
C  54.04700 21.55000 43.30600
C  54.59000 20.24700 43.07800
C  55.98600 20.38200 43.18500
C  56.25100 21.76500 43.43400
C  53.71200 19.07300 42.80000
C  56.91500 19.18700 42.91500
O  56.52500 18.05100 42.59200
C  58.41400 19.33800 42.98600
N  57.01600 24.78000 44.02900
C  57.83700 23.72400 43.96000
C  59.38100 24.15000 44.00200
C  59.18400 25.63100 44.40100
C  57.69300 25.92200 44.29200
C  60.15400 23.36300 45.08200
C  60.13000 26.55600 43.64500
C  60.97300 27.58400 44.47400
N  54.62700 26.47800 44.35800
C  55.64700 27.42400 44.66200
C  54.98200 28.71600 44.82000
C  53.61300 28.49000 44.52500
C  53.50000 27.11900 44.24200
C  55.66800 29.92600 45.15100
C  52.31300 29.10400 44.35800
O  51.96800 30.28300 44.54300
C  51.42000 27.99200 43.85000
C  50.79100 28.57900 42.56600
O  51.43800 28.80600 41.53500
O  49.44300 28.45500 42.59200
C  48.69800 28.97200 41.50600
H  51.82500 21.09000 43.19200
H  58.29100 21.67000 43.59000
H  57.79100 27.85600 45.02900
H  49.55800 25.30600 43.45100
H  50.09500 22.79800 42.33200
H  48.97400 22.32600 44.30300
H  49.18700 23.98600 44.73800
H  50.40800 22.90900 45.33800
H  51.04600 24.49700 40.87200
H  50.61200 26.18800 41.22600
H  48.31500 25.84300 40.84400
H  48.43800 24.10200 41.20600
H  54.15600 18.53400 41.96300
H  52.78100 19.42800 42.35700
H  53.53400 18.29100 43.53800
H  58.72500 19.99300 42.17200
H  58.97500 18.42300 42.79700
H  58.66300 19.63300 44.00500
H  59.84000 24.01400 43.02300
H  59.32500 25.77100 45.47200
H  59.59100 22.52700 45.49600
H  60.31800 23.89900 46.01600
H  61.08800 23.16700 44.55500
H  59.50500 27.20900 43.03500
H  60.76300 26.01100 42.94500
H  60.74200 28.58800 44.12000
H  62.01800 27.47300 44.18300
H  60.77500 27.62800 45.54500
H  55.06600 30.82900 45.04300
H  56.59000 29.89800 44.57000
H  55.91400 29.89300 46.21200
H  50.58700 27.68600 44.48200
H  47.94200 29.71700 41.75400
H  48.03600 28.14300 41.25700
H  49.27100 29.12400 40.59100
Mg -12.39100 17.58900 41.29200
C  -9.02700 16.36200 40.76200
C  -11.20700 20.83700 40.58600
C  -15.48600 18.60400 40.66300
C  -13.43800 14.17000 41.18200
N  -10.37900 18.39700 40.72500
C  -9.10800 17.76700 40.59800
C  -7.91900 18.82400 40.32800
C  -8.74900 20.18700 40.35700
C  -10.25900 19.79400 40.59000
C  -8.23600 21.33800 41.34800
C  -7.15000 18.62600 39.01000
C  -5.75100 18.06800 39.21400
H  -5.40200 16.93000 38.16400
N  -13.18700 19.43700 40.71900
C  -12.59700 20.65000 40.52400
C  -13.55500 21.64000 40.01800
C  -14.85500 20.98600 40.03600
C  -14.56800 19.62200 40.46800
C  -13.22900 23.02100 39.59700
C  -16.17500 21.60900 39.59200
O  -16.18300 22.77200 39.15500
C  -17.52300 21.01100 39.81200
N  -14.21500 16.51000 40.97000
C  -15.34700 17.21600 40.83800
C  -16.54300 16.27200 40.77800
C  -15.90800 14.87100 41.23600
C  -14.44000 15.16500 41.04500
C  -17.85600 16.62600 41.53300
C  -16.54700 13.67100 40.40500
C  -17.57800 12.76300 41.15800
N  -11.46600 15.61600 41.16000
C  -12.06900 14.32400 41.11800
C  -11.02100 13.36800 40.95800
C  -9.82600 14.17600 40.92200
C  -10.14500 15.53000 41.01000
C  -11.15300 11.89300 40.88000
C  -8.38400 13.99100 40.67600
O  -7.75500 12.95300 40.53700
C  -7.78900 15.45300 40.54900
C  -6.67100 15.60100 41.61900
O  -6.78100 16.27800 42.63500
O  -5.58700 14.84400 41.28200
C  -4.64900 14.67400 42.42600
H  -10.73900 21.80500 40.39100
H  -16.54000 18.81700 40.47300
H  -13.80200 13.14100 41.22100
H  -7.24000 18.68100 41.16800
H  -8.87100 20.61000 39.36000
H  -7.23900 21.23100 41.77600
H  -9.02000 21.33000 42.10500
H  -8.29100 22.24300 40.74400
H  -7.05900 19.60500 38.54100
H  -7.74300 17.95200 38.39100
H  -5.56600 17.66300 40.20900
H  -5.06800 18.87200 38.94100
H  -13.51300 23.27100 38.57500
H  -12.16500 23.22100 39.72100
H  -13.76200 23.66300 40.29800
H  -17.63600 20.04900 39.31200
H  -18.25500 21.67100 39.34700
H  -17.67600 20.92900 40.88900
H  -16.79200 16.00500 39.75100
H  -15.99800 14.63000 42.29500
H  -18.49100 17.12900 40.80400
H  -17.80100 17.20200 42.45700
H  -18.35700 15.67700 41.72600
H  -15.69100 13.03100 40.19200
H  -17.14000 13.86100 39.51000
H  -17.35600 12.37700 42.15300
H  -17.65200 11.93800 40.44900
H  -18.54000 13.27400 41.18000
H  -11.07400 11.52200 41.90100
H  -10.45000 11.27700 40.32000
H  -12.13800 11.60000 40.51600
H  -7.38400 15.62700 39.55200
H  -4.13100 15.62300 42.57000
H  -3.96300 13.82900 42.47300
H  -5.18900 14.50800 43.35800

