158

Mg 9.91400 47.36500 26.13500
C  7.85700 47.60000 29.02000
C  12.49100 48.87300 27.83400
C  11.77900 47.20000 23.35700
C  7.08000 46.52500 24.31200
N  10.15700 48.08600 28.26700
C  9.16400 48.09100 29.25400
C  9.86600 48.61000 30.60800
C  11.09800 49.43400 30.07100
C  11.29800 48.81200 28.61300
C  10.93200 50.98500 30.05300
C  10.32800 47.33900 31.43900
C  10.69400 47.52200 32.95000
H  10.39700 46.43800 34.01400
N  11.93700 47.75900 25.74500
C  12.81000 48.37500 26.60100
C  14.07200 48.56700 25.88200
C  13.83000 48.01000 24.58800
C  12.48400 47.61800 24.49900
C  15.31000 49.18400 26.53300
C  14.84700 47.81300 23.40500
O  14.60900 47.18600 22.32000
C  16.21500 48.30600 23.56000
N  9.52600 46.91700 24.08200
C  10.42200 46.95800 23.14000
C  9.82200 46.57500 21.70700
C  8.31200 46.40100 22.09900
C  8.31100 46.62100 23.58000
C  9.96000 47.69600 20.71900
C  7.58800 45.12300 21.56400
C  6.05700 45.22600 21.25100
N  7.81500 47.12200 26.51100
C  6.79500 46.71700 25.66300
C  5.62500 46.50100 26.45100
C  5.97600 46.82000 27.78800
C  7.28700 47.24100 27.73900
C  4.25100 46.16700 25.80500
C  5.45900 46.96800 29.15200
O  4.35600 46.73800 29.61600
C  6.69300 47.38200 30.05500
C  6.98100 46.21500 30.91500
O  7.36200 45.14600 30.48300
O  6.75000 46.52600 32.23700
C  6.97300 45.44800 33.20000
H  13.25600 49.42500 28.38400
H  12.18400 47.29100 22.34600
H  6.21100 46.20000 23.73500
H  9.21400 49.27100 31.17900
H  12.00700 49.25700 30.64500
H  11.16900 51.48700 29.11500
H  11.59900 51.44400 30.78200
H  10.00100 51.33100 30.50100
H  11.21500 46.99100 30.91000
H  9.65100 46.49400 31.31100
H  10.26900 48.47600 33.26300
H  11.77600 47.62900 33.03100
H  15.12500 49.69200 27.48000
H  15.91200 49.87400 25.94300
H  15.91100 48.32800 26.83900
H  16.28200 49.35000 23.87000
H  16.76100 48.29000 22.61700
H  16.64200 47.63500 24.30600
H  10.16200 45.57600 21.43500
H  7.74900 47.26900 21.75600
H  10.12300 48.62300 21.26900
H  9.07300 47.88100 20.11200
H  10.86100 47.50300 20.13700
H  7.64800 44.38100 22.36000
H  8.13800 44.66500 20.74100
H  5.50300 46.12800 21.51000
H  5.52600 44.44100 21.79000
H  5.91300 44.94800 20.20600
H  4.22300 45.41700 25.01500
H  3.88100 47.14300 25.48900
H  3.72000 45.81100 26.68700
H  6.47100 48.24900 30.67800
H  6.80500 44.42700 32.85800
H  6.28500 45.68600 34.01100
H  7.99100 45.45600 33.58900
Mg 0.86400 42.57900 26.19100
C  3.27800 42.58100 28.77700
C  -1.49100 41.94900 28.53100
C  -1.23700 41.98800 23.61800
C  3.57400 42.85900 23.88600
N  0.91500 42.38300 28.35900
C  1.96900 42.56100 29.21900
C  1.59100 42.59400 30.70900
C  0.11300 42.05700 30.59600
C  -0.20700 42.15900 29.07400
C  -0.33600 40.60600 31.15400
C  1.78700 44.08100 31.27600
C  1.17500 44.25000 32.72100
H  1.18400 43.06200 33.69000
N  -1.17400 42.08600 26.14800
C  -1.96100 41.86900 27.16000
C  -3.31800 41.71100 26.66300
C  -3.23500 41.73700 25.24600
C  -1.86600 41.93400 24.92000
C  -4.43800 41.38800 27.71000
C  -4.33600 41.57100 24.26900
O  -4.17700 41.56900 23.05500
C  -5.78400 41.42300 24.84300
N  1.18200 42.65400 24.13200
C  0.11200 42.29900 23.29400
C  0.57500 42.17300 21.83300
C  2.08300 42.73500 21.91500
C  2.30600 42.80300 23.38400
C  0.38100 40.63700 21.36300
C  2.18700 44.23000 21.39800
C  1.48500 45.35500 22.12900
N  3.03500 42.62000 26.23500
C  3.99400 42.75300 25.23400
C  5.31700 42.90900 25.81400
C  5.07300 42.74600 27.25300
C  3.68700 42.60400 27.38200
C  6.61600 43.12300 25.12500
C  5.66000 42.62400 28.53700
O  6.85000 42.66000 28.80000
C  4.56700 42.55800 29.53000
C  4.88900 41.30700 30.32500
O  4.44100 40.17300 30.16800
O  5.61400 41.74600 31.37300
C  5.75700 40.60700 32.38200
H  -2.27900 41.86800 29.28300
H  -1.83200 41.81300 22.71900
H  4.36200 42.92300 23.13200
H  2.28300 41.89000 31.17300
H  -0.62000 42.73600 31.03200
H  0.30200 40.32500 31.99200
H  -0.32900 40.00000 30.24900
H  -1.35700 40.55200 31.53200
H  1.23600 44.68600 30.55600
H  2.84800 44.32000 31.34700
H  0.22800 44.78600 32.78300
H  1.74400 44.93400 33.35000
H  -5.38300 41.91500 27.57500
H  -4.11800 41.68300 28.70900
H  -4.72500 40.33800 27.67600
H  -6.52700 41.48600 24.04800
H  -6.12700 42.21200 25.51200
H  -5.71900 40.49800 25.41600
H  0.07700 42.79400 21.08800
H  2.78100 41.97500 21.56600
H  1.35300 40.16700 21.20800
H  0.02000 40.65500 20.33500
H  -0.29500 40.04600 21.98000
H  1.75000 44.13300 20.40400
H  3.21000 44.56500 21.22300
H  0.82900 45.03200 22.93800
H  0.84600 45.88600 21.42300
H  2.19000 46.05700 22.57300
H  6.54600 43.97700 24.45100
H  7.11700 42.24300 24.72100
H  7.27800 43.41500 25.94000
H  4.68100 43.37300 30.24500
H  6.43600 41.15000 33.03900
H  6.38000 39.80000 31.99600
H  4.87000 40.28100 32.92400

