158

Mg 44.65800 3.27700 47.11600
C  42.28500 5.85400 47.02500
C  42.12200 0.93300 47.06200
C  47.00200 0.83600 46.83200
C  47.22200 5.63000 46.74400
N  42.40900 3.46400 47.00700
C  41.63700 4.59700 47.13300
C  40.14400 4.21600 47.14700
C  40.18200 2.57400 47.24800
C  41.64100 2.30400 47.08500
C  39.64800 1.97100 48.55400
C  39.29400 4.69900 45.94100
C  39.88400 4.54600 44.48400
H  38.94700 4.55600 43.25400
N  44.55400 1.17700 46.93700
C  43.40700 0.44000 46.94600
C  43.75400 -0.94800 46.85000
C  45.19200 -1.00700 46.64500
C  45.68500 0.38500 46.84600
C  42.73400 -2.05500 46.88600
C  45.98800 -2.31000 46.41000
O  45.37900 -3.38200 46.42400
C  47.40000 -2.24700 46.10600
N  46.86300 3.25700 46.70500
C  47.61000 2.08800 46.84300
C  49.02900 2.41700 47.18900
C  49.12000 3.93600 46.95000
C  47.68000 4.32300 46.69700
C  49.48400 1.95700 48.60400
C  50.01200 4.51400 45.84000
C  51.19400 3.65700 45.23100
N  44.79100 5.34200 46.94300
C  45.89100 6.22900 46.76100
C  45.34800 7.62700 46.69900
C  43.99500 7.46400 46.93600
C  43.67000 6.09600 46.93700
C  46.14800 8.95700 46.53900
C  42.79200 8.28100 47.04000
O  42.47500 9.45500 46.86000
C  41.58200 7.24400 47.11500
C  40.83100 7.52500 48.36800
O  41.39000 7.77500 49.44600
O  39.50700 7.31700 48.17700
C  38.60900 7.66100 49.23400
H  41.32000 0.19900 47.16100
H  47.79400 0.09200 46.94700
H  47.96000 6.42600 46.86700
H  39.67000 4.58100 48.05800
H  39.55500 2.23000 46.42600
H  38.81100 1.32400 48.29300
H  39.44700 2.90500 49.07900
H  40.41700 1.40700 49.08100
H  39.08800 5.75800 46.09700
H  38.34800 4.18100 46.09300
H  40.38600 3.57900 44.46000
H  40.57300 5.34600 44.21300
H  43.19000 -2.69500 47.64200
H  42.65200 -2.62500 45.96100
H  41.79500 -1.76700 47.35800
H  47.66000 -1.69700 45.20200
H  47.65300 -3.30600 46.04100
H  47.96000 -2.04900 47.01900
H  49.62900 1.92700 46.42200
H  49.33400 4.46400 47.87900
H  49.13000 0.94200 48.78300
H  49.22900 2.63800 49.41600
H  50.56600 2.05700 48.69000
H  50.38900 5.47400 46.19200
H  49.42000 4.76100 44.95900
H  51.40400 2.66300 45.62500
H  52.17300 4.13500 45.25400
H  50.95300 3.51800 44.17700
H  45.87900 9.60600 47.37200
H  46.06000 9.39700 45.54500
H  47.16500 8.59200 46.68300
H  40.86900 7.48000 46.32500
H  37.79600 8.27600 48.84800
H  39.11200 8.10800 50.09100
H  38.17600 6.74200 49.62800
Mg 6.70100 56.63600 40.98300
C  5.50400 53.53900 40.96900
C  9.60400 55.59600 39.41100
C  7.54600 59.90700 40.25500
C  3.64700 57.78200 42.39900
N  7.50900 54.79000 40.42500
C  6.81700 53.57600 40.45200
C  7.61600 52.45600 39.86400
C  9.04600 53.06700 39.84900
C  8.73100 54.58200 39.86600
C  10.01700 52.72100 41.14200
C  7.04600 52.09500 38.41900
C  7.43400 50.66100 38.06400
H  7.61600 50.31500 36.52800
N  8.34200 57.61000 39.98600
C  9.48600 56.99700 39.46800
C  10.32900 57.94700 38.85400
C  9.80900 59.25100 39.17400
C  8.49300 58.95200 39.80300
C  11.62300 57.62300 38.19100
C  10.47900 60.63900 39.01500
O  11.53600 60.74400 38.40900
C  9.89500 61.88500 39.52200
N  5.57600 58.50200 41.09100
C  6.27300 59.73500 40.87200
C  5.45300 60.95300 41.27500
C  4.18500 60.25800 41.94900
C  4.46100 58.75400 41.79600
C  6.17700 62.07100 42.10800
C  2.84000 60.79600 41.46300
C  1.76800 60.94900 42.67200
N  4.93600 55.79800 41.71800
C  3.82500 56.37400 42.23400
C  2.89600 55.38300 42.63900
C  3.56600 54.20200 42.24000
C  4.70000 54.54400 41.53700
C  1.50300 55.63300 43.19000
C  3.48200 52.72400 42.11800
O  2.57800 51.94100 42.47000
C  4.68800 52.25100 41.26200
C  4.18700 51.64600 40.04900
O  3.40000 52.18500 39.34200
O  4.64800 50.40300 39.89300
C  4.09700 49.82500 38.68200
H  10.47900 55.11900 38.96400
H  7.77900 60.95500 40.05200
H  2.76800 58.22900 42.86700
H  7.48200 51.53500 40.43100
H  9.53800 52.80700 38.91100
H  9.59000 51.85900 41.65500
H  10.15000 53.58800 41.78800
H  11.00800 52.57600 40.71300
H  7.45600 52.73600 37.63800
H  5.95900 52.17300 38.41000
H  6.64800 49.99400 38.41900
H  8.32200 50.31100 38.59000
H  12.48900 58.16200 38.57500
H  11.55600 58.01400 37.17600
H  11.77200 56.55200 38.06200
H  9.54800 61.79800 40.55100
H  9.07100 62.14900 38.85800
H  10.65300 62.66800 39.48900
H  5.16500 61.40700 40.32700
H  4.36100 60.38600 43.01700
H  7.22800 61.89500 42.33500
H  5.62700 62.24500 43.03400
H  6.10800 63.05800 41.65100
H  2.47000 60.14900 40.66800
H  2.83200 61.80900 41.06000
H  1.42300 61.95500 42.91000
H  2.18200 60.51600 43.58300
H  0.92900 60.27300 42.50600
H  1.00500 56.42500 42.63000
H  1.52100 55.97600 44.22400
H  0.91000 54.71800 43.18200
H  5.35600 51.49600 41.67600
H  4.64300 48.89400 38.52800
H  4.17500 50.43000 37.77900
H  3.05000 49.60000 38.88500

