158

Mg 41.02800 8.09600 29.08200
C  42.64200 9.06900 32.01600
C  38.66600 6.68400 31.01000
C  39.50500 6.85400 26.21600
C  43.66900 9.30400 27.16100
N  40.69000 8.10200 31.28600
C  41.45500 8.45900 32.30400
C  40.69500 8.31700 33.67500
C  39.41600 7.53700 33.31500
C  39.60700 7.45200 31.77300
C  39.28300 6.08900 33.93300
C  40.32700 9.75300 34.21900
C  39.30400 9.93700 35.29300
H  39.75000 10.93700 36.40000
N  39.27100 6.95900 28.70500
C  38.43100 6.41400 29.67200
C  37.44200 5.67900 29.02900
C  37.57800 5.87800 27.65900
C  38.82700 6.59100 27.48700
C  36.36100 5.05800 29.79100
C  36.53500 5.59300 26.55400
O  36.74900 5.92000 25.38900
C  35.15900 4.95300 26.88700
N  41.45900 8.15800 26.89500
C  40.78400 7.52000 25.98300
C  41.50300 7.61300 24.64500
C  42.78000 8.52500 24.94400
C  42.66100 8.70000 26.44400
C  41.93400 6.20300 24.02400
C  43.01000 9.78200 24.02600
C  42.93900 11.15000 24.63200
N  42.85500 8.99300 29.42000
C  43.81500 9.44800 28.52300
C  44.94700 10.01200 29.29900
C  44.44200 9.98600 30.64900
C  43.25600 9.28400 30.67200
C  46.17500 10.75200 28.79100
C  44.79700 10.37800 32.04300
O  45.80700 10.89300 32.47600
C  43.57500 9.85500 32.96100
C  44.19000 9.06700 34.01900
O  44.95300 8.11200 33.80500
O  43.55200 9.31200 35.17700
C  43.84100 8.36800 36.30400
H  37.97400 6.14600 31.66100
H  39.14800 6.45600 25.26400
H  44.39000 9.70400 26.44500
H  41.22600 7.84700 34.50300
H  38.49100 8.08200 33.50400
H  39.54500 5.27800 33.25300
H  38.24000 5.94600 34.21400
H  39.80900 6.10300 34.88700
H  40.12600 10.41200 33.37400
H  41.26000 10.10600 34.65900
H  38.78400 9.09200 35.74400
H  38.49800 10.50500 34.82700
H  36.54700 5.09200 30.86400
H  36.27600 3.99600 29.56000
H  35.43700 5.61400 29.63200
H  35.13200 4.05300 27.50100
H  34.73700 4.56600 25.96000
H  34.49900 5.78100 27.14500
H  40.91400 8.03400 23.83100
H  43.63200 7.84500 24.92300
H  41.39800 6.05200 23.08700
H  41.74000 5.43300 24.77000
H  42.99300 6.05000 23.81500
H  42.27600 9.63300 23.23400
H  44.01700 9.73400 23.61100
H  42.53500 10.99400 25.63200
H  42.25700 11.78500 24.06700
H  43.88600 11.68900 24.61200
H  45.92900 11.45600 27.99600
H  46.79800 10.05600 28.23000
H  46.72900 11.25200 29.58600
H  43.08700 10.74800 33.35100
H  44.89600 8.43900 36.56900
H  43.59500 7.31900 36.14200
H  43.21000 8.76500 37.09900
Mg 29.98600 58.61200 39.88100
C  27.24700 56.42000 39.20100
C  32.16400 55.98500 39.23400
C  32.46000 60.81200 39.94700
C  27.59300 61.21400 40.09200
N  29.71000 56.56000 38.98800
C  28.52800 55.82400 38.93000
C  28.78900 54.38700 38.56400
C  30.21000 54.25000 39.09600
C  30.76600 55.67400 39.07800
C  30.34700 53.56100 40.45800
C  28.80900 54.22200 36.97700
C  27.63200 53.41300 36.32800
H  26.76000 54.28300 35.38300
N  32.04300 58.49100 39.63300
C  32.76000 57.29400 39.48500
C  34.22100 57.64000 39.54200
C  34.32600 59.05900 39.66300
C  32.87300 59.54500 39.75700
C  35.31800 56.63600 39.39900
C  35.62000 59.83000 39.65300
O  36.70700 59.30000 39.55900
C  35.68400 61.36700 39.75500
N  29.97100 60.79500 39.87400
C  31.11900 61.44800 40.04500
C  30.86000 63.00900 40.09500
C  29.38600 63.14100 40.07200
C  28.91500 61.65000 40.04100
C  31.55900 63.76000 41.21700
C  28.72000 64.00500 38.85300
C  29.42600 65.16000 38.24800
N  27.81900 58.75100 39.96500
C  26.99600 59.92000 40.00400
C  25.65100 59.55800 40.00700
C  25.70200 58.16800 39.71700
C  26.99300 57.74500 39.65900
C  24.50500 60.37800 40.08600
C  24.84600 57.03000 39.39100
O  23.63800 56.88200 39.40700
C  25.84200 55.84000 39.08900
C  25.60100 54.69300 40.02600
O  25.98500 54.61400 41.14500
O  24.69300 53.84300 39.43700
C  24.03900 52.91300 40.38800
H  32.74900 55.06300 39.25300
H  33.15900 61.65100 39.96000
H  26.97800 62.08100 40.34200
H  28.14300 53.60300 38.95900
H  30.83700 53.66200 38.42500
H  29.36500 53.53400 40.92900
H  31.10400 54.07400 41.05100
H  30.64700 52.51500 40.39100
H  29.70700 53.87000 36.47100
H  28.62600 55.25200 36.67100
H  26.94000 52.98400 37.05200
H  28.03800 52.57300 35.76400
H  35.82900 56.80100 38.45100
H  34.99700 55.60400 39.25600
H  35.97800 56.67100 40.26500
H  35.15100 61.81000 38.91300
H  36.72700 61.65500 39.62600
H  35.28400 61.70300 40.71200
H  31.30700 63.30800 39.14700
H  29.09000 63.58500 41.02300
H  32.40400 63.31300 41.74000
H  30.89500 64.20100 41.96000
H  32.14000 64.56100 40.75900
H  27.89500 64.43600 39.42100
H  28.29300 63.46800 38.00500
H  28.97200 65.55100 37.33700
H  30.49500 65.03900 38.07100
H  29.37800 65.91300 39.03400
H  24.44700 60.92800 39.14700
H  24.40900 61.11600 40.88300
H  23.63400 59.72200 40.10100
H  25.70200 55.50700 38.06100
H  24.80000 52.23400 40.77400
H  23.33800 52.37700 39.74900
H  23.47200 53.38700 41.18900

