158

Mg 48.15000 15.95100 28.49100
C  46.06300 15.72800 31.32100
C  50.40800 17.61700 30.38300
C  49.71800 16.65100 25.67800
C  45.30500 15.02500 26.58400
N  48.19500 16.70600 30.55100
C  47.29200 16.39900 31.58700
C  47.85700 16.93500 32.91700
C  49.05400 17.84500 32.49300
C  49.23100 17.44600 31.06400
C  48.94100 19.37300 32.84300
C  48.25000 15.79600 33.80300
C  47.83100 15.96400 35.31600
H  47.46300 17.41200 35.80300
N  49.93400 16.87600 28.06200
C  50.79600 17.43700 29.02600
C  52.00500 17.88700 28.28100
C  51.87300 17.44900 26.92100
C  50.44900 16.97700 26.86200
C  53.13000 18.72200 28.92100
C  52.76900 17.39600 25.76200
O  52.48100 16.95100 24.69500
C  54.26200 17.68600 26.01400
N  47.61500 15.70300 26.44700
C  48.48300 16.01600 25.49100
C  47.91000 15.80000 24.08700
C  46.57200 15.10000 24.34500
C  46.48400 15.32200 25.87000
C  47.77300 17.01700 23.03700
C  46.57900 13.56700 24.00600
C  47.43400 12.61000 24.89200
N  46.12300 15.30100 28.81100
C  45.12700 14.98100 28.01100
C  43.98100 14.42900 28.76400
C  44.31700 14.68800 30.07000
C  45.59400 15.29300 30.02300
C  42.86700 13.64700 28.19500
C  43.88700 14.60800 31.43400
O  42.86600 14.11300 31.93100
C  44.94200 15.40900 32.25400
C  44.21300 16.53400 32.94700
O  43.80100 17.55400 32.45700
O  44.08000 16.26400 34.30100
C  43.18700 17.16900 35.01200
H  51.14700 18.10300 31.02400
H  50.09800 16.91300 24.68800
H  44.54800 14.68200 25.87500
H  47.00500 17.49400 33.30400
H  49.99900 17.69900 33.01600
H  49.10700 20.00600 31.97100
H  49.57200 19.59400 33.70400
H  47.90900 19.53600 33.15300
H  49.33900 15.78300 33.77600
H  47.98000 14.86600 33.30300
H  48.69600 15.61800 35.88200
H  47.04700 15.23200 35.51200
H  53.33900 19.53200 28.22200
H  53.95400 18.07000 29.21200
H  52.65000 19.04500 29.84500
H  54.68800 17.44600 26.98800
H  54.33500 18.76200 25.85400
H  54.90900 17.30500 25.22400
H  48.57300 15.10600 23.57000
H  45.74200 15.54300 23.79500
H  48.20100 17.95900 23.38100
H  46.73600 17.19600 22.75200
H  48.26700 16.66400 22.13200
H  47.01500 13.57000 23.00700
H  45.55800 13.20300 23.89100
H  47.86400 11.97700 24.11600
H  46.89200 11.92100 25.54000
H  48.32400 12.94800 25.42300
H  43.35500 12.69700 27.97800
H  42.63600 14.07300 27.21800
H  41.97900 13.44000 28.79300
H  45.48600 14.83500 33.00400
H  42.43700 17.52600 34.30700
H  43.86500 17.90400 35.44600
H  42.66500 16.64200 35.81100
Mg 50.82500 45.89600 41.69300
C  47.81600 47.36100 40.71500
C  49.71200 42.98700 40.31500
C  54.08600 44.87800 41.70900
C  52.01700 49.17100 42.35600
N  49.00300 45.31800 40.56800
C  47.87100 46.04100 40.36800
C  46.64100 45.15200 39.91000
C  47.26400 43.68700 40.24700
C  48.74700 43.96000 40.45200
C  46.61300 42.93800 41.39900
C  46.30800 45.26700 38.37500
C  44.82600 45.42400 37.93800
H  44.24500 44.50400 36.85300
N  51.78100 44.16600 41.00500
C  51.14000 43.04900 40.44500
C  52.12600 42.07400 40.18300
C  53.37500 42.43700 40.72300
C  53.14400 43.85400 41.18000
C  51.78400 40.78500 39.50200
C  54.60700 41.65200 40.70100
O  54.59700 40.47600 40.26200
C  55.87300 42.29400 41.23000
N  52.80200 46.91700 41.94500
C  53.96700 46.17900 42.03900
C  55.16600 47.04100 42.51700
C  54.54500 48.46000 42.48900
C  53.04500 48.19500 42.20900
C  55.82600 46.46900 43.84800
C  55.04800 49.35700 41.31000
C  55.56200 50.72000 41.72800
N  50.03500 47.85600 41.79700
C  50.60800 49.01600 42.10000
C  49.63300 50.09100 41.97800
C  48.50100 49.49000 41.45000
C  48.86100 48.14300 41.24200
C  49.81500 51.52200 42.16900
C  47.17400 49.74200 40.92500
O  46.59500 50.83100 40.76900
C  46.60500 48.28600 40.57400
C  45.41200 47.78700 41.41300
O  45.39200 47.09500 42.43200
O  44.27500 48.18400 40.77800
C  43.08900 47.79200 41.56500
H  49.30200 42.07600 39.87400
H  55.09600 44.48200 41.83600
H  52.47000 50.10400 42.69900
H  45.71300 45.30200 40.46300
H  47.40100 43.03500 39.38500
H  46.01200 42.14300 40.95800
H  45.88300 43.49900 41.98200
H  47.34200 42.59300 42.13200
H  46.78900 44.39000 37.94100
H  46.82900 46.11200 37.92500
H  44.67800 46.46800 37.66200
H  44.17900 45.32500 38.80900
H  52.51300 40.62300 38.70800
H  50.76900 40.78900 39.10500
H  51.83000 39.98600 40.24300
H  55.70700 42.43100 42.29800
H  56.26800 43.12400 40.64400
H  56.63500 41.52300 41.11000
H  55.90900 46.90200 41.73200
H  54.78900 48.92300 43.44500
H  55.49000 45.47700 44.15000
H  55.64300 47.16200 44.67000
H  56.91500 46.45300 43.87100
H  54.20900 49.57700 40.65100
H  55.81900 48.83000 40.74700
H  55.01400 51.58300 41.34900
H  56.63500 50.86600 41.60100
H  55.40900 50.79300 42.80400
H  50.89300 51.63800 42.28800
H  49.29800 52.01600 42.99200
H  49.51000 51.93400 41.20800
H  46.34800 48.36800 39.51800
H  43.15100 47.70900 42.65000
H  42.66100 46.84300 41.24200
H  42.36100 48.57500 41.35800

