158

Mg 9.79400 47.81200 27.87300
C  7.74300 47.10300 30.67800
C  12.36500 48.09900 29.85500
C  11.56400 48.79900 25.15300
C  6.81300 48.23900 26.02000
N  9.97700 47.69800 30.08000
C  9.08100 47.37500 31.06300
C  9.61100 47.53600 32.45800
C  11.06900 47.99400 32.16300
C  11.17600 47.93500 30.57100
C  11.58700 49.44300 32.70500
C  9.40800 46.20100 33.18800
C  10.43000 45.69800 34.28400
H  9.83000 44.98900 35.52700
N  11.69800 48.30400 27.54300
C  12.66900 48.36900 28.48300
C  13.99000 48.51800 27.84300
C  13.79300 48.53700 26.35700
C  12.30900 48.50800 26.28200
C  15.24400 48.40700 28.70000
C  14.75600 48.56200 25.28700
O  14.45000 48.57100 24.10000
C  16.23000 48.39600 25.65300
N  9.18600 48.51600 25.99100
C  10.13500 48.74500 25.03700
C  9.51500 49.13600 23.68300
C  8.06400 48.49100 23.75800
C  7.98400 48.44100 25.34500
C  9.57300 50.68500 23.49000
C  7.95200 47.16400 22.97700
C  6.82700 47.05600 21.88100
N  7.67600 47.65400 28.21100
C  6.64000 47.87700 27.38300
C  5.33300 47.68500 28.09500
C  5.76100 47.27000 29.33400
C  7.19400 47.30400 29.39100
C  4.05300 47.81200 27.51600
C  5.22900 46.89400 30.62200
O  4.10800 46.58000 31.05700
C  6.55100 46.75900 31.58800
C  6.45400 45.35300 32.12400
O  7.13300 44.41000 31.69800
O  5.65500 45.34000 33.20600
C  5.55300 44.18500 34.08200
H  13.20800 48.18800 30.54300
H  12.21200 49.04400 24.30900
H  5.92300 48.34200 25.39600
H  9.09000 48.25400 33.09100
H  11.65600 47.16400 32.55600
H  11.73400 50.03000 31.79900
H  12.51500 49.36000 33.27200
H  10.85100 50.00000 33.28500
H  9.14100 45.40700 32.49100
H  8.46300 46.26100 33.72800
H  10.97600 46.56100 34.66700
H  11.06100 44.92300 33.84800
H  15.88900 47.58600 28.38500
H  15.07400 48.06400 29.72000
H  15.78900 49.35100 28.71000
H  16.39400 49.11300 26.45700
H  16.85600 48.75600 24.83600
H  16.33400 47.34600 25.92500
H  10.08700 48.75300 22.83800
H  7.27800 49.18300 23.45500
H  8.85700 51.10000 22.78100
H  10.55000 50.91300 23.06400
H  9.44500 51.16600 24.45900
H  7.82400 46.40300 23.74700
H  8.88900 46.98300 22.45100
H  5.99900 46.41500 22.18200
H  7.22300 46.69700 20.93100
H  6.37000 48.01800 21.64700
H  3.32800 47.69200 28.32100
H  3.79700 47.00000 26.83700
H  3.98100 48.81700 27.10000
H  6.49100 47.40300 32.46500
H  5.48900 44.62200 35.07900
H  6.29200 43.38400 34.08600
H  4.53900 43.79600 33.99700
Mg 0.69500 43.77300 26.09000
C  2.79300 43.32000 28.69400
C  -1.86100 42.40900 27.92100
C  -1.20600 43.64500 23.23300
C  3.56400 44.54300 24.06700
N  0.47300 43.00000 28.08600
C  1.48900 43.00900 28.98500
C  0.89700 42.67600 30.40800
C  -0.58100 42.19200 30.04300
C  -0.66400 42.43000 28.52500
C  -0.92700 40.72000 30.55700
C  0.95200 43.86800 31.39100
C  0.58700 43.54300 32.87800
H  0.40400 42.14200 33.39200
N  -1.32700 43.24800 25.66900
C  -2.22900 42.67300 26.57800
C  -3.56200 42.46200 25.96800
C  -3.37700 42.86700 24.56400
C  -1.88900 43.28400 24.42900
C  -4.77300 41.91400 26.71700
C  -4.33800 42.87500 23.43300
O  -4.08200 43.28100 22.25500
C  -5.74800 42.56600 23.63600
N  1.19000 43.75000 23.91900
C  0.14000 43.88800 22.99000
C  0.63500 44.32800 21.62700
C  2.06400 44.73500 21.99100
C  2.31400 44.29000 23.45400
C  0.51300 43.19700 20.54000
C  2.32100 46.21300 21.77100
C  1.68900 47.20300 22.74600
N  2.86200 43.87800 26.28700
C  3.84500 44.25300 25.39900
C  5.07200 44.29500 26.09100
C  4.77500 43.92400 27.42100
C  3.37800 43.71100 27.46300
C  6.37400 44.68900 25.52000
C  5.27500 43.64900 28.71800
O  6.38800 43.65900 29.11600
C  4.04000 43.28500 29.64200
C  4.32500 41.95600 30.22600
O  4.21000 40.90200 29.64600
O  4.76800 42.11500 31.52600
C  4.80000 40.73200 32.15400
H  -2.61000 41.87000 28.50500
H  -1.82900 43.75500 22.34300
H  4.39800 45.01000 23.54100
H  1.53500 41.92900 30.88000
H  -1.16000 42.94000 30.58400
H  -1.75200 40.53700 31.24600
H  -0.00500 40.40500 31.04600
H  -1.12000 40.07100 29.70200
H  0.19500 44.54900 30.99900
H  1.90900 44.37900 31.28600
H  -0.28600 44.11000 33.19900
H  1.48200 43.88400 33.39900
H  -5.09600 41.01200 26.19600
H  -5.54300 42.67900 26.62400
H  -4.53400 41.59600 27.73200
H  -6.26500 42.59100 22.67700
H  -6.22200 43.29300 24.29500
H  -5.75000 41.58600 24.11300
H  0.04900 45.17800 21.28000
H  2.68500 44.14300 21.31800
H  -0.54100 43.10400 20.28100
H  1.03200 42.29300 20.85600
H  0.93500 43.65500 19.64500
H  1.99000 46.34500 20.74100
H  3.40900 46.25400 21.82700
H  0.75900 46.80800 23.15300
H  1.49000 48.15100 22.24500
H  2.42300 47.48100 23.50300
H  7.12900 44.47700 26.27600
H  6.52800 45.74400 25.29700
H  6.49100 44.03900 24.65200
H  4.06400 44.00300 30.46300
H  5.74400 40.21600 31.97500
H  3.92200 40.11400 31.96900
H  4.78900 41.04200 33.19900

