158

Mg 9.49300 3.51300 27.96400
C  10.61400 1.99100 31.06800
C  7.83700 5.72700 30.03300
C  7.94500 4.56800 25.25300
C  10.90800 0.82000 26.20700
N  9.18800 3.73100 30.41800
C  9.92700 3.15900 31.43100
C  9.61000 3.80500 32.82700
C  8.61100 4.91900 32.39500
C  8.46300 4.75900 30.83200
C  7.22300 5.03100 33.03500
C  10.91700 4.36300 33.55300
C  11.33500 3.51900 34.77200
H  11.56100 4.48000 35.95400
N  8.15600 4.95600 27.66400
C  7.61500 5.82400 28.58600
C  6.81000 6.81300 27.87100
C  6.79100 6.47200 26.49800
C  7.69400 5.39000 26.41400
C  5.91700 7.74800 28.58300
C  6.11600 7.19100 25.29100
O  6.12000 6.83900 24.15500
C  5.42100 8.47500 25.68700
N  9.41200 2.77400 26.03000
C  8.69100 3.39300 25.07800
C  8.78700 2.57900 23.71400
C  9.78200 1.51700 24.04600
C  10.03000 1.66300 25.56100
C  7.43400 2.14000 23.10300
C  11.05700 1.40100 23.16600
C  10.94700 0.85100 21.73300
N  10.59800 1.81500 28.46700
C  11.17800 0.84500 27.60800
C  11.88500 -0.13200 28.43700
C  11.68500 0.23800 29.81300
C  10.87300 1.40500 29.79800
C  12.59300 -1.42300 27.99700
C  12.01800 -0.04000 31.19800
O  12.72100 -0.89700 31.64600
C  11.33200 1.09500 32.06700
C  10.46400 0.55600 33.13700
O  9.24900 0.40600 33.06500
O  11.23000 0.27100 34.21500
C  10.53000 -0.27400 35.30700
H  7.26300 6.43200 30.63700
H  7.57400 4.92700 24.29000
H  11.40200 0.02400 25.64600
H  8.98900 3.30600 33.57100
H  9.08200 5.90100 32.41900
H  7.12900 4.74200 34.08200
H  6.52000 4.49000 32.40000
H  6.80900 6.02900 32.89300
H  10.87800 5.41500 33.83200
H  11.68100 4.22100 32.78800
H  12.22000 2.92500 34.54700
H  10.54700 2.82200 35.06000
H  4.91200 7.33700 28.48100
H  5.85300 8.76500 28.19400
H  6.02600 7.89100 29.65800
H  4.61500 8.23600 26.38100
H  4.80200 8.76800 24.83900
H  6.09600 9.27600 25.99100
H  9.22200 3.29000 23.01100
H  9.30400 0.53800 24.05300
H  6.78300 1.58300 23.77700
H  7.49900 1.59200 22.16300
H  6.90400 3.07600 22.93200
H  11.77400 0.75700 23.67600
H  11.42800 2.42500 23.13400
H  9.88200 0.84200 21.50200
H  11.31300 -0.17400 21.66800
H  11.58100 1.48300 21.11100
H  12.87600 -1.31200 26.95000
H  12.02500 -2.33100 28.19500
H  13.46700 -1.47400 28.64700
H  12.20300 1.64300 32.42500
H  9.69400 0.39800 35.50000
H  11.22300 -0.14300 36.13700
H  10.26500 -1.31800 35.13500
Mg 24.84800 -6.95200 48.06500
C  27.47300 -4.90400 46.80500
C  22.79200 -5.65900 45.48700
C  22.53800 -9.30700 48.83100
C  27.20200 -8.60300 49.78400
N  25.14900 -5.53100 46.27000
C  26.29900 -4.85300 45.98300
C  26.07800 -3.98300 44.77300
C  24.55000 -4.11600 44.41500
C  24.11000 -5.11600 45.46400
C  23.74600 -2.76100 44.33000
C  27.11500 -4.40700 43.59100
C  27.88700 -3.31000 42.92700
H  27.70100 -2.99100 41.45600
N  22.92700 -7.32100 47.40500
C  22.20400 -6.65600 46.39800
C  20.90200 -7.21100 46.28300
C  20.80400 -8.33900 47.18400
C  22.09300 -8.34500 47.92000
C  19.89600 -6.66100 45.35000
C  19.69400 -9.31600 47.30900
O  18.81800 -9.31200 46.49100
C  19.55100 -10.33000 48.38300
N  24.91500 -8.71000 49.10000
C  23.76400 -9.46700 49.38300
C  24.08700 -10.61500 50.28500
C  25.56400 -10.43700 50.68900
C  25.96100 -9.19400 49.82800
C  23.07900 -10.84000 51.45400
C  26.35400 -11.72200 50.27000
C  27.23200 -12.33900 51.35800
N  26.88400 -6.72600 48.47600
C  27.70300 -7.49500 49.17800
C  28.96900 -6.87000 49.30300
C  28.92600 -5.82600 48.41800
C  27.65300 -5.90600 47.74600
C  30.21900 -7.34100 50.03200
C  29.60400 -4.68400 47.88200
O  30.67900 -4.28800 48.28000
C  28.79300 -4.03900 46.70200
C  28.54500 -2.63400 46.91100
O  28.10000 -2.15100 47.96900
O  28.93600 -1.91500 45.81800
C  28.94200 -0.47200 45.90100
H  22.22800 -5.33000 44.61200
H  21.79900 -10.06800 49.09300
H  27.81500 -9.21500 50.44800
H  26.24700 -2.99100 45.19200
H  24.51900 -4.61900 43.44900
H  24.40100 -1.89200 44.39100
H  22.99400 -2.79900 45.11900
H  23.30500 -2.70700 43.33500
H  26.47200 -4.87000 42.84300
H  27.77300 -5.19300 43.96100
H  28.92600 -3.61400 43.05600
H  27.78900 -2.36400 43.46000
H  19.95300 -7.07900 44.34500
H  20.03400 -5.58000 45.36500
H  18.86200 -6.77300 45.67400
H  20.19000 -11.16900 48.11000
H  18.59800 -10.80300 48.14800
H  19.68800 -9.94800 49.39500
H  23.88300 -11.54700 49.75800
H  25.63000 -10.29600 51.76800
H  22.36700 -11.65800 51.34400
H  22.42000 -9.98100 51.58700
H  23.60900 -10.95500 52.39900
H  27.01500 -11.60200 49.41100
H  25.64100 -12.50700 50.01900
H  28.17800 -12.60900 50.88800
H  26.75900 -13.14300 51.92100
H  27.51000 -11.54100 52.04700
H  30.93600 -7.77800 49.33800
H  30.23000 -8.12600 50.78800
H  30.69900 -6.41300 50.34200
H  29.31900 -4.26500 45.77400
H  29.46800 0.04000 45.09600
H  29.25700 -0.14800 46.89200
H  27.90200 -0.15300 45.83100

