158

Mg -2.47400 16.98200 26.60800
C  -3.03200 14.73800 29.35100
C  -3.23700 19.64400 28.75800
C  -2.12000 19.04300 24.02500
C  -2.40400 14.26400 24.59000
N  -2.77500 17.23100 28.91700
C  -2.99500 16.09800 29.77900
C  -3.30500 16.62400 31.15300
C  -3.43800 18.23200 30.92900
C  -3.20200 18.37900 29.44100
C  -4.69200 19.07200 31.43300
C  -2.20400 16.06800 32.16300
C  -1.65600 16.88600 33.28200
H  -1.14800 16.23900 34.59300
N  -2.55900 19.03800 26.45400
C  -2.82000 19.96700 27.46600
C  -2.78900 21.25300 26.82900
C  -2.49300 21.11300 25.44300
C  -2.32600 19.68700 25.25600
C  -3.33100 22.40800 27.68500
C  -2.47300 22.20100 24.34700
O  -2.15800 22.04200 23.18000
C  -2.69300 23.65900 24.90900
N  -2.47500 16.71800 24.57000
C  -2.07600 17.74600 23.67600
C  -1.85900 17.21900 22.24400
C  -1.85300 15.68500 22.51000
C  -2.26100 15.51600 23.96900
C  -2.96300 17.69000 21.19900
C  -0.48500 15.03400 21.95100
C  -0.69300 14.10400 20.66900
N  -2.75000 14.92300 26.85500
C  -2.59200 13.93600 25.94000
C  -2.81400 12.63900 26.52700
C  -2.98900 12.89600 27.88600
C  -2.90500 14.29900 28.03200
C  -2.85300 11.31800 25.80500
C  -3.18100 12.27800 29.14800
O  -3.33500 11.11600 29.47700
C  -3.12800 13.45800 30.19100
C  -1.93700 13.20700 31.01400
O  -0.75800 13.22800 30.70700
O  -2.33100 12.89700 32.32700
C  -1.38900 12.53500 33.35900
H  -3.35100 20.49600 29.43100
H  -1.86700 19.67000 23.16800
H  -2.40500 13.42700 23.88900
H  -4.31000 16.24100 31.33400
H  -2.63000 18.70800 31.48400
H  -5.53800 18.41300 31.62800
H  -5.01600 19.83700 30.72700
H  -4.50200 19.61100 32.36100
H  -1.31600 15.60300 31.73600
H  -2.53000 15.19600 32.72900
H  -2.43800 17.56900 33.61300
H  -0.76900 17.34700 32.84700
H  -4.04600 22.98200 27.09600
H  -2.55400 23.12000 27.96400
H  -3.91800 22.12000 28.55700
H  -3.74100 23.71000 25.20700
H  -2.41700 24.31000 24.08000
H  -2.00400 23.87100 25.72600
H  -0.96500 17.80500 22.03000
H  -2.66400 15.15900 22.00700
H  -3.96900 17.33400 21.42400
H  -2.69600 17.37800 20.19000
H  -3.15800 18.76200 21.15900
H  -0.08900 14.43500 22.77100
H  0.25100 15.79800 21.69900
H  -1.71600 14.09100 20.29300
H  -0.53100 13.08900 21.03000
H  -0.04500 14.26100 19.80700
H  -1.84100 11.10100 25.46200
H  -3.53600 11.17100 24.96900
H  -3.12500 10.59600 26.57500
H  -3.92600 13.42000 30.93200
H  -1.51100 12.99900 34.33800
H  -0.38000 12.78800 33.03200
H  -1.53800 11.46000 33.46700
Mg 1.45000 42.13700 26.18000
C  3.52400 42.19000 28.90900
C  -1.13400 41.48700 28.37100
C  -0.56100 41.31800 23.48500
C  4.08400 42.66600 24.12600
N  1.25700 41.85300 28.36100
C  2.22200 42.10100 29.29100
C  1.63300 42.18000 30.67100
C  0.17100 41.57600 30.54400
C  0.05400 41.67800 29.00200
C  -0.02100 40.17900 31.16400
C  1.63800 43.60500 31.22300
C  1.26400 43.73500 32.69400
H  1.19000 42.52900 33.66500
N  -0.45500 41.54200 25.95800
C  -1.36200 41.34500 27.00100
C  -2.64200 40.82400 26.55700
C  -2.40300 40.53300 25.16400
C  -1.08700 41.14100 24.78500
C  -3.71800 40.48400 27.51600
C  -3.19400 39.65300 24.20500
O  -2.76500 39.43700 23.06400
C  -4.41900 38.91100 24.69500
N  1.73100 41.96100 24.05000
C  0.77400 41.66200 23.19100
C  1.41600 41.67800 21.66600
C  2.74400 42.44200 21.97900
C  2.87200 42.40700 23.47300
C  1.28800 40.38200 20.95600
C  2.81200 43.93500 21.57300
C  4.12800 44.37500 20.88700
N  3.44000 42.23800 26.34500
C  4.43800 42.46000 25.40900
C  5.67700 42.52500 26.03500
C  5.35300 42.38800 27.44200
C  4.00600 42.23600 27.56800
C  6.95900 42.85000 25.46600
C  5.92000 42.39100 28.81500
O  7.07900 42.35000 29.17700
C  4.75000 42.35300 29.73100
C  4.88500 41.10300 30.51400
O  4.99700 39.96100 30.10700
O  4.93700 41.42400 31.90100
C  4.98700 40.29700 32.76500
H  -1.94700 41.24000 29.05600
H  -1.18400 40.97600 22.65600
H  4.89600 42.99200 23.47200
H  2.35900 41.60300 31.24400
H  -0.61000 42.18000 31.00500
H  -0.46600 40.46400 32.11800
H  0.96000 39.72900 31.31600
H  -0.50200 39.48200 30.47800
H  0.86700 44.16400 30.69300
H  2.55000 44.15000 30.98000
H  0.28700 44.21500 32.65700
H  2.06800 44.29900 33.16800
H  -4.70400 40.47500 27.05200
H  -3.79100 41.24100 28.29800
H  -3.52900 39.51500 27.97900
H  -4.11100 38.30600 25.54800
H  -4.80700 38.25600 23.91500
H  -5.12800 39.66000 25.04600
H  0.80500 42.34900 21.06300
H  3.65600 41.96000 21.62600
H  0.82500 39.69200 21.66200
H  2.21400 39.98800 20.53800
H  0.85400 40.57200 19.97400
H  2.81100 44.60500 22.43400
H  2.01000 44.13300 20.86200
H  4.69100 43.60100 20.36500
H  4.87100 44.80200 21.56100
H  3.87000 45.11600 20.13200
H  7.18000 42.03600 24.77700
H  7.72000 42.86500 26.24600
H  6.94600 43.82000 24.96800
H  4.81000 43.18000 30.43800
H  5.73900 39.56900 32.46100
H  4.04000 39.79100 32.57700
H  4.96300 40.52100 33.83200

