158

Mg 45.54600 4.95800 48.24600
C  43.89500 7.74600 47.10600
C  42.77200 3.13600 47.26600
C  47.38000 2.11900 48.71100
C  48.43700 6.79300 48.65700
N  43.52500 5.44800 47.30400
C  43.01500 6.67400 46.97200
C  41.60800 6.57700 46.39000
C  41.21600 5.08900 46.76100
C  42.63400 4.51700 47.05000
C  40.15500 5.00900 47.90100
C  41.64200 7.02700 44.85300
C  40.74100 8.23800 44.31900
H  39.71900 7.97300 43.17400
N  45.15600 2.92900 48.09100
C  43.94100 2.35800 47.60700
C  44.03500 0.94200 47.78900
C  45.31900 0.60300 48.05300
C  46.06900 1.89300 48.27800
C  42.82100 0.08600 47.56800
C  45.89900 -0.81700 48.01000
O  45.16000 -1.80700 47.81500
C  47.31100 -1.08800 48.20200
N  47.65000 4.55000 48.43700
C  48.14600 3.33600 48.76800
C  49.62900 3.32600 49.18300
C  50.01300 4.78700 48.84600
C  48.60500 5.45900 48.58800
C  49.89300 2.87400 50.71300
C  50.92200 5.10200 47.64100
C  52.35300 4.33000 47.60000
N  46.08700 6.82900 47.94600
C  47.26700 7.47400 48.30500
C  47.10500 8.87700 48.26300
C  45.79500 9.02800 47.79000
C  45.22200 7.77100 47.64000
C  48.18900 9.93300 48.44000
C  44.84100 10.07000 47.34800
O  44.99000 11.27300 47.29100
C  43.57300 9.22100 46.78700
C  42.25500 9.71000 47.26800
O  41.55600 9.33300 48.22700
O  41.93400 10.74800 46.36000
C  40.55800 11.22600 46.74300
H  41.87900 2.56800 46.99400
H  47.87800 1.17800 48.95400
H  49.39600 7.29300 48.81000
H  40.92900 7.19300 46.98000
H  40.76400 4.59600 45.90000
H  39.95400 5.92900 48.45000
H  40.53500 4.27900 48.61700
H  39.30200 4.55700 47.39600
H  41.24600 6.13300 44.37100
H  42.58900 7.28000 44.37700
H  41.51700 8.93700 44.00600
H  40.15800 8.65200 45.14200
H  42.76500 -0.70700 48.31300
H  42.96800 -0.35800 46.58300
H  41.86200 0.58700 47.44100
H  47.47600 -1.88300 47.47500
H  47.63600 -1.24100 49.23000
H  47.84500 -0.28300 47.69600
H  50.27700 2.72000 48.55100
H  50.50700 5.18200 49.73400
H  50.86900 3.20000 51.07100
H  49.87600 1.78500 50.74900
H  49.20400 3.38500 51.38700
H  51.16600 6.14200 47.85800
H  50.32100 5.05700 46.73200
H  52.54400 3.57400 48.36200
H  53.06700 5.14700 47.70500
H  52.47800 3.83800 46.63500
H  49.16200 9.48200 48.63500
H  47.93000 10.64100 49.22700
H  48.28100 10.40100 47.46000
H  43.57700 9.21700 45.69700
H  40.76700 11.82100 47.63300
H  39.83800 10.40800 46.77300
H  40.10400 11.91300 46.02800
Mg 41.70400 9.36200 29.98600
C  43.43500 10.61000 32.81700
C  39.36300 8.16300 32.03900
C  40.27000 8.25500 27.27200
C  44.54900 10.24800 28.00900
N  41.50600 9.30800 32.19300
C  42.27100 9.93300 33.17100
C  41.66000 9.78800 34.56800
C  40.44700 8.78700 34.33700
C  40.42600 8.63300 32.77900
C  40.61100 7.42300 35.13100
C  41.31100 11.19500 35.27100
C  40.43700 11.10300 36.44000
H  40.78200 11.95800 37.60900
N  39.98400 8.33000 29.68400
C  39.12100 7.96700 30.60600
C  37.95200 7.46500 29.91200
C  38.17400 7.41300 28.50200
C  39.51500 8.00400 28.40900
C  36.71400 7.03000 30.65800
C  37.33600 6.97600 27.35900
O  37.69400 7.13500 26.17900
C  35.99000 6.50000 27.55300
N  42.37900 9.03500 27.99700
C  41.55600 8.62500 27.04900
C  42.14500 8.77000 25.66300
C  43.49600 9.32100 25.91100
C  43.53300 9.51900 27.42900
C  42.19100 7.39300 24.84600
C  43.83800 10.57400 25.13600
C  43.24300 11.92900 25.59200
N  43.58500 10.24400 30.26100
C  44.62100 10.54800 29.36000
C  45.58800 11.29900 30.00800
C  45.22600 11.25700 31.35900
C  44.00000 10.61800 31.48700
C  46.80400 11.88200 29.39300
C  45.58900 11.77700 32.62500
O  46.61600 12.30800 32.94900
C  44.43800 11.39500 33.63400
C  45.10900 10.79300 34.80600
O  45.81700 9.79700 34.73100
O  44.52800 11.23200 36.04100
C  44.88100 10.44400 37.30100
H  38.51900 7.96600 32.70400
H  39.62000 8.15800 26.39900
H  45.37000 10.65600 27.41700
H  42.44400 9.34400 35.18100
H  39.47100 9.18800 34.60900
H  41.59700 7.40900 35.59500
H  40.48900 6.62600 34.39800
H  39.86000 7.25400 35.90200
H  40.97000 11.95900 34.57300
H  42.22400 11.62700 35.68100
H  40.35600 10.06400 36.75700
H  39.43700 11.35900 36.09100
H  36.82900 7.11900 31.73800
H  36.56300 5.99800 30.34100
H  35.82900 7.52900 30.26600
H  35.45600 6.55000 26.60400
H  35.42400 7.12300 28.24600
H  35.90500 5.47400 27.91400
H  41.52800 9.50700 25.14800
H  44.28400 8.60000 25.69100
H  41.63400 6.61800 25.37300
H  43.21000 7.04100 24.68800
H  41.61100 7.61800 23.95100
H  43.95900 10.34300 24.07700
H  44.91500 10.71500 25.22300
H  42.21400 11.94100 25.95100
H  43.26700 12.58600 24.72200
H  43.79600 12.28100 26.46200
H  46.49800 12.66300 28.69700
H  47.40100 11.07500 28.97000
H  47.34800 12.35300 30.21200
H  44.01800 12.34400 33.96800
H  44.40800 10.80100 38.21600
H  45.95300 10.55900 37.46200
H  44.61600 9.39500 37.17000

