158

Mg 49.26900 44.76600 43.07800
C  45.92900 45.57000 42.11700
C  48.89200 41.64000 41.75100
C  52.61500 44.43700 43.37800
C  49.52400 48.19500 44.03000
N  47.62700 43.86900 41.92300
C  46.38500 44.36400 41.64100
C  45.51400 43.36900 40.79500
C  46.45000 42.05900 40.77100
C  47.73800 42.49000 41.60400
C  45.85800 40.77400 41.43100
C  45.17000 44.03800 39.41200
C  43.71600 43.73100 39.01000
H  43.55700 42.69700 37.85200
N  50.61100 43.19800 42.65700
C  50.21300 41.98000 42.14500
C  51.40400 41.16400 42.00900
C  52.50800 41.96000 42.39500
C  51.96800 43.26900 42.85800
C  51.40500 39.66000 41.69000
C  53.99900 41.65300 42.33500
O  54.37700 40.57900 41.83000
C  55.15000 42.54300 42.92300
N  50.79900 46.04300 43.75300
C  52.14700 45.69600 43.71200
C  53.11700 46.84000 44.15700
C  52.11900 47.89200 44.55500
C  50.71800 47.37500 44.05500
C  54.27900 46.41700 45.05000
C  52.34800 49.35700 44.09800
C  52.11300 50.54200 45.03700
N  48.06400 46.51000 43.23600
C  48.26200 47.82900 43.61200
C  47.11300 48.64600 43.45200
C  46.14700 47.78100 42.95300
C  46.75200 46.49700 42.83200
C  46.85900 50.06300 43.92000
C  44.77800 47.71700 42.55500
O  43.92500 48.55200 42.70600
C  44.58200 46.26100 42.01900
C  43.40400 45.56100 42.64400
O  43.41400 44.87900 43.66800
O  42.33600 45.92700 41.90500
C  41.10400 45.32600 42.39700
H  48.70000 40.64800 41.33700
H  53.70700 44.40800 43.40800
H  49.59400 49.26400 44.24600
H  44.59300 43.10300 41.31400
H  46.62400 41.83800 39.71800
H  45.46500 40.04800 40.71900
H  45.05800 41.11700 42.08700
H  46.45300 40.27400 42.19500
H  45.81900 43.52100 38.70500
H  45.48900 45.08000 39.40400
H  43.24400 44.64300 38.64500
H  43.05600 43.50100 39.84700
H  51.72000 39.40100 40.67900
H  50.34100 39.42700 41.64800
H  51.93000 39.12700 42.48200
H  54.95900 42.90700 43.93300
H  55.46700 43.35000 42.26300
H  56.03100 41.93000 43.11300
H  53.51400 47.14900 43.19000
H  52.23900 47.96600 45.63600
H  54.35400 45.33000 45.07900
H  54.16500 46.72000 46.09100
H  55.18900 46.79900 44.58700
H  51.74300 49.49500 43.20200
H  53.41500 49.29500 43.88100
H  51.79900 50.17700 46.01400
H  51.23900 51.10100 44.70300
H  52.96900 51.17100 45.28000
H  47.34500 50.19000 44.88700
H  45.77300 50.11000 43.99800
H  47.24900 50.78800 43.20600
H  44.24300 46.45500 41.00200
H  40.72800 45.99500 43.17000
H  41.32300 44.32800 42.77400
H  40.38400 45.12300 41.60500
Mg 5.60800 54.59200 39.79700
C  4.21200 51.25900 39.80100
C  8.60100 53.16500 39.30200
C  6.66800 57.67300 39.28800
C  2.24500 55.83900 39.93700
N  6.23000 52.44200 39.62100
C  5.54100 51.22000 39.62200
C  6.47300 50.10400 39.52300
C  7.84700 50.74900 39.90700
C  7.55300 52.22800 39.56600
C  8.20700 50.48900 41.35600
C  6.57900 49.34800 38.14700
C  6.49900 50.26300 36.90700
H  5.23600 49.98200 36.06900
N  7.41500 55.34900 39.36600
C  8.51900 54.58000 39.18200
C  9.60400 55.51100 38.88600
C  9.14800 56.88000 38.87800
C  7.72100 56.72300 39.26400
C  11.02800 55.07400 38.67200
C  9.94400 58.17400 38.80400
O  11.14400 58.09700 38.67300
C  9.28200 59.52300 38.71000
N  4.62800 56.49300 39.89200
C  5.34600 57.57900 39.56000
C  4.35700 58.78200 39.41900
C  2.93200 58.23200 39.65400
C  3.27200 56.74800 39.91800
C  4.80700 60.09300 40.03400
C  1.88300 58.58900 38.61300
C  0.44000 58.90000 39.11900
N  3.70500 53.81900 39.95200
C  2.42200 54.43900 40.02200
C  1.36400 53.43400 40.32900
C  2.05200 52.18600 40.24300
C  3.41400 52.46900 39.98100
C  -0.13600 53.55700 40.48600
C  1.89500 50.76400 40.29500
O  0.86200 50.13100 40.50900
C  3.21000 50.13500 40.00200
C  3.01200 49.13400 38.95800
O  2.46000 49.38200 37.84900
O  3.42900 47.88400 39.42300
C  3.40100 46.75500 38.45700
H  9.61800 52.83400 39.51900
H  7.07000 58.64700 39.00300
H  1.23400 56.24000 40.02500
H  6.18100 49.34300 40.24600
H  8.58900 50.23200 39.29800
H  9.11600 49.88800 41.37400
H  7.47500 49.92400 41.93300
H  8.56300 51.36700 41.89500
H  5.80800 48.57900 38.10100
H  7.53000 48.81900 38.20800
H  7.32700 50.10400 36.21600
H  6.56900 51.30400 37.22100
H  11.22500 54.03000 38.91600
H  11.61500 55.69300 39.35100
H  11.40000 55.19600 37.65500
H  10.14700 60.18700 38.72600
H  8.61400 59.79900 39.52600
H  8.70000 59.55600 37.79000
H  4.29000 58.93900 38.34300
H  2.62200 58.56600 40.64500
H  3.96000 60.77600 40.10600
H  5.63000 60.62000 39.55100
H  5.23500 59.79500 40.99100
H  1.88100 57.63600 38.08500
H  2.18300 59.35000 37.89200
H  -0.07100 59.25500 38.22400
H  0.34900 59.51500 40.01400
H  -0.04400 57.98500 39.46000
H  -0.53400 53.16200 41.42100
H  -0.68500 53.08200 39.67300
H  -0.36800 54.62000 40.54000
H  3.50100 49.62600 40.92000
H  2.49300 46.16600 38.58800
H  4.35400 46.25300 38.62000
H  3.50900 47.10400 37.43000

