158

Mg 43.35900 4.14600 47.60700
C  41.43200 7.07000 47.55300
C  40.41700 2.39300 47.22300
C  45.10200 1.49700 47.11000
C  46.24200 6.23800 47.00400
N  41.14500 4.62600 47.37100
C  40.62200 5.90300 47.45700
C  39.06000 5.81500 47.34100
C  38.75100 4.27700 47.51000
C  40.18400 3.72200 47.32800
C  38.24800 3.73800 48.83800
C  38.51700 6.50000 46.05800
C  39.47800 6.48600 44.88900
H  38.92400 6.85600 43.52400
N  42.83000 2.15700 47.44600
C  41.60200 1.62200 47.35200
C  41.62500 0.17400 47.28700
C  43.04600 -0.16300 47.24300
C  43.74100 1.16400 47.31500
C  40.45500 -0.77800 47.31200
C  43.70600 -1.57500 46.98200
O  43.02300 -2.60400 46.80800
C  45.17800 -1.74600 46.88800
N  45.32200 3.92300 47.17700
C  45.84300 2.70700 47.02500
C  47.40400 2.64100 47.11200
C  47.68200 4.14700 47.06400
C  46.35600 4.86700 47.03600
C  48.04000 1.99500 48.36800
C  48.66900 4.72400 45.96000
C  49.86800 5.36900 46.65600
N  43.80600 6.22900 47.38000
C  45.00200 6.92300 47.20800
C  44.72300 8.39900 47.15800
C  43.35700 8.43700 47.43400
C  42.87100 7.15300 47.49000
C  45.72300 9.46900 46.91300
C  42.25800 9.41700 47.62100
O  42.18300 10.62800 47.65700
C  40.98500 8.46800 47.62200
C  40.09400 8.71400 48.86000
O  40.15000 8.10200 49.88000
O  39.14300 9.66200 48.50300
C  38.16400 10.04200 49.54200
H  39.48800 1.82400 47.29300
H  45.91400 0.77000 47.18100
H  47.14100 6.85800 47.01900
H  38.59700 6.37500 48.15300
H  38.22100 3.82300 46.67300
H  39.07400 3.40800 49.46800
H  37.53400 2.94000 48.63500
H  37.80700 4.54800 49.41800
H  38.30100 7.51300 46.39900
H  37.63300 5.98400 45.68200
H  40.01700 5.53900 44.85900
H  40.26800 7.22100 45.04700
H  40.21000 -1.09000 46.29700
H  39.63700 -0.24900 47.80200
H  40.63700 -1.66900 47.91400
H  45.72700 -1.49100 47.79400
H  45.46000 -1.15800 46.01400
H  45.28800 -2.80700 46.66300
H  47.75600 2.17600 46.19100
H  48.08200 4.37600 48.05200
H  47.53700 2.17500 49.31900
H  49.07500 2.31000 48.49800
H  48.15900 0.91400 48.28800
H  48.14900 5.37000 45.25400
H  48.93200 3.85700 45.35400
H  50.16300 4.76900 47.51800
H  49.64600 6.37800 47.00200
H  50.72600 5.34700 45.98400
H  45.30100 10.30600 46.35600
H  46.59500 9.22500 46.30600
H  46.06900 9.79600 47.89400
H  40.50900 8.81500 46.70500
H  38.48400 10.10400 50.58200
H  37.37700 9.28800 49.56400
H  37.78400 10.99500 49.17300
Mg 46.89700 16.31900 28.25400
C  45.03100 15.85200 31.16800
C  49.23800 17.99200 30.02200
C  48.30600 17.26500 25.30400
C  44.37900 14.69300 26.58200
N  46.99400 16.94400 30.34300
C  46.24800 16.51500 31.38700
C  46.89900 16.82900 32.76100
C  48.18200 17.71600 32.33700
C  48.14100 17.48800 30.82300
C  48.02400 19.18900 32.74500
C  47.15100 15.52600 33.60900
C  46.75300 15.53200 35.16900
H  46.34300 16.84600 35.85300
N  48.51100 17.48500 27.71500
C  49.43600 18.01400 28.62800
C  50.56300 18.59800 27.92800
C  50.30700 18.47900 26.58500
C  48.98200 17.73800 26.46900
C  51.61100 19.38000 28.72900
C  51.23100 18.88300 25.38700
O  50.92900 18.61400 24.20700
C  52.60100 19.52900 25.59200
N  46.39200 16.10100 26.26600
C  47.16000 16.53300 25.17600
C  46.64700 15.91200 23.86000
C  45.29500 15.34800 24.30900
C  45.38900 15.32200 25.82800
C  46.61100 16.92300 22.66400
C  44.96100 13.97500 23.75100
C  45.65100 12.72400 24.22100
N  45.09100 15.34200 28.71900
C  44.19000 14.68400 27.92800
C  43.04900 14.27500 28.70400
C  43.39900 14.64800 30.00500
C  44.59800 15.33400 29.96300
C  41.93400 13.60200 28.24900
C  42.93300 14.64800 31.36200
O  41.82500 14.22400 31.72900
C  43.98600 15.41300 32.13100
C  43.36600 16.54500 32.85900
O  43.36700 17.69100 32.46000
O  42.95100 16.14100 34.09800
C  42.29900 17.16500 34.96700
H  50.11700 18.26700 30.60900
H  48.76700 17.33400 24.31600
H  43.61500 14.17900 25.99500
H  46.12900 17.44800 33.22100
H  49.10700 17.35300 32.78600
H  46.99800 19.42000 33.03500
H  48.32700 19.93900 32.01400
H  48.70000 19.35000 33.58500
H  48.21300 15.29100 33.54400
H  46.65000 14.70700 33.09200
H  47.57400 15.05400 35.70300
H  45.86400 14.92500 35.34000
H  52.36600 19.85500 28.10200
H  52.08800 18.71300 29.44700
H  51.08300 20.19400 29.22600
H  53.28200 18.88200 26.14500
H  52.62800 20.40000 26.24700
H  53.02000 19.71000 24.60200
H  47.30000 15.09400 23.55300
H  44.50300 16.05500 24.06100
H  47.48600 16.67600 22.06300
H  46.69400 17.97500 22.93700
H  45.66600 16.75900 22.14600
H  45.03400 14.02800 22.66500
H  43.90300 13.85600 23.98300
H  45.35300 12.44600 25.23200
H  46.72600 12.90100 24.23600
H  45.46300 11.95700 23.46900
H  41.84700 13.79000 27.17900
H  41.07700 14.08400 28.71900
H  41.97000 12.57100 28.60100
H  44.37400 14.70500 32.86300
H  42.78000 18.14200 34.92100
H  42.04300 16.75400 35.94300
H  41.36300 17.31600 34.42900

