158

Mg 0.84600 42.38000 25.21700
C  2.08900 43.05000 28.47300
C  -2.13100 41.38700 26.68800
C  -0.12500 41.65000 22.20500
C  4.20200 42.91700 24.08300
N  0.11200 42.23900 27.26500
C  0.72300 42.69800 28.45200
C  -0.11400 42.42000 29.66400
C  -1.49000 41.84500 29.06400
C  -1.16400 41.85700 27.55900
C  -1.92800 40.41400 29.53800
C  -0.25600 43.67800 30.48000
C  0.25200 43.70600 31.92400
H  -0.70400 43.10200 32.95600
N  -0.88200 41.66200 24.51200
C  -1.98100 41.23400 25.28300
C  -2.92900 40.66000 24.36000
C  -2.39100 40.85300 23.01600
C  -1.09900 41.42200 23.21500
C  -4.23400 40.20300 24.76900
C  -3.01700 40.55700 21.55700
O  -2.46700 40.90100 20.51400
C  -4.29000 39.81200 21.45600
N  1.89200 42.38700 23.51000
C  1.26100 41.93000 22.35400
C  2.20100 41.75700 21.12400
C  3.57400 42.19700 21.73400
C  3.20400 42.57400 23.17300
C  2.04400 40.20500 20.63600
C  4.29200 43.30100 21.06600
C  3.69600 44.74400 21.28900
N  2.77800 43.02900 26.05800
C  4.01700 43.16700 25.48900
C  4.99800 43.49200 26.45200
C  4.24600 43.41600 27.60000
C  2.94200 43.15800 27.36300
C  6.47600 43.58100 26.26600
C  4.40000 43.41700 28.96900
O  5.46000 43.53400 29.54300
C  3.00200 43.16000 29.70000
C  3.18800 41.92200 30.51400
O  2.84900 40.75200 30.26500
O  3.88600 42.20700 31.62800
C  3.87800 41.13300 32.57900
H  -3.04900 41.00200 27.13800
H  -0.39300 41.36300 21.18600
H  5.15400 43.08600 23.57600
H  0.42100 41.70200 30.28500
H  -2.34500 42.51500 29.15800
H  -2.20700 39.75500 28.71500
H  -2.77700 40.45500 30.22000
H  -1.16400 40.06400 30.23200
H  -1.30600 43.95500 30.57200
H  0.39400 44.44400 30.05800
H  0.55600 44.71200 32.21400
H  1.17000 43.15000 32.11700
H  -4.31200 40.24100 25.85500
H  -4.26600 39.13000 24.57900
H  -5.02000 40.81800 24.33000
H  -4.27600 39.52500 20.40400
H  -5.08000 40.51700 21.71500
H  -4.25000 38.94700 22.11800
H  1.89400 42.52800 20.41700
H  4.07200 41.22900 21.68500
H  2.97600 39.63900 20.66700
H  1.83300 40.16000 19.56800
H  1.31500 39.74500 21.30400
H  4.21900 43.16600 19.98700
H  5.36100 43.39300 21.25900
H  3.24700 45.07800 20.35400
H  4.51300 45.37900 21.63100
H  2.94500 44.69300 22.07800
H  6.66600 44.10000 25.32600
H  6.83100 42.57900 26.02400
H  6.92300 44.06500 27.13400
H  2.86700 44.04100 30.32700
H  4.46200 41.50500 33.42100
H  4.38600 40.31400 32.07100
H  2.83500 40.99000 32.86500
Mg -1.77900 34.27800 26.46600
C  -3.92800 32.77000 28.94300
C  -0.86200 36.48200 28.88300
C  -0.42100 36.08700 24.12800
C  -3.58800 32.49800 24.05000
N  -2.43100 34.62200 28.60700
C  -3.15300 33.81300 29.41900
C  -2.94300 34.20400 30.90600
C  -2.16700 35.56000 30.80800
C  -1.79100 35.58800 29.38100
C  -2.89600 36.83700 31.24500
C  -2.23600 33.09600 31.85600
C  -2.84500 32.66400 33.23100
H  -1.99500 32.39900 34.42600
N  -0.67400 36.07300 26.46800
C  -0.39100 36.77400 27.55800
C  0.62200 37.82400 27.16700
C  0.81200 37.65200 25.74600
C  -0.10800 36.59000 25.37900
C  1.18200 38.85500 28.06200
C  1.62200 38.46100 24.82700
O  1.57000 38.36600 23.56500
C  2.60200 39.46900 25.26900
N  -2.16000 34.44600 24.41200
C  -1.26300 35.15300 23.62600
C  -1.30700 34.77400 22.11600
C  -2.44400 33.72600 22.04500
C  -2.81900 33.58400 23.58100
C  -1.37700 35.94500 21.10400
C  -2.06300 32.40800 21.35700
C  -3.19900 31.74300 20.49200
N  -3.28500 32.76400 26.44600
C  -3.91200 32.11800 25.38500
C  -4.83800 31.17300 25.89600
C  -4.86000 31.39500 27.31600
C  -3.92900 32.39000 27.57700
C  -5.52700 30.15900 25.00700
C  -5.41900 30.85700 28.56200
O  -6.18000 29.92700 28.72000
C  -4.77200 31.75300 29.68900
C  -5.96500 32.21000 30.49000
O  -6.70000 33.14300 30.17900
O  -5.97300 31.56000 31.72000
C  -6.94600 32.15400 32.70500
H  -0.36800 37.08800 29.64500
H  0.18500 36.46300 23.30100
H  -4.02700 31.79900 23.33500
H  -3.87400 34.52800 31.37200
H  -1.30500 35.48600 31.47100
H  -3.94500 36.70900 31.51000
H  -2.86100 37.61900 30.48700
H  -2.49600 37.28900 32.15200
H  -1.24000 33.44900 32.12200
H  -2.14500 32.13600 31.35000
H  -3.50800 31.80100 33.17000
H  -3.62700 33.39000 33.45600
H  2.27000 38.78400 28.07900
H  0.75300 38.67500 29.04700
H  0.98100 39.90200 27.83700
H  3.11300 40.04400 24.49700
H  3.30700 38.73400 25.65900
H  2.09300 40.17300 25.92700
H  -0.37000 34.28100 21.85900
H  -3.27100 34.20100 21.51700
H  -1.37700 36.91700 21.59700
H  -2.28400 35.97200 20.50100
H  -0.48800 36.02700 20.47800
H  -1.88200 31.62900 22.09700
H  -1.21600 32.53000 20.68200
H  -3.83500 32.43600 19.94100
H  -3.84000 31.18400 21.17300
H  -2.65800 31.09200 19.80500
H  -6.53800 30.53400 24.84700
H  -5.52600 29.23400 25.58400
H  -5.12100 30.01900 24.00500
H  -4.17800 31.24200 30.44700
H  -6.62700 33.16700 32.95000
H  -6.88700 31.71600 33.70200
H  -7.96500 32.10200 32.32300

