158

Mg 0.97500 7.79300 25.22600
C  1.51500 9.68400 28.24400
C  1.40400 4.98700 27.25500
C  0.89400 5.93400 22.41100
C  1.16200 10.73600 23.43400
N  1.51600 7.41400 27.50000
C  1.57400 8.29400 28.51000
C  1.74100 7.65400 29.92000
C  1.73800 6.11000 29.57300
C  1.59700 6.12900 28.02100
C  3.07700 5.41900 29.95000
C  0.53100 7.97100 30.94300
C  1.00200 8.27300 32.46500
H  2.15500 7.50100 32.97000
N  1.05300 5.72400 24.87700
C  1.13700 4.79500 25.88800
C  0.86500 3.50700 25.27900
C  0.63300 3.72700 23.87400
C  0.84300 5.12900 23.61600
C  0.60100 2.22600 26.10400
C  0.23300 2.82200 22.77000
O  -0.03500 3.21400 21.62300
C  0.03400 1.32300 22.92500
N  1.22200 8.24300 23.18900
C  1.07700 7.31000 22.18400
C  0.82100 8.02700 20.83100
C  1.09700 9.51000 21.13900
C  1.12300 9.55100 22.66300
C  1.44500 7.40800 19.54100
C  0.10000 10.44300 20.45800
C  -1.27800 10.66400 21.24200
N  1.33600 9.81800 25.63300
C  1.28300 10.90300 24.80300
C  1.44300 12.14200 25.54600
C  1.50600 11.67300 26.90800
C  1.34700 10.26900 26.91600
C  1.76200 13.49700 24.94300
C  1.82800 12.12400 28.25000
O  2.08100 13.20900 28.66200
C  1.67700 10.81000 29.15000
C  2.78200 10.81600 30.09100
O  3.88500 10.23400 29.92100
O  2.43300 11.44200 31.25800
C  3.49900 11.48600 32.25100
H  1.50000 4.09900 27.88300
H  0.75400 5.47500 21.43000
H  1.03200 11.67500 22.89100
H  2.74200 7.95900 30.22500
H  0.83400 5.67200 29.99600
H  3.14300 5.75900 30.98300
H  3.98900 5.67900 29.41200
H  3.09700 4.33000 29.90600
H  -0.28600 7.26200 30.80900
H  0.16800 8.90500 30.51500
H  0.13800 7.93000 33.03400
H  1.10500 9.35300 32.57500
H  -0.46600 2.00200 26.11000
H  0.71900 2.48500 27.15700
H  1.14400 1.35200 25.74600
H  0.80700 0.91200 23.57500
H  0.02800 0.82100 21.95700
H  -0.87400 1.16000 23.50600
H  -0.24400 7.95700 20.61100
H  2.07100 9.81600 20.75800
H  2.15400 6.62500 19.80800
H  1.94200 8.15800 18.92500
H  0.70100 6.90200 18.92500
H  -0.18500 10.25200 19.42400
H  0.52900 11.44300 20.52400
H  -2.06900 11.12600 20.65100
H  -1.23200 11.41400 22.03200
H  -1.60600 9.75000 21.73700
H  2.71700 13.33600 24.44300
H  2.04400 14.07300 25.82500
H  0.85700 13.79900 24.41700
H  0.83600 10.93900 29.83200
H  3.95400 10.51900 32.46600
H  3.08500 11.82000 33.20300
H  4.31900 12.10900 31.89300
Mg 46.91300 24.53100 28.42600
C  47.48900 26.82900 31.15800
C  46.12400 22.16800 30.68500
C  46.57100 22.38600 25.78800
C  48.76400 26.68900 26.40900
N  46.91800 24.55100 30.66600
C  46.96300 25.57000 31.54300
C  46.50500 25.18400 32.98800
C  46.32100 23.63800 32.78400
C  46.55500 23.38100 31.29900
C  47.17600 22.80600 33.84500
C  45.26400 26.05900 33.48900
C  45.44900 26.69800 34.88900
H  46.19600 25.93600 35.99300
N  46.31100 22.65600 28.26400
C  46.01000 21.85800 29.30900
C  45.66600 20.52900 28.77700
C  45.65300 20.54500 27.37400
C  46.19900 21.89500 27.03900
C  45.43500 19.29900 29.67400
C  45.20400 19.56200 26.36600
O  45.31700 19.68300 25.12500
C  44.54400 18.39700 26.81300
N  47.61500 24.50800 26.39900
C  47.31400 23.55300 25.48100
C  47.80500 23.87400 24.03300
C  48.57500 25.18200 24.35500
C  48.26600 25.55000 25.83100
C  48.72000 22.74800 23.51000
C  48.24900 26.26100 23.27600
C  46.86100 26.92300 23.30200
N  47.97700 26.28500 28.65900
C  48.66500 27.09800 27.74900
C  49.13100 28.32500 28.32000
C  48.53800 28.26200 29.59600
C  47.95200 27.03100 29.82400
C  49.92500 29.48400 27.68300
C  48.37500 29.02200 30.77100
O  48.77100 30.23900 30.89100
C  47.70800 28.12700 31.89000
C  48.65400 27.92500 33.02100
O  49.65600 27.27100 33.02400
O  48.17000 28.72800 34.05100
C  49.00300 28.75000 35.27000
H  45.68800 21.47400 31.40600
H  46.36900 21.66900 24.98900
H  49.37300 27.29900 25.73800
H  47.40200 25.27800 33.60000
H  45.28700 23.33600 32.95400
H  48.10900 22.40500 33.44800
H  46.56500 22.01900 34.28700
H  47.36700 23.40300 34.73700
H  44.35200 25.46600 33.55500
H  45.11600 26.86500 32.77000
H  44.42800 26.80400 35.25500
H  45.83900 27.71500 34.87300
H  44.42400 18.93300 29.49700
H  45.56600 19.40700 30.75000
H  46.06800 18.50800 29.27200
H  43.77300 18.65200 27.54100
H  45.23900 17.68900 27.26400
H  43.99800 17.95100 25.98200
H  46.93900 24.15100 23.43200
H  49.65700 25.07600 24.27200
H  48.24400 22.27600 22.65100
H  48.98300 22.16800 24.39500
H  49.64800 23.15200 23.10500
H  48.51500 25.76000 22.34500
H  49.03100 27.01900 23.30400
H  46.94100 27.99900 23.45800
H  46.27200 26.45500 24.09100
H  46.28300 26.68000 22.41000
H  50.12300 29.28500 26.62900
H  50.83600 29.70700 28.23700
H  49.19900 30.29600 27.71900
H  46.81700 28.67300 32.20300
H  48.48700 28.52100 36.20200
H  49.37100 29.76400 35.42600
H  49.89400 28.12200 35.25100

