158

Mg 44.71100 4.51600 48.16200
C  42.24100 6.88200 47.47400
C  42.25600 1.98800 48.17900
C  47.11100 2.16700 48.27000
C  47.20600 6.95600 47.60800
N  42.49300 4.48200 47.79200
C  41.73100 5.55800 47.60600
C  40.30000 5.16300 47.38500
C  40.19100 3.62800 47.78100
C  41.71900 3.27400 47.93100
C  39.38700 3.40500 49.10700
C  40.05400 5.38300 45.83400
C  39.00300 6.44600 45.51300
H  39.32000 7.36600 44.31900
N  44.67800 2.32700 48.24100
C  43.60100 1.51100 48.23400
C  44.08900 0.16500 48.21200
C  45.51400 0.13000 48.19900
C  45.85600 1.58200 48.26500
C  43.05100 -1.01900 47.97800
C  46.33200 -1.14000 48.12700
O  45.78500 -2.24800 48.08400
C  47.86600 -1.12300 48.11000
N  46.85400 4.59200 47.65200
C  47.54500 3.51400 48.15900
C  49.04200 3.77300 48.38400
C  49.11200 5.33900 48.07000
C  47.66200 5.66800 47.79000
C  49.72100 3.34500 49.73300
C  50.08100 5.92900 46.99700
C  51.45800 6.22100 47.42600
N  44.71000 6.50100 47.68100
C  45.88800 7.40600 47.57100
C  45.27100 8.74400 47.35400
C  43.87000 8.54000 47.46200
C  43.56500 7.17700 47.55800
C  46.00900 9.99200 46.93700
C  42.65000 9.23700 47.32900
O  42.44400 10.43200 47.08600
C  41.53200 8.19100 47.33000
C  40.58200 8.50000 48.43100
O  40.57700 8.00500 49.53900
O  39.62900 9.37600 47.94100
C  38.67900 9.92700 48.95200
H  41.45400 1.25600 48.07000
H  47.94300 1.52300 48.56000
H  48.02800 7.67500 47.61000
H  39.58300 5.81700 47.88200
H  39.82900 3.00700 46.96200
H  38.68800 2.60000 48.88000
H  38.87200 4.33000 49.36400
H  39.96200 3.04400 49.96000
H  39.67900 4.45900 45.39300
H  41.00900 5.66600 45.39200
H  38.69500 6.95900 46.42500
H  38.14700 5.93400 45.07400
H  43.32600 -1.61700 47.10900
H  42.02200 -0.70300 47.81000
H  43.11200 -1.55100 48.92700
H  48.24000 -0.55300 47.26000
H  48.34600 -2.10200 48.09700
H  48.04100 -0.54000 49.01400
H  49.62200 3.24200 47.63000
H  49.45200 5.67300 49.05100
H  50.48200 4.07100 50.01900
H  50.37100 2.51600 49.45400
H  49.11400 3.14100 50.61500
H  49.58700 6.72900 46.44500
H  50.13100 5.08200 46.31400
H  51.71600 7.24800 47.17000
H  52.21000 5.65400 46.87900
H  51.72600 6.03800 48.46700
H  46.85000 10.31100 47.55300
H  45.25700 10.78200 46.93500
H  46.42900 9.68500 45.97900
H  41.19400 8.15500 46.29500
H  37.70900 10.30800 48.63000
H  39.21800 10.78700 49.35100
H  38.51200 9.28000 49.81300
Mg 27.04300 51.68400 26.52000
C  24.91400 53.09900 28.95200
C  29.01500 50.48300 29.08600
C  29.16300 50.37200 24.19500
C  25.01600 52.86500 23.96200
N  27.02100 51.89100 28.69700
C  26.03300 52.38500 29.49700
C  26.24200 52.15100 30.96400
C  27.65500 51.50000 30.98000
C  27.86300 51.20200 29.51600
C  28.90800 52.28900 31.59000
C  25.09300 51.39500 31.75800
C  24.38500 52.17600 32.84100
H  25.21000 52.64100 33.98200
N  28.95800 50.73500 26.65200
C  29.58100 50.29700 27.80300
C  30.77600 49.57400 27.43000
C  30.86200 49.51500 25.99100
C  29.65000 50.26000 25.50700
C  31.63500 49.09900 28.53900
C  31.86700 48.77200 25.10500
O  31.75900 48.81200 23.89400
C  32.89500 47.95400 25.66900
N  27.13300 51.69600 24.42900
C  28.09300 51.03300 23.71100
C  27.63400 50.74700 22.30400
C  26.27900 51.57200 22.23100
C  26.12800 52.11000 23.60300
C  28.67300 51.07000 21.23900
C  25.14600 50.87800 21.49200
C  24.57800 49.61000 22.28600
N  25.33200 52.82300 26.42100
C  24.57200 53.22600 25.28900
C  23.49500 54.03100 25.79100
C  23.56400 53.92200 27.20000
C  24.69100 53.21000 27.54200
C  22.42000 54.73700 24.85000
C  22.81000 54.27400 28.42900
O  21.70400 54.79200 28.64000
C  23.74900 53.73900 29.57200
C  24.22100 54.80900 30.44100
O  25.30400 55.38500 30.30000
O  23.24400 55.07600 31.34300
C  23.65000 55.97500 32.42100
H  29.59100 49.97000 29.85900
H  29.64000 49.74800 23.43700
H  24.34700 53.12500 23.13900
H  26.26000 53.13600 31.43200
H  27.70500 50.59200 31.58200
H  28.58000 53.32000 31.72300
H  29.73600 52.32100 30.88200
H  29.27300 51.82400 32.50600
H  25.31100 50.44300 32.24200
H  24.38700 50.96900 31.04500
H  23.54200 51.59800 33.22100
H  23.94200 53.07000 32.40200
H  32.67500 49.15400 28.21500
H  31.41700 48.06500 28.80500
H  31.45600 49.63700 29.47100
H  33.63100 48.60900 26.13500
H  33.46000 47.45200 24.88400
H  32.53500 47.27800 26.44400
H  27.33400 49.71300 22.13500
H  26.44700 52.51700 21.71500
H  29.64400 51.36400 21.63600
H  28.49000 51.86500 20.51700
H  28.83900 50.10900 20.75200
H  25.54300 50.48900 20.55400
H  24.36200 51.63000 21.40000
H  24.52200 49.84600 23.34800
H  25.15900 48.75300 21.94600
H  23.51500 49.38900 22.18700
H  22.61400 54.65100 23.78100
H  22.60500 55.76300 25.16700
H  21.46200 54.40500 25.24900
H  23.22700 52.99000 30.16700
H  24.13500 56.85500 31.99800
H  24.30000 55.43100 33.10700
H  22.74300 56.22500 32.97200

