158

Mg 46.37300 44.33900 42.67200
C  43.08200 43.15700 42.35400
C  47.32700 40.96600 42.15700
C  49.46500 45.42100 42.12400
C  45.18400 47.64100 42.63900
N  45.35300 42.29600 42.23400
C  43.98000 42.07600 42.23000
C  43.62800 40.61300 41.86100
C  44.96300 39.88500 42.23600
C  45.96900 41.11800 42.17900
C  44.91900 39.13300 43.62200
C  42.95700 40.42200 40.40000
C  43.53900 41.31500 39.29600
H  44.32800 40.66300 38.08800
N  48.13800 43.29100 42.27800
C  48.34200 41.94700 42.09600
C  49.77700 41.67700 41.79400
C  50.35000 42.95100 41.62100
C  49.31800 43.95400 42.02200
C  50.38900 40.31200 41.67500
C  51.74900 43.24900 41.04400
O  52.35400 42.29500 40.52200
C  52.36800 44.58100 40.84200
N  47.15800 46.22200 42.44500
C  48.49700 46.37900 42.37500
C  48.95100 47.87800 42.55400
C  47.56900 48.62600 42.41900
C  46.59400 47.42700 42.46800
C  49.57600 48.15900 43.95200
C  47.36600 49.45700 41.10900
C  47.47200 50.97500 41.17700
N  44.50500 45.33300 42.50500
C  44.14700 46.66600 42.67200
C  42.61800 46.69900 42.85800
C  42.20900 45.32100 42.73000
C  43.41600 44.58400 42.45500
C  41.80500 47.91000 43.10300
C  41.01700 44.54600 42.77100
O  39.82500 44.80500 42.90700
C  41.51900 43.08000 42.38900
C  41.04200 42.25900 43.57300
O  40.02500 41.56500 43.68200
O  41.80500 42.58200 44.64700
C  41.51200 41.99600 45.99500
H  47.57100 39.91400 41.99600
H  50.45000 45.89000 42.08500
H  44.94800 48.66300 42.94400
H  42.93400 40.38100 42.66800
H  45.19000 39.21500 41.40700
H  43.92900 38.76600 43.89500
H  45.15900 39.81900 44.43400
H  45.59500 38.28500 43.73000
H  41.90900 40.69800 40.51600
H  42.94000 39.40400 40.00900
H  44.41500 41.84600 39.66900
H  42.79500 42.06100 39.01400
H  50.45100 39.98100 40.63900
H  49.80600 39.56700 42.21600
H  51.37900 40.23700 42.12600
H  51.79300 45.21100 40.16300
H  53.38300 44.45400 40.46400
H  52.51800 45.04100 41.81800
H  49.72600 48.12200 41.82600
H  47.50000 49.25400 43.30700
H  48.83400 47.95200 44.72300
H  49.88600 49.20200 44.01300
H  50.48400 47.56000 44.02100
H  46.39300 49.27100 40.65400
H  48.14900 49.26400 40.37600
H  47.70400 51.42400 40.21100
H  48.24200 51.23800 41.90300
H  46.60500 51.48700 41.59600
H  41.34400 48.32800 42.20900
H  42.34600 48.72000 43.59200
H  40.93200 47.55900 43.65400
H  41.14000 42.70600 41.43700
H  41.78600 42.81100 46.66600
H  42.04500 41.11000 46.33900
H  40.49000 41.79300 46.31700
Mg 26.34200 51.69100 26.31700
C  23.94100 52.68400 28.79700
C  28.32000 50.43100 28.92000
C  28.60500 50.66200 24.04100
C  24.18200 52.82900 23.88600
N  26.15600 51.69500 28.62200
C  25.09400 52.13100 29.39200
C  25.29900 51.80200 30.87300
C  26.78600 51.21000 30.88900
C  27.13500 51.08000 29.39900
C  27.87100 52.03000 31.72500
C  24.29800 50.83200 31.55600
C  24.03800 51.04000 33.04400
H  24.22100 49.84300 33.93900
N  28.32000 50.77500 26.41700
C  28.91500 50.34700 27.61800
C  30.17700 49.73800 27.30500
C  30.28900 49.72900 25.83900
C  29.01700 50.44600 25.37200
C  31.08900 49.18100 28.31300
C  31.51000 49.27400 25.03400
O  31.63700 49.55900 23.85800
C  32.58200 48.43900 25.68400
N  26.47800 51.97000 24.14300
C  27.57900 51.41900 23.44500
C  27.26900 51.41900 21.99600
C  25.71900 51.83200 21.94500
C  25.38800 52.30800 23.32000
C  28.23500 52.26100 21.13000
C  24.75700 50.69600 21.35400
C  23.95300 50.92100 20.06400
N  24.51900 52.75600 26.30200
C  23.80300 53.15400 25.21500
C  22.66100 53.81400 25.65100
C  22.61900 53.66300 27.02300
C  23.78900 52.93100 27.38100
C  21.56900 54.20900 24.76900
C  21.86500 53.83000 28.29900
O  20.79500 54.38500 28.44900
C  22.68600 53.13000 29.47200
C  22.98700 54.15600 30.46200
O  23.46900 55.29800 30.30900
O  22.61200 53.67400 31.67600
C  22.54300 54.52700 32.85200
H  29.05700 50.11500 29.66200
H  29.27900 50.13200 23.36400
H  23.41300 52.98600 23.12600
H  25.25200 52.74900 31.41100
H  26.76400 50.16900 31.21000
H  28.75300 52.25000 31.12400
H  28.03300 51.45300 32.63500
H  27.37900 52.94700 32.04900
H  24.66100 49.80500 31.58200
H  23.32700 50.74800 31.06800
H  23.05400 51.50700 33.09500
H  24.65000 51.89900 33.32000
H  30.65700 49.30200 29.30700
H  32.00300 49.77300 28.34100
H  31.21300 48.12500 28.07400
H  33.33000 48.14600 24.94700
H  32.20800 47.55000 26.19200
H  32.91200 49.20600 26.38500
H  27.30400 50.38400 21.65600
H  25.66600 52.69800 21.28500
H  29.23500 51.91700 21.39600
H  28.15700 53.24900 21.58500
H  27.95700 52.33000 20.07800
H  24.20500 50.20500 22.15600
H  25.36900 49.84800 21.04800
H  24.06000 50.28400 19.18600
H  24.24900 51.87200 19.62100
H  22.94700 51.15200 20.41600
H  21.86400 55.18000 24.37200
H  20.60500 54.29700 25.27100
H  21.53000 53.41600 24.02200
H  22.05500 52.36900 29.93200
H  21.50600 54.79100 33.06200
H  23.05900 55.47800 32.72200
H  23.06500 54.10700 33.71200

