158

Mg 7.15700 1.68900 28.15700
C  8.96400 0.51200 30.89900
C  5.66300 4.01900 30.22500
C  5.55000 2.96900 25.49100
C  8.40400 -0.85900 26.18000
N  7.36500 2.27600 30.26200
C  8.00500 1.52000 31.26100
C  7.81800 2.11700 32.68700
C  6.51700 3.04800 32.39000
C  6.48800 3.12100 30.88000
C  5.20000 2.39100 33.02600
C  9.04500 2.83400 33.28900
C  9.49100 2.43900 34.70700
H  9.92100 3.57200 35.65900
N  5.81200 3.30600 27.86200
C  5.38300 4.15500 28.86100
C  4.58300 5.18500 28.25700
C  4.65400 5.00700 26.84500
C  5.37800 3.71300 26.67000
C  3.90400 6.35100 28.94200
C  4.08600 5.88800 25.66100
O  4.13800 5.51400 24.54000
C  3.20100 7.20800 25.89100
N  6.93600 1.02100 26.16100
C  6.26400 1.77700 25.24900
C  6.38600 1.11300 23.80800
C  7.45100 -0.06000 24.05300
C  7.49000 -0.05000 25.53900
C  5.06700 0.60800 23.12900
C  8.83100 0.20000 23.43700
C  9.50500 -0.96900 22.65900
N  8.39600 0.17800 28.40500
C  8.83000 -0.77900 27.49600
C  9.90800 -1.56700 28.15300
C  9.96100 -1.14600 29.46800
C  8.99600 -0.10300 29.60500
C  10.77700 -2.56500 27.45800
C  10.64500 -1.28200 30.70000
O  11.55000 -2.04700 30.92600
C  10.01000 -0.29000 31.73100
C  9.52200 -0.99300 32.94800
O  8.60300 -1.84100 32.83400
O  10.19900 -0.58300 34.05900
C  9.42100 -0.90200 35.26800
H  5.20400 4.75100 30.89300
H  5.16000 3.23900 24.50700
H  8.79400 -1.75900 25.70000
H  7.47000 1.24200 33.23700
H  6.52600 4.10100 32.67300
H  4.78000 3.13000 33.70700
H  5.43200 1.44000 33.50600
H  4.55100 2.17800 32.17700
H  8.77100 3.88900 33.31000
H  9.90200 2.62700 32.64900
H  10.39000 1.82500 34.66400
H  8.67500 1.90500 35.19400
H  4.24000 7.30100 28.52600
H  4.21600 6.38300 29.98600
H  2.82300 6.21600 28.92000
H  3.09300 7.77100 24.96400
H  3.58000 7.86200 26.67700
H  2.23300 6.82800 26.21600
H  6.77500 1.95100 23.22900
H  7.22800 -1.04100 23.63400
H  4.55600 0.21800 24.00900
H  5.13500 -0.14000 22.34000
H  4.49400 1.45300 22.74500
H  9.54900 0.40300 24.23200
H  8.88700 1.09800 22.82200
H  10.32800 -1.32200 23.28000
H  9.94800 -0.53300 21.76300
H  8.91900 -1.85700 22.41800
H  11.28000 -2.07800 26.62300
H  10.32900 -3.50900 27.15100
H  11.71800 -2.78700 27.96100
H  10.73500 0.47600 32.00900
H  10.00300 -0.73000 36.17300
H  8.97700 -1.89500 35.19700
H  8.57100 -0.24600 35.45900
Mg 48.57100 35.84100 27.52400
C  46.67300 34.28100 29.76100
C  49.15800 38.47500 29.69600
C  50.40800 37.39100 25.07300
C  47.93000 33.22400 25.22700
N  48.06300 36.15500 29.52400
C  47.24100 35.40200 30.30900
C  46.84200 36.15600 31.56900
C  47.53300 37.57700 31.36100
C  48.31300 37.41300 30.11700
C  46.58900 38.83300 31.32800
C  47.20900 35.54700 32.92400
C  48.63700 34.93800 33.04100
H  49.57800 35.85900 33.73500
N  49.60600 37.65400 27.38200
C  49.70700 38.60500 28.42500
C  50.55300 39.71900 27.92700
C  51.10300 39.34100 26.63700
C  50.39300 38.06600 26.32200
C  50.93900 40.84900 28.77400
C  52.25900 39.89600 25.78100
O  52.48700 39.42800 24.68700
C  52.95200 41.24600 26.26800
N  49.03400 35.43000 25.46700
C  49.76000 36.20300 24.63900
C  49.66700 35.74900 23.15800
C  49.32000 34.25900 23.38700
C  48.73600 34.27400 24.79900
C  48.69000 36.59500 22.38200
C  50.36500 33.20500 23.14700
C  50.51300 32.60000 21.71800
N  47.53800 34.10400 27.50000
C  47.37400 33.10300 26.54100
C  46.45600 32.12600 26.99300
C  46.10700 32.51400 28.24000
C  46.82100 33.75000 28.47300
C  45.89100 30.97500 26.22400
C  45.32300 32.21800 29.38100
O  44.58700 31.28500 29.61900
C  45.60200 33.35500 30.40000
C  46.00700 32.71500 31.66900
O  47.09400 32.22500 31.95700
O  44.91000 32.67600 32.50700
C  45.06700 32.34100 33.88800
H  49.41100 39.28600 30.38400
H  50.90600 37.98200 24.30100
H  47.61100 32.61400 24.38000
H  45.75600 36.25800 31.58100
H  48.25900 37.88500 32.11400
H  46.68400 39.42100 30.41500
H  46.55800 39.37200 32.27500
H  45.59000 38.40000 31.29200
H  46.40700 34.82800 33.09400
H  46.97300 36.29700 33.67800
H  49.02000 34.69100 32.05100
H  48.54800 33.97100 33.53500
H  51.63300 40.68600 29.59800
H  50.07500 41.30400 29.25900
H  51.31700 41.68700 28.18800
H  53.32900 40.96100 27.25100
H  52.23300 42.06500 26.26300
H  53.85900 41.38700 25.68000
H  50.65200 35.89400 22.71400
H  48.49600 33.96900 22.73500
H  48.01300 35.91500 21.86600
H  49.19800 37.11500 21.57000
H  48.16100 37.28600 23.03800
H  50.22200 32.44300 23.91300
H  51.33800 33.64700 23.36100
H  49.76300 33.03700 21.05800
H  50.15800 31.58700 21.91100
H  51.55800 32.65700 21.41500
H  45.63700 31.26400 25.20400
H  44.99000 30.81000 26.81500
H  46.59100 30.14100 26.25700
H  44.62200 33.79900 30.57900
H  45.43900 33.19300 34.45800
H  45.73700 31.48500 33.97000
H  44.09700 32.14300 34.34300

