158

Mg 24.70200 -6.57000 46.23800
C  26.59100 -3.88800 44.94900
C  22.16800 -5.72900 44.08000
C  23.25300 -9.51800 46.98400
C  27.85700 -7.78500 47.56100
N  24.49000 -5.04800 44.67600
C  25.32100 -4.02500 44.38800
C  24.79900 -3.16400 43.27400
C  23.30700 -3.63400 43.14600
C  23.31800 -4.89000 44.01700
C  22.15000 -2.55400 43.33300
C  25.59600 -3.18100 41.92000
C  25.82700 -1.77100 41.24300
H  25.57100 -1.67500 39.78200
N  22.93600 -7.47400 45.66600
C  21.99600 -6.88000 44.83000
C  20.89200 -7.77300 44.72000
C  21.10100 -8.83600 45.56400
C  22.46000 -8.72900 46.13000
C  19.78900 -7.54200 43.72600
C  20.15900 -10.04500 45.66600
O  19.03400 -10.03500 45.28100
C  20.47100 -11.20300 46.40100
N  25.44900 -8.33600 47.14600
C  24.57100 -9.38700 47.45400
C  25.28500 -10.53300 48.19700
C  26.79500 -10.10200 47.96500
C  26.70700 -8.63500 47.67500
C  24.82400 -10.83500 49.67900
C  27.44500 -10.92700 46.86400
C  28.58700 -11.88600 47.18000
N  26.76800 -5.91700 46.42000
C  27.88800 -6.45700 47.00300
C  28.96000 -5.51900 46.96300
C  28.58700 -4.49500 46.12500
C  27.20500 -4.78100 45.84000
C  30.33300 -5.73400 47.51500
C  28.93000 -3.24800 45.43500
O  29.97500 -2.62300 45.32200
C  27.67000 -2.85200 44.61200
C  27.24800 -1.48700 44.95100
O  27.02500 -0.63100 44.10000
O  27.23700 -1.31300 46.33800
C  27.41100 0.18800 46.68600
H  21.36700 -5.46300 43.38700
H  22.74800 -10.32700 47.51600
H  28.79400 -8.27300 47.83600
H  24.78800 -2.11400 43.56600
H  23.17900 -4.02600 42.13700
H  21.26700 -3.08200 43.69200
H  21.89500 -2.27100 42.31200
H  22.51900 -1.73900 43.95600
H  24.94600 -3.71500 41.22700
H  26.56900 -3.66400 42.01300
H  26.89300 -1.58000 41.36600
H  25.27200 -1.01200 41.79500
H  18.80700 -7.39900 44.17800
H  19.55000 -8.45200 43.17600
H  19.86000 -6.74700 42.98400
H  20.59400 -10.98300 47.46100
H  21.34600 -11.64600 45.92600
H  19.59100 -11.84400 46.35400
H  25.11000 -11.44000 47.61800
H  27.36700 -10.22900 48.88500
H  24.25100 -11.76000 49.75200
H  24.19100 -10.05300 50.09900
H  25.74800 -10.98800 50.23600
H  27.74500 -10.27500 46.04500
H  26.74700 -11.61000 46.38000
H  29.12100 -11.43400 48.01600
H  29.30800 -11.90400 46.36200
H  28.19500 -12.83400 47.54700
H  31.06400 -5.74100 46.70700
H  30.33600 -6.65700 48.09400
H  30.47300 -4.84400 48.12800
H  27.98700 -2.84700 43.57000
H  28.23300 0.63200 46.12400
H  27.64500 0.30000 47.74500
H  26.48600 0.73600 46.50900
Mg 45.85000 44.76900 43.14000
C  42.43000 44.16500 43.38100
C  46.38900 41.41900 42.64000
C  49.06200 45.55800 42.15700
C  45.12500 48.21400 43.40300
N  44.57100 43.01000 43.02200
C  43.22200 43.00800 43.13000
C  42.60600 41.61100 42.90700
C  43.84400 40.76600 43.01400
C  45.04100 41.74500 42.79300
C  44.05400 39.99500 44.33300
C  41.83700 41.49400 41.55600
C  42.51200 42.09800 40.32600
H  41.89100 41.66200 38.97200
N  47.45100 43.66300 42.54200
C  47.50100 42.27600 42.52200
C  48.86700 41.79700 42.16600
C  49.70000 42.97700 42.18600
C  48.72600 44.15400 42.28200
C  49.30300 40.32100 41.95800
C  51.14500 42.85800 41.97800
O  51.69600 41.76400 41.85200
C  51.97900 44.12600 41.82800
N  46.86600 46.62400 42.72100
C  48.18700 46.64500 42.33500
C  48.64600 48.06300 42.36300
C  47.46000 48.87600 42.79600
C  46.38800 47.85800 43.01000
C  49.90300 48.27500 43.27800
C  47.09600 49.96300 41.74900
C  46.65100 51.30800 42.28900
N  44.15700 46.01600 43.44300
C  44.00300 47.41400 43.48200
C  42.64300 47.76500 43.73700
C  41.92900 46.53300 43.69900
C  42.95600 45.49700 43.50600
C  42.12000 49.18400 43.84000
C  40.65200 45.85800 43.76200
O  39.51400 46.32200 43.97100
C  40.93900 44.30400 43.63700
C  40.43700 43.60600 44.75700
O  39.92600 42.48000 44.75700
O  40.73200 44.24700 45.96500
C  40.50400 43.44400 47.13700
H  46.59300 40.35000 42.55200
H  50.11800 45.81600 42.06200
H  44.95800 49.28000 43.57400
H  41.83600 41.51900 43.67300
H  43.92600 40.07200 42.17800
H  44.99900 40.07000 44.87100
H  43.94500 38.95500 44.02400
H  43.29600 40.28100 45.06200
H  40.81200 41.81900 41.73500
H  41.73200 40.41600 41.43500
H  43.55700 41.80300 40.22200
H  42.51800 43.18800 40.32600
H  50.06300 40.30300 41.17800
H  48.42200 39.82100 41.55400
H  49.64600 39.87800 42.89300
H  51.75400 44.86000 42.60100
H  51.68800 44.48900 40.84200
H  53.01900 43.79800 41.81200
H  49.01200 48.16700 41.34200
H  47.73200 49.37300 43.72700
H  50.71100 48.29000 42.54700
H  50.03500 47.43100 43.95500
H  49.80500 49.18800 43.86500
H  46.25700 49.70500 41.10300
H  47.93500 50.22600 41.10500
H  47.19600 52.10700 41.78500
H  46.70200 51.54900 43.35100
H  45.61000 51.44200 41.99800
H  41.43200 49.35600 44.66900
H  41.63200 49.53100 42.92900
H  42.86100 49.93100 44.12500
H  40.35100 43.95100 42.79000
H  41.37200 42.83300 47.38500
H  39.58400 42.86100 47.09100
H  40.42500 44.16100 47.95400

