158

Mg 7.78000 3.35400 28.07300
C  9.30000 1.79300 30.88200
C  6.27200 5.56200 30.16000
C  6.23800 4.60700 25.43700
C  8.93200 0.72300 26.15500
N  7.72300 3.52200 30.32700
C  8.59000 2.97200 31.21600
C  8.39400 3.67900 32.64600
C  7.27700 4.71300 32.42500
C  7.12200 4.63500 30.84800
C  5.91500 4.46400 33.12800
C  9.75600 4.29100 33.16100
C  10.27500 3.66900 34.45800
H  10.43800 4.51200 35.78300
N  6.47200 4.95200 27.79200
C  5.98500 5.73600 28.75600
C  5.25800 6.85300 28.12200
C  5.23900 6.57300 26.80400
C  5.94000 5.29200 26.58700
C  4.54100 8.05000 28.78000
C  4.70900 7.40800 25.56800
O  4.47300 6.89300 24.46800
C  4.39300 8.88600 25.78800
N  7.73700 2.86900 26.08000
C  7.08700 3.53700 25.14000
C  7.23700 2.89000 23.77400
C  8.17500 1.70600 23.99900
C  8.22000 1.70500 25.49600
C  5.96200 2.49500 23.07600
C  9.70000 1.78600 23.38600
C  10.35400 0.48100 22.99400
N  8.92800 1.62100 28.44300
C  9.35500 0.64700 27.47200
C  10.12600 -0.40000 28.13700
C  10.05500 0.00900 29.48000
C  9.35200 1.21300 29.61200
C  10.85100 -1.49700 27.52200
C  10.53000 -0.30300 30.80600
O  11.30800 -1.19100 31.15300
C  10.19500 0.85500 31.72700
C  9.46800 0.28600 32.91700
O  8.36600 -0.15700 33.05000
O  10.42100 0.37000 33.91200
C  10.03100 -0.05900 35.24900
H  5.96500 6.47100 30.68100
H  5.83700 5.01900 24.50900
H  9.32900 -0.08300 25.53500
H  8.01600 2.96600 33.37800
H  7.71300 5.68100 32.67000
H  5.12700 4.55400 32.37900
H  5.72000 5.27400 33.83000
H  5.84600 3.53000 33.68600
H  9.77100 5.37700 33.24200
H  10.53400 4.20800 32.40300
H  11.26500 3.24100 34.30100
H  9.66900 2.82500 34.78600
H  4.75500 8.00800 29.84800
H  3.51400 7.70600 28.65700
H  4.78100 9.06000 28.44800
H  5.16300 9.45600 26.30700
H  3.55100 8.93600 26.47700
H  4.15700 9.39900 24.85500
H  7.58300 3.67400 23.10100
H  7.81300 0.72900 23.67700
H  5.03400 2.63900 23.63100
H  5.91700 1.49400 22.64800
H  5.88400 3.20600 22.25400
H  10.38000 2.36300 24.01200
H  9.62700 2.46700 22.53900
H  10.73300 0.50300 21.97200
H  9.68300 -0.37300 23.08800
H  11.18200 0.26900 23.67000
H  10.67100 -1.58100 26.45000
H  10.65100 -2.47500 27.95800
H  11.91400 -1.30600 27.67200
H  10.93800 1.57300 32.07500
H  9.37000 0.70800 35.65200
H  10.99600 -0.11800 35.75200
H  9.68700 -1.09300 35.24500
Mg -2.08000 34.44000 26.90200
C  -3.73200 32.62600 29.41100
C  -0.67900 36.35300 29.44600
C  -0.60500 36.12900 24.56200
C  -3.67000 32.64200 24.47200
N  -2.19200 34.45300 29.13500
C  -2.86400 33.55800 29.96200
C  -2.62300 33.85700 31.45900
C  -1.85800 35.23200 31.37200
C  -1.59100 35.38500 29.88400
C  -2.56200 36.40500 32.05200
C  -1.89900 32.75100 32.26300
C  -2.58900 32.27600 33.57700
H  -1.62600 32.22700 34.78900
N  -0.81500 36.06500 27.04000
C  -0.30600 36.67000 28.12700
C  0.70000 37.62700 27.74200
C  0.64700 37.66100 26.33000
C  -0.28600 36.58100 25.92500
C  1.55200 38.46100 28.71100
C  1.41700 38.47900 25.30200
O  1.19400 38.51300 24.13300
C  2.53400 39.36100 25.80500
N  -2.23300 34.51200 24.70000
C  -1.46100 35.26900 23.97900
C  -1.73200 35.11400 22.48600
C  -2.77600 34.00000 22.46100
C  -2.88800 33.67900 23.96000
C  -2.16700 36.46600 21.83200
C  -2.37200 32.93800 21.43300
C  -1.58900 31.67600 21.98100
N  -3.38000 32.85500 26.82800
C  -3.97300 32.25400 25.75100
C  -4.84100 31.24500 26.21900
C  -4.83700 31.30100 27.58300
C  -3.94000 32.29600 27.98400
C  -5.57100 30.30500 25.40200
C  -5.30300 30.73400 28.87500
O  -6.10800 29.84400 29.05100
C  -4.64300 31.55300 30.03600
C  -5.72800 32.11000 30.91100
O  -6.67800 32.68400 30.47700
O  -5.50800 31.84400 32.20600
C  -6.73800 31.96500 33.05100
H  -0.10700 36.92000 30.18300
H  0.09600 36.51300 23.81800
H  -4.15400 32.11200 23.65000
H  -3.65900 33.98500 31.77400
H  -0.93400 35.14300 31.94200
H  -3.02000 36.90900 31.20100
H  -1.87200 37.11800 32.50200
H  -3.40300 36.06200 32.65600
H  -0.87800 33.05500 32.49000
H  -1.91300 31.85000 31.65000
H  -2.89600 31.23500 33.47600
H  -3.55200 32.72500 33.82300
H  2.61800 38.29600 28.55200
H  1.43500 38.27000 29.77700
H  1.21000 39.49400 28.64700
H  2.71600 40.11300 25.03700
H  3.40700 38.77300 26.08900
H  2.11600 39.90100 26.65500
H  -0.80800 34.72000 22.06000
H  -3.73600 34.39700 22.13200
H  -1.78200 37.30000 22.41900
H  -3.21800 36.60800 21.58200
H  -1.61600 36.59400 20.90100
H  -1.72900 33.36500 20.66300
H  -3.34100 32.67200 21.01000
H  -2.21900 30.78700 21.96000
H  -1.22400 31.95600 22.96900
H  -0.70000 31.53300 21.36800
H  -5.85400 30.71100 24.43100
H  -6.53600 30.17000 25.89100
H  -4.96000 29.41100 25.27600
H  -3.99800 30.88800 30.60900
H  -6.71000 32.49100 34.00600
H  -7.13300 30.96500 33.23300
H  -7.64600 32.37200 32.60700

