158

Mg 9.32600 3.45900 28.25800
C  11.00900 2.14200 31.12700
C  7.59700 5.61800 30.42900
C  7.70000 4.71000 25.66300
C  10.66000 0.87400 26.40500
N  9.33800 3.84900 30.54000
C  10.11800 3.19400 31.49800
C  9.84000 3.71500 32.90200
C  8.49200 4.59100 32.62000
C  8.38400 4.61500 31.11800
C  7.21700 4.13000 33.39300
C  11.02800 4.54600 33.41100
C  11.62900 4.07300 34.76100
H  10.64100 4.01200 35.97500
N  7.96900 5.00300 28.06600
C  7.42200 5.82800 29.02900
C  6.77400 6.96700 28.37500
C  6.76700 6.63300 26.99500
C  7.48300 5.41200 26.82200
C  6.05300 8.08400 29.19400
C  6.21500 7.48100 25.74100
O  6.36200 7.20100 24.52100
C  5.51600 8.81600 25.98500
N  9.09400 2.79700 26.27500
C  8.50500 3.55500 25.36200
C  8.52600 2.80900 23.96700
C  9.56000 1.70700 24.19900
C  9.71200 1.72800 25.68400
C  7.10600 2.35700 23.45500
C  10.89900 1.83600 23.26700
C  10.80200 1.20800 21.94900
N  10.55500 1.90000 28.63300
C  11.01700 0.91900 27.79500
C  11.83700 -0.03600 28.51900
C  11.92700 0.52800 29.78600
C  11.09300 1.64700 29.87500
C  12.51900 -1.21900 27.97400
C  12.58700 0.33500 31.10000
O  13.38300 -0.52500 31.48300
C  11.89000 1.31500 32.07800
C  11.13200 0.41700 33.03600
O  10.39900 -0.50200 32.74700
O  11.47800 0.77300 34.31700
C  10.65600 0.09000 35.36800
H  7.03100 6.36200 30.99300
H  7.15900 4.99100 24.75700
H  11.02900 -0.02100 25.90100
H  9.56100 2.86300 33.52200
H  8.86700 5.55700 32.95700
H  7.55900 3.52800 34.23500
H  6.60100 3.44200 32.81500
H  6.59500 4.99100 33.63800
H  10.88000 5.61900 33.29000
H  11.81500 4.31300 32.69400
H  12.36800 4.84600 34.97100
H  12.29300 3.21100 34.72100
H  5.02700 8.03700 28.83000
H  6.48900 9.03100 28.87500
H  6.19000 8.07200 30.27600
H  6.31000 9.44900 26.38200
H  4.77800 8.67200 26.77400
H  5.01200 9.25100 25.12200
H  8.98500 3.49400 23.25500
H  9.15500 0.70000 24.10000
H  6.82600 2.83600 22.51700
H  6.41900 2.70100 24.22800
H  7.02400 1.28000 23.30700
H  11.66600 1.37400 23.88900
H  11.15700 2.87900 23.08200
H  11.26800 0.22400 21.89000
H  11.19900 1.83200 21.14900
H  9.73100 1.08700 21.78800
H  13.29700 -0.80000 27.33500
H  11.83600 -1.82400 27.37800
H  12.91600 -1.85200 28.76800
H  12.68000 1.75600 32.68600
H  11.31400 -0.71300 35.69900
H  9.71900 -0.33700 35.01300
H  10.41600 0.79900 36.16100
Mg 16.24400 51.50700 26.02800
C  18.34600 50.48400 28.62800
C  13.72200 52.06800 28.45300
C  14.18300 52.38300 23.47900
C  18.63000 50.61600 23.67700
N  16.03400 51.33900 28.25700
C  17.12500 51.10300 29.09100
C  16.72300 51.33200 30.59200
C  15.19000 51.47100 30.47100
C  14.96300 51.63000 28.97100
C  14.39300 50.23000 30.94100
C  17.47000 52.54300 31.15900
C  17.34400 52.82000 32.72000
H  16.37600 51.90400 33.54400
N  14.22900 52.02800 25.94100
C  13.40100 52.30100 27.04100
C  12.05900 52.52500 26.50000
C  12.10800 52.47900 25.03300
C  13.54700 52.23500 24.73800
C  10.79400 52.73300 27.26400
C  11.01100 52.56000 23.93900
O  11.32500 52.52800 22.75500
C  9.59600 52.71300 24.29400
N  16.37300 51.70400 23.97700
C  15.44700 52.19400 23.11600
C  16.00500 52.26600 21.69700
C  17.44900 51.84700 21.88800
C  17.48400 51.31700 23.33700
C  15.10300 51.60500 20.62100
C  18.58400 52.89900 21.56900
C  19.00300 53.00900 20.10500
N  18.10800 50.70300 26.10300
C  18.95100 50.27800 25.02100
C  20.11800 49.56600 25.61800
C  19.94100 49.57300 27.00600
C  18.68000 50.28200 27.23700
C  21.23600 49.02300 24.81000
C  20.44000 49.28300 28.33500
O  21.47000 48.63200 28.66200
C  19.40700 49.81700 29.46400
C  19.02700 48.62200 30.30600
O  18.71300 47.49900 29.92100
O  19.26200 48.96500 31.63500
C  18.96900 47.95400 32.67500
H  12.93400 52.20000 29.19600
H  13.58600 52.73300 22.63400
H  19.41400 50.44900 22.93600
H  17.17200 50.47800 31.09900
H  14.81100 52.30500 31.06100
H  14.00000 49.68100 30.08500
H  13.48100 50.48900 31.47900
H  14.92100 49.57800 31.63700
H  17.02100 53.36600 30.60300
H  18.48800 52.51800 30.76900
H  17.14400 53.88400 32.84400
H  18.35300 52.65800 33.10100
H  10.09200 51.97200 26.92300
H  10.35400 53.68000 26.95100
H  10.98800 52.57900 28.32600
H  9.01200 52.68600 23.37300
H  9.50100 53.71500 24.71200
H  9.19700 51.94900 24.96100
H  15.95700 53.31100 21.39000
H  17.50900 51.02900 21.17000
H  14.39800 50.88000 21.02800
H  15.76200 51.14800 19.88200
H  14.56000 52.45700 20.21200
H  19.37700 52.77900 22.30700
H  18.09100 53.86100 21.71000
H  18.31300 52.39800 19.52300
H  20.04100 52.67600 20.12700
H  18.94400 54.03900 19.75300
H  22.15900 49.59800 24.88100
H  21.06400 49.12000 23.73800
H  21.50500 48.02300 25.15100
H  19.80200 50.54200 30.17500
H  18.25500 47.18700 32.37200
H  18.44100 48.45600 33.48600
H  19.89000 47.45900 32.98100

