158

Mg -3.23300 17.26500 25.56500
C  -3.24600 14.82100 28.20100
C  -3.95500 19.57000 27.92100
C  -3.35700 19.41900 23.09200
C  -2.77800 14.68500 23.33000
N  -3.55300 17.13600 27.91500
C  -3.39300 16.11200 28.73000
C  -3.50500 16.53600 30.20100
C  -4.04400 18.00500 30.08100
C  -3.87200 18.30600 28.53100
C  -5.43500 18.42800 30.61200
C  -2.08500 16.32900 30.85500
C  -1.52600 17.08200 32.06300
H  -1.30600 16.17800 33.29500
N  -3.63900 19.21100 25.47100
C  -3.82700 19.99300 26.57000
C  -4.08300 21.29500 26.11600
C  -3.83300 21.38600 24.75000
C  -3.63000 19.96600 24.35700
C  -4.47400 22.45400 27.09700
C  -3.71600 22.66500 23.82500
O  -3.68500 22.56600 22.62200
C  -3.55400 24.03300 24.50500
N  -2.74600 17.11600 23.51200
C  -2.97700 18.16700 22.70800
C  -2.76700 17.82200 21.20600
C  -2.85700 16.28200 21.36800
C  -2.66600 15.98800 22.80200
C  -3.77100 18.36500 20.12400
C  -1.97000 15.43000 20.36900
C  -2.56900 14.24400 19.64100
N  -3.16400 15.23800 25.71000
C  -3.05200 14.31800 24.69100
C  -3.14700 12.97900 25.15000
C  -3.19500 13.17100 26.48800
C  -3.22400 14.56200 26.83800
C  -3.06000 11.67800 24.43800
C  -3.26200 12.39900 27.72400
O  -3.16600 11.19500 27.89300
C  -3.26100 13.49300 28.89100
C  -2.03900 13.12200 29.71500
O  -0.86100 13.31500 29.42900
O  -2.47800 12.56700 30.90900
C  -1.47700 12.48000 31.93200
H  -4.35400 20.26100 28.66700
H  -3.39400 20.10100 22.24000
H  -2.81000 13.91600 22.55600
H  -4.23500 15.84400 30.62100
H  -3.37400 18.65500 30.64300
H  -5.93700 17.59300 31.10100
H  -6.08900 18.70900 29.78700
H  -5.43500 19.23000 31.35000
H  -1.34000 16.51800 30.08200
H  -2.02100 15.24700 30.97500
H  -2.28500 17.83400 32.27900
H  -0.52100 17.43600 31.83400
H  -4.88100 22.04300 28.02100
H  -5.25900 22.96600 26.54200
H  -3.58700 23.06600 27.26300
H  -3.50800 24.80800 23.73900
H  -2.60300 24.07500 25.03700
H  -4.38600 24.22700 25.18200
H  -1.77000 18.08400 20.85000
H  -3.81800 15.80700 21.17300
H  -4.72300 18.60400 20.59700
H  -3.81500 17.66700 19.28700
H  -3.32500 19.31200 19.82100
H  -1.14900 15.05500 20.98000
H  -1.56400 16.13500 19.64400
H  -3.56800 14.09200 20.05000
H  -1.91100 13.37800 19.70700
H  -2.63600 14.54600 18.59600
H  -4.07300 11.37600 24.17000
H  -2.51500 10.87700 24.93600
H  -2.39000 11.71600 23.57900
H  -4.13100 13.29300 29.51600
H  -0.65300 13.19300 31.95100
H  -1.05500 11.48100 31.82900
H  -2.11300 12.65400 32.80100
Mg 26.23800 48.98800 27.01600
C  24.27700 50.32900 29.49700
C  28.71100 48.37200 29.19500
C  28.41000 48.34600 24.41800
C  24.00600 50.35000 24.65400
N  26.45300 49.21100 29.12300
C  25.49600 49.75000 29.97900
C  25.85900 49.45500 31.46300
C  27.43100 49.08400 31.33900
C  27.52900 48.91700 29.79800
C  28.41600 50.18200 31.85400
C  25.00700 48.31900 32.05700
C  24.96700 48.20800 33.56800
H  25.74900 49.15500 34.48800
N  28.27100 48.39100 26.82000
C  29.13700 48.21500 27.84300
C  30.36600 47.82200 27.38400
C  30.28600 47.74800 25.99400
C  28.92200 48.16600 25.64900
C  31.50600 47.41600 28.23100
C  31.31700 47.53700 24.95500
O  31.15400 47.62200 23.75000
C  32.77200 47.41600 25.46700
N  26.32200 49.59000 24.89600
C  27.26300 48.98700 24.07600
C  26.83700 49.08500 22.57700
C  25.39200 49.56500 22.68100
C  25.24700 49.90800 24.13500
C  27.77300 49.89500 21.70000
C  24.44200 48.47000 22.20700
C  24.01600 47.44100 23.24900
N  24.51800 50.10600 27.01700
C  23.66700 50.56500 25.99600
C  22.49500 51.17100 26.52200
C  22.70300 51.10800 27.89000
C  23.93600 50.40900 28.12200
C  21.42100 51.80900 25.69500
C  22.13200 51.40600 29.22000
O  21.07000 51.89800 29.54400
C  23.18500 50.94000 30.29300
C  23.64000 52.09400 31.17800
O  24.40500 52.98300 30.83000
O  22.95800 52.02600 32.35700
C  23.29100 53.06100 33.35800
H  29.45100 48.24800 29.98800
H  28.89300 47.89400 23.55000
H  23.29000 50.45000 23.83600
H  25.64800 50.42700 31.90800
H  27.58700 48.14800 31.87500
H  27.91000 51.13200 32.02800
H  29.12700 50.47900 31.08300
H  28.98900 49.77300 32.68700
H  25.54900 47.44700 31.69100
H  24.02300 48.31600 31.58900
H  25.19600 47.21400 33.95200
H  23.93600 48.47300 33.80200
H  31.21900 47.23900 29.26800
H  32.17000 48.28000 28.25400
H  32.23200 46.68100 27.88200
H  32.83700 46.40700 25.87500
H  32.96300 48.24400 26.14900
H  33.39800 47.65800 24.60800
H  26.73400 48.11900 22.08100
H  25.26500 50.40400 21.99800
H  28.64300 50.26500 22.24300
H  27.28800 50.73100 21.19500
H  28.20300 49.21100 20.96800
H  24.84800 47.91700 21.36000
H  23.56900 48.95200 21.76900
H  24.58900 47.55800 24.16900
H  24.15900 46.45400 22.80800
H  22.98300 47.67300 23.50800
H  21.06000 51.04500 25.00600
H  21.83900 52.69500 25.21800
H  20.51500 52.08200 26.23600
H  22.83100 50.11400 30.91000
H  22.92600 54.06500 33.14300
H  24.37700 53.13800 33.32400
H  23.09300 52.75000 34.38400

