158

Mg 47.77800 14.94500 28.18800
C  45.79600 15.00700 31.03500
C  49.89500 17.25900 29.82900
C  49.55200 15.08700 25.33800
C  45.63300 12.82500 26.63000
N  47.82300 16.15300 30.14700
C  47.03800 15.74600 31.21100
C  47.41700 16.34900 32.59200
C  48.56900 17.29600 32.14100
C  48.76900 16.93900 30.60400
C  48.42100 18.81500 32.38700
C  47.82900 15.29900 33.69000
C  46.93700 15.19500 34.89800
H  47.37400 15.95000 36.16000
N  49.49500 16.03600 27.67500
C  50.26800 16.86100 28.49500
C  51.47200 17.24300 27.73800
C  51.33700 16.67200 26.42600
C  50.07400 15.91100 26.40500
C  52.54700 18.07000 28.35800
C  52.30100 16.81200 25.15800
O  52.11600 16.26000 24.06000
C  53.61800 17.57500 25.29500
N  47.56100 14.22500 26.21100
C  48.44900 14.34700 25.19900
C  48.01300 13.43400 24.00700
C  46.85300 12.52800 24.51100
C  46.69100 13.21200 25.87800
C  47.79400 14.21600 22.65900
C  47.19500 10.98100 24.47500
C  48.23000 10.37700 25.48400
N  45.93000 14.25900 28.52600
C  45.21000 13.31900 27.84300
C  43.96100 13.08700 28.56500
C  44.17700 13.74700 29.80800
C  45.40500 14.35700 29.76600
C  42.80500 12.26400 28.04700
C  43.51500 13.95100 31.09000
O  42.48600 13.56200 31.58400
C  44.66600 14.68800 31.93900
C  43.98200 15.91200 32.45300
O  44.13500 17.02600 32.01200
O  43.39400 15.59300 33.68000
C  42.78400 16.64600 34.44900
H  50.54600 17.99600 30.30400
H  50.15000 15.01300 24.42700
H  44.94100 12.02600 26.35800
H  46.56400 16.88500 33.00900
H  49.49900 17.11000 32.67800
H  48.09800 19.34200 31.49000
H  49.36800 19.21000 32.75700
H  47.56400 18.99400 33.03700
H  48.87600 15.41300 33.97000
H  47.75300 14.38600 33.10000
H  46.90200 14.16000 35.23700
H  45.88600 15.35600 34.66000
H  53.53100 17.76200 28.00600
H  52.48100 18.00800 29.44500
H  52.38500 19.09900 28.03600
H  53.32900 18.60500 25.50300
H  54.04200 17.44600 24.29900
H  54.36900 17.11000 25.93400
H  48.89600 12.81400 23.85700
H  46.00300 12.68200 23.84700
H  48.08700 15.26100 22.76700
H  46.75800 14.16400 22.32600
H  48.35900 13.86400 21.79600
H  47.66100 10.67800 23.53800
H  46.26100 10.43100 24.59900
H  47.79900 9.44500 25.85100
H  48.48400 11.04400 26.30800
H  49.16900 10.02600 25.05600
H  43.16100 11.24200 27.91200
H  42.41800 12.63400 27.09800
H  41.89900 12.38600 28.64100
H  45.06700 14.10600 32.77000
H  43.28100 16.68700 35.41800
H  41.73200 16.36900 34.52500
H  42.86900 17.65400 34.04400
Mg 16.46400 52.25800 24.75100
C  18.02400 51.03500 27.69600
C  13.79400 53.04800 26.67600
C  15.08400 53.25700 21.97800
C  19.10200 50.71800 23.02300
N  15.95600 52.09200 26.99400
C  16.76000 51.59200 28.03300
C  16.20800 51.99100 29.38500
C  14.76100 52.51900 29.02400
C  14.86500 52.51600 27.43600
C  13.64100 51.68700 29.68500
C  17.19500 52.93500 30.16200
C  17.71800 52.43800 31.53300
H  16.83500 51.47900 32.39700
N  14.68300 53.06100 24.36800
C  13.69600 53.33700 25.25300
C  12.60100 53.95100 24.51700
C  12.91400 54.09000 23.15600
C  14.29200 53.47700 23.11800
C  11.34700 54.29300 25.29500
C  12.09900 54.76100 22.06000
O  12.54100 54.84100 20.91600
C  10.80200 55.33900 22.29100
N  17.00000 52.13400 22.83800
C  16.31500 52.59700 21.81300
C  16.56900 51.80000 20.54600
C  17.91400 51.09000 20.80400
C  18.04300 51.33100 22.31300
C  15.27700 50.87200 20.28500
C  19.16500 51.68300 19.97200
C  19.64700 50.92000 18.80900
N  18.20500 51.14700 25.22600
C  19.25100 50.63100 24.40200
C  20.31800 50.00600 25.15100
C  19.84100 50.11200 26.44600
C  18.54600 50.77000 26.43100
C  21.58000 49.40800 24.68300
C  20.17900 49.81200 27.80500
O  21.12600 49.19600 28.18900
C  19.08800 50.47400 28.69600
C  18.52000 49.39900 29.64000
O  17.53600 48.76800 29.37500
O  19.31400 49.20800 30.75500
C  18.87500 48.16500 31.62900
H  13.03000 53.47700 27.32800
H  14.63500 53.55900 21.03000
H  19.74700 50.04000 22.46000
H  16.15800 51.02600 29.88900
H  14.58000 53.52800 29.39400
H  14.10000 50.89700 30.27900
H  13.06900 51.22900 28.87900
H  13.04600 52.27800 30.38200
H  16.76100 53.93000 30.25300
H  18.12400 53.04900 29.60400
H  17.83900 53.31100 32.17400
H  18.66300 51.94700 31.30000
H  11.35200 53.70400 26.21200
H  10.50000 53.96900 24.69000
H  11.18100 55.31500 25.63600
H  10.67100 56.29500 22.79700
H  10.06900 54.63100 22.67800
H  10.40600 55.63200 21.31900
H  16.51300 52.37100 19.62000
H  17.84200 50.04300 20.51000
H  14.86700 51.25500 19.35000
H  14.61100 50.94500 21.14500
H  15.52300 49.83000 20.08000
H  19.99600 51.88400 20.64900
H  18.73700 52.64100 19.67500
H  19.24500 51.31700 17.87700
H  19.37100 49.86600 18.84000
H  20.73300 50.96100 18.72500
H  22.31100 50.17300 24.94400
H  21.55000 49.30500 23.59800
H  21.67900 48.44500 25.18300
H  19.52800 51.28100 29.28300
H  19.46300 48.28100 32.53900
H  19.02200 47.19900 31.14400
H  17.87400 48.26100 32.04900

