158

Mg 41.70600 40.48600 26.14500
C  40.99400 43.03600 28.49400
C  43.17600 38.59600 28.63800
C  42.59100 38.20800 23.76900
C  41.12000 42.77400 23.61200
N  42.17800 40.85900 28.33900
C  41.63600 41.86100 29.10300
C  41.84400 41.56200 30.55500
C  42.64200 40.23200 30.55200
C  42.63000 39.84800 29.05200
C  44.14100 40.23000 31.08900
C  40.55500 41.49000 31.32200
C  40.68300 42.22600 32.60600
H  39.83500 41.88700 33.77300
N  42.71700 38.66500 26.23700
C  43.19300 38.07600 27.35700
C  43.63600 36.76900 27.02900
C  43.44800 36.52400 25.63900
C  42.91600 37.82100 25.13500
C  44.10800 35.77500 28.02500
C  43.85400 35.38100 24.74800
O  43.70900 35.28600 23.54600
C  44.28300 34.15300 25.40400
N  42.12100 40.62300 24.08800
C  42.26600 39.49200 23.35500
C  42.19800 39.84300 21.85200
C  41.70600 41.25900 21.83800
C  41.58900 41.56600 23.29000
C  43.54100 39.64600 21.15200
C  40.46300 41.53200 21.03000
C  39.02100 41.06900 21.58700
N  41.01000 42.47800 26.01800
C  40.85300 43.29200 24.93500
C  40.48500 44.58300 25.39400
C  40.45000 44.54400 26.73300
C  40.83000 43.23100 27.08300
C  40.11700 45.71900 24.51100
C  40.07500 45.22700 27.95400
O  39.43700 46.28700 28.06600
C  40.42000 44.29900 29.09500
C  41.34100 44.98000 30.06600
O  42.53800 45.02900 29.93600
O  40.61300 45.41400 31.20500
C  41.43700 45.87500 32.32200
H  43.70000 38.08800 29.45000
H  42.77000 37.42600 23.02800
H  40.84800 43.45800 22.80400
H  42.42600 42.43700 30.84500
H  42.17000 39.39400 31.06500
H  44.83500 40.16900 30.25100
H  44.34400 39.39300 31.75700
H  44.30400 41.13300 31.67700
H  40.37900 40.48500 31.70600
H  39.65100 41.66100 30.73800
H  40.55100 43.27000 32.32200
H  41.67800 42.26200 33.05000
H  43.70400 35.88900 29.03100
H  45.18900 35.65300 27.95600
H  43.50200 34.90000 27.79100
H  43.38300 33.71000 25.83100
H  45.02700 34.18100 26.20000
H  44.57100 33.44300 24.62800
H  41.40400 39.23900 21.41300
H  42.53100 41.84000 21.42700
H  43.88000 40.57100 20.68600
H  43.30300 38.90200 20.39200
H  44.31300 39.09500 21.69000
H  40.51400 40.98000 20.09100
H  40.50100 42.60200 20.82500
H  39.09600 40.01800 21.86800
H  38.25700 41.15600 20.81400
H  38.66200 41.63600 22.44500
H  39.30000 46.32500 24.90400
H  39.80000 45.40600 23.51700
H  40.90700 46.42200 24.24800
H  39.47900 43.98600 29.54700
H  40.87500 46.55000 32.96700
H  42.39100 46.29000 31.99600
H  41.69600 45.03600 32.96800
Mg -11.18600 17.30900 42.20200
C  -7.92400 18.30600 42.24800
C  -12.14300 20.64500 41.94500
C  -14.51500 16.36500 41.93300
C  -10.27900 13.95700 41.99300
N  -10.16000 19.21900 42.17300
C  -8.83000 19.37000 42.13900
C  -8.39400 20.86700 42.02800
C  -9.71900 21.61700 42.28600
C  -10.76900 20.43800 42.12100
C  -9.72200 22.43800 43.56800
C  -7.77900 21.15000 40.64700
C  -6.38100 21.84800 40.78300
H  -5.35700 21.14800 39.87800
N  -13.01300 18.36400 41.83300
C  -13.20000 19.72600 41.76400
C  -14.55600 20.06100 41.50100
C  -15.28200 18.80400 41.56900
C  -14.25000 17.75000 41.73600
C  -15.15000 21.48000 41.23300
C  -16.78300 18.73400 41.46900
O  -17.46400 19.76000 41.59100
C  -17.46200 17.45900 41.36200
N  -12.27100 15.52200 41.78600
C  -13.59100 15.33700 42.02100
C  -14.03700 13.93300 42.13800
C  -12.72900 13.15900 42.05300
C  -11.67500 14.28700 41.95500
C  -14.86200 13.64400 43.35400
C  -12.70000 12.23000 40.68600
C  -12.62200 10.68900 40.94100
N  -9.43600 16.28800 42.15700
C  -9.15400 14.92300 42.07000
C  -7.76200 14.73400 42.11800
C  -7.19100 16.06100 42.14500
C  -8.28200 16.93500 42.25600
C  -7.03700 13.47300 42.16500
C  -5.97500 16.77800 42.13800
O  -4.83200 16.28600 42.01800
C  -6.36400 18.30300 42.35400
C  -5.83600 18.82800 43.64400
O  -6.11800 18.41000 44.77800
O  -4.91900 19.76600 43.32500
C  -4.12000 20.36100 44.44000
H  -12.55800 21.63000 41.72400
H  -15.57700 16.11400 41.98000
H  -9.99100 12.90800 41.89600
H  -7.79400 21.24400 42.85700
H  -10.04600 22.28200 41.48700
H  -9.07600 23.28800 43.35200
H  -9.43000 21.84000 44.43200
H  -10.76600 22.73600 43.66400
H  -8.43100 21.80700 40.07100
H  -7.69100 20.29600 39.97500
H  -6.05200 21.84400 41.82200
H  -6.45200 22.91100 40.55200
H  -16.11500 21.51300 40.72800
H  -14.32700 21.93900 40.68500
H  -15.25600 21.93600 42.21700
H  -18.39100 17.64500 40.82400
H  -17.49300 17.00400 42.35200
H  -16.87500 16.79100 40.73100
H  -14.75600 13.76000 41.33700
H  -12.62100 12.57000 42.96400
H  -14.77500 14.50400 44.01800
H  -14.59900 12.77700 43.96000
H  -15.89000 13.50500 43.01900
H  -11.87500 12.53800 40.04400
H  -13.59200 12.30600 40.06500
H  -12.55100 10.58400 42.02300
H  -11.76800 10.31200 40.37800
H  -13.43800 10.11500 40.50300
H  -5.99000 13.60200 42.43900
H  -7.10200 12.96200 41.20400
H  -7.55300 12.84200 42.88800
H  -5.83800 18.72400 41.49700
H  -3.50700 21.12900 43.96900
H  -3.43600 19.65000 44.90500
H  -4.77400 20.78300 45.20300

