158

Mg 26.22500 50.10600 26.37900
C  24.10500 51.09300 28.94400
C  28.52600 49.16000 28.73400
C  28.54400 49.57000 23.82500
C  24.10600 51.43400 24.01800
N  26.25100 49.98100 28.65700
C  25.28400 50.44400 29.49400
C  25.72500 50.22900 30.93000
C  27.23500 49.73300 30.80500
C  27.33800 49.49900 29.31600
C  28.34000 50.67700 31.49500
C  24.76200 49.30100 31.73800
C  24.46000 49.78900 33.17900
H  25.51100 50.09500 34.24300
N  28.26900 49.44900 26.30400
C  28.97700 49.05700 27.41100
C  30.30200 48.69800 26.97000
C  30.19800 48.62000 25.54600
C  28.97200 49.23800 25.14200
C  31.43200 48.34900 27.92000
C  31.38200 48.17000 24.60500
O  31.21700 48.25500 23.38400
C  32.53900 47.52500 25.17000
N  26.32300 50.48000 24.23700
C  27.36800 50.12200 23.42600
C  26.95300 50.13600 21.92000
C  25.50600 50.52800 22.04900
C  25.27800 50.84500 23.49100
C  27.85200 50.99800 20.99400
C  24.41000 49.77000 21.22100
C  23.28500 48.91000 21.89600
N  24.38600 50.92500 26.41800
C  23.67600 51.45100 25.35700
C  22.44200 51.93500 25.87600
C  22.59500 51.92400 27.27200
C  23.78700 51.21200 27.55500
C  21.37100 52.56500 25.07400
C  21.93200 52.28100 28.54300
O  20.94000 52.93600 28.80900
C  22.90400 51.73600 29.69200
C  23.14600 52.89900 30.60500
O  23.80500 53.86400 30.37500
O  22.55600 52.58800 31.80200
C  22.91000 53.42800 32.93100
H  29.28800 48.88500 29.46600
H  29.29500 49.30600 23.07800
H  23.33800 51.66100 23.27600
H  25.70200 51.21700 31.39000
H  27.39900 48.73700 31.21700
H  28.74300 50.22400 32.40000
H  27.86300 51.56800 31.90300
H  29.21100 50.85700 30.86500
H  25.13100 48.27600 31.76700
H  23.75300 49.20400 31.33700
H  23.92100 48.90000 33.50500
H  23.71600 50.58500 33.19100
H  31.22600 48.63500 28.95100
H  32.44000 48.68000 27.67200
H  31.37500 47.26300 27.98300
H  33.03800 48.36900 25.64600
H  33.13000 47.22500 24.30400
H  32.09500 46.76400 25.81200
H  27.07200 49.07100 21.72400
H  25.54100 51.50500 21.56800
H  27.43300 51.98500 20.79600
H  27.98500 50.38400 20.10300
H  28.83400 51.23300 21.40300
H  24.96800 49.15100 20.51800
H  23.93400 50.53000 20.60200
H  23.52500 48.44500 22.85200
H  22.89600 48.10800 21.26900
H  22.39800 49.53000 22.03000
H  20.47800 53.02800 25.49300
H  21.05100 51.76800 24.40300
H  21.85600 53.33600 24.47600
H  22.39900 51.04100 30.36300
H  23.92500 53.18800 33.24700
H  22.12500 53.38500 33.68600
H  22.77400 54.46500 32.62600
Mg -10.03800 39.68200 39.89200
C  -9.09600 36.33500 39.18200
C  -6.95500 40.70100 38.79700
C  -11.30200 42.92500 39.61300
C  -13.16400 38.59900 40.74100
N  -8.30900 38.57100 38.85900
C  -8.07100 37.24800 38.76300
C  -6.66800 36.95700 38.24900
C  -5.91900 38.34000 38.52300
C  -7.13500 39.23500 38.76300
C  -5.08300 38.30800 39.86400
C  -6.52900 36.38700 36.78200
C  -6.64100 37.28700 35.57500
H  -7.82400 37.16000 34.62900
N  -9.27000 41.50500 39.28500
C  -7.92900 41.71300 38.96200
C  -7.69300 43.12500 38.92900
C  -8.90400 43.77600 39.06900
C  -9.91700 42.73000 39.31900
C  -6.32400 43.77100 38.74400
C  -9.06100 45.34000 38.94200
O  -8.20300 46.10000 38.58000
C  -10.36900 45.95700 39.39600
N  -11.92300 40.66500 40.01900
C  -12.25600 41.98100 39.87600
C  -13.71700 42.39000 40.14400
C  -14.28700 40.95900 40.53500
C  -13.02800 39.98800 40.44600
C  -13.89200 43.52000 41.22500
C  -15.54300 40.61600 39.67400
C  -16.88300 40.84500 40.21600
N  -10.97200 37.82900 40.11100
C  -12.29500 37.56000 40.45700
C  -12.49900 36.13600 40.37400
C  -11.25800 35.62900 39.90100
C  -10.42900 36.68400 39.65400
C  -13.70300 35.33800 40.68300
C  -10.54600 34.39300 39.57100
O  -11.03900 33.26800 39.55300
C  -9.13600 34.76800 39.06000
C  -8.09000 34.04800 39.81800
O  -7.98300 33.99800 41.03100
O  -7.15600 33.61900 38.97600
C  -5.83700 33.10000 39.41300
H  -5.90400 40.96800 38.67300
H  -11.68300 43.93700 39.45900
H  -14.16900 38.32200 41.06500
H  -6.40800 36.14200 38.92400
H  -5.27300 38.75600 37.75100
H  -5.11300 37.32300 40.33000
H  -5.27300 39.04000 40.64900
H  -4.02600 38.56800 39.79400
H  -7.33500 35.65300 36.77400
H  -5.62600 35.77600 36.77100
H  -5.68600 37.15200 35.06800
H  -6.61700 38.30300 35.97100
H  -6.29200 44.20400 37.74400
H  -5.51000 43.05100 38.83100
H  -6.14600 44.59200 39.43900
H  -10.58700 45.71700 40.43700
H  -11.21400 45.82900 38.72000
H  -10.26300 47.04200 39.40900
H  -14.07600 42.78800 39.19500
H  -14.56100 40.96000 41.59000
H  -12.85300 43.69200 41.50500
H  -14.45200 43.21900 42.11000
H  -14.26300 44.42600 40.74500
H  -15.35600 39.64300 39.22000
H  -15.56700 41.34400 38.86400
H  -17.55100 39.98600 40.15900
H  -17.40400 41.69000 39.76500
H  -16.84200 41.01800 41.29100
H  -14.46400 35.34300 39.90200
H  -14.01700 35.74900 41.64200
H  -13.33700 34.31400 40.61700
H  -9.07100 34.49700 38.00600
H  -5.78800 33.18000 40.49900
H  -4.99000 33.54600 38.89300
H  -5.72600 32.04900 39.14400

