158

Mg 54.36200 24.23100 45.37400
C  51.86100 26.20900 44.32800
C  52.50200 21.39800 44.37200
C  57.12200 22.21000 45.82500
C  56.03200 27.00100 46.67800
N  52.56000 23.92200 44.27200
C  51.64600 24.89000 43.94700
C  50.35700 24.34700 43.32700
C  50.36400 22.85900 43.95000
C  51.89100 22.67500 44.25000
C  49.46000 22.49200 45.16500
C  50.41600 24.48300 41.76800
C  49.18300 23.98300 41.07500
H  48.94900 24.20700 39.62100
N  54.80200 22.14200 45.06400
C  53.88900 21.17400 44.64100
C  54.58700 19.87900 44.55200
C  55.99100 20.08200 44.92400
C  56.02000 21.49700 45.26800
C  53.82800 18.61700 44.18600
C  57.05000 19.00000 44.91200
O  56.83900 17.88100 44.47400
C  58.38300 19.31200 45.46200
N  56.33500 24.50500 45.86800
C  57.23600 23.53800 46.10800
C  58.58800 24.23000 46.61800
C  58.10900 25.73700 47.03800
C  56.71800 25.79800 46.47300
C  59.40300 23.64000 47.78200
C  59.04200 26.88200 46.41200
C  58.88600 27.15200 44.93200
N  54.07600 26.25800 45.55800
C  54.77400 27.32200 46.14300
C  54.01200 28.53400 46.05800
C  52.84900 28.09800 45.38300
C  52.96400 26.73100 45.02800
C  54.31900 29.88700 46.48300
C  51.55500 28.55400 44.96500
O  51.06600 29.64100 45.15400
C  50.87800 27.36300 44.26600
C  50.53700 27.84500 42.91100
O  51.35200 28.36200 42.19500
O  49.23400 27.56900 42.57100
C  48.72000 28.04600 41.35900
H  51.93400 20.46600 44.33300
H  58.07200 21.69800 45.99100
H  56.50500 27.72900 47.34000
H  49.52100 24.83300 43.82900
H  50.09800 22.18400 43.13700
H  50.03400 21.93400 45.90400
H  48.66800 21.87800 44.73600
H  49.05000 23.40900 45.58800
H  51.23900 23.87800 41.38800
H  50.49900 25.54100 41.52000
H  48.26100 24.33600 41.53800
H  49.21500 22.90300 41.21200
H  53.51000 18.63800 43.14300
H  52.95900 18.51900 44.83700
H  54.23600 17.62000 44.35200
H  59.00900 18.42300 45.38400
H  58.46200 19.37300 46.54700
H  58.89600 20.03300 44.82600
H  59.27900 24.09500 45.78600
H  58.03600 25.77600 48.12500
H  60.38200 23.29600 47.45000
H  58.87500 22.75300 48.13300
H  59.61000 24.25900 48.65500
H  60.00300 26.39200 46.56800
H  59.06200 27.70500 47.12600
H  57.86500 27.35200 44.60900
H  59.23500 26.27700 44.38400
H  59.45200 28.03000 44.62100
H  53.47800 30.42900 46.91700
H  54.58900 30.52400 45.64100
H  54.94600 29.90400 47.37500
H  49.93100 27.03600 44.69600
H  48.78600 27.35200 40.52100
H  49.19800 28.97500 41.05000
H  47.73100 28.38000 41.67200
Mg -5.93700 25.51400 26.61700
C  -4.35900 26.95100 29.33700
C  -7.81600 23.51400 28.65100
C  -7.03300 23.82900 23.90300
C  -4.04800 27.44900 24.57300
N  -6.11000 25.29300 28.83000
C  -5.28500 25.91600 29.74400
C  -5.71100 25.48800 31.13000
C  -6.76200 24.27600 30.89600
C  -6.97600 24.37700 29.39700
C  -6.18000 22.99000 31.39800
C  -6.45400 26.72500 31.82900
C  -6.25200 26.89900 33.30500
H  -5.80400 25.69800 34.16800
N  -7.37100 24.03300 26.30700
C  -8.02600 23.37300 27.25700
C  -8.88000 22.30900 26.61600
C  -8.47300 22.31700 25.23300
C  -7.61700 23.44500 25.08200
C  -9.90400 21.46400 27.47500
C  -8.92100 21.30800 24.18100
O  -8.63500 21.29400 22.99800
C  -9.86900 20.19300 24.51000
N  -5.63800 25.71100 24.50100
C  -6.24100 24.90900 23.58300
C  -5.78100 25.16600 22.17300
C  -4.87100 26.39100 22.31200
C  -4.77500 26.55500 23.84900
C  -5.29200 23.98400 21.37200
C  -5.38300 27.73000 21.63800
C  -4.43900 28.55500 20.71500
N  -4.58100 26.96300 26.82600
C  -3.85900 27.59900 25.94200
C  -2.90500 28.45900 26.54100
C  -3.01200 28.21900 27.91500
C  -4.08700 27.29400 28.04000
C  -1.97300 29.48000 25.88600
C  -2.58900 28.58400 29.21600
O  -1.74300 29.36800 29.61600
C  -3.43600 27.76400 30.17800
C  -2.63700 26.94700 31.07400
O  -1.86500 25.96900 30.80000
O  -2.62200 27.51700 32.28400
C  -1.90000 26.76500 33.34700
H  -8.24800 22.79700 29.35200
H  -7.32100 23.27500 23.00800
H  -3.35300 28.10800 24.04900
H  -4.81600 25.13200 31.63800
H  -7.72300 24.41900 31.38900
H  -5.65800 22.57600 30.53500
H  -7.07800 22.40500 31.59800
H  -5.58300 23.08800 32.30400
H  -7.50800 26.73800 31.55300
H  -6.03200 27.58600 31.31000
H  -7.22900 27.16300 33.70900
H  -5.52200 27.69500 33.45200
H  -10.46700 22.06500 28.18900
H  -9.25300 20.84800 28.09600
H  -10.53600 20.85500 26.83000
H  -9.58800 19.62800 25.39900
H  -10.05500 19.52200 23.67200
H  -10.88200 20.57400 24.64200
H  -6.62600 25.47700 21.55800
H  -3.89000 26.13300 21.91400
H  -5.70400 24.07400 20.36700
H  -5.53700 23.03500 21.84900
H  -4.20900 24.03600 21.48700
H  -5.80900 28.37500 22.40700
H  -6.20100 27.51800 20.94900
H  -4.18700 29.47400 21.24600
H  -4.89600 28.64300 19.73000
H  -3.57500 27.94700 20.44700
H  -2.49400 29.90500 25.02800
H  -1.03200 29.14400 25.45000
H  -1.82600 30.21300 26.67900
H  -3.98700 28.45200 30.81800
H  -2.12900 25.70000 33.35400
H  -2.18500 27.08900 34.34800
H  -0.81200 26.83200 33.34500

