158

Mg 0.76600 -1.93000 44.45400
C  4.34900 -1.39700 43.99400
C  0.40300 0.91900 42.47200
C  -2.34600 -2.77700 44.27000
C  1.56400 -4.94600 45.95900
N  2.29500 -0.40000 43.46200
C  3.66000 -0.48000 43.32900
C  4.20300 0.64600 42.45600
C  2.88900 1.41800 42.04800
C  1.74900 0.62600 42.68100
C  2.88300 2.96900 42.38400
C  5.13800 -0.01000 41.31500
C  6.56000 0.66100 41.11300
H  6.91100 0.73000 39.56500
N  -0.76200 -1.04800 43.45000
C  -0.71600 0.10300 42.77100
C  -2.09100 0.48400 42.46000
C  -2.93400 -0.61200 42.83000
C  -2.08600 -1.57800 43.53000
C  -2.44300 1.82200 41.68100
C  -4.45300 -0.62600 42.68000
O  -4.98500 0.33500 42.13900
C  -5.29800 -1.72800 43.13400
N  -0.23800 -3.75600 44.91600
C  -1.55800 -3.67500 44.93800
C  -2.12700 -5.03400 45.46200
C  -0.81700 -5.84600 45.85800
C  0.22900 -4.79000 45.64900
C  -3.15600 -4.79000 46.59800
C  -0.54700 -7.19100 44.99300
C  -0.31200 -8.44000 45.86700
N  2.52100 -2.87000 45.05600
C  2.70900 -4.06700 45.75900
C  4.09700 -4.46300 45.86400
C  4.75100 -3.42100 45.14900
C  3.77100 -2.45000 44.67800
C  4.71300 -5.53300 46.53900
C  6.06400 -2.89100 44.79100
O  7.08700 -3.46500 45.04300
C  5.83400 -1.53200 44.11700
C  6.49100 -0.42000 44.96100
O  6.53700 -0.35400 46.14600
O  7.20100 0.43800 44.09700
C  7.95500 1.40300 44.78500
H  0.38100 1.75600 41.77200
H  -3.40000 -3.05700 44.30600
H  1.72700 -5.90900 46.44800
H  4.78900 1.18100 43.20300
H  2.80400 1.50700 40.96500
H  2.13000 3.07100 43.16600
H  2.77000 3.43600 41.40600
H  3.84300 3.21200 42.84000
H  4.53000 0.07300 40.41400
H  5.31000 -1.08600 41.29700
H  7.26700 0.10300 41.72600
H  6.53300 1.65600 41.55700
H  -1.57900 2.31100 41.23000
H  -3.03500 2.56500 42.21400
H  -2.99300 1.53400 40.78500
H  -5.28300 -1.83300 44.21800
H  -5.10100 -2.73900 42.77800
H  -6.31600 -1.50500 42.81600
H  -2.62300 -5.53400 44.63000
H  -0.69600 -6.10600 46.91000
H  -3.50400 -3.75700 46.58800
H  -2.72500 -4.93900 47.58800
H  -3.96700 -5.50300 46.44400
H  0.36400 -7.01400 44.42200
H  -1.37700 -7.45300 44.33600
H  0.41700 -9.03800 45.32000
H  -1.26700 -8.93500 46.04000
H  0.15500 -8.18200 46.81700
H  5.51100 -5.99200 45.95500
H  4.00900 -6.21700 47.01400
H  5.27900 -5.09600 47.36200
H  6.30700 -1.58700 43.13700
H  8.86600 0.87300 45.06300
H  7.56000 1.94900 45.64200
H  8.18800 2.14600 44.02200
Mg 47.26800 25.43700 27.93700
C  48.75500 27.37100 30.46000
C  45.84700 23.53600 30.26000
C  46.68500 23.24800 25.49600
C  49.36200 27.29100 25.63800
N  47.37700 25.53500 30.17900
C  47.81800 26.44900 30.98000
C  47.25400 26.40100 32.37900
C  46.44000 25.07500 32.36900
C  46.53700 24.69700 30.84000
C  46.93700 24.03800 33.43000
C  46.41800 27.65700 32.89700
C  46.94100 28.30300 34.21200
H  45.90200 28.49300 35.30600
N  46.25900 23.73600 27.88500
C  45.78200 23.04500 29.00900
C  45.12700 21.86800 28.57800
C  45.39900 21.74000 27.20600
C  46.21900 22.91900 26.81800
C  44.53600 20.92300 29.55700
C  45.03200 20.54000 26.30100
O  45.43300 20.47000 25.07900
C  44.15100 19.52100 26.80800
N  48.16200 25.13600 25.88700
C  47.56200 24.25000 25.05300
C  47.86200 24.53400 23.58100
C  48.26500 26.02000 23.69400
C  48.64900 26.19000 25.11400
C  48.97500 23.63300 22.98700
C  47.16500 27.01500 23.30700
C  47.37900 28.57200 23.30200
N  48.68800 26.99000 27.93200
C  49.37200 27.67500 26.96300
C  50.17100 28.77500 27.54700
C  49.91900 28.64300 28.93600
C  49.02200 27.59000 29.13700
C  51.03900 29.73700 26.83100
C  50.12100 29.34600 30.10800
O  50.74000 30.39200 30.31400
C  49.42900 28.49000 31.23100
C  50.42300 28.13400 32.24700
O  51.48600 27.60100 32.10500
O  49.93900 28.55300 33.45900
C  50.88500 28.54700 34.65100
H  45.29900 23.04500 31.06600
H  46.51600 22.57300 24.65400
H  49.88200 27.95400 24.94300
H  48.13500 26.18600 32.98300
H  45.41400 25.30800 32.65400
H  47.30700 24.49900 34.34600
H  47.59400 23.32100 32.93600
H  46.01700 23.52400 33.70800
H  45.38200 27.33900 33.01300
H  46.44700 28.43000 32.12800
H  47.27300 29.30300 33.93300
H  47.78100 27.72200 34.59200
H  43.69200 20.34000 29.18700
H  44.21700 21.33500 30.51500
H  45.42400 20.31200 29.71800
H  44.63000 18.97300 27.61900
H  43.96700 18.79400 26.01700
H  43.15600 19.90300 27.03500
H  46.90600 24.57800 23.05900
H  49.09300 26.17000 23.00200
H  49.00000 22.85400 23.74900
H  49.95000 24.12000 22.98800
H  48.76500 23.24800 21.98900
H  46.27300 26.91700 23.92600
H  46.74500 26.72700 22.34300
H  48.45100 28.67100 23.46900
H  47.03000 28.97000 24.25500
H  47.04300 29.10000 22.41000
H  51.77400 29.12400 26.31000
H  51.62000 30.39100 27.48200
H  50.53200 30.35000 26.08500
H  48.61500 29.04500 31.69800
H  51.48900 27.64000 34.63900
H  50.48200 28.47900 35.66200
H  51.53900 29.37600 34.38000

