158

Mg 36.38800 49.72000 24.54800
C  36.73100 47.87300 27.60000
C  35.43200 52.28500 26.35600
C  35.26400 50.98300 21.60400
C  37.35100 46.72500 22.82500
N  36.03300 50.02300 26.74600
C  36.34600 49.23300 27.78900
C  36.23300 49.92600 29.17900
C  35.89300 51.35500 28.73200
C  35.78600 51.23300 27.19500
C  34.54700 52.04300 29.38200
C  37.54800 49.87200 30.07100
C  37.32200 49.34600 31.53000
H  35.89200 49.38200 32.07700
N  35.64900 51.47000 24.04800
C  35.23700 52.43900 24.94000
C  34.70100 53.53800 24.23800
C  34.81500 53.23400 22.78400
C  35.23000 51.84300 22.79900
C  34.01500 54.73300 24.85700
C  34.54500 54.10900 21.62300
O  34.40700 53.69500 20.46300
C  34.56800 55.59900 21.86300
N  36.37900 48.99000 22.44900
C  35.78300 49.65800 21.42300
C  35.92800 48.95300 20.05200
C  36.78500 47.72900 20.55200
C  36.83000 47.82400 22.06100
C  34.57800 48.50800 19.50100
C  38.30000 47.75200 20.01400
C  38.72100 46.64000 19.00900
N  36.96800 47.72500 25.04900
C  37.35500 46.67500 24.25000
C  37.72300 45.49500 25.09500
C  37.49000 45.91000 26.38400
C  37.03200 47.27200 26.30000
C  38.32700 44.16300 24.70300
C  37.44600 45.47500 27.81600
O  37.58600 44.37500 28.31300
C  37.00800 46.79600 28.66600
C  35.89300 46.32600 29.43900
O  34.78400 46.07600 28.99800
O  36.40500 45.97100 30.65200
C  35.50400 45.16900 31.47100
H  35.19000 53.20800 26.88800
H  35.00400 51.45600 20.65500
H  37.62700 45.76100 22.39200
H  35.39800 49.35100 29.57800
H  36.78600 51.90600 29.02800
H  34.78800 53.02600 29.78900
H  34.16800 51.46700 30.22500
H  33.75400 52.28000 28.67300
H  37.94800 50.86400 30.27900
H  38.26400 49.19900 29.60000
H  38.02700 49.88400 32.16400
H  37.67700 48.31500 31.51500
H  33.04100 54.89300 24.39300
H  34.57300 55.66500 24.77200
H  33.86400 54.55500 25.92200
H  33.66600 55.93600 22.37400
H  34.60700 56.13900 20.91700
H  35.36000 55.89800 22.55000
H  36.51400 49.46200 19.28700
H  36.35500 46.79200 20.19900
H  33.80200 48.75100 20.22700
H  34.54600 47.44100 19.28100
H  34.29500 49.07500 18.61400
H  38.98000 47.71400 20.86500
H  38.44800 48.71200 19.52000
H  38.91100 47.22300 18.10800
H  38.05600 45.78400 18.89000
H  39.74200 46.40000 19.30600
H  37.59600 43.35600 24.75100
H  39.08200 43.87900 25.43600
H  38.58800 44.08900 23.64700
H  37.89000 47.07800 29.24100
H  35.12200 44.32400 30.89900
H  34.62100 45.76000 31.71200
H  36.10400 44.77000 32.28900
Mg -11.66300 38.29800 42.26000
C  -9.43600 35.76800 41.18700
C  -9.74300 40.47800 40.76300
C  -14.30500 40.28300 42.41100
C  -13.69100 35.64500 43.73100
N  -9.90500 38.05000 40.91300
C  -9.14100 36.99800 40.64000
C  -7.93200 37.34100 39.72200
C  -7.90000 38.91000 39.88400
C  -9.24100 39.21700 40.59300
C  -6.69900 39.36100 40.78200
C  -8.11400 36.73100 38.24200
C  -6.96700 35.76300 37.76300
H  -5.88600 36.37000 36.76100
N  -11.96500 40.19300 41.72600
C  -10.96500 40.94500 41.24000
C  -11.47900 42.28400 40.97600
C  -12.88900 42.27800 41.27700
C  -13.15300 40.86100 41.81500
C  -10.66100 43.42300 40.53700
C  -13.82800 43.37200 41.13100
O  -13.44900 44.46600 40.77300
C  -15.26500 43.28600 41.50600
N  -13.86100 37.93700 42.84300
C  -14.66200 38.99300 42.85700
C  -16.02000 38.63200 43.62600
C  -15.83500 37.15700 44.02200
C  -14.39500 36.88500 43.57100
C  -16.37200 39.59200 44.84200
C  -16.91500 36.12900 43.54800
C  -17.22600 34.94200 44.48300
N  -11.62900 36.13300 42.42200
C  -12.39300 35.26400 43.19700
C  -11.77300 33.95200 43.19100
C  -10.60500 34.13900 42.37400
C  -10.55700 35.41300 41.97300
C  -12.16500 32.61600 43.95400
C  -9.45100 33.45600 41.83700
O  -9.09300 32.26300 42.06100
C  -8.65700 34.47400 40.98400
C  -7.25500 34.58800 41.50300
O  -6.80000 35.47800 42.19000
O  -6.56400 33.46700 40.98800
C  -5.12000 33.73900 40.98600
H  -9.07300 41.19400 40.28300
H  -15.12600 40.98800 42.55500
H  -14.27000 34.93100 44.31900
H  -7.03600 36.94200 40.19700
H  -7.83100 39.44500 38.93700
H  -6.29300 40.35400 40.59400
H  -5.85800 38.68200 40.64000
H  -7.03100 39.25500 41.81500
H  -8.03300 37.62000 37.61800
H  -9.09000 36.24700 38.20000
H  -7.36500 34.84700 37.32600
H  -6.42300 35.45900 38.65700
H  -9.61000 43.15600 40.42500
H  -10.81900 44.28000 41.19200
H  -11.00100 43.75500 39.55600
H  -15.73800 42.37500 41.14000
H  -15.80100 44.11600 41.04500
H  -15.34300 43.42100 42.58500
H  -16.79700 38.77600 42.87500
H  -15.76800 37.05100 45.10500
H  -15.39700 39.96400 45.15400
H  -16.91700 38.96000 45.54400
H  -17.03200 40.38900 44.50000
H  -16.53600 35.61700 42.66400
H  -17.85700 36.65800 43.40400
H  -17.02800 34.07200 43.85900
H  -18.26500 34.96800 44.81100
H  -16.66100 34.90700 45.41500
H  -12.93600 32.94000 44.65300
H  -11.30100 32.26800 44.52000
H  -12.53400 31.87900 43.24000
H  -8.67900 34.19800 39.93000
H  -4.80400 34.10200 40.00700
H  -4.59400 32.82000 41.24600
H  -4.86000 34.52900 41.69000

