158

Mg 27.98300 49.97600 26.24100
C  25.87700 50.84600 28.90500
C  30.33300 49.32100 28.65900
C  30.12400 49.21900 23.81600
C  25.39500 50.66200 24.12400
N  28.09500 50.20100 28.50600
C  27.13200 50.45500 29.39900
C  27.51200 50.31700 30.82300
C  29.02500 49.92300 30.74800
C  29.13200 49.80000 29.22200
C  29.97300 50.88300 31.57300
C  26.53000 49.40200 31.65700
C  25.93400 50.00600 32.91700
H  26.01200 49.17900 34.20700
N  29.87600 49.29300 26.19700
C  30.67000 48.99300 27.31100
C  31.97200 48.46700 26.84100
C  31.92700 48.50900 25.41600
C  30.59600 49.02100 25.06400
C  33.10400 48.07800 27.77900
C  33.04600 48.12000 24.45300
O  32.94700 48.34900 23.28500
C  34.30700 47.55000 24.94000
N  27.80900 50.08100 24.27900
C  28.82900 49.56100 23.45600
C  28.29900 49.54500 21.99300
C  26.74600 49.67500 22.20500
C  26.56400 50.07800 23.67800
C  28.97200 50.65600 21.12000
C  26.02800 48.25800 21.92300
C  25.17200 48.12400 20.59200
N  26.07700 50.76400 26.46500
C  25.10500 51.02100 25.49200
C  23.88400 51.57000 26.06000
C  24.18700 51.47300 27.41400
C  25.47700 50.97500 27.60300
C  22.68600 52.02700 25.37800
C  23.68300 51.76000 28.71700
O  22.57300 52.08500 29.06500
C  24.71100 51.41700 29.69200
C  25.03100 52.64300 30.48200
O  25.83400 53.49200 30.13100
O  24.29900 52.70700 31.62200
C  24.65200 53.81400 32.52900
H  31.03300 49.07400 29.46000
H  30.79200 48.82300 23.04800
H  24.57900 50.60500 23.40000
H  27.40000 51.31900 31.23700
H  29.17600 48.88200 31.03100
H  30.86800 51.11100 30.99600
H  30.35500 50.36300 32.45200
H  29.47600 51.77400 31.95700
H  27.01400 48.46900 31.94600
H  25.66700 49.04800 31.09500
H  24.88000 50.26400 32.81100
H  26.36600 50.98400 33.12900
H  33.87600 48.82900 27.61000
H  33.37700 47.05000 27.54100
H  32.75600 48.26400 28.79500
H  34.83000 48.17100 25.66800
H  34.91800 47.52000 24.03800
H  34.11600 46.54000 25.30300
H  28.52100 48.55000 21.60500
H  26.29900 50.48800 21.63500
H  29.64800 51.37700 21.57900
H  28.19400 51.17900 20.56400
H  29.46600 50.08800 20.33300
H  25.54900 48.08300 22.88600
H  26.78200 47.47300 21.98300
H  25.21200 48.95500 19.88800
H  24.15300 47.99600 20.95500
H  25.49000 47.24600 20.03000
H  22.24500 51.38300 24.61800
H  23.03300 52.96600 24.94500
H  21.93300 52.09200 26.16300
H  24.20800 50.75400 30.39600
H  25.45800 53.53200 33.20600
H  23.76200 53.97300 33.13800
H  24.74900 54.73000 31.94600
Mg 2.35800 41.67300 25.42400
C  4.59300 41.75400 28.12000
C  -0.07000 40.74100 27.68000
C  0.31500 41.13500 22.78700
C  4.92700 42.35400 23.21500
N  2.23600 41.38500 27.72600
C  3.26100 41.56700 28.61900
C  2.79700 41.53500 30.08800
C  1.28300 40.99200 29.96200
C  1.11400 40.97700 28.33600
C  1.17900 39.55000 30.64500
C  2.79900 42.95500 30.68400
C  2.31300 43.25900 32.17700
H  2.26500 42.15500 33.22500
N  0.42900 41.07500 25.28900
C  -0.39200 40.74500 26.36300
C  -1.63600 40.34400 25.80000
C  -1.55500 40.35600 24.38800
C  -0.22400 40.93100 24.08800
C  -2.70800 39.78700 26.71600
C  -2.58200 40.01400 23.34900
O  -2.41700 40.32300 22.14600
C  -3.93300 39.34500 23.69200
N  2.51100 41.82400 23.29200
C  1.55300 41.71700 22.46900
C  2.01500 42.03700 21.03200
C  3.47600 42.55500 21.21500
C  3.67700 42.30500 22.66700
C  1.82700 40.91100 19.97300
C  3.76200 44.09100 20.80500
C  4.04100 44.37100 19.32800
N  4.32800 41.97800 25.54300
C  5.24600 42.30500 24.61100
C  6.55300 42.40000 25.18600
C  6.35100 42.09400 26.50500
C  4.95500 41.86100 26.72600
C  7.76400 42.93500 24.48100
C  7.00300 42.00100 27.79700
O  8.22500 41.97100 28.07700
C  5.86400 41.91200 28.94800
C  6.10000 40.83900 29.94000
O  5.79900 39.66200 29.80500
O  6.43600 41.31000 31.16600
C  6.34700 40.56400 32.42900
H  -0.85900 40.53300 28.40500
H  -0.30500 40.92600 21.91300
H  5.72400 42.72200 22.56500
H  3.45600 40.86600 30.64200
H  0.55700 41.69200 30.37800
H  0.81000 38.83600 29.91000
H  0.40900 39.57400 31.41700
H  2.11200 39.17200 31.06300
H  2.15400 43.60700 30.09600
H  3.78600 43.39700 30.55100
H  1.36800 43.80100 32.13100
H  3.04500 44.00900 32.47900
H  -2.23500 39.17500 27.48500
H  -3.50500 39.20900 26.24800
H  -3.11700 40.70400 27.14000
H  -4.38600 39.20100 22.71100
H  -4.43900 40.02000 24.38300
H  -3.57100 38.42200 24.14400
H  1.45000 42.91600 20.72400
H  4.18900 41.94100 20.66400
H  2.79400 40.74700 19.49800
H  1.06500 41.13100 19.22500
H  1.43900 40.01300 20.45500
H  4.66800 44.42300 21.31300
H  3.01400 44.71600 21.29200
H  4.03800 43.44200 18.75800
H  5.08500 44.67000 19.24400
H  3.37700 45.13000 18.91200
H  8.60100 42.29500 24.75900
H  7.95700 43.90900 24.93200
H  7.85700 42.96200 23.39500
H  5.92200 42.84500 29.50900
H  5.63800 39.74200 32.32400
H  5.95400 41.14600 33.26300
H  7.33900 40.18600 32.67200

