158

Mg 17.92600 -0.22300 28.13900
C  16.51800 2.00800 30.50700
C  19.49100 -1.82500 30.88900
C  19.58200 -1.95400 25.88500
C  16.49000 1.70400 25.64500
N  17.96300 0.10300 30.48700
C  17.23600 1.04700 31.18100
C  17.42900 0.79300 32.68200
C  18.66600 -0.18500 32.74100
C  18.74800 -0.69400 31.27900
C  20.02700 0.52000 33.24500
C  16.04100 0.24200 33.33300
C  15.85700 0.65200 34.81500
H  17.11300 0.98800 35.55400
N  19.33100 -1.77800 28.36100
C  19.72300 -2.33600 29.55900
C  20.59800 -3.50200 29.17200
C  20.72300 -3.56400 27.72800
C  19.86300 -2.38300 27.24100
C  21.32400 -4.32900 30.22100
C  21.51700 -4.49800 26.77900
O  21.41800 -4.49400 25.57600
C  22.31200 -5.59200 27.42600
N  17.85900 -0.26100 26.02900
C  18.74900 -0.99400 25.30000
C  18.83100 -0.45100 23.85000
C  17.80100 0.67600 23.80600
C  17.27300 0.68200 25.23400
C  20.23800 -0.03500 23.25800
C  16.72700 0.34900 22.67700
C  17.06400 0.37500 21.25100
N  16.68200 1.44200 28.07800
C  16.18800 2.07600 26.97600
C  15.27700 3.16700 27.42900
C  15.43000 3.18600 28.81500
C  16.31300 2.14900 29.14900
C  14.50700 4.16600 26.57900
C  15.05800 3.92900 29.99500
O  14.41000 4.99400 30.06100
C  15.73500 3.13900 31.23300
C  16.69900 4.15700 31.74500
O  17.79500 4.31400 31.24700
O  16.30600 4.54300 33.04000
C  17.41900 5.28700 33.70400
H  19.77700 -2.49300 31.70400
H  20.16500 -2.55000 25.18000
H  16.01200 2.29300 24.85900
H  17.79000 1.74700 33.06700
H  18.42500 -1.01700 33.40300
H  19.83700 1.42200 33.82700
H  20.65800 0.67600 32.37000
H  20.65100 -0.21700 33.75100
H  16.20500 -0.82900 33.44800
H  15.18700 0.36100 32.66500
H  15.37900 -0.19500 35.30600
H  15.18900 1.50800 34.90800
H  22.29200 -4.61700 29.81100
H  20.75900 -5.24900 30.37300
H  21.61600 -3.76000 31.10400
H  22.92500 -6.18200 26.74500
H  21.72200 -6.24600 28.06800
H  23.09300 -5.22600 28.09300
H  18.51500 -1.32600 23.28300
H  18.30900 1.61900 23.60500
H  20.20900 0.92800 22.74800
H  20.39700 -0.82500 22.52400
H  21.00300 -0.00600 24.03400
H  15.86600 1.00800 22.79500
H  16.43500 -0.66900 22.93500
H  16.65700 1.27200 20.78600
H  16.61500 -0.47000 20.72800
H  18.14500 0.48100 21.16300
H  14.93700 3.97900 25.59500
H  14.85400 5.15500 26.87700
H  13.41700 4.14700 26.55800
H  15.08300 2.93600 32.08300
H  17.48600 5.03600 34.76300
H  17.24000 6.34100 33.48900
H  18.43300 5.07300 33.36600
Mg -11.06000 39.24900 41.14600
C  -9.65200 36.15100 40.33600
C  -8.45000 40.83500 39.48400
C  -12.88100 42.14400 41.15400
C  -13.80300 37.46000 42.22800
N  -9.28200 38.54000 40.12900
C  -9.00000 37.23900 39.74600
C  -7.76100 37.25900 38.80500
C  -7.15800 38.70700 39.07000
C  -8.40700 39.43100 39.59900
C  -6.03900 38.53000 40.12000
C  -8.18200 37.05700 37.40300
C  -7.23100 36.15400 36.56500
H  -7.02600 36.51600 35.10900
N  -10.71000 41.23800 40.51200
C  -9.57700 41.65200 39.84100
C  -9.64300 43.13800 39.71600
C  -10.83500 43.56500 40.30700
C  -11.55500 42.28100 40.62500
C  -8.55400 43.82300 39.02700
C  -11.19900 45.06600 40.50200
O  -10.35700 45.94800 40.23400
C  -12.45300 45.45800 41.15100
N  -13.06200 39.70600 41.41200
C  -13.56300 40.96900 41.43700
C  -14.99200 40.97500 41.84000
C  -15.33800 39.44900 42.04300
C  -14.03000 38.80200 41.79700
C  -15.31300 41.92200 43.10500
C  -16.45600 38.86700 41.13300
C  -17.87000 38.58500 41.75100
N  -11.60400 37.19500 41.40000
C  -12.70700 36.65700 41.92400
C  -12.56100 35.22800 42.03700
C  -11.31600 34.99600 41.42300
C  -10.82300 36.20800 40.99600
C  -13.51800 34.25700 42.66600
C  -10.36900 33.96900 41.13500
O  -10.32300 32.74300 41.37300
C  -9.25500 34.70900 40.25100
C  -7.94800 34.44900 40.97500
O  -7.38700 35.11900 41.83700
O  -7.39400 33.30600 40.39400
C  -6.23000 32.86800 41.11200
H  -7.56400 41.28900 39.03600
H  -13.38100 43.07100 41.44600
H  -14.69200 36.92700 42.57100
H  -7.09400 36.46500 39.14000
H  -6.92400 39.29900 38.18500
H  -6.17000 37.74000 40.86000
H  -5.89700 39.38600 40.78000
H  -5.15700 38.39300 39.49400
H  -8.14900 37.97900 36.82200
H  -9.18900 36.64300 37.36300
H  -7.47900 35.09300 36.61300
H  -6.26100 36.31300 37.03600
H  -8.57400 43.61000 37.95900
H  -7.59800 43.53800 39.46500
H  -8.70800 44.90100 39.09200
H  -12.44300 44.97000 42.12600
H  -13.31900 45.03700 40.64100
H  -12.57100 46.54100 41.19900
H  -15.63800 41.32700 41.03600
H  -15.74400 39.39300 43.05300
H  -14.55300 42.59800 43.49600
H  -15.59200 41.37000 44.00200
H  -16.21700 42.45200 42.80300
H  -16.23800 37.87100 40.74800
H  -16.66900 39.44400 40.23300
H  -17.74800 37.91100 42.59900
H  -18.60400 38.36800 40.97500
H  -18.10700 39.57500 42.14000
H  -13.54800 34.48100 43.73200
H  -13.29900 33.20500 42.48300
H  -14.57500 34.43200 42.46600
H  -9.17100 34.47000 39.19100
H  -6.04800 31.88800 40.67100
H  -6.42200 32.67800 42.16800
H  -5.45900 33.59500 40.85600

