158

Mg 36.39300 49.62600 24.38200
C  36.49500 48.09600 27.50400
C  35.10000 52.42800 26.17000
C  35.60600 51.01400 21.52200
C  37.15500 46.62300 22.89700
N  35.83700 50.15400 26.58200
C  36.05500 49.39600 27.66300
C  35.78400 50.09600 29.02600
C  35.32000 51.56600 28.48600
C  35.38900 51.37000 26.99900
C  33.82200 51.90300 28.98700
C  37.01500 50.21000 29.92100
C  36.72800 49.69300 31.35600
H  35.27400 49.68800 31.95300
N  35.69100 51.56700 23.83700
C  35.27300 52.54200 24.73900
C  34.88900 53.71400 23.98900
C  34.99900 53.40200 22.58200
C  35.44700 51.93900 22.56800
C  34.27200 54.92700 24.66700
C  34.62700 54.17400 21.33300
O  34.68200 53.69500 20.16100
C  34.16900 55.53600 21.42400
N  36.26800 48.91600 22.49900
C  36.04100 49.71400 21.45400
C  36.32100 48.94500 20.13200
C  36.95600 47.62900 20.66800
C  36.76600 47.73200 22.14100
C  35.02300 48.76900 19.26200
C  38.40300 47.46800 20.18200
C  39.45500 48.52500 20.75100
N  36.87300 47.78300 24.96000
C  37.25200 46.62000 24.32700
C  37.73900 45.65000 25.20900
C  37.42300 46.18900 26.43900
C  36.89400 47.47400 26.29100
C  38.09600 44.22000 24.91000
C  37.36700 45.78000 27.87100
O  37.73000 44.74900 28.43700
C  36.85600 47.10200 28.59200
C  35.57800 46.64500 29.15800
O  34.47800 46.71100 28.62000
O  35.82300 45.90900 30.31100
C  34.64100 45.45900 30.98000
H  34.81100 53.28800 26.77800
H  35.33500 51.51800 20.59200
H  37.47100 45.74700 22.32700
H  34.93100 49.54900 29.42700
H  35.96400 52.35600 28.87400
H  33.41100 51.20500 29.71600
H  33.04300 51.96100 28.22700
H  33.87400 52.93500 29.33400
H  37.27400 51.25900 30.06100
H  37.89500 49.67000 29.57200
H  37.27600 50.25700 32.11200
H  37.09400 48.66600 31.37700
H  33.75200 54.55800 25.55100
H  33.59500 55.50300 24.03500
H  35.13000 55.50000 25.02000
H  34.82100 56.04400 22.13500
H  33.09900 55.52500 21.62900
H  34.16500 55.97200 20.42500
H  36.95700 49.63700 19.57900
H  36.40100 46.79500 20.23700
H  34.18000 49.40500 19.53000
H  34.75400 47.71900 19.15000
H  35.24800 49.04400 18.23200
H  38.50700 47.36800 19.10200
H  38.70100 46.44100 20.39300
H  40.02000 48.02100 21.53500
H  39.04100 49.50300 20.99900
H  40.14400 48.72900 19.93100
H  38.56000 44.16700 23.92500
H  37.17100 43.65200 24.81400
H  38.69500 43.72200 25.67300
H  37.45700 47.47800 29.41900
H  34.09200 44.70500 30.41600
H  33.99400 46.31100 31.19100
H  34.94500 45.13600 31.97600
Mg -6.75400 26.00000 25.71000
C  -4.88200 27.47000 28.38900
C  -7.94000 23.72200 28.01600
C  -8.18500 24.55300 23.27800
C  -5.18800 28.38600 23.58300
N  -6.41200 25.66100 27.92400
C  -5.68900 26.41500 28.83400
C  -5.87100 26.11700 30.31600
C  -6.77100 24.79900 30.14200
C  -7.04300 24.64400 28.59600
C  -6.28800 23.51100 30.81200
C  -6.66900 27.31600 30.93600
C  -6.58300 27.47500 32.47800
H  -6.08000 26.35000 33.35800
N  -7.90100 24.37700 25.63900
C  -8.38300 23.56500 26.66900
C  -9.36000 22.66300 26.20000
C  -9.56600 22.91200 24.73900
C  -8.44800 23.98400 24.48900
C  -10.13700 21.75500 27.10300
C  -10.60800 22.55000 23.80200
O  -10.65500 22.88100 22.65400
C  -11.70900 21.69800 24.26600
N  -6.68800 26.36200 23.74000
C  -7.43200 25.62100 22.87400
C  -7.41200 26.16500 21.41600
C  -6.40000 27.37700 21.53300
C  -6.03700 27.44800 23.05300
C  -6.99600 25.08500 20.38500
C  -6.81500 28.77000 20.93900
C  -6.29100 29.33000 19.53700
N  -5.29100 27.67700 25.90400
C  -4.85900 28.57800 24.95000
C  -3.91900 29.48200 25.56000
C  -3.86800 29.10100 26.95600
C  -4.73600 27.96900 27.08300
C  -2.98100 30.43700 24.87600
C  -3.27100 29.36000 28.22300
O  -2.43600 30.20800 28.61000
C  -3.94800 28.37500 29.20000
C  -2.80600 27.58700 29.84300
O  -1.86900 27.20000 29.25400
O  -3.00800 27.47400 31.16500
C  -2.18700 26.38700 31.72300
H  -8.48800 23.18300 28.79100
H  -8.83200 24.28900 22.43900
H  -4.50800 28.81800 22.84500
H  -4.91200 25.89400 30.78500
H  -7.73700 24.97900 30.61400
H  -6.37700 22.67600 30.11700
H  -6.92500 23.38300 31.68700
H  -5.23500 23.45500 31.08600
H  -7.72300 27.16400 30.70400
H  -6.44000 28.24600 30.41700
H  -7.61700 27.65900 32.77000
H  -5.88500 28.31200 32.51700
H  -10.25100 20.77400 26.64300
H  -11.12300 22.17500 27.30200
H  -9.63200 21.55000 28.04700
H  -12.02600 22.13400 25.21300
H  -11.26500 20.70300 24.30200
H  -12.41100 21.74400 23.43300
H  -8.35400 26.60400 21.08500
H  -5.51100 27.03900 21.00100
H  -7.70400 25.08500 19.55600
H  -6.79900 24.13400 20.87900
H  -6.03800 25.38700 19.96300
H  -6.70700 29.59100 21.64800
H  -7.90400 28.77300 20.90100
H  -7.04300 29.07500 18.79000
H  -5.39500 28.77500 19.25500
H  -6.12600 30.40700 19.52900
H  -2.97300 31.40600 25.37600
H  -3.33700 30.73400 23.88900
H  -1.95900 30.07100 24.77800
H  -4.42000 28.96300 29.98700
H  -2.53900 25.46900 31.25200
H  -2.42100 26.34700 32.78700
H  -1.11800 26.59400 31.66600

