158

Mg 54.07000 24.68600 44.80800
C  51.02300 26.30700 44.02300
C  52.47300 21.66300 44.08000
C  57.03100 23.28600 44.86800
C  55.48400 27.66100 45.74800
N  52.05000 24.10400 43.88600
C  50.94700 24.89300 43.75800
C  49.74900 24.00600 43.33100
C  50.13100 22.61700 43.92700
C  51.68100 22.79800 43.97600
C  49.43200 22.38300 45.33700
C  49.46800 23.99800 41.75800
C  48.00300 23.75500 41.20100
H  47.87200 23.65500 39.69100
N  54.67200 22.79600 44.33300
C  53.92200 21.67700 44.06100
C  54.73600 20.55900 43.85700
C  56.03100 21.00300 44.04700
C  56.00300 22.40500 44.46000
C  54.34300 19.15100 43.40800
C  57.33700 20.14200 43.69300
O  57.31600 18.97400 43.34500
C  58.64200 20.73900 43.99900
N  56.01600 25.40800 45.06500
C  57.10300 24.65000 45.09300
C  58.47000 25.33200 45.47600
C  57.84200 26.73400 45.94800
C  56.34600 26.61200 45.58900
C  59.41900 24.59800 46.42600
C  58.43700 27.97600 45.14500
C  58.99100 29.21400 45.93300
N  53.42100 26.57900 44.90000
C  54.11200 27.70400 45.37500
C  53.18600 28.81600 45.45400
C  51.98800 28.34000 44.88300
C  52.18000 27.00300 44.49700
C  53.46400 30.22300 45.98600
C  50.60900 28.69900 44.52900
O  49.98600 29.72100 44.74300
C  49.98500 27.41600 43.84500
C  49.84200 27.69400 42.41100
O  50.72400 28.17400 41.69500
O  48.52900 27.48400 41.96000
C  48.17100 27.95400 40.67200
H  51.94200 20.73400 43.86000
H  58.08000 22.98200 44.83300
H  55.82100 28.66900 46.00200
H  48.82900 24.34700 43.80400
H  49.93600 21.82400 43.20400
H  50.19300 22.14200 46.07900
H  48.65500 21.62200 45.26400
H  49.11000 23.35300 45.71400
H  49.96600 23.12700 41.33300
H  49.81600 24.91100 41.27600
H  47.33500 24.55900 41.51100
H  47.67300 22.86000 41.72900
H  53.27100 18.98500 43.31100
H  54.66200 18.38000 44.11000
H  54.75000 18.97600 42.41200
H  58.57600 21.59400 43.32600
H  59.40300 20.08700 43.57100
H  58.91900 20.96400 45.02900
H  58.94700 25.51600 44.51300
H  57.95500 26.83900 47.02700
H  60.37900 24.33700 45.98000
H  58.98000 23.65700 46.75700
H  59.56900 25.16100 47.34800
H  57.71000 28.30500 44.40200
H  59.41900 27.76200 44.72500
H  59.14200 28.96200 46.98300
H  58.36400 30.09600 45.80200
H  59.99900 29.48400 45.61900
H  52.54000 30.77200 45.80100
H  54.39200 30.54200 45.51200
H  53.51000 30.13300 47.07200
H  49.03800 27.08000 44.26800
H  48.92800 28.16900 39.91700
H  47.71000 28.93100 40.81800
H  47.43200 27.23900 40.31100
Mg -1.21600 35.36800 26.80000
C  -2.98300 33.79200 29.39000
C  -0.09600 37.68800 29.12400
C  0.45500 36.86100 24.45800
C  -2.49500 32.96100 24.58500
N  -1.55900 35.68200 28.95900
C  -2.19000 34.88200 29.83400
C  -2.00900 35.26200 31.29700
C  -1.36200 36.68400 31.15800
C  -0.95100 36.67300 29.62700
C  -2.24100 37.83500 31.59500
C  -1.10100 34.19500 31.99200
C  -0.67100 34.58800 33.41300
H  -0.57800 33.64100 34.63300
N  -0.03800 37.13000 26.78900
C  0.26000 37.94100 27.81600
C  1.10700 38.99200 27.30100
C  1.07900 38.91700 25.88900
C  0.47200 37.62700 25.64600
C  1.71600 39.93300 28.23600
C  1.78600 39.85900 24.90300
O  1.98800 39.44800 23.78700
C  2.39300 41.10100 25.35900
N  -1.16600 35.01000 24.81700
C  -0.15700 35.67900 24.07700
C  -0.18600 35.23600 22.62300
C  -1.01300 33.91800 22.73300
C  -1.64800 33.94400 24.11500
C  -0.81700 36.20400 21.65000
C  -0.07000 32.61900 22.54700
C  0.91200 32.23900 23.68300
N  -2.60200 33.66100 26.87200
C  -3.00600 32.84500 25.88200
C  -4.04500 31.98400 26.44000
C  -3.96500 32.26800 27.84400
C  -3.14300 33.33400 28.04800
C  -4.99800 31.05400 25.75400
C  -4.45300 31.85200 29.13600
O  -5.19500 30.92000 29.43500
C  -3.87200 32.85100 30.21300
C  -5.01600 33.61800 30.78400
O  -5.76100 34.40700 30.19500
O  -5.25000 33.17800 32.10600
C  -6.46300 33.66000 32.77700
H  0.30300 38.20600 29.99900
H  1.11300 37.15100 23.63500
H  -2.84100 32.23200 23.84900
H  -2.98500 35.32300 31.77800
H  -0.42200 36.86500 31.67800
H  -1.87200 38.28700 32.51600
H  -3.26000 37.51500 31.81400
H  -2.43800 38.53900 30.78700
H  -0.32000 33.88700 31.29700
H  -1.74300 33.33100 32.16600
H  -1.22100 35.43100 33.83200
H  0.29600 35.05600 33.22300
H  1.54400 39.78500 29.30300
H  1.69800 40.97200 27.90700
H  2.75400 39.76400 27.94900
H  3.12900 41.50300 24.66200
H  3.07800 40.99500 26.20100
H  1.63600 41.87300 25.49600
H  0.86700 35.07000 22.39300
H  -1.75300 33.86300 21.93400
H  -1.81100 35.93300 21.29500
H  -0.10300 36.44600 20.86300
H  -0.96600 37.12700 22.21100
H  0.60100 32.84500 21.71800
H  -0.80600 31.83800 22.36000
H  0.80600 31.15500 23.73400
H  0.66400 32.67100 24.65300
H  1.93000 32.44100 23.35200
H  -4.71400 30.07800 26.14800
H  -4.85100 30.96900 24.67700
H  -5.98200 31.43200 26.03100
H  -3.34300 32.30500 30.99500
H  -6.83700 32.76800 33.28000
H  -7.31600 33.87500 32.13300
H  -6.31900 34.33800 33.61800

