158

Mg 1.14000 7.45000 25.11900
C  1.62700 9.27200 28.28000
C  1.03000 4.62100 26.94800
C  1.05600 5.89900 22.19000
C  1.89200 10.57100 23.44800
N  1.50200 6.99600 27.37600
C  1.53800 7.89500 28.46600
C  1.42500 7.11400 29.73600
C  1.48400 5.58100 29.29100
C  1.31400 5.71000 27.77800
C  2.79500 4.79300 29.60600
C  0.14900 7.52300 30.66700
C  0.17800 7.57700 32.20000
H  1.42000 7.00400 33.00700
N  0.99800 5.49700 24.57300
C  0.86600 4.49600 25.49000
C  0.66400 3.25200 24.72600
C  0.66700 3.57300 23.34000
C  0.89900 5.03600 23.29800
C  0.55900 1.79500 25.33900
C  0.57400 2.69100 22.13700
O  0.64400 3.11200 21.01200
C  0.31200 1.26100 22.29600
N  1.32400 8.15800 23.12700
C  1.25600 7.31400 22.10800
C  1.41100 8.04700 20.81600
C  1.60000 9.50400 21.30200
C  1.57800 9.41300 22.74000
C  2.60800 7.51000 19.93200
C  0.47200 10.52300 20.85700
C  -0.89700 10.68800 21.60500
N  1.58800 9.46800 25.69600
C  1.78800 10.66100 24.86000
C  1.92900 11.86900 25.76200
C  1.81800 11.33000 27.07000
C  1.61900 9.91500 27.01200
C  2.10900 13.34700 25.43600
C  1.92100 11.70400 28.58700
O  2.01900 12.81900 29.08400
C  1.72100 10.30900 29.31200
C  2.84800 10.15400 30.28900
O  4.00600 9.87200 30.06200
O  2.29200 10.46800 31.50100
C  3.15800 10.37700 32.67300
H  0.88200 3.70700 27.52700
H  0.87100 5.42100 21.22600
H  2.16500 11.46200 22.87900
H  2.31000 7.37900 30.31400
H  0.63600 5.02400 29.69000
H  3.32300 5.43300 30.31300
H  3.31600 4.43900 28.71700
H  2.60300 3.96000 30.28300
H  -0.57500 6.77000 30.35300
H  -0.20000 8.52800 30.43100
H  -0.76700 7.16600 32.55600
H  0.16400 8.60100 32.57300
H  1.41200 1.15900 25.10000
H  -0.29100 1.23900 24.94400
H  0.45600 1.92300 26.41700
H  -0.56500 1.10500 22.92300
H  1.12500 0.74600 22.80800
H  0.19700 0.72800 21.35200
H  0.50400 8.01400 20.21100
H  2.56900 9.93700 21.05200
H  3.00600 8.30000 19.29600
H  2.32300 6.66700 19.30100
H  3.43800 7.22700 20.58000
H  0.30800 10.17100 19.83900
H  0.89700 11.52600 20.88900
H  -1.72800 10.85000 20.91900
H  -0.70700 11.48900 22.31800
H  -1.06700 9.79100 22.20100
H  2.90700 13.62600 24.74800
H  2.24500 13.88000 26.37700
H  1.17000 13.63200 24.96200
H  0.77100 10.43000 29.83200
H  3.57200 11.38400 32.72900
H  4.04400 9.78500 32.44500
H  2.65400 10.10600 33.60100
Mg -11.26500 38.00700 42.69500
C  -9.06800 35.40100 41.46800
C  -9.42100 40.19100 40.98600
C  -13.83000 40.00400 42.96700
C  -13.26300 35.32200 44.16400
N  -9.54800 37.74000 41.26100
C  -8.81100 36.61900 40.96700
C  -7.61900 36.97300 40.09900
C  -7.60700 38.57500 40.24600
C  -8.97400 38.89500 40.85600
C  -6.40700 39.13000 41.08400
C  -7.78900 36.46100 38.65400
C  -6.62600 35.60900 38.24200
H  -5.54000 36.26800 37.38200
N  -11.65300 39.88100 42.06400
C  -10.71100 40.66100 41.45700
C  -11.17000 41.97100 41.38800
C  -12.43100 41.99400 42.06600
C  -12.73900 40.59300 42.40900
C  -10.36800 42.96500 40.69200
C  -13.23300 43.21400 42.30200
O  -12.87000 44.34700 41.87500
C  -14.53600 43.14100 43.04000
N  -13.25500 37.65000 43.43600
C  -14.12700 38.70100 43.38100
C  -15.49000 38.28700 43.98200
C  -15.35800 36.72800 44.15900
C  -13.85300 36.52400 43.91000
C  -16.00600 39.11800 45.18500
C  -16.20700 35.81200 43.18700
C  -17.21300 34.86800 43.82000
N  -11.11600 35.85100 42.98100
C  -11.95500 34.94800 43.68800
C  -11.22200 33.64500 43.67400
C  -10.10800 33.78900 42.82800
C  -10.10200 35.13000 42.40200
C  -11.71700 32.49000 44.33900
C  -9.03700 33.05000 42.21300
O  -8.79400 31.82500 42.29500
C  -8.28200 34.08400 41.27300
C  -6.80400 34.02900 41.64000
O  -6.23200 34.83900 42.38700
O  -6.21000 32.98000 41.01000
C  -4.76100 32.75100 41.36100
H  -8.80100 41.03100 40.66600
H  -14.68900 40.67600 43.01800
H  -13.87300 34.52300 44.59100
H  -6.71000 36.55100 40.52700
H  -7.45000 39.08200 39.29400
H  -5.93300 39.78400 40.35200
H  -5.63700 38.42500 41.39800
H  -6.68400 39.73100 41.95000
H  -7.70200 37.33400 38.00800
H  -8.78600 36.04200 38.51600
H  -7.03800 34.70900 37.78400
H  -6.20900 35.18300 39.15500
H  -9.42700 43.19700 41.19000
H  -10.86600 43.91600 40.50200
H  -10.13200 42.69200 39.66300
H  -15.26200 42.66100 42.38300
H  -14.73100 44.18800 43.27300
H  -14.37800 42.67900 44.01500
H  -16.30000 38.38600 43.26000
H  -15.63200 36.38000 45.15500
H  -16.84600 39.63800 44.72500
H  -15.27100 39.86700 45.47900
H  -16.38600 38.49300 45.99200
H  -15.50300 35.22500 42.59600
H  -16.69600 36.37000 42.38800
H  -17.56500 35.37600 44.71900
H  -16.77100 33.92800 44.14800
H  -18.13200 34.79600 43.23900
H  -12.29900 32.49700 45.26100
H  -10.86700 31.96500 44.77500
H  -12.07700 31.66900 43.72100
H  -8.42800 33.78200 40.23600
H  -4.52600 31.73700 41.03600
H  -4.64400 32.89200 42.43500
H  -4.06200 33.47200 40.93700

