158

Mg 43.79500 4.57400 47.09700
C  41.83900 7.60000 46.54300
C  41.02300 2.82900 46.23000
C  45.84800 1.97000 46.77700
C  46.67700 6.78600 47.08000
N  41.68600 5.18100 46.38100
C  41.09900 6.39100 46.55600
C  39.59800 6.23600 46.49100
C  39.42200 4.67600 46.54500
C  40.81100 4.15600 46.38700
C  38.66800 4.17200 47.78700
C  38.82700 6.94200 45.25100
C  39.59600 7.08200 43.98600
H  39.07800 6.22800 42.81800
N  43.44300 2.60600 46.70200
C  42.24800 2.05500 46.34100
C  42.47900 0.70000 46.05800
C  43.78100 0.41000 46.45800
C  44.42700 1.66600 46.71500
C  41.40300 -0.25700 45.53600
C  44.46000 -1.01500 46.54800
O  43.90600 -1.93900 46.01200
C  45.71300 -1.16700 47.34300
N  45.94300 4.38000 46.87500
C  46.50900 3.16100 46.93000
C  48.07900 3.25900 46.95900
C  48.34900 4.81000 46.98500
C  46.89900 5.40800 47.01900
C  48.67900 2.51300 48.26300
C  49.23900 5.34300 45.76100
C  50.43200 4.54700 45.30700
N  44.25600 6.74100 46.93400
C  45.45400 7.44700 46.96700
C  45.18500 8.86900 46.76400
C  43.77300 8.97200 46.62700
C  43.26600 7.67000 46.69800
C  46.14400 10.05100 46.68700
C  42.62500 9.91200 46.62500
O  42.65000 11.11400 46.66900
C  41.38000 9.05800 46.46800
C  40.42300 9.25900 47.60800
O  40.59500 8.72200 48.71900
O  39.41200 10.05800 47.21400
C  38.32300 10.13900 48.17100
H  40.12800 2.20300 46.21400
H  46.57800 1.16800 46.64800
H  47.53200 7.46500 47.08100
H  39.21300 6.64900 47.42400
H  38.77800 4.33100 45.73600
H  39.31600 3.85900 48.60500
H  38.12100 3.29900 47.43000
H  38.08500 4.98300 48.22400
H  38.48900 7.86800 45.71700
H  37.85000 6.49500 45.06700
H  40.62000 6.72400 44.08400
H  39.55900 8.13800 43.72100
H  40.41500 0.20100 45.50100
H  41.30900 -1.11000 46.20900
H  41.72700 -0.56400 44.54200
H  45.87400 -0.57900 48.24700
H  46.57800 -1.03400 46.69400
H  45.73100 -2.18300 47.73700
H  48.48800 2.75700 46.08200
H  48.82200 5.01100 47.94500
H  47.83600 2.14500 48.84800
H  49.41000 3.03000 48.88400
H  49.17000 1.62200 47.87100
H  49.61500 6.33100 46.02500
H  48.50900 5.43300 44.95600
H  50.27300 4.05200 44.34900
H  50.63000 3.73800 46.01000
H  51.37600 5.09300 45.29300
H  45.74400 10.66300 47.49500
H  46.14900 10.64900 45.77600
H  47.15100 9.71100 46.93000
H  41.01900 9.33700 45.47800
H  38.56800 9.73100 49.15200
H  37.40600 9.93200 47.61800
H  38.12800 11.18300 48.41700
Mg -11.21900 38.36700 42.42200
C  -9.22700 35.67500 41.27100
C  -8.97300 40.44700 40.76700
C  -13.51500 40.78700 42.59000
C  -13.68300 35.98000 43.15300
N  -9.43800 38.09900 41.01700
C  -8.76800 36.92000 40.80400
C  -7.49800 37.07800 39.91700
C  -7.30400 38.64100 39.88400
C  -8.61200 39.11900 40.62900
C  -5.99800 39.22500 40.53500
C  -7.58600 36.42300 38.45100
C  -6.55600 35.26400 38.06000
H  -5.36400 35.46500 37.07300
N  -11.19200 40.36300 42.00400
C  -10.15500 41.03500 41.36000
C  -10.43200 42.42700 41.41200
C  -11.76800 42.55700 41.91300
C  -12.23600 41.21900 42.15900
C  -9.50600 43.56500 40.96400
C  -12.51500 43.86600 42.09100
O  -12.02700 44.93300 41.77000
C  -13.82900 43.93000 42.80700
N  -13.31500 38.39600 42.89300
C  -14.04200 39.53200 42.89400
C  -15.47200 39.36900 43.04500
C  -15.49900 37.80800 43.35900
C  -14.12000 37.36200 43.14400
C  -16.15100 40.27100 44.20900
C  -16.58700 37.05000 42.61600
C  -16.32400 36.48900 41.20000
N  -11.35800 36.29500 42.49600
C  -12.36100 35.47900 42.86500
C  -11.90900 34.12400 43.00300
C  -10.69700 34.15100 42.34900
C  -10.41800 35.48400 42.00600
C  -12.77100 33.08600 43.68700
C  -9.60400 33.28700 41.90900
O  -9.42600 32.11900 42.01500
C  -8.59300 34.23300 41.09400
C  -7.15600 34.12700 41.61800
O  -6.37400 33.35600 41.03000
O  -6.93000 34.89700 42.69500
C  -5.58500 34.77800 43.25900
H  -8.29600 41.11300 40.22700
H  -14.35600 41.48300 42.58600
H  -14.49900 35.28700 43.36900
H  -6.63800 36.70600 40.47300
H  -7.39900 38.99600 38.85700
H  -5.29900 38.40700 40.71000
H  -6.24400 39.62400 41.51900
H  -5.54100 40.02500 39.95300
H  -7.44700 37.15400 37.65400
H  -8.56700 35.95500 38.36700
H  -7.17200 34.44000 37.70100
H  -5.97300 35.01400 38.94700
H  -9.60200 43.69800 39.88700
H  -8.46400 43.26500 41.08000
H  -9.59700 44.53900 41.44600
H  -13.90800 43.40000 43.75600
H  -14.62000 43.56400 42.15200
H  -14.07400 44.98500 42.92900
H  -15.98700 39.52900 42.09800
H  -15.57800 37.58100 44.42200
H  -15.34400 40.60600 44.86000
H  -16.86900 39.62000 44.70900
H  -16.62300 41.10700 43.69200
H  -17.53500 37.54300 42.83100
H  -16.74900 36.07600 43.07700
H  -15.73800 35.57100 41.23000
H  -15.70600 37.22900 40.69300
H  -17.30900 36.26700 40.79000
H  -13.77400 33.28700 43.30900
H  -12.76900 33.02200 44.77500
H  -12.48100 32.13700 43.23700
H  -8.51300 33.97100 40.03900
H  -4.75900 34.77500 42.54800
H  -5.59000 33.92300 43.93500
H  -5.30600 35.56800 43.95700

