158

Mg 49.31700 34.55100 26.30900
C  47.30800 33.49500 28.83900
C  49.41200 37.76400 27.54600
C  51.24100 35.35300 23.69000
C  48.89100 31.23900 24.81700
N  48.43400 35.48700 27.94900
C  47.68800 34.85900 28.91500
C  47.37200 35.91700 29.98500
C  47.92800 37.23400 29.52500
C  48.58300 36.78200 28.21300
C  46.82500 38.33600 29.38300
C  47.91700 35.52900 31.44000
C  46.81200 35.43400 32.58400
H  47.04500 36.15300 33.91900
N  50.24900 36.34900 25.69000
C  50.22000 37.53500 26.41200
C  50.99500 38.46800 25.61700
C  51.50400 37.77700 24.44900
C  51.01600 36.42700 24.55900
C  51.24700 39.89400 26.02400
C  52.50200 38.29500 23.38400
O  53.07400 37.56900 22.60300
C  52.84700 39.77700 23.23500
N  49.80400 33.50600 24.39100
C  50.79800 34.06900 23.59600
C  51.06600 33.26700 22.34800
C  50.37800 31.89600 22.78400
C  49.55500 32.22700 24.06800
C  50.61700 33.90700 21.00000
C  51.29000 30.74300 22.98900
C  51.18700 29.62200 21.99300
N  48.26900 32.75900 26.66900
C  48.20800 31.50000 26.03000
C  47.30100 30.65700 26.74900
C  46.90300 31.36100 27.88900
C  47.54800 32.55900 27.83100
C  46.95900 29.19500 26.43100
C  46.08800 31.33400 29.08900
O  45.26300 30.39700 29.46800
C  46.42000 32.69000 29.86300
C  47.00100 32.16400 31.14600
O  48.15000 31.72900 31.35000
O  46.00900 32.18400 32.07300
C  46.20900 31.68700 33.44300
H  49.60300 38.74000 27.99600
H  51.77500 35.65700 22.78700
H  48.75400 30.28600 24.30400
H  46.29100 36.01700 30.08500
H  48.69500 37.52200 30.24400
H  46.29800 38.34200 30.33700
H  46.08800 38.05700 28.63000
H  47.22800 39.34100 29.25200
H  48.66200 36.21100 31.84800
H  48.37500 34.55500 31.26800
H  46.56900 34.37700 32.68800
H  45.89000 35.87900 32.21100
H  50.99300 40.10400 27.06300
H  50.83700 40.68600 25.39700
H  52.32300 40.01900 25.89900
H  53.40100 39.93800 22.31000
H  53.45000 39.97000 24.12300
H  51.95800 40.40600 23.18200
H  52.15000 33.20400 22.44200
H  49.63000 31.61100 22.04400
H  51.48600 34.43900 20.61300
H  49.83600 34.64700 21.16800
H  50.11300 33.20400 20.33700
H  51.23300 30.34000 24.00000
H  52.27500 31.20800 22.93700
H  52.14500 29.31900 21.56900
H  50.59300 29.88300 21.11800
H  50.81200 28.73500 22.50300
H  46.28500 29.14500 25.57600
H  46.38900 28.74600 27.24400
H  47.87400 28.65900 26.18300
H  45.57300 33.36800 29.96900
H  46.43000 32.47900 34.15900
H  47.05700 31.00500 33.49800
H  45.30100 31.20500 33.80700
Mg 0.55900 44.27000 25.43000
C  2.57100 43.50900 28.40500
C  -2.02600 43.22100 27.36800
C  -1.07700 43.21400 22.73600
C  3.58700 44.21500 23.66800
N  0.36500 43.50100 27.69500
C  1.24500 43.44300 28.72700
C  0.56700 43.20300 30.11700
C  -0.95900 43.08800 29.68900
C  -0.88400 43.23800 28.15800
C  -1.59800 41.69700 30.14500
C  0.77000 44.44100 31.07800
C  0.74200 44.14600 32.60400
H  0.48400 42.72600 33.22400
N  -1.39600 43.79200 25.05800
C  -2.35100 43.45800 26.00300
C  -3.66500 43.27000 25.36400
C  -3.36500 43.27000 23.93700
C  -1.92500 43.45500 23.80600
C  -4.98400 43.33300 26.15000
C  -4.31900 42.96700 22.84600
O  -3.98800 42.90900 21.63400
C  -5.79200 42.77300 23.11400
N  1.21800 43.66700 23.52800
C  0.30300 43.39800 22.58000
C  0.91600 43.24300 21.24400
C  2.27000 43.94700 21.39400
C  2.38000 43.99300 22.97300
C  0.99900 41.74900 20.75600
C  2.40100 45.24900 20.60500
C  1.91400 46.48700 21.22000
N  2.60100 44.18200 25.89600
C  3.67400 44.13000 25.06500
C  4.94500 43.98800 25.82000
C  4.52400 43.75900 27.13500
C  3.08700 43.86200 27.13700
C  6.36000 43.98200 25.31000
C  4.98200 43.46500 28.37700
O  6.13300 43.42200 28.73700
C  3.79100 43.42900 29.30500
C  3.83400 42.21000 30.14100
O  3.41300 41.10100 29.84100
O  4.49500 42.51500 31.37400
C  4.50700 41.43600 32.43000
H  -2.92500 43.05100 27.96400
H  -1.63100 42.94700 21.83400
H  4.51100 44.37400 23.10700
H  0.85600 42.24200 30.54300
H  -1.59400 43.85900 30.12800
H  -1.91100 41.15600 29.25200
H  -2.54000 41.81500 30.68100
H  -0.93200 41.18300 30.83800
H  0.07300 45.26800 30.94300
H  1.74200 44.85700 30.81200
H  0.11600 44.87600 33.11800
H  1.78300 44.23800 32.91300
H  -4.71200 43.44400 27.20000
H  -5.33000 42.30100 26.11100
H  -5.66900 44.09300 25.77400
H  -6.37900 42.66300 22.20200
H  -6.09500 43.73800 23.52100
H  -5.87000 42.08900 23.95900
H  0.19400 43.79600 20.64300
H  2.92600 43.26000 20.86000
H  0.00400 41.55100 20.35900
H  1.37600 41.05000 21.50200
H  1.62900 41.83000 19.87000
H  2.04600 45.16800 19.57700
H  3.47800 45.30800 20.45000
H  1.11600 46.89500 20.59800
H  2.72000 47.21900 21.17800
H  1.45600 46.38800 22.20400
H  7.01300 44.60800 25.91700
H  6.52600 44.30600 24.28300
H  6.79900 42.99700 25.47000
H  3.87100 44.26800 29.99600
H  4.23600 41.74500 33.43900
H  5.53300 41.08600 32.55100
H  3.88300 40.61000 32.08900

