158

Mg -11.06000 39.24900 41.14600
C  -9.65200 36.15100 40.33600
C  -8.45000 40.83500 39.48400
C  -12.88100 42.14400 41.15400
C  -13.80300 37.46000 42.22800
N  -9.28200 38.54000 40.12900
C  -9.00000 37.23900 39.74600
C  -7.76100 37.25900 38.80500
C  -7.15800 38.70700 39.07000
C  -8.40700 39.43100 39.59900
C  -6.03900 38.53000 40.12000
C  -8.18200 37.05700 37.40300
C  -7.23100 36.15400 36.56500
H  -7.02600 36.51600 35.10900
N  -10.71000 41.23800 40.51200
C  -9.57700 41.65200 39.84100
C  -9.64300 43.13800 39.71600
C  -10.83500 43.56500 40.30700
C  -11.55500 42.28100 40.62500
C  -8.55400 43.82300 39.02700
C  -11.19900 45.06600 40.50200
O  -10.35700 45.94800 40.23400
C  -12.45300 45.45800 41.15100
N  -13.06200 39.70600 41.41200
C  -13.56300 40.96900 41.43700
C  -14.99200 40.97500 41.84000
C  -15.33800 39.44900 42.04300
C  -14.03000 38.80200 41.79700
C  -15.31300 41.92200 43.10500
C  -16.45600 38.86700 41.13300
C  -17.87000 38.58500 41.75100
N  -11.60400 37.19500 41.40000
C  -12.70700 36.65700 41.92400
C  -12.56100 35.22800 42.03700
C  -11.31600 34.99600 41.42300
C  -10.82300 36.20800 40.99600
C  -13.51800 34.25700 42.66600
C  -10.36900 33.96900 41.13500
O  -10.32300 32.74300 41.37300
C  -9.25500 34.70900 40.25100
C  -7.94800 34.44900 40.97500
O  -7.38700 35.11900 41.83700
O  -7.39400 33.30600 40.39400
C  -6.23000 32.86800 41.11200
H  -7.56400 41.28900 39.03600
H  -13.38100 43.07100 41.44600
H  -14.69200 36.92700 42.57100
H  -7.09400 36.46500 39.14000
H  -6.92400 39.29900 38.18500
H  -6.17000 37.74000 40.86000
H  -5.89700 39.38600 40.78000
H  -5.15700 38.39300 39.49400
H  -8.14900 37.97900 36.82200
H  -9.18900 36.64300 37.36300
H  -7.47900 35.09300 36.61300
H  -6.26100 36.31300 37.03600
H  -8.57400 43.61000 37.95900
H  -7.59800 43.53800 39.46500
H  -8.70800 44.90100 39.09200
H  -12.44300 44.97000 42.12600
H  -13.31900 45.03700 40.64100
H  -12.57100 46.54100 41.19900
H  -15.63800 41.32700 41.03600
H  -15.74400 39.39300 43.05300
H  -14.55300 42.59800 43.49600
H  -15.59200 41.37000 44.00200
H  -16.21700 42.45200 42.80300
H  -16.23800 37.87100 40.74800
H  -16.66900 39.44400 40.23300
H  -17.74800 37.91100 42.59900
H  -18.60400 38.36800 40.97500
H  -18.10700 39.57500 42.14000
H  -13.54800 34.48100 43.73200
H  -13.29900 33.20500 42.48300
H  -14.57500 34.43200 42.46600
H  -9.17100 34.47000 39.19100
H  -6.04800 31.88800 40.67100
H  -6.42200 32.67800 42.16800
H  -5.45900 33.59500 40.85600
Mg -5.24700 26.09200 25.78100
C  -4.11300 27.51300 28.74400
C  -7.33500 24.03000 27.69800
C  -6.51900 24.84900 22.97800
C  -3.03700 28.18500 24.01800
N  -5.49500 25.66500 27.93400
C  -4.98200 26.42700 28.98900
C  -5.37400 25.90600 30.38100
C  -6.09000 24.50300 29.98900
C  -6.35700 24.71600 28.46900
C  -5.32900 23.22000 30.23900
C  -6.43700 26.80800 31.05700
C  -6.55400 26.76600 32.61800
H  -5.78700 25.66000 33.38500
N  -6.60400 24.50500 25.39000
C  -7.40600 23.95700 26.27300
C  -8.36800 23.18200 25.52700
C  -8.19400 23.43200 24.19200
C  -7.05600 24.28600 24.12200
C  -9.50400 22.48200 26.27300
C  -9.07100 22.89000 23.02000
O  -8.75600 23.04900 21.80600
C  -10.22400 22.02300 23.21800
N  -4.83500 26.50700 23.77400
C  -5.46200 25.76200 22.81100
C  -4.78000 26.01500 21.44100
C  -3.89200 27.24500 21.76200
C  -3.89700 27.31600 23.27100
C  -4.10400 24.80300 20.85300
C  -4.40900 28.53000 21.09200
C  -3.38600 29.36100 20.30800
N  -3.81600 27.53100 26.26700
C  -3.05000 28.32400 25.41800
C  -2.28200 29.30400 26.25700
C  -2.68700 28.97500 27.58000
C  -3.63200 27.92600 27.53500
C  -1.27200 30.31200 25.85300
C  -2.46900 29.29500 28.96900
O  -1.68000 29.97000 29.59800
C  -3.50700 28.50600 29.71100
C  -2.91800 27.84400 30.96900
O  -2.13000 26.91100 31.01900
O  -3.08000 28.67100 32.07300
C  -2.25900 28.41700 33.27400
H  -8.02400 23.43800 28.30400
H  -7.01100 24.51400 22.06300
H  -2.30500 28.84400 23.54600
H  -4.47400 25.59300 30.91100
H  -7.02100 24.36800 30.54000
H  -6.00400 22.48000 30.67000
H  -4.46900 23.47100 30.85900
H  -4.94100 22.91800 29.26600
H  -7.40400 26.56700 30.61600
H  -6.23500 27.85700 30.84400
H  -7.60900 26.71500 32.88700
H  -6.19000 27.70100 33.04600
H  -9.38500 22.49800 27.35600
H  -9.64400 21.48200 25.86200
H  -10.42500 23.05000 26.14500
H  -10.94600 21.95800 22.40400
H  -10.84100 22.21800 24.09500
H  -9.74400 21.05500 23.36600
H  -5.65000 26.31000 20.85400
H  -2.88900 27.05100 21.38200
H  -4.29900 23.88300 21.40400
H  -3.01800 24.86900 20.91700
H  -4.30900 24.76900 19.78300
H  -4.93800 29.10300 21.85200
H  -5.23600 28.31700 20.41500
H  -3.43200 29.22400 19.22700
H  -2.38500 29.09100 20.64500
H  -3.59600 30.42200 20.43900
H  -1.70400 31.18900 25.37000
H  -0.46800 29.91000 25.23700
H  -0.76400 30.81000 26.67800
H  -4.31100 29.17300 30.02200
H  -1.22700 28.06600 33.25600
H  -2.84500 27.67600 33.81800
H  -2.43900 29.26800 33.93000

