158

Mg 8.85900 3.37300 27.73800
C  9.74700 1.74900 30.69900
C  7.21800 5.70800 29.65200
C  7.48800 4.58100 24.87000
C  10.15200 0.62100 25.86800
N  8.67900 3.79000 29.99200
C  9.13900 2.95400 31.02000
C  8.75300 3.50300 32.36800
C  7.92700 4.81500 31.97000
C  7.94400 4.81700 30.46100
C  6.45800 4.86400 32.57000
C  9.92000 3.66500 33.44600
C  9.62600 4.75900 34.49000
H  10.03400 4.52700 35.98300
N  7.65900 4.96200 27.30500
C  7.02600 5.83200 28.22900
C  6.25600 6.79300 27.58700
C  6.40000 6.52600 26.16900
C  7.28100 5.33000 26.04500
C  5.55400 7.84600 28.36300
C  5.88900 7.38200 25.01300
O  6.11600 7.08800 23.84200
C  5.26500 8.74500 25.30000
N  8.76300 2.64800 25.71900
C  8.17300 3.41400 24.69800
C  8.39100 2.70800 23.33900
C  9.19000 1.42500 23.68800
C  9.42100 1.58500 25.18000
C  7.08200 2.43300 22.57100
C  10.47100 1.27300 22.82400
C  10.41000 0.35000 21.59100
N  9.78300 1.61100 28.15700
C  10.25800 0.59600 27.31200
C  10.99900 -0.33900 28.06000
C  10.82600 0.12400 29.36600
C  9.97700 1.23900 29.36900
C  11.79900 -1.41000 27.59100
C  11.15300 -0.17800 30.71300
O  11.89500 -0.99100 31.19400
C  10.51700 0.86600 31.58100
C  9.69800 0.27900 32.60000
O  8.67100 -0.36700 32.38700
O  10.33700 0.44200 33.81800
C  9.76100 -0.32700 34.96700
H  6.78600 6.52600 30.23200
H  6.96000 4.89600 23.96800
H  10.57500 -0.20900 25.29800
H  8.01700 2.80700 32.77000
H  8.41500 5.72900 32.31000
H  5.89900 5.28900 31.73700
H  6.34300 5.62100 33.34600
H  6.05100 3.87300 32.77500
H  10.79500 4.06100 32.93000
H  10.18700 2.77900 34.02200
H  8.56300 4.97300 34.38500
H  10.16100 5.69900 34.35500
H  4.53400 7.81500 27.98000
H  5.94900 8.83600 28.13600
H  5.51700 7.80400 29.45200
H  4.41100 8.59400 25.96100
H  4.81500 9.10400 24.37500
H  5.97000 9.50500 25.63600
H  8.88800 3.37100 22.63000
H  8.68200 0.47700 23.51300
H  7.08100 2.97400 21.62400
H  6.25900 2.55300 23.27500
H  7.14200 1.37900 22.30100
H  11.31000 1.00800 23.46600
H  10.84200 2.18400 22.35500
H  10.20800 0.81900 20.62800
H  9.76400 -0.52600 21.64700
H  11.43200 -0.02900 21.58600
H  12.30400 -1.11500 26.67100
H  11.05200 -2.18800 27.43100
H  12.61200 -1.61600 28.28800
H  11.28300 1.52300 31.99500
H  8.89600 0.19800 35.37400
H  10.57600 -0.41800 35.68500
H  9.48700 -1.32900 34.63700
Mg 8.95500 47.79700 27.38000
C  7.36000 47.48600 30.62000
C  11.87000 48.41200 29.08800
C  10.30900 48.68700 24.57200
C  5.66100 47.83100 25.98000
N  9.59500 47.73700 29.65200
C  8.77700 47.54200 30.76800
C  9.57200 47.74600 32.04400
C  10.98000 48.15500 31.57900
C  10.87000 48.12600 30.05400
C  11.50000 49.51800 32.15200
C  9.47900 46.45000 32.95000
C  9.58500 46.76500 34.41900
H  10.23300 45.77200 35.36900
N  10.81300 48.15600 26.85000
C  11.87500 48.39100 27.64100
C  13.04300 48.70700 26.81900
C  12.66700 48.74000 25.46500
C  11.21800 48.52100 25.55800
C  14.28400 49.10800 27.47900
C  13.48200 49.02400 24.21600
O  12.91600 49.21500 23.15200
C  15.02800 49.20000 24.32400
N  8.07200 48.27900 25.54100
C  8.92000 48.52800 24.53200
C  8.21000 48.51600 23.14900
C  6.78600 48.25400 23.58500
C  6.80300 48.06700 25.12800
C  8.40600 49.69500 22.22300
C  6.14100 47.05000 22.88000
C  5.96600 46.99200 21.35000
N  6.95300 47.78400 28.05200
C  5.72500 47.86900 27.34600
C  4.60300 47.71800 28.27900
C  5.24000 47.57200 29.53400
C  6.65700 47.60900 29.38900
C  3.10500 47.67100 27.95100
C  4.98100 47.45100 30.86200
O  3.92800 47.53500 31.46400
C  6.28300 47.25700 31.61200
C  6.24600 45.86500 31.99400
O  6.49200 44.86100 31.31600
O  5.80000 45.84200 33.32500
C  5.66700 44.50900 33.98200
H  12.75300 48.71100 29.65600
H  10.60300 49.14500 23.62500
H  4.67200 47.67900 25.54300
H  9.02100 48.45400 32.66300
H  11.74600 47.44400 31.89000
H  10.85700 50.00400 32.88700
H  11.59300 50.22600 31.32900
H  12.42700 49.20200 32.62900
H  10.31200 45.77500 32.75500
H  8.57000 45.87600 32.77000
H  8.59600 46.91200 34.85200
H  10.11900 47.71600 34.40500
H  15.04400 48.36800 27.22800
H  14.33200 48.89900 28.54800
H  14.58600 50.13600 27.27700
H  15.35200 49.56400 23.34900
H  15.56200 48.25000 24.36000
H  15.35700 49.91900 25.07400
H  8.56800 47.69300 22.53000
H  6.23700 49.15300 23.30700
H  8.50800 50.59200 22.83400
H  7.61000 49.78100 21.48400
H  9.33300 49.48900 21.68900
H  5.12600 46.97700 23.27000
H  6.63200 46.13800 23.21900
H  6.03800 48.00600 20.95700
H  5.00000 46.60400 21.02400
H  6.60800 46.25900 20.86200
H  2.94200 47.57900 26.87700
H  2.55200 48.55300 28.27400
H  2.57600 46.84100 28.42000
H  6.30700 47.97400 32.43300
H  6.57900 43.98200 33.70200
H  4.83300 43.97300 33.52900
H  5.64300 44.51000 35.07100

