158

Mg -1.45200 18.21200 27.34400
C  -2.39700 15.93700 29.90000
C  -1.79900 20.76000 29.39900
C  -0.49300 20.18000 24.72700
C  -1.72200 15.46900 24.99900
N  -1.88300 18.24400 29.40500
C  -2.18900 17.25700 30.35000
C  -2.32700 17.78300 31.76400
C  -2.33400 19.38200 31.48600
C  -1.93800 19.50900 30.02200
C  -3.61500 20.21700 31.97200
C  -1.06300 17.36800 32.67100
C  -1.45900 16.52500 33.83800
H  -0.92000 16.65100 35.28900
N  -1.05200 20.16700 27.19000
C  -1.32500 21.06800 28.12100
C  -0.89100 22.43700 27.62100
C  -0.30700 22.16700 26.32400
C  -0.55300 20.80400 25.99800
C  -1.06400 23.71000 28.41800
C  0.15300 23.11400 25.29600
O  0.79100 22.88600 24.29000
C  0.09600 24.57000 25.67000
N  -1.42400 17.94900 25.04300
C  -0.83300 18.94100 24.25600
C  -0.59700 18.46700 22.80200
C  -0.95100 16.86400 22.93000
C  -1.32300 16.69300 24.42700
C  -1.33800 19.38300 21.82100
C  0.16200 15.87100 22.59400
C  1.49800 16.09600 23.39000
N  -2.03700 16.13800 27.32800
C  -2.01700 15.17500 26.33600
C  -2.34300 13.91700 26.93500
C  -2.59600 14.14000 28.30000
C  -2.28200 15.50800 28.50700
C  -2.51900 12.62200 26.11400
C  -3.05400 13.59900 29.51900
O  -3.55600 12.56100 29.83700
C  -2.95300 14.70300 30.66000
C  -2.05600 14.06600 31.54500
O  -0.84700 14.00100 31.47800
O  -2.84800 13.49200 32.51800
C  -2.23700 12.61900 33.53700
H  -1.90000 21.67200 29.99000
H  -0.06900 20.71700 23.87600
H  -1.86000 14.65500 24.28500
H  -3.27400 17.42700 32.17000
H  -1.47200 19.79900 32.00700
H  -4.15700 20.68700 31.15200
H  -3.24800 21.00500 32.63000
H  -4.30400 19.62400 32.57400
H  -0.53200 18.18600 33.15900
H  -0.31600 16.82000 32.09500
H  -1.12500 15.54500 33.49600
H  -2.54200 16.56200 33.95900
H  -0.18400 24.05300 28.96100
H  -1.83000 23.61900 29.18800
H  -1.41500 24.49000 27.74200
H  0.70700 24.73600 26.55700
H  -0.97300 24.78400 25.69700
H  0.72700 25.18600 25.03000
H  0.45000 18.54800 22.51000
H  -1.88900 16.73500 22.39000
H  -1.97900 20.08400 22.35700
H  -1.96800 18.83900 21.11700
H  -0.64800 19.96200 21.20700
H  0.34600 16.12100 21.55000
H  -0.18900 14.85900 22.79500
H  2.15100 15.22300 23.41500
H  1.26500 16.38300 24.41500
H  2.07500 16.90300 22.93800
H  -1.67300 12.50600 25.43600
H  -3.46400 12.45900 25.59600
H  -2.27600 11.76700 26.74400
H  -3.96200 14.89600 31.02500
H  -2.97600 11.95900 33.98900
H  -1.76300 13.26200 34.27900
H  -1.42400 12.04000 33.09800
Mg 39.83600 9.14300 29.16100
C  41.92200 10.14500 31.73300
C  37.66700 7.67000 31.55000
C  38.00600 7.82300 26.70100
C  42.26500 10.22600 26.88000
N  39.83600 8.90500 31.38900
C  40.72100 9.53100 32.25300
C  40.26300 9.55400 33.70900
C  39.02600 8.62800 33.61400
C  38.78500 8.33600 32.10100
C  39.16200 7.37100 34.53800
C  39.75300 11.07200 34.10000
C  39.25200 11.17400 35.57200
H  40.01700 12.23400 36.41800
N  38.02100 8.05200 29.15400
C  37.39000 7.47900 30.21800
C  36.22700 6.75000 29.71700
C  36.10900 6.96900 28.34600
C  37.43100 7.63100 27.99500
C  35.21100 6.13500 30.67900
C  35.08600 6.53300 27.42400
O  35.28200 6.64400 26.20400
C  33.74400 5.92900 27.88700
N  40.20900 8.93700 27.03500
C  39.22600 8.35700 26.28200
C  39.56000 8.50900 24.82600
C  40.86700 9.43400 24.85400
C  41.16200 9.51800 26.31100
C  39.65400 7.19100 24.05500
C  40.64700 10.77900 24.15800
C  39.83900 11.86000 24.89600
N  41.75800 10.02500 29.22600
C  42.62200 10.46700 28.22800
C  43.69800 11.24600 28.75300
C  43.50400 11.09300 30.13500
C  42.32300 10.33400 30.40100
C  44.70800 11.84000 27.91700
C  43.97500 11.39500 31.44700
O  44.97200 12.01900 31.79900
C  43.06900 10.75800 32.53000
C  43.94100 9.79700 33.39600
O  44.45200 8.75900 33.02900
O  44.06600 10.32100 34.65800
C  44.94700 9.52100 35.57300
H  37.01400 7.35300 32.36600
H  37.41000 7.39000 25.89600
H  42.90500 10.72700 26.15000
H  41.03500 9.15400 34.36600
H  38.06700 9.09600 33.83500
H  38.66200 7.60600 35.47800
H  40.20900 7.19000 34.78200
H  38.65800 6.47100 34.18500
H  38.82300 11.37400 33.61800
H  40.50500 11.85200 33.98700
H  39.31400 10.19600 36.04800
H  38.17700 11.34300 35.62800
H  34.21900 6.58800 30.65700
H  35.43600 5.93200 31.72600
H  34.93800 5.14200 30.32400
H  33.25900 6.52600 28.66000
H  33.97900 4.94000 28.28100
H  33.06000 5.82300 27.04500
H  38.67700 8.99100 24.40500
H  41.69400 8.91300 24.37200
H  40.54200 7.04500 23.43900
H  38.75500 7.10100 23.44500
H  39.62200 6.31800 24.70700
H  40.03600 10.49200 23.30100
H  41.54800 11.28700 23.81600
H  40.47600 12.73500 24.77100
H  39.81500 11.62500 25.96000
H  38.83700 11.95400 24.47700
H  45.40600 11.08300 27.56000
H  45.21100 12.59500 28.52000
H  44.28300 12.43500 27.10900
H  42.71300 11.59600 33.12900
H  44.63800 9.48300 36.61800
H  45.93500 9.98100 35.59900
H  45.12600 8.49900 35.23800

