158

Mg 43.75500 4.00900 47.83200
C  41.52100 6.75800 47.32600
C  40.91300 1.88100 47.48600
C  45.78500 1.37300 47.36900
C  46.46700 6.27500 47.54500
N  41.39100 4.33900 47.53100
C  40.77900 5.48300 47.47800
C  39.28600 5.23400 47.31400
C  39.13000 3.67000 47.67800
C  40.54600 3.20600 47.50200
C  38.59100 3.43200 49.15200
C  38.76500 5.49700 45.88200
C  37.67600 6.57300 45.71700
H  37.17500 6.84700 44.33600
N  43.39700 1.87600 47.51500
C  42.19900 1.25600 47.41700
C  42.38600 -0.15300 47.18100
C  43.80400 -0.28100 47.02000
C  44.44400 1.03100 47.27100
C  41.24700 -1.11900 47.11300
C  44.49400 -1.62200 46.71700
O  43.80100 -2.63100 46.62600
C  46.03100 -1.69300 46.37700
N  45.79000 3.84800 47.38600
C  46.43300 2.62700 47.40800
C  47.96600 2.76200 47.42600
C  48.20900 4.32900 47.40000
C  46.72000 4.89100 47.44200
C  48.66700 2.06700 48.65900
C  49.12400 4.76700 46.22700
C  50.49700 5.37800 46.57100
N  43.98600 6.14800 47.55000
C  45.15600 6.88900 47.45000
C  44.77000 8.30300 47.33200
C  43.40200 8.28400 47.27400
C  42.92700 6.96200 47.43100
C  45.70300 9.48600 47.41300
C  42.18200 9.06500 47.27700
O  42.00000 10.30000 47.24900
C  40.87800 8.09200 47.27000
C  39.88900 8.30700 48.31300
O  39.84800 7.85500 49.42000
O  38.88700 9.17700 47.98100
C  37.70000 9.35300 48.92200
H  40.04600 1.24000 47.31000
H  46.37700 0.45600 47.41000
H  47.28100 6.99900 47.61800
H  38.73200 5.84200 48.03000
H  38.43900 3.12500 47.03500
H  39.35100 2.82600 49.64400
H  37.60100 2.97900 49.21500
H  38.50800 4.40000 49.64700
H  38.21200 4.59500 45.61800
H  39.57200 5.52500 45.15000
H  38.00900 7.43400 46.29600
H  36.81800 6.09400 46.18900
H  41.30700 -1.88500 46.33900
H  40.31000 -0.63100 46.84200
H  41.07600 -1.47500 48.12900
H  46.64000 -1.84800 47.26700
H  46.14200 -0.80400 45.75500
H  46.18100 -2.53100 45.69600
H  48.31600 2.20500 46.55800
H  48.55600 4.75600 48.34100
H  47.93400 1.64900 49.35000
H  49.17200 2.81600 49.26800
H  49.44600 1.37400 48.34100
H  48.65800 5.64800 45.78500
H  49.16600 3.88500 45.58900
H  51.13100 4.49200 46.55400
H  50.52200 5.76000 47.59200
H  50.85800 6.07400 45.81300
H  46.04600 9.73200 48.41800
H  45.17000 10.36200 47.04200
H  46.59900 9.36700 46.80300
H  40.36300 8.20300 46.31600
H  37.03200 10.12300 48.53600
H  37.96600 9.47100 49.97200
H  37.21500 8.37900 48.85300
Mg 49.21500 44.80100 43.06800
C  45.86300 45.41000 42.02000
C  48.92800 41.62100 41.79400
C  52.50600 44.66900 43.04000
C  49.43000 48.37500 43.69000
N  47.52900 43.62100 42.10300
C  46.30100 44.08800 41.75300
C  45.55100 43.03500 40.95300
C  46.32100 41.76900 41.29500
C  47.68800 42.35300 41.74200
C  45.66100 40.83100 42.30200
C  45.56800 43.38800 39.46200
C  44.39400 42.76000 38.59700
H  44.77200 41.91900 37.32900
N  50.53200 43.32100 42.65100
C  50.21300 42.06400 42.14700
C  51.35800 41.23800 42.24100
C  52.45500 42.09400 42.51800
C  51.87000 43.44600 42.75900
C  51.34500 39.70700 41.91100
C  53.86900 41.67400 42.81100
O  54.15700 40.45800 42.76400
C  55.03000 42.63100 43.12800
N  50.79100 46.36600 43.20900
C  52.08800 45.95600 43.33700
C  52.95100 47.14100 43.84600
C  52.00200 48.38600 44.09000
C  50.63500 47.67200 43.67900
C  53.87700 46.83300 45.03600
C  52.39100 49.66500 43.21700
C  52.63100 50.95000 43.97700
N  47.89600 46.53600 42.95500
C  48.15500 47.84100 43.30500
C  46.93000 48.59500 43.23500
C  46.03300 47.68700 42.73100
C  46.60700 46.43100 42.62400
C  46.77400 50.08400 43.43500
C  44.68100 47.65700 42.20600
O  43.84600 48.55100 41.94500
C  44.51100 46.03600 41.80100
C  43.31200 45.38900 42.36400
O  42.69300 44.38900 41.88400
O  42.92600 46.08500 43.46900
C  41.60200 45.82500 43.98200
H  48.70500 40.60600 41.46000
H  53.59700 44.63000 43.07300
H  49.48000 49.42200 43.99500
H  44.54300 42.83400 41.31400
H  46.48400 41.19200 40.38500
H  45.49800 39.86300 41.82900
H  44.67000 41.18700 42.58500
H  46.23700 40.67400 43.21300
H  46.49000 43.00000 39.03100
H  45.55300 44.47700 39.42400
H  43.71800 43.57400 38.33500
H  43.85400 42.12400 39.29700
H  51.59200 39.08000 42.76800
H  51.88700 39.50300 40.98800
H  50.37100 39.30100 41.63700
H  56.00600 42.19600 43.34300
H  54.80300 43.26400 43.98600
H  55.19400 43.24400 42.24200
H  53.56800 47.40900 42.98900
H  51.96500 48.62800 45.15200
H  53.99300 47.74600 45.62100
H  54.89400 46.78500 44.64600
H  53.61900 45.86300 45.46200
H  51.50200 49.91200 42.63700
H  53.09500 49.45700 42.41100
H  53.07700 50.64400 44.92300
H  51.65800 51.39900 44.17800
H  53.27600 51.66600 43.46700
H  45.79700 50.16600 43.91200
H  46.76700 50.46000 42.41200
H  47.56800 50.58500 43.98800
H  44.32600 46.02400 40.72700
H  41.54600 44.79900 44.34600
H  40.97400 46.31300 43.23600
H  41.49700 46.36000 44.92500

