158

Mg 24.43300 -5.37400 46.06000
C  26.42100 -2.83700 44.61000
C  21.92800 -4.31500 43.99900
C  22.94800 -8.22700 46.65500
C  27.34000 -6.37500 47.75300
N  24.37400 -3.77900 44.51300
C  25.20000 -2.79800 44.08700
C  24.51800 -1.90200 43.03900
C  23.02900 -2.14900 43.43100
C  23.09200 -3.51200 43.97800
C  22.33500 -1.19200 44.42000
C  24.80700 -2.36600 41.54800
C  25.51700 -1.40600 40.66500
H  26.27900 -2.06400 39.45400
N  22.74400 -6.18800 45.44300
C  21.80400 -5.55700 44.63900
C  20.60800 -6.39800 44.61700
C  20.83300 -7.60300 45.37000
C  22.20900 -7.39300 45.87600
C  19.40800 -6.15000 43.67800
C  19.86500 -8.75100 45.46300
O  18.75800 -8.78800 44.90800
C  20.34200 -10.05900 46.11500
N  25.07100 -7.08600 47.15100
C  24.23700 -8.15600 47.15900
C  24.99300 -9.39100 47.66800
C  26.34300 -8.75400 48.24600
C  26.25300 -7.30700 47.73900
C  24.17500 -10.32800 48.68400
C  27.55300 -9.60100 47.96100
C  28.45400 -9.94100 49.21400
N  26.45100 -4.69400 46.35100
C  27.46100 -5.16300 47.10600
C  28.66000 -4.30200 46.91700
C  28.24400 -3.38300 45.96300
C  26.88900 -3.64900 45.60200
C  30.02700 -4.40800 47.68600
C  28.71400 -2.31600 45.16600
O  29.81500 -1.88700 45.06200
C  27.57900 -1.92400 44.24500
C  27.31600 -0.50700 44.33200
O  27.76600 0.27100 43.55200
O  26.59100 -0.21000 45.46200
C  26.47000 1.18900 45.79300
H  21.06800 -4.06600 43.37500
H  22.51200 -9.22700 46.70400
H  28.22600 -6.55500 48.36700
H  24.84700 -0.89700 43.30200
H  22.42200 -2.12200 42.52600
H  22.28300 -1.59000 45.43300
H  21.35900 -1.00300 43.97200
H  22.92100 -0.27900 44.52500
H  23.83400 -2.58200 41.10800
H  25.27200 -3.34800 41.62900
H  26.29400 -0.93200 41.26500
H  24.70800 -0.83000 40.21600
H  19.52900 -6.76200 42.78400
H  19.30800 -5.09800 43.41100
H  18.48200 -6.35800 44.21400
H  21.11100 -10.37200 45.41000
H  19.52600 -10.78000 46.05500
H  20.67300 -9.92100 47.14400
H  25.10400 -10.06400 46.81700
H  26.30200 -8.52900 49.31200
H  23.24700 -10.47500 48.13100
H  23.88900 -9.91100 49.64900
H  24.83300 -11.19700 48.71200
H  28.17500 -9.00400 47.29400
H  27.34000 -10.50700 47.39400
H  29.50900 -10.12900 49.01800
H  28.09000 -10.73800 49.86200
H  28.40300 -8.97200 49.71000
H  30.18000 -5.47000 47.88000
H  29.92300 -3.85800 48.62100
H  30.88900 -3.96300 47.18900
H  27.88000 -2.12200 43.21600
H  26.19400 1.31000 46.84100
H  25.64000 1.65900 45.26600
H  27.38600 1.75900 45.63500
Mg 25.73300 0.61800 29.05600
C  27.73000 0.29300 31.80200
C  23.07900 1.56300 31.03500
C  23.80500 0.92600 26.26900
C  28.38100 -0.73700 27.11600
N  25.48900 0.96300 31.15300
C  26.45200 0.82500 32.10500
C  25.88700 1.23100 33.44300
C  24.43200 1.60700 33.19900
C  24.25800 1.24700 31.69500
C  23.37300 0.85600 34.06800
C  26.67900 2.36200 34.18100
C  27.26500 2.07800 35.58300
H  27.12400 3.25000 36.59900
N  23.77600 1.18400 28.72600
C  22.80100 1.45100 29.68200
C  21.54800 1.71200 29.00900
C  21.72700 1.53100 27.63900
C  23.13500 1.18500 27.50400
C  20.33200 2.24100 29.70300
C  20.64600 1.67700 26.44400
O  20.86900 1.49100 25.20800
C  19.23700 1.91000 26.80800
N  25.96300 0.08600 26.94900
C  25.09400 0.46200 25.94600
C  25.63900 0.23600 24.50900
C  27.07200 -0.32700 24.83900
C  27.21000 -0.26300 26.43000
C  24.72600 -0.76300 23.61900
C  28.22600 0.35600 24.12600
C  28.72300 1.67300 24.69400
N  27.58800 -0.18800 29.30600
C  28.59900 -0.68600 28.49400
C  29.74100 -0.97500 29.20200
C  29.51200 -0.61400 30.53300
C  28.13000 -0.18300 30.53700
C  30.98600 -1.59400 28.58000
C  30.02400 -0.55100 31.92200
O  31.11300 -0.84900 32.33300
C  28.92200 0.06100 32.70500
C  28.62600 -0.96100 33.73100
O  27.93000 -1.96700 33.58000
O  29.08400 -0.56100 34.96100
C  28.80600 -1.50300 36.05200
H  22.24100 1.86100 31.66800
H  23.15200 0.94600 25.39400
H  29.23500 -1.09200 26.53500
H  25.98100 0.48900 34.23600
H  24.26800 2.67200 33.36300
H  22.31300 1.05300 33.90800
H  23.70300 1.28600 35.01300
H  23.54500 -0.20700 34.24000
H  26.13500 3.30400 34.24800
H  27.54700 2.57200 33.55500
H  28.32000 1.82200 35.48900
H  26.95000 1.15300 36.06700
H  20.45600 2.45500 30.76400
H  19.53900 1.49500 29.74300
H  20.00200 3.15600 29.21100
H  19.17100 2.92700 27.19600
H  19.00200 1.11700 27.51800
H  18.55900 1.70600 25.98000
H  25.75700 1.11400 23.87500
H  27.04300 -1.40100 24.65700
H  23.75300 -0.83000 24.10600
H  25.19600 -1.74100 23.51800
H  24.49100 -0.36900 22.63000
H  27.96400 0.54300 23.08500
H  29.06600 -0.33800 24.15400
H  28.23800 1.94400 25.63200
H  28.59700 2.50200 23.99700
H  29.78100 1.56100 24.92800
H  30.69700 -2.23000 27.74300
H  31.39300 -2.30100 29.30200
H  31.77700 -0.98100 28.14700
H  29.33700 0.92200 33.22700
H  29.23600 -2.49200 35.89400
H  27.75500 -1.50100 36.34200
H  29.32200 -1.06100 36.90400

