158

Mg -2.43500 17.17100 26.50500
C  -2.96000 14.98500 29.31500
C  -3.03500 19.83000 28.63800
C  -2.26100 19.05700 23.81600
C  -2.39200 14.29800 24.36100
N  -2.84600 17.38200 28.74800
C  -2.99500 16.34600 29.69200
C  -3.26000 17.00200 31.06400
C  -3.06500 18.51900 30.92200
C  -3.00700 18.64000 29.35700
C  -3.99000 19.48900 31.56700
C  -2.50700 16.27400 32.31300
C  -2.35000 17.15600 33.57900
H  -1.80100 16.51000 34.82000
N  -2.61700 19.12600 26.24100
C  -2.90000 20.10800 27.19100
C  -2.80400 21.46000 26.59900
C  -2.41600 21.24200 25.22500
C  -2.42600 19.77100 25.01100
C  -3.00700 22.73200 27.35300
C  -2.10000 22.20600 24.13900
O  -1.99600 21.96400 22.94500
C  -1.88800 23.71200 24.42000
N  -2.43000 16.72400 24.35900
C  -2.24300 17.69500 23.46900
C  -2.30300 17.12800 22.00900
C  -2.11200 15.60600 22.23000
C  -2.35100 15.52800 23.76900
C  -3.44700 17.63900 21.11200
C  -0.67200 14.98500 21.86200
C  0.58500 15.58300 22.52000
N  -2.43200 15.09500 26.77500
C  -2.58900 14.04700 25.79000
C  -2.81400 12.78600 26.46400
C  -2.85300 13.18600 27.81900
C  -2.64600 14.54600 27.97100
C  -2.98000 11.37100 25.98600
C  -3.11700 12.59500 29.19200
O  -3.44000 11.48300 29.59000
C  -3.08200 13.77000 30.15400
C  -1.95500 13.49100 31.08300
O  -0.75000 13.76200 30.91000
O  -2.45200 12.83300 32.19200
C  -1.48800 12.50400 33.27900
H  -3.04700 20.67100 29.33500
H  -2.23700 19.74000 22.96400
H  -2.46200 13.32300 23.87300
H  -4.31500 16.86600 31.30100
H  -2.04600 18.77300 31.21400
H  -4.51100 20.18600 30.91000
H  -3.47000 20.12200 32.28500
H  -4.74300 18.89000 32.07900
H  -1.54400 15.90700 31.95700
H  -3.15000 15.44700 32.61400
H  -3.30900 17.62500 33.80100
H  -1.51800 17.81800 33.33900
H  -3.25600 22.49100 28.38700
H  -3.81300 23.30700 26.89600
H  -2.12400 23.37100 27.34000
H  -1.10700 23.94300 25.14500
H  -2.84600 24.03600 24.82600
H  -1.64800 24.28800 23.52700
H  -1.42300 17.51000 21.49100
H  -2.97600 15.10800 21.79000
H  -4.11200 16.83900 20.78800
H  -2.98500 18.14000 20.26200
H  -4.14700 18.21100 21.72100
H  -0.53600 15.11800 20.78800
H  -0.72800 13.91500 22.05700
H  0.22800 16.27700 23.28200
H  1.24300 16.09200 21.81600
H  1.16900 14.77900 22.96800
H  -4.00100 11.00500 26.09600
H  -2.30200 10.67500 26.47900
H  -2.73100 11.26200 24.93000
H  -3.98300 13.83700 30.76400
H  -0.96900 11.56500 33.08600
H  -2.07700 12.38000 34.18800
H  -0.80200 13.33400 33.44400
Mg 0.53500 41.99700 25.39100
C  1.81600 41.89500 28.75500
C  -2.39400 40.95700 26.51200
C  -0.26100 41.22800 22.27200
C  3.80500 42.87700 24.34900
N  -0.20600 41.57500 27.38900
C  0.41200 41.60400 28.58900
C  -0.52300 41.34200 29.75900
C  -1.79100 40.77100 29.09500
C  -1.44900 41.11900 27.55600
C  -2.05800 39.26700 29.39600
C  -0.69900 42.79200 30.35700
C  -0.99800 42.72300 31.95100
H  -1.66300 41.51000 32.69300
N  -1.18600 41.38900 24.43500
C  -2.33900 41.09900 25.09500
C  -3.37800 40.88000 24.13000
C  -2.73600 40.90000 22.81500
C  -1.33700 41.16500 23.15200
C  -4.84500 40.67800 24.41700
C  -3.37100 40.75200 21.42300
O  -2.72400 40.97600 20.40400
C  -4.86000 40.56100 21.38500
N  1.60100 42.00700 23.64800
C  1.06600 41.61600 22.43300
C  2.09500 41.69100 21.37900
C  3.10700 42.67500 21.95900
C  2.86800 42.47000 23.43100
C  2.63200 40.33500 20.74200
C  3.09200 44.19700 21.55400
C  3.98200 44.59300 20.34500
N  2.47100 42.21600 26.32400
C  3.65300 42.67600 25.73800
C  4.67700 42.96600 26.78400
C  4.02700 42.63900 28.06500
C  2.67500 42.16800 27.67400
C  6.05400 43.45500 26.53500
C  4.09500 42.47700 29.48100
O  4.99900 42.59700 30.24400
C  2.70200 42.06000 29.92600
C  2.73000 40.77100 30.68800
O  2.90100 39.62400 30.30900
O  2.28800 41.08600 31.97200
C  1.81200 39.97400 32.77400
H  -3.39100 40.58500 26.75700
H  -0.42100 40.87500 21.25100
H  4.78200 43.17800 23.96600
H  0.08600 40.70500 30.40100
H  -2.70100 41.28900 29.39500
H  -2.41400 39.22000 30.42500
H  -1.22400 38.62400 29.11500
H  -2.83800 38.86600 28.74700
H  -1.57500 43.14800 29.81400
H  0.18900 43.36300 30.08800
H  -1.52000 43.65000 32.18600
H  0.02900 42.92100 32.25700
H  -5.37700 41.53700 24.00600
H  -5.00800 40.77300 25.49100
H  -5.26200 39.73100 24.07600
H  -5.27400 40.29600 20.41200
H  -5.32800 41.48000 21.73600
H  -4.96800 39.67100 22.00500
H  1.70900 42.24700 20.52500
H  4.05100 42.21500 21.66900
H  1.89000 39.53700 20.78600
H  3.50500 39.96100 21.27700
H  2.83400 40.54300 19.69200
H  3.42700 44.85500 22.35600
H  2.08600 44.52700 21.29300
H  3.33900 44.95100 19.54100
H  4.51700 43.74300 19.92000
H  4.74500 45.33500 20.58000
H  6.09600 44.17700 25.72000
H  6.73900 42.67100 26.21500
H  6.34500 43.94000 27.46700
H  2.35200 42.86800 30.56900
H  1.51600 40.56200 33.64300
H  2.62300 39.25900 32.91600
H  0.91000 39.51800 32.36500

