158

Mg 42.92900 4.16000 47.64200
C  40.89700 6.98400 47.40900
C  40.07700 2.21600 47.60800
C  44.90800 1.44200 47.06800
C  45.71900 6.24500 47.33500
N  40.72300 4.55500 47.46500
C  40.11500 5.77300 47.49100
C  38.53300 5.63300 47.77900
C  38.39800 4.11500 47.85000
C  39.80500 3.58000 47.69500
C  37.77900 3.51100 49.13500
C  37.58600 6.33300 46.69900
C  38.04400 5.95500 45.26600
H  38.41400 7.03700 44.29600
N  42.52100 2.09500 47.48500
C  41.28400 1.50500 47.40400
C  41.38800 0.09100 47.11900
C  42.79600 -0.13300 46.91200
C  43.48700 1.14800 47.20500
C  40.32300 -0.93800 47.12500
C  43.37500 -1.55700 46.54700
O  42.69700 -2.51500 46.35600
C  44.91100 -1.75700 46.32200
N  45.01100 3.89300 47.19600
C  45.63600 2.63600 47.17700
C  47.16100 2.75600 47.25400
C  47.41400 4.25800 47.38900
C  45.97400 4.87400 47.38300
C  47.83400 1.87000 48.39400
C  48.47100 4.82900 46.37600
C  49.94300 4.97800 46.88000
N  43.26500 6.21600 47.31700
C  44.41000 6.86600 47.26100
C  44.14100 8.29800 47.21100
C  42.73700 8.39000 47.22500
C  42.27600 7.09000 47.31000
C  45.15600 9.41500 47.14200
C  41.60100 9.29500 47.22800
O  41.52500 10.54500 47.20900
C  40.32100 8.42000 47.31500
C  39.47400 8.99600 48.42400
O  39.45200 8.68400 49.64600
O  38.56600 9.88600 47.85600
C  37.66800 10.49300 48.76800
H  39.12200 1.68800 47.64600
H  45.60200 0.59900 47.06500
H  46.61600 6.86600 47.29300
H  38.33700 6.24600 48.65900
H  38.01600 3.68600 46.92400
H  37.40100 4.32300 49.75600
H  38.55400 3.11600 49.79200
H  36.91700 2.86700 48.96400
H  37.68800 7.41300 46.80400
H  36.56500 6.08200 46.98700
H  37.16400 5.40300 44.93600
H  38.82000 5.18900 45.24900
H  40.59700 -1.83700 47.67800
H  40.27900 -1.17300 46.06200
H  39.35500 -0.56400 47.45700
H  45.50200 -1.90100 47.22600
H  45.26900 -0.94500 45.68900
H  44.97700 -2.78400 45.96300
H  47.60200 2.38700 46.32800
H  47.63900 4.50100 48.42800
H  48.55900 2.46100 48.95500
H  48.41900 1.06900 47.94200
H  47.19900 1.43800 49.16700
H  48.00100 5.71700 45.95400
H  48.54400 4.14600 45.52900
H  50.01400 4.57900 47.89100
H  50.25900 6.01900 46.95700
H  50.62200 4.41800 46.23700
H  44.57200 10.30900 46.92300
H  45.93400 9.26300 46.39400
H  45.56500 9.58600 48.13700
H  39.79400 8.64200 46.38700
H  37.04500 9.81900 49.35700
H  36.93800 11.12400 48.26100
H  38.19600 11.10300 49.50100
Mg 35.59200 1.53000 30.06500
C  33.54100 2.93000 32.64600
C  38.25800 2.03200 32.35300
C  37.73900 0.92300 27.56100
C  32.94900 1.93500 27.89500
N  35.80400 2.12400 32.33700
C  34.80300 2.57600 33.14500
C  35.29300 2.64700 34.60500
C  36.85400 2.74600 34.39200
C  37.02000 2.28000 32.89600
C  37.47400 4.11700 34.70400
C  34.71700 1.53600 35.53500
C  34.75900 1.79200 37.07300
H  35.47700 3.04300 37.47900
N  37.67400 1.28300 30.01400
C  38.56300 1.61400 30.95900
C  39.88000 1.42200 30.37500
C  39.79500 1.07500 28.99900
C  38.33900 1.10100 28.78100
C  41.15600 1.50800 31.11100
C  40.86700 0.94600 27.91100
O  40.52600 0.46800 26.80700
C  42.39000 1.19100 28.04300
N  35.35500 1.35200 28.07500
C  36.38700 0.97600 27.18700
C  35.87700 0.81900 25.71700
C  34.30300 0.95300 25.92200
C  34.14800 1.44900 27.41300
C  36.54700 1.92800 24.89700
C  33.46800 -0.37200 25.71200
C  32.35800 -0.29500 24.71500
N  33.65700 2.22500 30.20300
C  32.64900 2.32400 29.21700
C  31.42400 2.84200 29.72800
C  31.72100 3.17400 31.09800
C  33.06300 2.80900 31.28700
C  30.20700 3.24900 28.97000
C  31.18200 3.64900 32.35600
O  30.13700 4.19900 32.56200
C  32.34100 3.46700 33.41300
C  32.64500 4.75100 34.09600
O  33.13800 5.66000 33.46600
O  32.36600 4.84700 35.41700
C  32.69200 6.14700 36.06300
H  39.12800 2.33700 32.94000
H  38.29300 0.83800 26.62400
H  32.08000 1.96100 27.23400
H  34.86500 3.60000 34.91800
H  37.36500 2.06900 35.07700
H  37.49900 4.61900 33.73700
H  38.52800 3.93200 34.91000
H  36.86000 4.65500 35.42700
H  35.34900 0.66700 35.35000
H  33.72000 1.36900 35.12700
H  35.18100 0.90200 37.53900
H  33.73600 1.83700 37.44900
H  41.61200 0.52600 30.98700
H  41.02500 1.78700 32.15700
H  41.80000 2.20400 30.57200
H  42.86600 0.90100 27.10700
H  42.79700 0.72100 28.93800
H  42.51800 2.26700 27.92400
H  36.13500 -0.16200 25.32000
H  33.89200 1.69900 25.24200
H  36.75000 2.81900 25.49200
H  35.86700 2.28300 24.12300
H  37.47300 1.65000 24.39500
H  33.01100 -0.72500 26.63700
H  34.23200 -1.11000 25.46800
H  32.08400 0.73500 24.48700
H  31.41300 -0.67400 25.10500
H  32.51400 -0.78100 23.75200
H  29.53300 2.40500 28.82600
H  30.48600 3.72400 28.03000
H  29.70800 4.05100 29.51500
H  31.86800 2.82800 34.15800
H  31.78200 6.71100 36.27100
H  33.48200 6.58500 35.45500
H  33.15600 5.80500 36.98800

