158

Mg -2.72800 17.44200 27.67800
C  -2.92100 15.38400 30.42100
C  -3.36400 20.08500 29.65000
C  -2.55400 19.33300 24.83200
C  -2.69100 14.56900 25.58500
N  -3.31200 17.62200 29.93600
C  -3.15600 16.70200 30.83300
C  -3.63900 17.28900 32.24300
C  -3.67800 18.81800 31.93600
C  -3.35900 18.87200 30.43400
C  -4.95400 19.53600 32.26600
C  -2.56900 17.06600 33.35500
C  -2.44100 18.04900 34.63100
H  -2.03700 17.33300 35.91600
N  -2.98700 19.43300 27.35500
C  -3.24300 20.34800 28.32600
C  -3.07900 21.64400 27.66100
C  -2.83900 21.50500 26.25200
C  -2.73700 20.02200 26.10200
C  -3.31500 22.82600 28.46300
C  -2.59500 22.47700 25.21400
O  -2.19200 22.19200 24.09200
C  -2.70000 23.94200 25.54700
N  -2.63500 17.05900 25.50700
C  -2.58800 17.96500 24.60400
C  -2.70200 17.41000 23.17000
C  -2.61200 15.90000 23.35000
C  -2.67600 15.80500 24.87000
C  -4.06100 17.72300 22.46900
C  -1.28200 15.30800 22.76200
C  0.09100 15.35900 23.58500
N  -2.78600 15.41500 27.95000
C  -2.72400 14.34000 26.97900
C  -2.64800 13.12900 27.71900
C  -2.82200 13.48400 29.00900
C  -2.85500 14.89100 29.14400
C  -2.63400 11.68500 27.17700
C  -3.01000 12.94500 30.35000
O  -3.15600 11.78500 30.68700
C  -2.98800 14.14400 31.32000
C  -1.76400 13.99700 32.14600
O  -0.71300 14.46300 31.86800
O  -2.09600 13.31700 33.27200
C  -1.11600 13.33800 34.30400
H  -3.42000 20.91600 30.35600
H  -2.65400 20.00400 23.97600
H  -2.77000 13.64900 25.00300
H  -4.61100 16.90300 32.55200
H  -2.84300 19.28700 32.45700
H  -4.80800 20.34500 32.98100
H  -5.47600 18.73100 32.78400
H  -5.47000 19.84400 31.35600
H  -1.62300 17.07800 32.81500
H  -2.70200 16.02100 33.63500
H  -3.40100 18.50100 34.88200
H  -1.53900 18.64300 34.48500
H  -2.70900 22.88100 29.36700
H  -4.39200 22.80900 28.62800
H  -3.00100 23.69000 27.87700
H  -1.81400 24.31900 26.05700
H  -3.72200 23.95800 25.92600
H  -2.72900 24.42000 24.56800
H  -1.92800 17.69200 22.45600
H  -3.52700 15.41000 23.01600
H  -4.54400 18.42800 23.14600
H  -4.79700 16.97200 22.18400
H  -3.84300 18.38400 21.63000
H  -1.02700 15.85300 21.85400
H  -1.40800 14.24700 22.54600
H  -0.04000 15.22800 24.65900
H  0.44200 16.37800 23.42000
H  0.79300 14.59700 23.24800
H  -1.74600 11.63800 26.54700
H  -3.57300 11.52200 26.64700
H  -2.71600 10.94400 27.97300
H  -3.88700 14.14200 31.93700
H  -0.98600 14.25200 34.88300
H  -0.17900 13.04600 33.83000
H  -1.34300 12.46800 34.92100
Mg 24.20400 -4.43900 45.27800
C  26.57900 -2.04300 44.02200
C  21.93100 -3.09400 43.26400
C  22.52200 -7.29000 45.57400
C  27.13900 -6.03100 46.73300
N  24.23000 -2.73100 43.80000
C  25.27600 -1.86100 43.54900
C  24.85600 -0.80800 42.39700
C  23.25900 -0.95200 42.45100
C  23.07200 -2.30900 43.18500
C  22.55300 0.16800 43.20500
C  25.38100 -1.25800 40.98300
C  25.91500 -0.09000 39.92600
H  25.52400 -0.25900 38.37800
N  22.37400 -5.04800 44.69500
C  21.58300 -4.33300 43.84900
C  20.27700 -4.94100 43.88300
C  20.45000 -6.20400 44.51900
C  21.83500 -6.28500 44.94600
C  19.01600 -4.46700 43.09700
C  19.35800 -7.28800 44.66600
O  18.23400 -7.13600 44.16600
C  19.56800 -8.62600 45.41800
N  24.77200 -6.37500 46.00000
C  23.86200 -7.38100 46.04900
C  24.32800 -8.61300 46.82100
C  25.83800 -8.28000 47.06600
C  25.96600 -6.79400 46.58000
C  23.42300 -8.94200 48.05200
C  26.83300 -9.18400 46.32000
C  28.25100 -9.34600 46.87400
N  26.39100 -4.12600 45.48100
C  27.41000 -4.78600 46.18700
C  28.67300 -4.16500 46.06100
C  28.38900 -3.07100 45.23500
C  27.01100 -3.10100 44.85000
C  29.95600 -4.61200 46.68500
C  28.88100 -1.83200 44.62100
O  29.93800 -1.26200 44.70700
C  27.81700 -1.29900 43.65500
C  27.68800 0.21600 43.66900
O  27.14800 0.89400 44.58500
O  28.35100 0.74000 42.56100
C  28.18400 2.16800 42.28600
H  21.15600 -2.80500 42.55000
H  22.03200 -8.26100 45.66600
H  27.95100 -6.55800 47.23800
H  25.21700 0.20300 42.58400
H  22.85100 -1.04200 41.44500
H  22.58800 1.03100 42.53900
H  22.98700 0.24300 44.20200
H  21.49500 -0.07700 43.29400
H  24.54100 -1.73200 40.47500
H  26.16900 -2.01000 41.02800
H  27.00000 -0.12500 40.02500
H  25.48000 0.85000 40.26700
H  18.75000 -5.12500 42.26900
H  19.32900 -3.57000 42.56200
H  18.19200 -4.35000 43.80100
H  19.85700 -8.30800 46.42000
H  20.29600 -9.22800 44.87400
H  18.66800 -9.23300 45.51400
H  24.26100 -9.47300 46.15400
H  26.11500 -8.05800 48.09700
H  23.98800 -9.15500 48.96000
H  22.70600 -9.72600 47.80800
H  22.69700 -8.21400 48.41300
H  27.02700 -8.77300 45.32900
H  26.45100 -10.19200 46.15700
H  29.03900 -9.05600 46.17900
H  28.40200 -10.36200 47.23800
H  28.48500 -8.73000 47.74200
H  30.71700 -3.83200 46.69700
H  30.39500 -5.53400 46.30600
H  29.84100 -4.71900 47.76400
H  28.19000 -1.66100 42.69700
H  27.74800 2.80300 43.05600
H  27.54100 2.25200 41.40900
H  29.12600 2.69200 42.12600

