158

Mg 25.13400 1.43200 29.51200
C  27.30000 1.12800 32.49100
C  22.53500 1.48500 31.66900
C  23.40100 1.91700 26.81100
C  28.17000 1.13600 27.61800
N  24.98800 1.13300 31.89600
C  25.97500 1.31700 32.83300
C  25.30700 1.29500 34.31000
C  23.78900 1.22800 33.98000
C  23.76300 1.33600 32.43900
C  22.92400 0.00400 34.49400
C  25.77200 2.50200 35.18000
C  26.01600 2.24100 36.64200
H  25.94700 3.48700 37.58200
N  23.25000 1.65200 29.29600
C  22.23200 1.67800 30.24800
C  20.92900 1.73500 29.58800
C  21.21100 1.92700 28.19800
C  22.67000 1.82000 28.03400
C  19.61000 1.63200 30.31500
C  20.19900 2.04100 26.99400
O  20.61700 2.01900 25.87300
C  18.65300 2.14300 27.31200
N  25.73600 1.39000 27.46000
C  24.77300 1.60500 26.52600
C  25.39600 1.73500 25.08400
C  26.91900 1.79100 25.43000
C  26.95800 1.43300 26.94800
C  24.80100 0.60300 24.23000
C  27.66900 3.11100 25.25100
C  26.95800 4.27200 25.94700
N  27.20200 1.07800 29.93000
C  28.27800 0.92900 29.00700
C  29.56200 0.63200 29.68100
C  29.14000 0.69800 31.07400
C  27.74700 0.98100 31.18000
C  30.89800 0.40900 29.14200
C  29.71100 0.76400 32.41300
O  30.89100 0.49100 32.77700
C  28.52500 1.09500 33.42300
C  28.52400 -0.03300 34.31100
O  28.10400 -1.15200 34.13600
O  29.08500 0.35400 35.47700
C  29.17300 -0.61700 36.57000
H  21.68700 1.44300 32.35600
H  22.78800 1.99400 25.91000
H  29.06900 1.17600 27.00000
H  25.68000 0.36400 34.73600
H  23.29000 2.12700 34.34000
H  21.97700 0.53200 34.60900
H  23.22400 -0.49300 35.41600
H  22.75500 -0.70300 33.68200
H  25.11700 3.37300 35.20200
H  26.66300 2.87200 34.67200
H  27.03500 1.85500 36.67300
H  25.30200 1.53900 37.07000
H  18.92300 2.39300 29.94500
H  19.55400 1.59800 31.40300
H  19.15500 0.73700 29.88900
H  18.36500 3.06300 27.82100
H  18.23100 1.33000 27.90300
H  18.21800 2.02300 26.32000
H  24.95100 2.66700 24.73800
H  27.48100 1.03600 24.87900
H  24.33500 -0.16300 24.85000
H  25.63900 0.15000 23.70100
H  24.08700 1.06200 23.54500
H  27.64800 3.32600 24.18200
H  28.70300 3.03700 25.58700
H  26.19100 3.90200 26.62700
H  26.52100 4.92500 25.19100
H  27.69100 4.81900 26.53900
H  31.64000 1.18500 29.33300
H  30.74500 0.39800 28.06300
H  31.31200 -0.56800 29.39100
H  28.57600 2.00300 34.02400
H  28.35400 -0.37500 37.24800
H  30.14400 -0.45100 37.03600
H  29.17300 -1.65300 36.22900
Mg 1.60900 42.42600 25.45900
C  3.29900 42.33600 28.62300
C  -1.28400 41.60600 27.23600
C  0.21900 41.51700 22.60900
C  4.71800 42.52500 23.93800
N  1.08700 42.02800 27.71200
C  1.95500 42.11800 28.78900
C  1.16200 42.21100 30.05400
C  -0.26200 41.70900 29.60500
C  -0.21000 41.81800 28.10000
C  -0.54500 40.29100 30.06400
C  1.21400 43.67700 30.71800
C  1.53500 43.83300 32.31200
H  1.33400 42.53100 33.03100
N  -0.27500 41.73900 25.01000
C  -1.34200 41.52200 25.85400
C  -2.55900 41.13300 25.06500
C  -2.11100 41.05500 23.73100
C  -0.69000 41.49100 23.72700
C  -3.89600 40.77700 25.68100
C  -2.86300 40.50300 22.58300
O  -2.36600 40.42600 21.42500
C  -4.31300 40.09000 22.76400
N  2.35900 42.18200 23.50300
C  1.54300 41.81300 22.49100
C  2.21500 41.92400 21.11600
C  3.68000 42.40700 21.54800
C  3.60400 42.46100 23.04600
C  2.11600 40.56900 20.36100
C  4.07500 43.75100 20.97700
C  4.98000 43.79700 19.75000
N  3.65800 42.44600 26.08800
C  4.79300 42.48000 25.33700
C  5.93900 42.63600 26.20700
C  5.43000 42.56200 27.48500
C  4.01300 42.40300 27.38000
C  7.45200 42.68800 25.78200
C  5.75600 42.57100 28.87400
O  6.79300 42.86600 29.48800
C  4.45900 42.40600 29.65200
C  4.66800 41.17600 30.52000
O  4.45200 40.04600 30.10900
O  5.13300 41.55700 31.78300
C  5.23800 40.49200 32.69000
H  -2.18400 41.37800 27.81100
H  -0.19100 41.53500 21.59700
H  5.63800 42.67100 23.37000
H  1.63700 41.56900 30.79500
H  -0.99400 42.41500 29.99800
H  0.35000 39.79700 30.44100
H  -1.02700 39.72000 29.27000
H  -1.42100 40.23700 30.71100
H  0.18200 44.02700 30.73100
H  1.74100 44.38200 30.07600
H  0.97800 44.70000 32.66700
H  2.61600 43.97500 32.31800
H  -4.15500 39.75700 25.39900
H  -4.58500 41.56400 25.37400
H  -3.82500 40.89400 26.76200
H  -4.17000 39.21800 23.40300
H  -4.80700 39.71600 21.86800
H  -4.81800 40.88200 23.31800
H  1.77900 42.59700 20.37800
H  4.43700 41.68100 21.25000
H  1.40900 40.67800 19.53900
H  1.65200 39.79800 20.97600
H  3.08200 40.22200 19.99200
H  4.32900 44.35500 21.84800
H  3.19100 44.27100 20.60700
H  5.91300 44.32100 19.95700
H  4.64700 44.33000 18.86000
H  5.16100 42.76800 19.43800
H  7.88900 41.69100 25.74500
H  7.97700 43.50800 26.27200
H  7.50500 42.92500 24.72000
H  4.35800 43.20900 30.38200
H  4.30800 40.24500 33.20100
H  5.94100 40.75300 33.48200
H  5.59300 39.57700 32.21600

