158

Mg 47.61100 25.11700 27.84600
C  48.41000 27.27000 30.46700
C  46.94600 22.70600 30.27100
C  47.31200 22.95900 25.35400
C  49.11400 27.38300 25.61200
N  47.34700 25.09000 30.11800
C  47.81000 26.10600 30.95500
C  47.55900 25.78400 32.41300
C  47.01600 24.34900 32.28600
C  47.09500 24.00200 30.82900
C  47.60200 23.21400 33.20200
C  46.41200 26.73000 32.90900
C  45.83900 26.30000 34.28300
H  45.47200 27.38300 35.34000
N  47.20300 23.12700 27.77500
C  46.89600 22.28900 28.88900
C  46.61800 20.92500 28.43300
C  46.73300 21.02400 26.97900
C  47.16900 22.40700 26.61200
C  46.17400 19.71400 29.26900
C  46.34800 20.02100 25.96700
O  46.50100 20.20300 24.78200
C  45.67500 18.66000 26.24200
N  48.19700 25.20600 25.84500
C  47.85700 24.17300 24.98900
C  48.03900 24.59900 23.50700
C  48.32200 26.09700 23.60700
C  48.63700 26.21200 25.07300
C  49.19200 23.78300 22.73100
C  47.07100 27.00500 23.16700
C  47.44200 28.00600 22.06200
N  48.54800 26.98800 27.94600
C  49.15600 27.80600 26.94000
C  49.69200 28.95100 27.61700
C  49.44800 28.84200 28.99200
C  48.68700 27.62100 29.14400
C  50.43500 30.04900 26.90800
C  49.69300 29.37300 30.26400
O  50.28800 30.41700 30.59400
C  49.11100 28.38700 31.23200
C  50.22700 27.93400 32.17000
O  50.87800 26.95900 31.92300
O  50.27100 28.68700 33.32500
C  51.41700 28.34800 34.16200
H  46.78200 21.82400 30.89400
H  47.04500 22.35100 24.48800
H  49.46100 28.00000 24.78100
H  48.45700 25.94900 33.00900
H  45.99000 24.27700 32.64500
H  47.93400 22.30100 32.70700
H  47.03800 22.89700 34.07900
H  48.58900 23.55600 33.51600
H  45.59000 26.75400 32.19300
H  46.74700 27.76200 33.01400
H  46.51000 25.62800 34.81600
H  44.89900 25.80300 34.04400
H  46.61900 18.77600 28.93600
H  45.09500 19.68400 29.12400
H  46.49000 19.83400 30.30500
H  45.27900 18.12600 25.37900
H  44.81700 18.81200 26.89700
H  46.49300 18.06400 26.64800
H  47.08700 24.46300 22.99400
H  49.19600 26.37700 23.01800
H  50.12300 24.34100 22.62900
H  48.89200 23.65600 21.69100
H  49.34800 22.82900 23.23600
H  46.70700 27.50500 24.06500
H  46.27900 26.34600 22.81200
H  47.00500 27.62400 21.13900
H  48.52600 28.04800 21.95700
H  47.13300 29.00300 22.37600
H  50.96900 30.67300 27.62500
H  49.76800 30.69800 26.34000
H  51.20600 29.65900 26.24300
H  48.43100 28.87500 31.93100
H  52.28700 28.37800 33.50800
H  51.27500 27.37700 34.63600
H  51.53600 29.02400 35.00900
Mg -10.55600 38.73900 41.40900
C  -9.33000 35.54400 40.61400
C  -7.76600 40.06300 39.96300
C  -12.26400 41.62800 40.85100
C  -13.64100 37.14100 42.31500
N  -8.87800 37.86800 40.24100
C  -8.58800 36.53700 40.08700
C  -7.27600 36.44900 39.30900
C  -6.61800 37.84600 39.48400
C  -7.81000 38.68400 39.91700
C  -5.45200 37.94900 40.62900
C  -7.68100 36.03900 37.85200
C  -7.12600 34.67300 37.36700
H  -6.56800 34.57200 35.94800
N  -10.00800 40.62100 40.66100
C  -8.77400 41.03500 40.20900
C  -8.79600 42.44600 39.88200
C  -10.11600 42.89900 40.09600
C  -10.91400 41.67600 40.58000
C  -7.56900 43.12400 39.43400
C  -10.67600 44.27400 39.82900
O  -9.89600 45.15300 39.51200
C  -12.09000 44.61700 39.75600
N  -12.70700 39.24500 41.54700
C  -13.06600 40.59000 41.36200
C  -14.54000 40.67500 41.75500
C  -14.91400 39.35400 42.37400
C  -13.69300 38.52700 42.04100
C  -15.06300 41.95300 42.59700
C  -16.29100 38.63300 42.09200
C  -17.10200 38.27500 43.41500
N  -11.35500 36.80700 41.57300
C  -12.50300 36.31200 42.07100
C  -12.41300 34.90300 42.25400
C  -11.28200 34.54300 41.69700
C  -10.57500 35.70900 41.27400
C  -13.43800 34.04600 42.75000
C  -10.42500 33.37300 41.30100
O  -10.56100 32.20400 41.53700
C  -9.17800 34.00800 40.52100
C  -7.95900 33.47700 41.09600
O  -7.05200 32.87300 40.52800
O  -7.97600 33.62200 42.43000
C  -6.86200 32.95800 43.25500
H  -6.77300 40.37800 39.63500
H  -12.85500 42.54700 40.84300
H  -14.57200 36.79600 42.76900
H  -6.68700 35.70400 39.84400
H  -6.18700 38.13200 38.52400
H  -5.77500 38.51100 41.50600
H  -4.52000 38.37600 40.25900
H  -5.28000 36.91500 40.92500
H  -7.27000 36.75400 37.13900
H  -8.76900 36.06900 37.79900
H  -7.86900 33.89400 37.53800
H  -6.28000 34.44100 38.01400
H  -6.87700 43.19700 40.27300
H  -7.66000 44.12900 39.02300
H  -7.08800 42.45400 38.72100
H  -12.78700 43.92300 39.28500
H  -12.18200 45.63900 39.38800
H  -12.50300 44.65500 40.76400
H  -15.18900 40.72200 40.88100
H  -14.78100 39.50600 43.44500
H  -15.45400 41.63200 43.56200
H  -15.82000 42.51100 42.04700
H  -14.28000 42.65500 42.88500
H  -16.03400 37.75500 41.50000
H  -16.86100 39.40300 41.57300
H  -16.62500 38.47300 44.37500
H  -17.31900 37.21300 43.30200
H  -18.06400 38.77300 43.29300
H  -12.97000 33.11900 43.08100
H  -14.12500 33.85500 41.92600
H  -13.92000 34.47700 43.62800
H  -9.20500 33.67900 39.48200
H  -7.30800 32.58800 44.17800
H  -6.05200 33.66900 43.41600
H  -6.40800 32.09600 42.76600

