158

Mg -1.82100 17.43800 26.72500
C  -2.10300 14.92600 29.20500
C  -2.44600 19.90100 28.93400
C  -1.86900 19.66200 24.07900
C  -1.92900 14.86200 24.39200
N  -2.13500 17.35300 28.89600
C  -2.23500 16.25700 29.74400
C  -2.45600 16.72300 31.22000
C  -2.63100 18.33500 31.01900
C  -2.46100 18.58000 29.49800
C  -4.08000 18.75600 31.49000
C  -1.48100 16.11500 32.27400
C  -1.28100 16.85100 33.64100
H  -1.55100 16.00900 34.94900
N  -2.02800 19.48300 26.51000
C  -2.21200 20.36400 27.60500
C  -2.19800 21.76600 27.09700
C  -2.11000 21.66500 25.69000
C  -1.98800 20.23100 25.37400
C  -2.39600 22.95000 28.00100
C  -2.19600 22.75300 24.69200
O  -1.89200 22.64900 23.49800
C  -2.60600 24.10900 25.04700
N  -1.88400 17.24400 24.55800
C  -1.81200 18.29600 23.65800
C  -1.68600 17.79800 22.15100
C  -1.72300 16.30800 22.30200
C  -1.83500 16.10800 23.83400
C  -2.78300 18.28200 21.14800
C  -0.45400 15.64900 21.62400
C  0.81400 15.25100 22.49500
N  -1.91600 15.38200 26.73500
C  -1.83400 14.48000 25.71000
C  -1.86500 13.11600 26.16000
C  -2.02800 13.25400 27.55600
C  -2.00600 14.65800 27.82200
C  -1.85300 11.90200 25.26700
C  -2.11200 12.53300 28.81700
O  -2.10200 11.34500 29.06100
C  -2.24100 13.64700 29.91000
C  -1.25500 13.32200 31.01400
O  -0.10100 13.72100 31.05200
O  -1.85500 12.55900 31.99200
C  -1.24000 12.31200 33.25400
H  -2.32500 20.64000 29.72900
H  -1.77700 20.40300 23.28200
H  -2.03700 14.10500 23.61300
H  -3.37700 16.17300 31.41200
H  -1.79800 18.73600 31.59700
H  -3.84400 19.40400 32.33400
H  -4.76600 17.94100 31.72000
H  -4.56100 19.34800 30.71100
H  -0.49000 16.04200 31.82500
H  -1.74000 15.09000 32.54000
H  -1.98700 17.68000 33.68000
H  -0.35100 17.41600 33.69800
H  -3.44100 23.25600 27.97600
H  -1.84200 23.86000 27.76900
H  -2.29800 22.62500 29.03700
H  -3.46000 24.13900 25.72300
H  -2.97700 24.46300 24.08500
H  -1.73000 24.73600 25.21300
H  -0.70400 18.02400 21.73500
H  -2.65400 15.97600 21.84100
H  -3.16800 19.25900 21.44200
H  -3.68400 17.67300 21.21000
H  -2.37700 18.39600 20.14300
H  -0.06800 16.15200 20.73800
H  -0.87000 14.67900 21.35300
H  0.96100 16.02300 23.25000
H  1.76400 15.23000 21.96100
H  0.61000 14.28100 22.94900
H  -1.03600 12.03500 24.55700
H  -2.67900 11.79400 24.56400
H  -1.67000 10.91400 25.69100
H  -3.23400 13.49400 30.33200
H  -0.95000 11.26300 33.19100
H  -1.82100 12.44000 34.16700
H  -0.32500 12.87500 33.43900
Mg 16.89500 52.30700 26.10300
C  18.89500 51.03000 28.62700
C  14.55200 53.12300 28.32700
C  14.91600 53.33300 23.50400
C  19.05800 50.94500 23.74900
N  16.80300 52.06000 28.25600
C  17.74500 51.62000 29.13300
C  17.37000 51.92000 30.59700
C  15.88200 52.37200 30.50300
C  15.67900 52.44100 28.93200
C  14.87300 51.25800 30.99100
C  18.31700 52.96500 31.21300
C  18.39800 53.05400 32.77300
H  17.48700 52.11700 33.65400
N  15.06000 53.13300 25.97800
C  14.30100 53.45000 27.03200
C  13.17900 54.27200 26.58100
C  13.22600 54.30600 25.16700
C  14.47800 53.61200 24.84100
C  12.21300 54.94200 27.55300
C  12.33500 54.98400 24.14800
O  12.57500 55.03500 22.94300
C  11.11000 55.67300 24.59600
N  16.90200 52.17300 23.81600
C  16.02200 52.69600 23.03000
C  16.35300 52.57300 21.53800
C  17.68800 51.78300 21.59100
C  17.97900 51.58000 23.13900
C  15.15300 51.88000 20.75600
C  18.88900 52.32300 20.78800
C  19.52800 53.61900 21.23700
N  18.59900 51.31700 26.16200
C  19.35100 50.73900 25.12900
C  20.44400 49.90200 25.64800
C  20.19900 49.98200 27.03500
C  19.17600 50.86900 27.28200
C  21.34800 49.00500 24.87600
C  20.79700 49.50600 28.32500
O  21.79400 48.84200 28.63600
C  19.91400 50.20300 29.46400
C  19.25600 49.20100 30.32900
O  18.36800 48.35100 30.08000
O  19.80000 49.31300 31.51300
C  19.11200 48.54400 32.56700
H  13.96500 53.55200 29.14200
H  14.33700 53.70100 22.65500
H  19.74600 50.45000 23.06000
H  17.51700 51.04600 31.23100
H  15.78100 53.27300 31.10800
H  14.04000 51.80300 31.43400
H  15.32000 50.68700 31.80600
H  14.61200 50.62800 30.14200
H  18.18500 53.94300 30.75000
H  19.28700 52.58500 30.89200
H  18.26200 54.11800 32.96600
H  19.44200 52.87400 33.03000
H  12.24800 56.02600 27.44000
H  12.45500 54.77600 28.60300
H  11.17400 54.70200 27.32600
H  10.42300 55.76600 23.75500
H  11.32800 56.71100 24.84700
H  10.48600 55.09600 25.27800
H  16.54400 53.54200 21.07600
H  17.50700 50.85900 21.04300
H  14.36700 51.87800 21.51100
H  15.37400 50.87300 20.40000
H  14.69900 52.54900 20.02500
H  18.58600 52.36100 19.74200
H  19.60900 51.50500 20.79900
H  19.88300 54.17000 20.36600
H  20.37600 53.39200 21.88300
H  18.72200 54.20200 21.68400
H  22.37200 49.15400 25.21800
H  21.38000 49.20400 23.80500
H  21.04000 47.97200 25.04300
H  20.49100 50.97900 29.96800
H  18.03100 48.47100 32.44700
H  19.44700 49.07100 33.46100
H  19.40100 47.49300 32.54200

