158

Mg 43.41500 3.34200 47.15500
C  41.47800 6.27000 47.12300
C  40.68600 1.45100 47.06300
C  45.46800 0.71400 46.84100
C  46.28200 5.52200 46.39500
N  41.31500 3.90200 47.07200
C  40.70300 5.08800 47.14900
C  39.18700 4.91000 46.99500
C  39.05300 3.37700 47.19700
C  40.44100 2.82000 47.04300
C  38.27400 2.87000 48.49200
C  38.52100 5.39900 45.68500
C  38.99100 4.75400 44.30300
H  39.67700 5.62200 43.24200
N  43.10600 1.27400 47.15800
C  41.85500 0.68900 47.20800
C  42.00600 -0.78700 47.11000
C  43.43200 -1.01900 47.08200
C  44.09200 0.33600 47.03300
C  40.83500 -1.76800 47.23000
C  44.16200 -2.37600 47.07700
O  43.46800 -3.36200 47.10400
C  45.65700 -2.61700 47.05400
N  45.52700 3.20000 46.72600
C  46.14600 1.97800 46.76900
C  47.70900 2.03600 46.74200
C  47.90200 3.56100 46.44600
C  46.45600 4.14900 46.42400
C  48.39700 1.46800 48.00500
C  48.79800 3.86700 45.16900
C  49.90800 4.86200 45.45300
N  43.90800 5.47100 46.76000
C  45.02600 6.18700 46.53300
C  44.75300 7.58900 46.56400
C  43.35900 7.66000 46.75800
C  42.87900 6.32800 46.85200
C  45.64200 8.71700 46.55200
C  42.26000 8.60700 46.86000
O  42.19400 9.82300 46.85000
C  40.92100 7.66700 47.00400
C  40.05600 8.04200 48.16100
O  40.27100 7.77600 49.29100
O  39.10600 8.98300 47.71700
C  38.28900 9.58400 48.81000
H  39.80000 0.82400 46.94500
H  46.08400 -0.18200 46.73900
H  47.11900 6.15900 46.10200
H  38.77600 5.51500 47.80300
H  38.50300 2.96200 46.35200
H  37.94500 3.73700 49.06500
H  38.89200 2.14800 49.02600
H  37.38100 2.34000 48.16100
H  38.61800 6.47800 45.57400
H  37.47500 5.09200 45.72600
H  38.16700 4.31300 43.74200
H  39.66500 3.90400 44.40800
H  39.90900 -1.25600 47.48900
H  40.97200 -2.50100 48.02500
H  40.89500 -2.31200 46.28700
H  46.08300 -2.33200 46.09200
H  45.78700 -3.68500 46.87500
H  46.19800 -2.29100 47.94300
H  48.16700 1.48200 45.92200
H  48.35700 4.01500 47.32700
H  47.59500 1.46200 48.74400
H  49.21700 2.13500 48.27300
H  48.70700 0.44400 47.79800
H  48.19900 4.20900 44.32500
H  49.21300 2.90600 44.86600
H  50.85000 4.41400 45.13600
H  50.09400 5.24900 46.45500
H  49.70900 5.79500 44.92500
H  45.41800 9.36200 45.70300
H  46.66000 8.32700 46.56600
H  45.43000 9.34000 47.42100
H  40.51100 7.94600 46.03300
H  38.72800 10.49100 49.22500
H  38.04500 8.91100 49.63200
H  37.32400 9.71100 48.31900
Mg 53.56500 24.91400 43.92500
C  50.59200 26.82300 43.19500
C  52.16200 22.28100 42.34400
C  56.51800 23.51000 44.03100
C  54.94800 28.03100 45.14700
N  51.74200 24.76800 42.76000
C  50.66400 25.62100 42.55800
C  49.50600 24.85100 41.94400
C  49.87900 23.41700 42.16200
C  51.37600 23.47600 42.39800
C  49.19400 22.61700 43.35000
C  49.04500 25.32600 40.47900
C  47.60700 24.89000 40.08800
H  47.46100 23.47000 39.56500
N  54.28500 23.07300 43.34100
C  53.49600 22.10800 42.72600
C  54.31700 20.85900 42.71300
C  55.65000 21.12900 43.25300
C  55.53600 22.62800 43.53500
C  53.72200 19.73500 42.02400
C  56.73400 20.17400 43.51400
O  56.52300 18.98400 43.25100
C  58.11500 20.51000 44.11400
N  55.48900 25.68500 44.49900
C  56.52200 24.89100 44.39100
C  57.75100 25.51700 45.14000
C  57.34800 27.02900 45.37400
C  55.90800 26.96800 44.93600
C  58.18000 24.75200 46.41400
C  58.17700 28.13900 44.63800
C  58.22300 28.30000 43.10100
N  52.98200 26.98000 44.18800
C  53.55900 28.00800 44.84600
C  52.62200 28.99300 45.19800
C  51.48900 28.63300 44.53000
C  51.69600 27.38300 43.88100
C  52.91700 30.25200 45.97600
C  50.14700 29.00000 44.23300
O  49.49100 29.97700 44.52800
C  49.48500 27.81500 43.44400
C  48.79800 28.26100 42.22400
O  49.35800 28.61900 41.20200
O  47.42000 28.27600 42.38900
C  46.73200 28.60200 41.13900
H  51.66300 21.36300 42.03000
H  57.51800 23.15500 44.28900
H  55.33600 28.97400 45.53700
H  48.57300 24.94900 42.50000
H  49.66700 22.93300 41.20900
H  48.47400 23.27500 43.83700
H  49.94400 22.37600 44.10300
H  48.71600 21.75000 42.89500
H  49.74200 24.84100 39.79500
H  49.16900 26.38000 40.23400
H  47.20600 25.56600 39.33200
H  47.14400 25.03100 41.06500
H  54.35400 18.84700 41.98500
H  53.45600 19.89200 40.97800
H  52.75100 19.52700 42.47300
H  58.74000 21.16000 43.50100
H  58.75200 19.62600 44.10600
H  58.09400 21.09000 45.03600
H  58.60100 25.51200 44.45800
H  57.49700 27.19900 46.44000
H  57.35300 24.27200 46.93800
H  58.71800 25.43000 47.07700
H  58.88100 23.96300 46.14200
H  59.20900 27.96600 44.94300
H  57.86900 29.07800 45.09900
H  57.60100 29.11100 42.72100
H  57.82600 27.41600 42.60200
H  59.24800 28.48900 42.78300
H  52.03900 30.68400 46.45600
H  53.45100 31.07900 45.50800
H  53.59100 30.08900 46.81700
H  48.66900 27.30400 43.95500
H  46.70500 27.68100 40.55600
H  47.15900 29.31000 40.42900
H  45.68800 28.86700 41.30800

