158

Mg 34.69200 49.56700 25.73400
C  34.54100 47.94800 28.98900
C  33.31000 52.36000 27.33700
C  34.11900 50.88000 22.74700
C  35.52300 46.56800 24.25900
N  33.99200 50.07800 27.87800
C  34.06500 49.33500 29.04300
C  33.76500 50.10400 30.33900
C  33.19100 51.45300 29.78800
C  33.38900 51.26200 28.22600
C  31.71700 51.73300 30.06300
C  35.00000 50.15300 31.28600
C  34.85800 49.46600 32.59900
H  33.55900 49.64600 33.38900
N  34.07100 51.43900 25.15900
C  33.57200 52.43900 25.96900
C  33.37600 53.57800 25.13800
C  33.57000 53.19000 23.79200
C  33.85500 51.76600 23.84900
C  32.98100 54.93100 25.63000
C  33.51900 54.05100 22.52000
O  33.59800 53.64700 21.40200
C  33.32600 55.51000 22.62700
N  34.60300 48.78500 23.79700
C  34.45400 49.54100 22.70300
C  34.96500 48.87500 21.40500
C  35.43800 47.51300 21.93200
C  35.24300 47.65600 23.42200
C  33.94200 48.91700 20.29200
C  36.80000 47.05400 21.35600
C  38.02300 47.63200 22.09100
N  34.90000 47.60400 26.45000
C  35.27600 46.49800 25.69400
C  35.53400 45.35000 26.61800
C  35.21100 45.91600 27.89200
C  34.90900 47.26100 27.75200
C  35.98200 43.93800 26.33400
C  35.12500 45.57000 29.29300
O  35.37300 44.51400 29.87400
C  34.64100 46.88200 30.03400
C  33.46800 46.68600 30.92400
O  32.36000 47.12100 30.70600
O  33.76300 45.81100 31.90200
C  32.67400 45.48400 32.88900
H  33.23100 53.30800 27.87400
H  34.14500 51.36900 21.77100
H  35.87900 45.73300 23.65100
H  32.98000 49.60400 30.90600
H  33.72700 52.27700 30.26000
H  31.34600 51.06200 30.83800
H  30.94900 51.68600 29.29100
H  31.63900 52.74800 30.45300
H  35.32500 51.18700 31.40700
H  35.76800 49.81200 30.59300
H  35.70200 49.75400 33.22600
H  34.92500 48.39000 32.43800
H  33.82100 55.61400 25.50400
H  32.84200 54.91300 26.71100
H  31.99500 55.15100 25.22100
H  32.29900 55.77000 22.88200
H  33.46700 55.93400 21.63300
H  34.14800 55.99800 23.15100
H  35.77100 49.42100 20.91500
H  34.73100 46.77500 21.55300
H  32.94900 49.27600 20.56500
H  33.82900 47.96900 19.76600
H  34.29800 49.53200 19.46600
H  36.80200 47.41100 20.32600
H  36.93500 45.97700 21.26000
H  38.63800 46.77400 22.36300
H  37.85900 48.21900 22.99500
H  38.63000 48.04600 21.28700
H  35.48000 43.41000 25.52400
H  35.93500 43.21800 27.15200
H  37.04000 43.93500 26.07200
H  35.48200 47.20400 30.64800
H  33.21700 45.24800 33.80400
H  32.15600 44.64200 32.43000
H  31.98700 46.25100 33.24700
Mg -8.85000 18.49800 43.27200
C  -5.44100 18.36000 43.32800
C  -8.67500 21.86000 42.45000
C  -12.32300 18.66400 43.06200
C  -9.09700 15.10200 43.73300
N  -7.15800 19.97100 42.79000
C  -5.85500 19.67100 42.97600
C  -4.92500 20.90900 42.73600
C  -6.08300 22.11000 42.76300
C  -7.42500 21.26900 42.60000
C  -6.13800 22.90000 44.09300
C  -3.98600 20.78300 41.52700
C  -4.45400 20.00400 40.26100
H  -4.33700 20.73100 38.89900
N  -10.33300 20.03200 42.73100
C  -9.99300 21.37800 42.57300
C  -11.23300 22.16300 42.40200
C  -12.31400 21.27800 42.65600
C  -11.69700 19.96500 42.87200
C  -11.25500 23.68100 42.14900
C  -13.78500 21.65600 42.84500
O  -14.16900 22.78400 42.97000
C  -14.83800 20.69200 43.11600
N  -10.48000 17.08600 43.21000
C  -11.80100 17.41700 43.22200
C  -12.77800 16.20800 43.36500
C  -11.72100 15.00100 43.41300
C  -10.35300 15.71200 43.42200
C  -13.74100 16.18500 44.52600
C  -11.89700 13.94000 42.25600
C  -11.00300 13.99200 40.96000
N  -7.61000 16.98800 43.47400
C  -7.79800 15.72600 43.77700
C  -6.53400 15.12900 44.07300
C  -5.55700 16.13900 43.95000
C  -6.30800 17.23500 43.52000
C  -6.31900 13.67700 44.40300
C  -4.11400 16.43700 44.06800
O  -3.15600 15.74900 44.29300
C  -4.02300 17.90100 43.55800
C  -3.38900 18.61500 44.73700
O  -3.95600 18.95400 45.75800
O  -2.09700 18.98100 44.31700
C  -1.52700 20.02500 45.14100
H  -8.51600 22.93100 42.59200
H  -13.41200 18.70600 42.99400
H  -9.10900 14.03200 43.94900
H  -4.38200 20.99600 43.67700
H  -5.85200 22.76200 41.92000
H  -6.89400 22.41200 44.70800
H  -6.35300 23.94700 43.87800
H  -5.22000 22.91800 44.68000
H  -3.05100 20.38100 41.91800
H  -3.79800 21.81200 41.21800
H  -5.50900 20.00300 40.53400
H  -4.00800 19.01000 40.23500
H  -11.62200 23.99200 41.17100
H  -10.24800 24.06600 42.30600
H  -11.79200 24.20700 42.93800
H  -14.57100 20.03700 43.94500
H  -14.85800 20.13900 42.17700
H  -15.77500 21.23100 43.25100
H  -13.45000 16.10300 42.51300
H  -11.83400 14.53100 44.38900
H  -14.72300 16.44000 44.12900
H  -13.50300 16.86500 45.34500
H  -13.98100 15.18300 44.88100
H  -12.86100 14.20000 41.81800
H  -11.96600 12.93700 42.67800
H  -11.00600 12.95400 40.62800
H  -9.97700 14.34900 41.04500
H  -11.60200 14.43100 40.16200
H  -5.58600 13.64300 45.20900
H  -5.92500 13.21100 43.50000
H  -7.21200 13.14200 44.72500
H  -3.42500 17.84300 42.64800
H  -0.44700 19.87300 45.15200
H  -1.83800 20.13000 46.18100
H  -1.65800 20.98900 44.65000

