158

Mg 40.39600 9.88000 29.80300
C  42.67300 10.75700 32.34600
C  38.26700 8.67200 32.21400
C  38.46700 8.84100 27.43700
C  42.70900 10.95200 27.36300
N  40.55300 9.63200 32.02200
C  41.48800 10.17000 32.86100
C  41.13800 10.01400 34.37000
C  39.71600 9.25800 34.31000
C  39.46000 9.21700 32.81000
C  39.69800 7.90400 35.03600
C  41.02200 11.37900 35.14000
C  40.19600 11.40800 36.47500
H  40.71700 12.17500 37.63600
N  38.55500 8.89200 29.83600
C  37.84700 8.41700 30.90100
C  36.61200 7.80600 30.41900
C  36.62500 7.95200 29.00700
C  37.92500 8.55700 28.64500
C  35.65000 7.12000 31.40800
C  35.57500 7.58100 28.07400
O  35.69300 7.82900 26.90200
C  34.26500 7.08300 28.59100
N  40.67000 9.71100 27.72100
C  39.73000 9.20300 26.99200
C  39.88600 9.37600 25.53600
C  41.21400 10.09600 25.42000
C  41.59300 10.26200 26.93700
C  39.82600 7.96300 24.82300
C  41.15600 11.50100 24.60300
C  40.79400 12.79500 25.24800
N  42.32300 10.54000 29.82500
C  43.07800 11.05900 28.73600
C  44.28700 11.70700 29.26200
C  44.14400 11.56600 30.70700
C  42.99900 10.87700 30.97600
C  45.30500 12.45500 28.47000
C  44.78400 11.96400 31.98600
O  45.78800 12.63400 32.20400
C  43.73500 11.45200 33.13400
C  44.46800 10.53800 34.06700
O  45.26100 9.64900 33.70500
O  43.99700 10.80100 35.34600
C  44.37700 9.84100 36.38500
H  37.60100 8.32400 33.00600
H  37.84900 8.56600 26.57900
H  43.44200 11.42300 26.70400
H  41.96200 9.44400 34.80000
H  38.87300 9.89000 34.59000
H  39.39500 7.05300 34.42600
H  38.83000 7.79100 35.68500
H  40.61000 7.60500 35.55200
H  40.43900 12.02200 34.48100
H  42.00600 11.81200 35.31800
H  40.16200 10.38300 36.84400
H  39.16300 11.68400 36.26200
H  34.67100 7.59900 31.43300
H  36.13100 7.01400 32.38100
H  35.42000 6.12900 31.01500
H  34.49700 6.11100 29.02600
H  33.61500 6.86200 27.74500
H  33.77900 7.64300 29.39100
H  39.24300 10.17100 25.15800
H  42.02300 9.53500 24.95300
H  39.84100 7.25700 25.65400
H  40.69000 7.94900 24.15900
H  38.88500 7.78300 24.30400
H  40.50900 11.38800 23.73300
H  42.14800 11.56700 24.15800
H  41.59100 13.47800 24.95600
H  40.74900 12.63600 26.32600
H  39.81000 13.13500 24.92500
H  44.90100 12.88800 27.55500
H  46.06600 11.72600 28.19300
H  45.70200 13.22600 29.13000
H  43.52400 12.35900 33.69900
H  45.37000 10.03700 36.79100
H  44.28700 8.82100 36.01100
H  43.63100 10.03400 37.15500
Mg 54.44300 23.98600 43.06500
C  52.04700 26.43200 42.63300
C  52.13900 21.70200 42.16100
C  56.99400 21.85500 42.23800
C  56.90700 26.54200 42.99100
N  52.25500 24.03500 42.63400
C  51.49200 25.13800 42.47000
C  50.10700 24.75500 41.99300
C  50.11400 23.20100 42.13900
C  51.61500 22.94300 42.30900
C  49.38400 22.63300 43.32100
C  49.81300 25.14000 40.56300
C  51.00300 24.92900 39.53900
H  50.66100 24.75200 38.07700
N  54.51400 21.98600 42.48100
C  53.42600 21.14900 42.24400
C  53.89700 19.86400 41.81400
C  55.31000 19.92000 41.96700
C  55.67500 21.31600 42.25100
C  53.04400 18.63500 41.54400
C  56.22100 18.66900 41.81800
O  55.76800 17.58600 41.36900
C  57.66200 18.72600 42.09200
N  56.65500 24.10900 42.73000
C  57.50000 23.07600 42.49900
C  58.97900 23.45400 42.34200
C  58.87300 24.99500 42.59800
C  57.37600 25.22600 42.79600
C  60.02300 22.74900 43.24800
C  59.55400 25.88800 41.49800
C  58.75100 26.16000 40.22400
N  54.44800 26.01200 43.10700
C  55.47800 26.93400 43.03100
C  54.98900 28.27300 43.11600
C  53.63300 28.12600 43.05700
C  53.34800 26.72600 42.95200
C  55.80600 29.44500 43.00700
C  52.35900 28.83500 43.12600
O  52.10800 29.96700 43.41100
C  51.29000 27.82500 42.61300
C  50.81300 28.30400 41.32300
O  51.50700 28.25300 40.31000
O  49.50100 28.76000 41.33600
C  49.03200 29.14300 40.02700
H  51.44800 20.86600 42.02900
H  57.83300 21.22300 41.93900
H  57.64700 27.34400 43.03100
H  49.43200 25.18300 42.73300
H  49.63900 22.71500 41.28800
H  49.64600 23.29400 44.14700
H  49.77900 21.67400 43.65800
H  48.30300 22.52600 43.23200
H  49.41400 26.15300 40.49700
H  49.08700 24.48700 40.08000
H  51.60600 24.09200 39.89000
H  51.68300 25.77100 39.67000
H  52.99900 18.54600 40.45900
H  52.05100 18.78900 41.96900
H  53.51400 17.75700 41.98800
H  58.14800 17.75100 42.06200
H  57.99300 19.13800 43.04500
H  58.04600 19.30300 41.25000
H  59.25700 23.33800 41.29400
H  59.40400 25.15700 43.53600
H  60.65000 22.08200 42.65700
H  59.51100 22.22500 44.05500
H  60.71200 23.49800 43.63900
H  60.50600 25.40100 41.28200
H  59.86000 26.80800 41.99600
H  58.67200 27.23500 40.05900
H  57.73900 25.76100 40.28800
H  59.29000 25.70000 39.39500
H  55.17600 30.33300 43.06100
H  56.24700 29.40000 42.01100
H  56.55000 29.36600 43.79900
H  50.48000 27.81300 43.34100
H  49.38800 30.15800 39.84700
H  47.94400 29.18000 40.08500
H  49.40600 28.47900 39.24800

