158

Mg 25.47600 1.83100 29.67100
C  27.71200 1.69300 32.54300
C  23.00800 2.02500 31.85800
C  23.47200 1.45000 27.07000
C  28.24700 0.74400 27.74100
N  25.35400 2.00700 31.96300
C  26.39400 2.00000 32.91800
C  25.87900 2.36600 34.30300
C  24.30700 2.32800 34.04400
C  24.14700 2.14700 32.54500
C  23.53400 1.28300 34.87500
C  26.37000 3.72100 34.86800
C  27.39000 3.73600 36.06000
H  26.93600 4.57600 37.37500
N  23.54400 1.77400 29.46800
C  22.65100 1.90100 30.51800
C  21.28900 1.77500 30.01800
C  21.39400 1.66800 28.60100
C  22.83800 1.60500 28.30000
C  20.12700 2.02800 30.94400
C  20.35800 1.49700 27.50100
O  20.58700 1.26300 26.32200
C  18.93600 1.61400 27.85900
N  25.79100 1.18500 27.65300
C  24.81700 1.35900 26.73800
C  25.38400 1.24500 25.32900
C  26.90700 1.05900 25.51900
C  27.00600 0.93300 27.07300
C  24.72000 0.24100 24.33000
C  27.65200 2.41600 24.98900
C  27.65900 3.74400 25.84200
N  27.52700 1.45600 29.99100
C  28.49800 0.94800 29.08800
C  29.79100 0.82800 29.77100
C  29.46400 0.97400 31.09200
C  28.10600 1.35100 31.21800
C  31.07400 0.54600 29.00600
C  30.09500 0.93900 32.42900
O  31.21600 0.66100 32.75300
C  28.96800 1.47700 33.39400
C  28.78600 0.50100 34.52700
O  28.08100 -0.51300 34.49100
O  29.46900 0.98200 35.64800
C  29.30900 0.05900 36.75800
H  22.17000 2.09100 32.55600
H  22.82900 1.46500 26.18800
H  29.17200 0.66100 27.16600
H  26.09200 1.51500 34.95000
H  23.77600 3.22900 34.35200
H  22.45400 1.42900 34.87000
H  24.02200 1.10100 35.83300
H  23.51000 0.35600 34.30300
H  25.55300 4.42900 35.00300
H  26.85800 4.19300 34.01500
H  28.37100 4.13400 35.80100
H  27.49900 2.71100 36.41600
H  19.93700 3.10100 30.92800
H  20.25300 1.68000 31.97000
H  19.20700 1.60100 30.54500
H  18.33300 1.27400 27.01800
H  18.75000 2.64900 28.14700
H  18.82300 0.92100 28.69300
H  25.20600 2.26600 24.99200
H  27.40900 0.19000 25.09400
H  24.02700 -0.35300 24.92500
H  25.40700 -0.44800 23.83800
H  24.20200 0.81800 23.56400
H  27.24600 2.71900 24.02400
H  28.71000 2.20000 24.83700
H  27.07000 3.52400 26.73300
H  27.23600 4.56700 25.26800
H  28.59900 4.03400 26.31100
H  31.04600 0.10700 28.00800
H  31.73600 -0.02100 29.66000
H  31.57800 1.50400 28.87200
H  29.19600 2.45800 33.81100
H  29.32200 -0.96600 36.38900
H  28.47000 0.39300 37.36900
H  30.19700 0.11400 37.38800
Mg -12.63900 37.42400 41.61700
C  -10.19300 34.89600 41.02900
C  -10.48800 39.67700 40.02700
C  -15.03300 39.82700 41.44800
C  -14.94200 34.98800 42.51800
N  -10.72200 37.20400 40.49200
C  -9.87300 36.07500 40.36200
C  -8.49100 36.50100 39.85700
C  -8.48800 38.03900 39.92600
C  -10.01900 38.31000 40.15200
C  -7.60400 38.76900 40.93400
C  -8.29400 35.89300 38.46400
C  -7.06800 35.04800 38.56500
H  -5.92600 35.56900 37.76800
N  -12.66800 39.50200 40.93700
C  -11.68000 40.23400 40.39000
C  -11.96600 41.60400 40.25100
C  -13.39300 41.68900 40.60300
C  -13.79400 40.32400 40.99800
C  -11.01700 42.64700 39.87100
C  -14.25000 42.88600 40.52700
O  -13.82200 43.95800 40.06800
C  -15.68700 42.98400 41.05900
N  -14.71200 37.37600 41.85100
C  -15.48600 38.51100 41.77000
C  -16.94600 38.23600 42.13900
C  -16.98100 36.65000 42.44500
C  -15.47900 36.25400 42.15600
C  -17.51100 39.06400 43.26900
C  -17.98300 35.83700 41.60800
C  -18.55800 34.71000 42.45100
N  -12.61700 35.38500 41.83000
C  -13.57900 34.56600 42.34000
C  -12.95400 33.25800 42.57800
C  -11.62600 33.35400 42.08600
C  -11.45400 34.64200 41.59400
C  -13.69700 32.08200 43.24300
C  -10.35300 32.67200 41.80300
O  -10.06600 31.47900 42.03400
C  -9.33600 33.66400 41.11500
C  -8.00900 33.80400 41.83300
O  -7.10500 33.00700 41.57900
O  -7.90800 34.94000 42.64100
C  -6.68100 35.14200 43.44100
H  -9.81000 40.34800 39.49500
H  -15.81700 40.57200 41.59400
H  -15.68600 34.32000 42.95600
H  -7.75800 36.11600 40.56600
H  -8.30800 38.41700 38.92000
H  -8.13200 38.92800 41.87400
H  -7.27100 39.64300 40.37500
H  -6.74600 38.14100 41.17400
H  -8.16500 36.65600 37.69700
H  -9.19200 35.41800 38.06900
H  -7.50900 34.16100 38.11000
H  -6.63700 34.84200 39.54400
H  -11.07800 42.70200 38.78400
H  -10.02200 42.39800 40.24100
H  -11.28600 43.63600 40.24200
H  -16.48600 42.48300 40.51200
H  -15.91400 44.04800 40.99700
H  -15.65600 42.64800 42.09500
H  -17.50000 38.46900 41.23000
H  -17.02600 36.54600 43.52900
H  -18.46000 38.72000 43.67900
H  -17.65800 40.05600 42.84300
H  -16.87400 39.17300 44.14700
H  -17.39700 35.41200 40.79300
H  -18.77600 36.50500 41.27100
H  -19.64700 34.70100 42.49100
H  -18.30500 34.71900 43.51100
H  -18.19100 33.76000 42.06300
H  -14.27600 31.54000 42.49500
H  -14.33700 32.50000 44.01900
H  -12.94200 31.41900 43.66600
H  -8.99800 33.47800 40.09600
H  -6.30900 36.10900 43.10200
H  -5.86500 34.50800 43.09300
H  -6.79300 34.95700 44.50900

