158

Mg 49.05400 45.75600 43.01900
C  45.58800 45.63300 42.09900
C  49.20500 42.54200 42.38900
C  52.35600 46.21600 43.10900
C  48.73700 49.28800 43.24900
N  47.59700 44.27800 42.13500
C  46.25400 44.38700 42.02500
C  45.64700 42.98200 41.81800
C  46.74200 41.87300 42.17100
C  47.91900 42.92900 42.25300
C  46.52600 41.06400 43.45500
C  45.03300 42.59000 40.37400
C  45.65700 43.22700 39.22600
H  45.38700 42.68400 37.77900
N  50.57900 44.47900 42.74500
C  50.42500 43.16700 42.52600
C  51.75100 42.50500 42.47500
C  52.71000 43.57700 42.73500
C  51.90600 44.79500 42.86800
C  52.06200 40.97800 42.26500
C  54.21000 43.34800 42.79900
O  54.77700 42.28100 42.65100
C  55.10800 44.49800 43.18400
N  50.36000 47.52200 43.20200
C  51.69700 47.42300 43.32700
C  52.43100 48.77400 43.68900
C  51.27000 49.77600 43.71000
C  50.04500 48.84900 43.43500
C  53.31800 48.68600 44.97400
C  51.21000 51.03300 42.81700
C  50.84600 52.23400 43.64900
N  47.51500 47.22800 42.74900
C  47.54300 48.56900 42.93000
C  46.11200 49.10100 42.81400
C  45.36800 47.95800 42.49000
C  46.29700 46.81800 42.45600
C  45.58800 50.55000 42.99200
C  44.01100 47.57500 42.17600
O  43.07300 48.30600 42.02600
C  44.11900 46.06500 41.88700
C  43.03800 45.30000 42.58100
O  42.18600 44.59400 42.00500
O  43.04100 45.47200 43.93300
C  42.03500 44.69600 44.81500
H  49.30900 41.45800 42.31400
H  53.44200 46.33400 43.08500
H  48.43400 50.33700 43.23700
H  44.83400 42.95600 42.54500
H  46.89000 41.08400 41.43500
H  46.60900 40.00400 43.21600
H  45.55800 41.15000 43.94800
H  47.35100 41.11800 44.16500
H  43.99100 42.91000 40.33900
H  45.08800 41.50400 40.44200
H  46.74000 43.32000 39.30600
H  45.27500 44.24800 39.23400
H  53.02800 40.69200 42.68200
H  52.08100 40.60600 41.24100
H  51.32300 40.32900 42.73300
H  55.30100 45.19800 42.37100
H  56.05800 44.09700 43.53700
H  54.60000 44.88500 44.06600
H  53.22700 48.99200 42.97800
H  51.10100 50.12800 44.72800
H  53.65400 47.65400 45.07200
H  52.86100 49.16800 45.83800
H  54.22400 49.27100 44.81500
H  50.38100 50.79800 42.14900
H  52.07200 51.17700 42.16500
H  49.84000 52.26100 44.06700
H  50.97100 53.05700 42.94600
H  51.52200 52.20700 44.50400
H  44.51600 50.45500 43.16100
H  45.86700 51.24700 42.20200
H  46.18000 50.96700 43.80700
H  43.92000 45.91600 40.82600
H  42.67900 44.33800 45.61900
H  41.48300 43.87400 44.35900
H  41.31600 45.43200 45.17600
Mg 48.60500 36.02600 28.26500
C  46.73400 34.29600 30.60100
C  48.64400 38.73900 30.25300
C  49.94600 37.78700 25.77000
C  48.29500 33.30200 26.07100
N  47.67300 36.44800 30.17700
C  47.12500 35.54300 31.07200
C  46.88100 36.19200 32.45600
C  47.25200 37.69000 32.24300
C  47.86900 37.61900 30.80100
C  46.15300 38.83000 32.38500
C  47.78500 35.47900 33.62000
C  49.08800 36.01200 34.17400
H  49.11500 36.73200 35.54700
N  49.33900 37.95100 28.08200
C  49.29100 38.90900 29.00400
C  50.04400 40.14500 28.61100
C  50.47400 39.85500 27.26400
C  49.91800 38.52500 26.96200
C  50.25700 41.34000 29.41600
C  51.29800 40.65100 26.27000
O  51.71900 40.19300 25.25600
C  51.67400 42.03800 26.65600
N  48.93600 35.59900 26.25400
C  49.44600 36.55000 25.46800
C  49.65100 36.03100 24.02000
C  49.42900 34.44900 24.11100
C  48.81700 34.45600 25.51600
C  48.67600 36.68400 22.99800
C  50.81800 33.73600 23.96500
C  51.50500 33.82500 22.61600
N  47.72400 34.13800 28.25900
C  47.71800 33.14700 27.30900
C  46.98700 32.00200 27.82100
C  46.57500 32.42800 29.09100
C  46.97000 33.75600 29.27600
C  46.84300 30.71000 27.17700
C  45.81800 32.07900 30.26200
O  45.23200 31.01300 30.50000
C  45.77400 33.27500 31.25400
C  46.16500 32.75800 32.58800
O  47.08300 31.98100 32.80100
O  45.19300 33.16900 33.44400
C  45.25200 32.51000 34.79200
H  48.68600 39.58500 30.94200
H  50.41900 38.34400 24.95800
H  48.23600 32.46000 25.37900
H  45.87300 36.06000 32.84800
H  48.06300 37.95400 32.92200
H  46.54200 39.84800 32.34700
H  45.56600 38.66900 33.28900
H  45.50000 38.74000 31.51700
H  48.06600 34.50900 33.21000
H  47.02200 35.25900 34.36700
H  49.55000 36.64900 33.41800
H  49.78000 35.17400 34.09600
H  49.39500 41.99100 29.27200
H  51.22800 41.81600 29.28000
H  50.22200 41.05000 30.46700
H  52.00600 42.45800 25.70700
H  52.38400 42.05400 27.48300
H  50.75200 42.54500 26.94200
H  50.67700 36.29200 23.76000
H  48.62100 34.00100 23.53200
H  49.17900 37.50600 22.48800
H  47.86300 37.07900 23.60600
H  48.30500 35.92900 22.30500
H  50.57300 32.67900 23.85600
H  51.56100 33.73700 24.76300
H  51.66600 34.79700 22.15000
H  50.89600 33.25100 21.91700
H  52.47200 33.32400 22.64300
H  47.59700 30.11200 27.68900
H  47.00300 30.73100 26.09900
H  45.83900 30.36000 27.41700
H  44.71000 33.50600 31.30400
H  45.54700 31.48500 34.56600
H  44.23700 32.45000 35.18400
H  45.92100 32.86800 35.57500

