158

Mg 24.84400 1.81600 30.07400
C  27.04000 1.81500 32.90300
C  22.24700 2.05500 32.20100
C  22.87800 1.69300 27.31700
C  27.68200 1.13300 28.08700
N  24.64800 2.00200 32.37400
C  25.67100 1.97600 33.27400
C  25.14800 2.11000 34.72400
C  23.63700 2.03300 34.46500
C  23.48200 2.03100 32.92700
C  22.87000 0.87500 35.15700
C  25.78300 3.38800 35.34900
C  26.65500 3.07700 36.63100
H  26.54200 4.16200 37.72000
N  22.83800 1.94800 29.76300
C  21.91800 1.90400 30.79600
C  20.57100 1.79700 30.18300
C  20.75200 1.61200 28.77000
C  22.17800 1.75000 28.57500
C  19.24200 1.86000 30.97800
C  19.71600 1.43200 27.64600
O  20.01000 1.46400 26.47900
C  18.29800 1.37800 28.03400
N  25.24500 1.50900 28.00500
C  24.28300 1.62200 27.04500
C  24.90700 1.35300 25.63000
C  26.42800 1.44900 25.90500
C  26.53200 1.38500 27.43400
C  24.43600 0.02200 24.92800
C  27.06100 2.77200 25.37200
C  26.35700 4.10100 25.71400
N  26.86300 1.43300 30.31300
C  27.91100 1.21300 29.37500
C  29.18400 0.96600 30.08800
C  28.82800 1.23200 31.42900
C  27.41700 1.50700 31.51000
C  30.52100 0.57200 29.40600
C  29.41800 1.40400 32.81400
O  30.55600 1.44600 33.25900
C  28.20900 1.61000 33.82800
C  28.10900 0.38000 34.72100
O  27.61000 -0.73600 34.50500
O  28.76800 0.68600 35.88700
C  29.00800 -0.41600 36.89400
H  21.37800 2.20800 32.84300
H  22.25300 1.52800 26.43700
H  28.51200 0.85600 27.43300
H  25.49100 1.23200 35.27100
H  23.31200 2.98600 34.88200
H  22.13400 0.45800 34.47000
H  22.45300 1.23600 36.09800
H  23.51700 0.00300 35.25900
H  24.99800 4.12500 35.52400
H  26.37100 3.93100 34.60900
H  27.69300 2.92900 36.33100
H  26.37600 2.10900 37.04800
H  18.76000 2.83500 31.06000
H  19.40200 1.60900 32.02600
H  18.54900 1.13800 30.54700
H  17.68600 1.56200 27.15100
H  18.13300 2.30200 28.58800
H  18.08900 0.41500 28.50200
H  24.72900 2.15800 24.91600
H  27.07500 0.71500 25.42500
H  25.15500 -0.79100 24.83100
H  24.28800 0.42600 23.92700
H  23.49200 -0.25600 25.39700
H  27.19000 2.67900 24.29400
H  28.08100 2.85700 25.74700
H  26.38800 4.81200 24.88900
H  27.03500 4.44500 26.49500
H  25.36000 3.98800 26.14100
H  31.23000 0.46900 30.22600
H  30.86600 1.35800 28.73300
H  30.42300 -0.27900 28.73200
H  28.41300 2.54000 34.35900
H  28.29100 -0.17800 37.68100
H  29.96300 -0.21500 37.38100
H  28.87600 -1.40400 36.45400
Mg -13.20400 16.09100 42.74500
C  -10.36400 14.20100 41.94700
C  -11.85200 18.65100 40.77600
C  -16.23200 17.61400 42.47900
C  -14.81300 13.04800 43.51800
N  -11.34000 16.36500 41.38000
C  -10.33100 15.46000 41.32300
C  -9.13100 16.04900 40.46200
C  -9.58300 17.55400 40.21200
C  -10.99700 17.53800 40.81800
C  -8.62200 18.60100 40.83300
C  -8.70300 15.30100 39.18600
C  -7.23000 15.03500 38.95200
H  -6.45100 15.85000 37.87800
N  -13.87600 17.96600 41.93600
C  -13.13000 18.87900 41.31200
C  -13.87400 20.12500 41.25100
C  -15.15100 19.83300 41.80500
C  -15.18000 18.41000 42.02500
C  -13.22600 21.39400 40.74300
C  -16.20600 20.82100 42.14200
O  -16.18700 22.02600 41.68900
C  -17.41200 20.56400 42.88900
N  -15.22900 15.38300 42.97300
C  -16.26300 16.31400 43.00100
C  -17.62700 15.59700 43.40100
C  -17.16100 14.19200 43.74400
C  -15.64300 14.15600 43.41600
C  -18.63000 16.35800 44.28300
C  -17.98000 12.96000 43.12300
C  -19.47800 13.09700 42.75800
N  -12.61900 14.07000 42.94800
C  -13.40200 12.95100 43.31900
C  -12.48900 11.84400 43.47300
C  -11.26100 12.29800 43.08400
C  -11.45800 13.59700 42.54900
C  -12.90900 10.44000 43.75100
C  -9.85800 11.96700 42.87300
O  -9.17400 10.97200 43.08300
C  -9.21600 13.22000 42.09700
C  -8.03000 13.75900 42.82700
O  -8.04200 14.54200 43.72500
O  -6.87400 13.17200 42.34900
C  -5.63800 13.70600 43.01300
H  -11.27900 19.46900 40.33400
H  -17.23200 18.05000 42.43900
H  -15.22300 12.12700 43.93700
H  -8.31400 15.92700 41.17300
H  -9.70400 17.84200 39.16800
H  -9.02400 19.02500 41.75300
H  -8.62700 19.39200 40.08300
H  -7.62700 18.18900 40.99900
H  -8.97200 15.96600 38.36600
H  -9.27900 14.37800 39.13000
H  -7.15200 13.97500 38.70900
H  -6.76400 15.20800 39.92200
H  -13.50700 21.55300 39.70200
H  -12.14000 21.32900 40.80900
H  -13.48000 22.20500 41.42600
H  -17.86300 21.43500 43.36500
H  -17.33500 19.84200 43.70100
H  -18.14000 20.21700 42.15500
H  -18.07900 15.54500 42.41000
H  -17.16900 14.15700 44.83300
H  -18.97000 15.76500 45.13100
H  -19.52100 16.50100 43.67200
H  -18.27600 17.32200 44.64900
H  -18.03900 12.15600 43.85600
H  -17.45400 12.61500 42.23300
H  -20.03700 12.20900 43.05500
H  -19.64600 13.31600 41.70300
H  -19.83200 13.97300 43.30200
H  -13.43100 10.40000 44.70700
H  -12.14000 9.68500 43.91400
H  -13.52400 10.09200 42.92200
H  -8.80800 12.97200 41.11700
H  -4.94700 14.13600 42.28800
H  -5.23100 12.90900 43.63500
H  -5.80300 14.60600 43.60500

