158

Mg 23.95700 -5.67500 46.08300
C  26.29400 -3.41000 44.58900
C  21.60300 -4.40600 43.94900
C  22.26100 -8.52800 46.46800
C  26.74600 -7.13800 47.82400
N  23.94500 -3.97600 44.68900
C  24.98700 -3.28600 44.18800
C  24.52000 -2.39100 43.05600
C  22.97300 -2.44100 43.11800
C  22.72500 -3.59500 44.04100
C  22.22900 -1.13400 43.66800
C  25.15000 -2.66700 41.67800
C  25.78100 -1.47600 40.89600
H  25.39200 -1.17000 39.47100
N  22.17300 -6.32400 45.37800
C  21.32900 -5.73200 44.45600
C  20.17600 -6.51900 44.15800
C  20.29000 -7.69100 44.98600
C  21.62900 -7.55900 45.69200
C  19.10600 -6.13900 43.15000
C  19.23100 -8.76300 45.08700
O  18.09800 -8.64500 44.59700
C  19.42400 -9.99300 45.80200
N  24.38500 -7.49100 47.22000
C  23.48800 -8.52700 47.19600
C  23.92400 -9.73100 48.07100
C  25.30100 -9.25900 48.61200
C  25.57500 -7.93000 47.85900
C  22.86200 -10.09800 49.14100
C  26.48700 -10.34600 48.72600
C  27.07500 -10.65900 50.11400
N  26.03800 -5.36400 46.26800
C  27.01800 -5.99800 46.99300
C  28.37000 -5.34800 46.76300
C  28.06500 -4.33300 45.83900
C  26.68900 -4.37100 45.59800
C  29.70000 -5.78300 47.29300
C  28.64800 -3.29900 44.97900
O  29.86200 -2.99400 44.79600
C  27.53400 -2.68900 44.13100
C  27.33300 -1.21600 44.41600
O  26.69300 -0.72700 45.32500
O  28.11300 -0.61100 43.50900
C  28.45900 0.84400 43.72300
H  20.85900 -3.92300 43.31200
H  21.71000 -9.47100 46.48800
H  27.61500 -7.65600 48.23600
H  24.80000 -1.41200 43.44500
H  22.52100 -2.79600 42.19200
H  21.80700 -0.44600 42.93500
H  22.94200 -0.69800 44.36800
H  21.36400 -1.47900 44.23400
H  24.33600 -2.91700 40.99800
H  25.86600 -3.48600 41.75000
H  26.84600 -1.64700 41.05100
H  25.71000 -0.48100 41.33600
H  18.62900 -7.00500 42.69200
H  19.57700 -5.53300 42.37500
H  18.43900 -5.66300 43.86800
H  18.51100 -10.58300 45.87600
H  19.57000 -9.58000 46.80000
H  20.25900 -10.64500 45.54300
H  24.02100 -10.69400 47.57000
H  25.10100 -8.95400 49.63900
H  21.95500 -9.49400 49.18200
H  23.31400 -10.00500 50.12800
H  22.66200 -11.16900 49.10900
H  27.32700 -10.20900 48.04500
H  26.14000 -11.28500 48.29500
H  28.15100 -10.48600 50.11700
H  26.98300 -11.71800 50.35500
H  26.53200 -10.12000 50.89100
H  29.75100 -5.62300 48.37000
H  30.50900 -5.27400 46.76900
H  29.83400 -6.85200 47.12200
H  27.70300 -2.65800 43.05400
H  29.05800 0.91600 44.63100
H  27.54900 1.38100 43.99200
H  28.94700 1.36400 42.89900
Mg -10.59200 38.15500 41.30300
C  -8.63100 35.42600 40.36800
C  -8.25800 40.23900 39.55700
C  -12.78600 40.81100 41.56000
C  -13.01000 36.03400 42.58400
N  -8.76800 37.87100 39.85800
C  -8.12800 36.62700 39.77200
C  -6.71300 36.74800 39.18400
C  -6.53900 38.27000 39.08300
C  -7.93200 38.88600 39.51300
C  -5.35300 38.88900 39.78600
C  -6.61600 36.05200 37.77000
C  -5.53200 35.00400 37.55500
H  -4.37000 35.40200 36.61600
N  -10.46900 40.16200 40.78400
C  -9.41000 40.87200 40.11400
C  -9.67000 42.27900 40.11600
C  -10.96700 42.49400 40.61400
C  -11.47200 41.10200 41.01200
C  -8.66800 43.22600 39.48700
C  -11.73200 43.85000 40.78200
O  -11.16300 44.83500 40.32600
C  -13.05100 44.02400 41.39500
N  -12.75900 38.35400 41.69200
C  -13.39100 39.55300 41.87000
C  -14.74300 39.41400 42.47900
C  -14.79800 37.84100 42.80200
C  -13.42400 37.34500 42.29800
C  -15.07300 40.33900 43.66400
C  -15.89200 37.03200 42.05600
C  -16.69100 35.91100 42.76500
N  -10.79800 36.11200 41.45200
C  -11.80200 35.38800 42.04200
C  -11.42300 33.99600 42.16300
C  -10.17600 33.95900 41.47600
C  -9.84700 35.29700 41.05700
C  -12.14900 32.93700 42.89000
C  -9.12100 33.06300 41.08400
O  -8.91900 31.83600 41.32400
C  -8.04800 33.94900 40.36500
C  -6.74800 33.73700 41.07400
O  -5.90700 32.93100 40.86000
O  -6.62100 34.77100 41.95400
C  -5.39400 34.73200 42.77800
H  -7.45500 40.90000 39.22400
H  -13.25400 41.73600 41.90300
H  -13.73600 35.35800 43.04000
H  -5.97300 36.30900 39.85200
H  -6.44200 38.58500 38.04400
H  -4.56900 39.05200 39.04700
H  -4.99300 38.27300 40.61000
H  -5.58400 39.86200 40.22200
H  -6.33100 36.85600 37.09200
H  -7.63600 35.72800 37.56100
H  -6.09000 34.15600 37.15700
H  -5.07200 34.69300 38.49300
H  -7.74500 43.28100 40.06500
H  -8.97300 44.26800 39.39500
H  -8.58400 42.84600 38.46800
H  -13.02600 43.56200 42.38200
H  -13.86500 43.71800 40.73800
H  -13.15300 45.09100 41.58900
H  -15.35300 39.62700 41.60100
H  -15.01700 37.77000 43.86800
H  -16.04600 40.81600 43.54600
H  -14.14300 40.88200 43.83300
H  -15.10900 39.77100 44.59300
H  -15.55700 36.52600 41.15000
H  -16.62500 37.65900 41.54900
H  -16.34700 34.94000 42.40800
H  -17.77100 35.90200 42.61500
H  -16.57500 36.08400 43.83500
H  -11.50100 32.06600 42.79800
H  -13.11700 32.62400 42.49800
H  -12.26400 33.30900 43.90800
H  -7.96500 33.58900 39.34000
H  -5.46200 33.97000 43.55500
H  -5.41300 35.63300 43.39100
H  -4.51400 34.45800 42.19700

