158

Mg 17.44900 -1.75300 27.91900
C  16.36600 0.46900 30.31400
C  19.12800 -3.48000 30.26900
C  18.94500 -3.45400 25.44200
C  16.14200 0.52200 25.40200
N  17.66900 -1.53300 29.95700
C  17.14500 -0.57500 30.82100
C  17.54500 -0.84600 32.25700
C  18.78300 -1.77400 32.13700
C  18.49200 -2.29200 30.67000
C  20.23800 -1.21600 32.44500
C  16.35800 -1.34000 33.19700
C  16.54600 -1.03200 34.77300
H  17.99400 -0.97000 35.23800
N  18.61400 -3.47500 27.91400
C  19.23800 -4.05600 28.99100
C  19.92800 -5.23200 28.51900
C  19.97800 -5.12500 27.08000
C  19.07400 -4.02700 26.73400
C  20.56800 -6.08300 29.48200
C  20.62000 -6.10700 26.08200
O  20.42800 -6.00600 24.91100
C  21.42800 -7.21200 26.65600
N  17.44300 -1.54000 25.77600
C  18.25400 -2.36100 25.00900
C  18.11700 -1.92600 23.47900
C  17.19300 -0.68200 23.52100
C  16.91400 -0.52900 25.00000
C  19.35800 -1.68600 22.74400
C  15.95800 -0.83600 22.59300
C  14.80800 -1.66500 23.20100
N  16.38500 0.02300 27.84000
C  15.84700 0.72100 26.77700
C  15.02400 1.80300 27.32200
C  15.18400 1.65400 28.67900
C  16.06700 0.59600 28.99600
C  14.16100 2.75800 26.47900
C  14.80600 2.25500 29.96800
O  13.93800 3.09200 30.23200
C  15.54000 1.54900 31.10900
C  16.38000 2.65800 31.78900
O  17.56200 2.82400 31.66400
O  15.55000 3.20800 32.79200
C  16.25800 3.97100 33.81000
H  19.80100 -3.88500 31.02800
H  19.59900 -3.85600 24.66500
H  15.84900 1.17700 24.57900
H  17.85100 0.10300 32.69600
H  18.62900 -2.63200 32.79000
H  20.17100 -0.16900 32.74100
H  20.75400 -1.36400 31.49700
H  20.77200 -1.77000 33.21700
H  16.24700 -2.42400 33.15800
H  15.42100 -0.84300 32.94700
H  16.06900 -1.84200 35.32400
H  15.95100 -0.15600 35.02800
H  20.46600 -7.14900 29.27800
H  20.20900 -5.73900 30.45200
H  21.63500 -5.89500 29.36600
H  22.17200 -6.73800 27.29600
H  22.07100 -7.72200 25.93900
H  20.76900 -7.86300 27.23100
H  17.66900 -2.70700 22.86400
H  17.64300 0.26600 23.22700
H  19.44500 -2.28600 21.83800
H  20.18700 -2.00200 23.37800
H  19.56800 -0.63000 22.57500
H  16.17400 -1.31600 21.63800
H  15.63600 0.17500 22.34200
H  13.98400 -1.06700 23.59000
H  15.13200 -2.39400 23.94400
H  14.44100 -2.31700 22.40800
H  14.12800 3.69300 27.03900
H  13.19200 2.26300 26.54500
H  14.53500 2.84300 25.45900
H  14.85200 1.03300 31.77800
H  16.71400 4.88800 33.43700
H  17.02100 3.28500 34.17700
H  15.64900 4.27100 34.66300
Mg 47.17000 24.69000 27.62900
C  47.92600 26.92200 30.19000
C  46.15400 22.53500 29.90400
C  46.55700 22.58100 25.06300
C  48.78900 26.82100 25.36600
N  47.25400 24.63300 29.93500
C  47.44300 25.72600 30.71000
C  46.93700 25.44900 32.14000
C  46.35100 23.99800 31.92900
C  46.58000 23.67000 30.53000
C  46.91900 22.91100 32.96800
C  46.10000 26.44700 32.83500
C  45.07100 25.95400 33.84600
H  44.79200 26.97700 34.91000
N  46.34600 22.81200 27.51100
C  46.10200 22.07300 28.56500
C  45.48600 20.82800 28.07800
C  45.54900 20.88600 26.70900
C  46.15800 22.09500 26.32500
C  44.85800 19.77100 29.01000
C  44.97900 19.91400 25.66600
O  44.95700 20.14000 24.42100
C  44.39900 18.61700 26.09500
N  47.70800 24.55700 25.57900
C  47.31600 23.61400 24.66000
C  47.72200 23.91800 23.16700
C  48.12900 25.39600 23.32500
C  48.28900 25.57400 24.85500
C  48.90000 23.08200 22.55200
C  47.04100 26.30600 22.72100
C  47.35100 27.79700 22.63700
N  48.16100 26.43500 27.70100
C  48.73000 27.20300 26.73700
C  49.10600 28.53700 27.30700
C  48.77300 28.46500 28.65500
C  48.25000 27.11500 28.84200
C  49.75600 29.73300 26.60400
C  48.76300 29.19400 29.86800
O  49.15900 30.33800 30.06100
C  48.15500 28.20900 30.95500
C  49.23800 28.16500 32.01200
O  50.38100 27.62800 31.95400
O  48.67200 28.59500 33.19700
C  49.51000 28.63300 34.37700
H  45.62100 21.87300 30.59000
H  46.33600 21.99200 24.17000
H  49.35300 27.47400 24.69700
H  47.85500 25.44500 32.72700
H  45.28900 23.99600 32.17700
H  46.17600 22.55700 33.68300
H  47.79300 23.36500 33.43500
H  47.17400 22.02700 32.38400
H  45.62500 26.94600 31.99000
H  46.80700 27.11800 33.32300
H  45.35400 25.00400 34.29900
H  44.12400 25.92800 33.30600
H  43.78600 19.86400 28.83600
H  45.20900 19.86200 30.03800
H  45.19500 18.77400 28.72700
H  43.56000 18.85900 26.74800
H  45.17500 18.07800 26.63800
H  44.11200 18.09800 25.18000
H  46.80400 23.80400 22.59100
H  49.10900 25.50600 22.86300
H  49.10000 22.16600 23.10800
H  49.86700 23.57600 22.64500
H  48.64900 22.95600 21.49900
H  46.28200 26.37800 23.50100
H  46.64700 25.95700 21.76600
H  47.28500 28.15100 23.66500
H  46.81600 28.37500 21.88300
H  48.43200 27.89100 22.53100
H  49.50900 29.74500 25.54200
H  50.82900 29.68800 26.78800
H  49.27800 30.61200 27.03500
H  47.25400 28.62300 31.40800
H  48.94200 28.07500 35.12100
H  49.69000 29.68700 34.59100
H  50.41400 28.02900 34.29000

