158

Mg 40.24600 10.33500 29.47800
C  42.22700 11.31300 32.03000
C  37.97800 9.10600 31.93200
C  38.20800 9.40300 26.98600
C  42.62300 11.26500 27.08400
N  40.21500 10.04300 31.77200
C  41.00200 10.86800 32.53800
C  40.58500 10.89300 34.01800
C  39.28600 10.00400 33.91700
C  39.14500 9.71600 32.43400
C  39.36200 8.74400 34.84700
C  40.34900 12.31900 34.56400
C  39.87000 12.29800 36.05600
H  40.52600 13.20900 37.04300
N  38.38000 9.40600 29.45600
C  37.65200 8.87700 30.53100
C  36.46500 8.30900 30.12300
C  36.44400 8.40000 28.69100
C  37.69000 9.06700 28.28600
C  35.42200 7.73800 31.08100
C  35.32100 7.91800 27.75400
O  35.40900 8.16200 26.57600
C  34.13300 7.13600 28.31400
N  40.53100 10.11700 27.27100
C  39.42500 9.79500 26.53900
C  39.71300 10.16000 24.99100
C  41.04300 10.91800 25.03900
C  41.39900 10.83400 26.55600
C  39.83600 8.92300 24.06300
C  40.99700 12.39400 24.51900
C  39.78100 13.30400 24.90300
N  42.08400 10.94200 29.47900
C  42.94600 11.26900 28.47400
C  44.20700 11.73200 29.06300
C  43.93500 11.86000 30.41200
C  42.66000 11.32600 30.69600
C  45.48500 12.14400 28.45000
C  44.47200 12.31500 31.74500
O  45.55100 12.84900 31.96300
C  43.39700 11.87400 32.79200
C  44.01800 10.97900 33.84500
O  43.99700 9.73600 33.91000
O  44.37600 11.76300 34.95200
C  44.83600 11.02800 36.12100
H  37.24400 8.76300 32.66400
H  37.50200 9.30300 26.15900
H  43.35000 11.71300 26.40300
H  41.37400 10.48800 34.65200
H  38.48100 10.70300 34.14400
H  40.40900 8.62000 35.12400
H  38.88900 7.90900 34.33000
H  38.79900 8.98600 35.74900
H  39.59000 12.74000 33.90500
H  41.24900 12.93300 34.51800
H  39.88100 11.25500 36.37300
H  38.80600 12.53500 36.05100
H  34.87100 6.88100 30.69400
H  34.75500 8.54400 31.38700
H  35.84100 7.30000 31.98700
H  33.65000 7.61800 29.16300
H  34.40000 6.10800 28.56000
H  33.34500 7.19100 27.56300
H  39.06600 10.93600 24.58200
H  41.83000 10.40800 24.48400
H  38.80900 8.84500 23.70700
H  40.16100 8.00800 24.55800
H  40.55000 9.08700 23.25700
H  41.03800 12.44700 23.43100
H  41.91700 12.88400 24.83800
H  38.89800 12.84000 25.34200
H  39.52700 13.73600 23.93500
H  40.02300 14.09200 25.61500
H  45.88500 13.00700 28.98200
H  45.43700 12.39500 27.39100
H  46.22400 11.34300 28.48000
H  43.21100 12.81200 33.31400
H  45.71000 10.40000 35.94800
H  44.08500 10.28700 36.39700
H  44.92200 11.67100 36.99700
Mg 1.78300 41.83700 24.51600
C  2.94400 42.06800 27.99600
C  -1.04100 40.66900 25.74500
C  1.13900 41.13200 21.39900
C  4.93600 42.95800 23.70700
N  1.08400 41.46100 26.64200
C  1.63900 41.65500 27.86300
C  0.69900 41.32200 28.98800
C  -0.51600 40.70700 28.31500
C  -0.15100 40.90800 26.76100
C  -0.82000 39.25600 28.72900
C  0.46700 42.50800 29.93000
C  0.30700 42.31000 31.44700
H  -0.28000 41.05200 31.90600
N  0.26700 41.04200 23.67000
C  -0.85900 40.64000 24.28000
C  -1.87900 40.32800 23.34100
C  -1.21900 40.23900 22.09700
C  0.11100 40.87700 22.32400
C  -3.24900 39.86600 23.63400
C  -1.82600 39.76200 20.82400
O  -1.19500 39.73500 19.71300
C  -3.21000 39.27700 20.80200
N  2.89900 41.85100 22.80700
C  2.44600 41.51600 21.63300
C  3.43200 41.69800 20.52400
C  4.59600 42.45800 21.27000
C  4.11500 42.42300 22.68600
C  3.75800 40.39700 19.80600
C  4.83200 43.90800 20.73300
C  3.72600 45.01100 20.90200
N  3.57400 42.41500 25.62200
C  4.75200 42.98100 25.08700
C  5.68000 43.22000 26.09200
C  5.06000 42.76800 27.26600
C  3.75700 42.42200 26.91300
C  7.03100 43.83800 25.99700
C  5.26500 42.55500 28.70900
O  6.20000 42.64200 29.47000
C  3.84200 42.17700 29.21500
C  4.00900 40.82900 29.89100
O  4.77200 39.89400 29.52000
O  3.30200 40.84500 31.07200
C  3.52600 39.68800 31.92100
H  -1.97100 40.28100 26.16700
H  0.80700 41.01300 20.36500
H  5.89100 43.20000 23.23700
H  1.19200 40.53800 29.56200
H  -1.48700 41.17500 28.47700
H  -0.15400 38.92200 29.52400
H  -0.53100 38.68500 27.84700
H  -1.86600 39.25000 29.03800
H  -0.47400 42.96400 29.62300
H  1.14700 43.35600 29.84800
H  -0.31900 43.12400 31.81300
H  1.26100 42.45800 31.95200
H  -3.57500 40.12800 24.64000
H  -3.29000 38.77900 23.55100
H  -4.00000 40.42400 23.07600
H  -3.48500 38.64900 19.95400
H  -3.94800 40.06500 20.65300
H  -3.25600 38.50700 21.57300
H  2.97600 42.32400 19.75700
H  5.50100 41.89700 21.03900
H  3.39300 39.50200 20.30900
H  4.76100 39.99100 19.68000
H  3.58000 40.50500 18.73600
H  5.10200 43.71400 19.69500
H  5.74200 44.26900 21.21400
H  2.73400 44.75200 21.27200
H  3.60200 45.37600 19.88200
H  4.26600 45.69400 21.55700
H  7.61800 43.00000 25.62200
H  7.34200 44.08500 27.01200
H  7.10300 44.66400 25.29000
H  3.58200 42.90200 29.98600
H  3.15600 39.82100 32.93800
H  4.59200 39.50200 32.05400
H  3.10100 38.76800 31.51900

