158

Mg -2.71400 17.03900 26.91800
C  -3.07600 14.74100 29.50500
C  -3.08600 19.59900 29.36900
C  -2.61800 19.36100 24.47800
C  -3.10900 14.59700 24.48700
N  -2.80600 17.16200 29.24000
C  -3.02400 16.05900 29.99800
C  -3.25500 16.47300 31.45900
C  -3.35000 18.08400 31.35000
C  -3.10700 18.33000 29.85700
C  -4.81700 18.61800 31.80700
C  -2.19000 15.93400 32.44600
C  -1.66900 16.84200 33.61100
H  -1.31600 16.10500 34.92300
N  -2.80100 19.21300 26.99200
C  -2.99400 20.05200 28.03600
C  -2.87000 21.36900 27.57300
C  -2.56800 21.32400 26.16000
C  -2.65100 19.89100 25.79700
C  -2.93400 22.62200 28.47600
C  -2.22700 22.48200 25.21400
O  -1.83200 22.26000 24.07100
C  -2.28500 23.86200 25.63400
N  -2.75700 16.95700 24.75000
C  -2.68700 18.07100 24.02600
C  -2.91400 17.79100 22.54600
C  -3.11500 16.18200 22.50800
C  -2.92900 15.88100 23.99100
C  -4.19400 18.51900 21.91600
C  -2.21100 15.48000 21.53300
C  -1.00700 14.66600 22.07600
N  -2.97700 15.09400 26.90000
C  -3.06600 14.14600 25.86700
C  -3.06600 12.75900 26.43300
C  -3.14700 13.02300 27.80600
C  -3.01400 14.42000 28.06500
C  -3.09900 11.41800 25.72700
C  -3.32200 12.33100 29.05100
O  -3.46300 11.13200 29.33800
C  -3.39400 13.45800 30.21600
C  -2.41200 12.99800 31.28100
O  -1.22800 13.19200 31.36300
O  -3.08900 12.31900 32.25000
C  -2.34200 12.07500 33.46200
H  -3.10300 20.33500 30.17500
H  -2.51200 20.06200 23.64700
H  -3.17500 13.84700 23.69600
H  -4.23600 16.05100 31.67800
H  -2.62200 18.58500 31.98800
H  -5.05500 19.41900 31.10700
H  -4.67400 18.93400 32.84000
H  -5.71300 18.00300 31.89200
H  -1.30800 15.72800 31.83900
H  -2.64100 15.01800 32.82600
H  -2.50700 17.51600 33.78500
H  -0.80600 17.43700 33.31200
H  -3.03800 22.43500 29.54500
H  -3.70900 23.31500 28.14600
H  -2.02100 23.21100 28.39600
H  -3.22000 24.13900 26.12000
H  -2.15300 24.50600 24.76500
H  -1.41200 24.12400 26.23200
H  -1.97900 18.13100 22.09900
H  -4.11300 15.87300 22.19500
H  -3.91700 19.07200 21.01800
H  -4.59600 19.27900 22.58600
H  -5.01900 17.90800 21.55000
H  -1.69900 16.34300 21.10700
H  -2.75100 14.83300 20.84200
H  -0.62300 15.20000 22.94600
H  -0.20100 14.57600 21.34800
H  -1.33200 13.66700 22.36500
H  -3.03900 11.64300 24.66200
H  -4.01100 10.83800 25.86900
H  -2.26200 10.77700 26.00400
H  -4.32900 13.51700 30.77400
H  -3.07400 12.00300 34.26700
H  -1.69700 12.91200 33.72700
H  -1.71000 11.20000 33.31300
Mg -2.00100 33.97300 26.70300
C  -3.64000 32.87400 29.49900
C  -0.17600 36.11000 28.70400
C  -0.53200 35.20200 23.94000
C  -3.86700 31.84200 24.70400
N  -1.80200 34.30900 28.93400
C  -2.66900 33.70800 29.83600
C  -2.29500 34.14500 31.23900
C  -1.19600 35.22100 30.99000
C  -0.96800 35.22000 29.41600
C  -1.37200 36.61100 31.58200
C  -1.87300 32.88600 32.05200
C  -2.68200 32.43100 33.28000
H  -2.02500 32.26000 34.63800
N  -0.53700 35.48300 26.33400
C  0.05500 36.27400 27.31200
C  0.92300 37.27900 26.64400
C  0.90000 36.87100 25.29500
C  -0.08400 35.84700 25.11300
C  1.88000 38.25800 27.42000
C  1.55600 37.70000 24.18100
O  1.59100 37.34700 23.03400
C  2.03100 39.03500 24.49100
N  -2.32000 33.72100 24.57000
C  -1.49700 34.26300 23.69300
C  -1.77100 33.79500 22.27700
C  -2.47300 32.48900 22.59500
C  -2.99200 32.68500 24.05300
C  -2.55600 34.77500 21.33100
C  -1.60400 31.21700 22.48800
C  -2.13500 29.97900 21.67500
N  -3.39200 32.63200 26.95700
C  -4.15500 31.79800 26.08500
C  -5.19000 31.14700 26.87500
C  -5.00500 31.53100 28.17300
C  -3.92800 32.38200 28.20200
C  -6.14800 30.11300 26.30500
C  -5.45400 31.26600 29.51100
O  -6.28200 30.51600 29.97300
C  -4.60900 32.18500 30.40000
C  -5.63400 33.03300 31.07700
O  -5.96000 34.14200 30.65100
O  -6.12700 32.40000 32.23600
C  -6.74400 33.26200 33.21500
H  0.47800 36.77300 29.27400
H  -0.18300 35.73800 23.05500
H  -4.27700 31.06600 24.05500
H  -3.22700 34.55800 31.62500
H  -0.29900 34.81400 31.45600
H  -2.30300 36.67200 32.14700
H  -1.44500 37.33800 30.77300
H  -0.51500 36.80200 32.22800
H  -0.85300 32.93500 32.43500
H  -1.75600 32.13400 31.27200
H  -2.95900 31.39600 33.07600
H  -3.63800 32.95400 33.31500
H  1.58200 38.32100 28.46700
H  1.96300 39.28700 27.06900
H  2.89000 37.87500 27.27500
H  1.29200 39.66300 24.99000
H  2.41400 39.52100 23.59400
H  2.95200 38.98600 25.07200
H  -0.76800 33.77700 21.84900
H  -3.35700 32.39300 21.96500
H  -2.88000 35.65700 21.88400
H  -3.53400 34.49500 20.93900
H  -1.93200 35.21500 20.55300
H  -1.42900 30.87700 23.50900
H  -0.64300 31.44800 22.02800
H  -1.41800 29.75900 20.88400
H  -3.05100 30.26200 21.15600
H  -2.30200 29.09400 22.28800
H  -6.91700 30.57800 25.68800
H  -6.73500 29.62200 27.08100
H  -5.48800 29.45900 25.73500
H  -4.08500 31.61700 31.16900
H  -7.36600 34.05800 32.80600
H  -5.94400 33.73000 33.78900
H  -7.50200 32.61500 33.65700

