158

Mg 16.88200 -1.18200 27.63300
C  15.97300 0.87900 30.27500
C  19.19700 -2.64400 29.79400
C  18.15100 -2.71900 25.02800
C  14.77600 0.72200 25.54700
N  17.50800 -0.90600 29.74300
C  16.91600 -0.01500 30.67800
C  17.47800 -0.25500 32.08500
C  18.74500 -1.13000 31.78600
C  18.48500 -1.61500 30.37200
C  20.23700 -0.52500 32.09000
C  16.39500 -0.89200 32.96000
C  16.10900 -0.14300 34.18300
H  17.26900 0.50500 34.79900
N  18.31600 -2.70800 27.55500
C  19.11500 -3.17600 28.54700
C  19.81900 -4.32800 27.97400
C  19.52900 -4.38600 26.61000
C  18.59100 -3.24800 26.25100
C  20.49400 -5.41000 28.87100
C  19.83400 -5.49200 25.58700
O  19.36500 -5.38000 24.49900
C  20.80900 -6.61500 25.90400
N  16.41600 -1.07700 25.61500
C  17.21300 -1.73700 24.71700
C  16.89400 -1.42600 23.27900
C  15.59500 -0.56800 23.43900
C  15.52200 -0.31900 24.92300
C  18.08500 -0.69400 22.55100
C  14.20000 -1.20000 22.86700
C  13.85000 -0.86400 21.44400
N  15.63600 0.46900 27.84700
C  14.80900 1.08800 26.93000
C  14.01800 2.09100 27.51500
C  14.54500 2.16200 28.80100
C  15.53200 1.13700 28.92200
C  12.92300 2.84200 26.77200
C  14.44700 2.85600 30.04700
O  13.78800 3.85700 30.39200
C  15.34700 2.00700 31.11600
C  16.33400 2.91600 31.70500
O  17.45300 3.08200 31.32100
O  15.85600 3.52300 32.82900
C  16.87900 4.36700 33.53000
H  20.02400 -3.04900 30.38000
H  18.49800 -3.24300 24.13500
H  14.23400 1.31200 24.80500
H  17.82500 0.72800 32.40500
H  18.61900 -2.03100 32.38600
H  20.61500 -1.30000 32.75600
H  20.14500 0.45300 32.56400
H  20.86400 -0.61700 31.20300
H  16.74700 -1.89400 33.20600
H  15.45500 -1.14100 32.46800
H  15.57900 -0.75100 34.91600
H  15.39100 0.63300 33.91800
H  19.86600 -6.30000 28.91500
H  20.49700 -4.99500 29.87900
H  21.52300 -5.60300 28.56800
H  21.83100 -6.24700 26.00000
H  20.72200 -7.30900 25.06800
H  20.37300 -7.17100 26.73300
H  16.56100 -2.34300 22.79300
H  15.87700 0.39300 23.00800
H  18.88700 -0.48800 23.26000
H  17.82900 0.26300 22.09800
H  18.41500 -1.38400 21.77500
H  13.39500 -0.89400 23.53500
H  14.17700 -2.27900 23.02000
H  14.32200 0.10500 21.28100
H  12.77900 -0.83300 21.24700
H  14.35300 -1.54800 20.76000
H  12.09800 2.81500 27.48500
H  12.53500 2.35600 25.87800
H  13.24600 3.85000 26.51000
H  14.89000 1.51500 31.97500
H  17.05500 5.31700 33.02600
H  17.87600 3.92600 33.52700
H  16.49000 4.50000 34.54000
Mg 40.79300 8.98700 28.11100
C  42.36200 10.41000 30.80200
C  38.28300 7.92900 30.21600
C  39.46400 7.32700 25.51800
C  43.39500 10.04100 26.01700
N  40.48100 9.04600 30.26800
C  41.20700 9.81000 31.19400
C  40.57600 9.72200 32.60300
C  39.29200 8.93100 32.34000
C  39.30000 8.66600 30.83500
C  39.08700 7.63100 33.14900
C  40.26100 11.10400 33.25300
C  39.78500 11.02000 34.69900
H  40.65000 11.56700 35.85200
N  39.05000 7.76300 27.87500
C  38.25600 7.38400 28.91300
C  37.16500 6.59600 28.34400
C  37.45700 6.43000 26.93300
C  38.73300 7.13900 26.68200
C  36.08500 6.00000 29.17600
C  36.62900 5.78100 25.80500
O  37.09900 5.67700 24.65600
C  35.29200 5.32300 26.04800
N  41.48000 8.58400 26.17200
C  40.60800 8.00000 25.25700
C  41.16500 7.96600 23.80400
C  42.30800 9.00200 24.00600
C  42.44200 9.23300 25.45500
C  41.57900 6.57400 23.24900
C  42.09600 10.27200 23.10000
C  41.26800 11.36000 23.78300
N  42.56300 9.90700 28.27900
C  43.59300 10.32100 27.36200
C  44.64100 11.05200 28.04600
C  44.17600 10.95900 29.34400
C  42.88300 10.35400 29.49100
C  45.84300 11.64100 27.38800
C  44.52000 11.49500 30.65000
O  45.52000 12.09800 31.03000
C  43.38200 11.12600 31.64800
C  44.00000 10.32300 32.74100
O  44.10100 9.09500 32.89600
O  44.41500 11.11800 33.70100
C  44.90500 10.57800 35.03400
H  37.51400 7.62600 30.93000
H  39.23200 6.67700 24.67100
H  44.23900 10.39200 25.41800
H  41.29100 9.18400 33.22500
H  38.36300 9.47800 32.50100
H  38.90600 6.75100 32.53100
H  38.32300 7.67500 33.92500
H  40.04600 7.31400 33.55900
H  39.56700 11.62700 32.59500
H  41.23500 11.59300 33.28400
H  39.65500 9.94700 34.83600
H  38.89900 11.64400 34.80900
H  35.99500 4.91600 29.12000
H  35.15300 6.49200 28.89800
H  36.14500 6.23800 30.23800
H  35.58800 4.67500 26.87300
H  34.83000 4.80200 25.21000
H  34.74400 6.24400 26.24600
H  40.43100 8.42900 23.14400
H  43.24400 8.52700 23.71400
H  40.91800 6.26000 22.44100
H  41.54100 5.86300 24.07400
H  42.62200 6.50900 22.93700
H  41.72100 9.92000 22.13900
H  43.10600 10.67800 23.04500
H  41.94000 12.09100 24.23000
H  40.58100 10.87000 24.47300
H  40.69500 11.75900 22.94500
H  46.53100 11.99500 28.15500
H  45.52400 12.57200 26.91700
H  46.32500 10.89500 26.75600
H  42.94800 12.03500 32.06500
H  44.75300 9.50000 35.08700
H  44.30200 11.03300 35.82000
H  45.95300 10.85700 35.14000

