158

Mg 25.08200 -4.81400 46.07900
C  26.87100 -2.07500 44.52200
C  22.44300 -3.88600 44.03700
C  23.54500 -7.45000 47.09500
C  28.00900 -5.83100 47.57800
N  24.63500 -2.96100 44.65200
C  25.56100 -2.09700 44.02500
C  24.94500 -1.32500 42.88000
C  23.40600 -1.73500 42.99600
C  23.43100 -2.89600 43.96500
C  22.41400 -0.59800 43.32600
C  25.68300 -1.73400 41.52000
C  26.39300 -0.59700 40.75600
H  25.94800 -0.51400 39.30000
N  23.21400 -5.53200 45.67000
C  22.31500 -5.06300 44.82600
C  21.11600 -5.88700 44.90000
C  21.37700 -6.95000 45.76800
C  22.71500 -6.70300 46.25400
C  19.86600 -5.57200 44.17000
C  20.36800 -7.98500 46.24000
O  19.16300 -7.87400 45.91200
C  20.65700 -9.15700 47.14800
N  25.68300 -6.42300 47.26500
C  24.85800 -7.32900 47.64300
C  25.47000 -8.52800 48.41800
C  27.00900 -8.02900 48.46400
C  26.92400 -6.67100 47.71800
C  24.82400 -8.67200 49.88600
C  28.07900 -8.91800 47.77600
C  29.30700 -9.43100 48.74000
N  27.04300 -4.11000 46.12900
C  28.04900 -4.56700 46.85000
C  29.26100 -3.74300 46.69400
C  28.80700 -2.75600 45.77100
C  27.49700 -2.97200 45.45400
C  30.61600 -4.05000 47.27800
C  29.20000 -1.56700 44.99200
O  30.18000 -0.81200 45.15700
C  28.00800 -1.23500 44.05100
C  27.85000 0.29200 44.26200
O  27.27500 0.74500 45.24400
O  28.33300 0.97900 43.07600
C  28.16000 2.39800 43.11600
H  21.57100 -3.67100 43.41600
H  22.99200 -8.35300 47.36200
H  28.90500 -6.18500 48.09200
H  25.02200 -0.24600 43.00800
H  23.04700 -2.06500 42.02100
H  21.63400 -0.42100 42.58400
H  22.85800 0.38400 43.48700
H  21.89300 -0.88200 44.24000
H  24.94100 -2.27500 40.93200
H  26.34100 -2.56600 41.76800
H  27.44900 -0.86000 40.81300
H  26.10300 0.32000 41.26900
H  20.08600 -5.55700 43.10200
H  19.54400 -4.58200 44.49400
H  19.04800 -6.29100 44.19200
H  19.75000 -9.61500 47.54300
H  21.21200 -8.74200 47.98900
H  21.33800 -9.86900 46.68300
H  25.45800 -9.51000 47.94500
H  27.19200 -7.69100 49.48400
H  25.32300 -8.10300 50.67000
H  24.87900 -9.75400 50.00500
H  23.80900 -8.27700 49.89300
H  28.60000 -8.44000 46.94600
H  27.70600 -9.89400 47.46500
H  30.11200 -8.80700 48.35300
H  29.48700 -10.49300 48.57800
H  29.09300 -9.12100 49.76300
H  31.45200 -3.54200 46.79800
H  30.70400 -5.13600 47.27200
H  30.55400 -3.74300 48.32200
H  28.18100 -1.35800 42.98100
H  28.11300 2.97300 42.19100
H  28.96700 2.85800 43.68600
H  27.23200 2.62200 43.64100
Mg -3.99300 25.22500 24.90000
C  -3.07900 26.45600 28.06300
C  -6.02500 22.94200 26.39900
C  -4.44100 23.89400 21.95200
C  -1.75000 27.52200 23.55600
N  -4.50600 24.76000 27.03400
C  -4.02900 25.42400 28.16200
C  -4.76700 24.93100 29.37000
C  -5.50700 23.62200 28.87300
C  -5.43200 23.82600 27.34300
C  -4.96300 22.31300 29.46700
C  -5.54700 25.96300 30.22500
C  -5.38800 26.01400 31.74400
H  -4.89000 24.73400 32.45500
N  -5.14600 23.67300 24.23700
C  -5.88600 22.84800 24.97500
C  -6.56100 21.85100 24.17500
C  -5.98200 21.97500 22.86900
C  -5.18900 23.27600 22.96300
C  -7.47500 20.74700 24.64700
C  -6.22200 21.18800 21.55600
O  -5.72400 21.46400 20.46000
C  -7.08600 19.95000 21.52200
N  -3.27900 25.71200 23.03700
C  -3.57600 24.99900 21.96400
C  -2.68900 25.45600 20.82000
C  -2.28300 26.87800 21.15000
C  -2.42900 26.74600 22.65000
C  -1.48400 24.58500 20.66800
C  -3.04900 27.98600 20.48400
C  -2.22100 29.02500 19.76100
N  -2.63300 26.69400 25.56300
C  -1.81900 27.54800 24.93500
C  -1.05600 28.29000 25.88300
C  -1.59000 27.99000 27.14600
C  -2.59100 27.02600 26.85700
C  0.09300 29.18600 25.60600
C  -1.57600 28.28100 28.53300
O  -0.81700 29.07700 29.09200
C  -2.72300 27.36800 29.19800
C  -1.99400 26.71300 30.27900
O  -1.42900 25.63700 30.18400
O  -1.99900 27.42600 31.43800
C  -1.14000 26.98500 32.50500
H  -6.67300 22.22500 26.90600
H  -4.43000 23.30100 21.03600
H  -1.19600 28.33300 23.07800
H  -3.86900 24.59900 29.89100
H  -6.55700 23.61800 29.16800
H  -4.35700 22.46300 30.36000
H  -4.36600 21.75700 28.74500
H  -5.67600 21.56300 29.81000
H  -6.62400 25.85100 30.09500
H  -5.35700 26.99000 29.91300
H  -6.32800 26.31600 32.20500
H  -4.71400 26.83900 31.97400
H  -7.07800 19.75500 24.43200
H  -8.34800 20.97300 24.03500
H  -7.78100 20.73200 25.69400
H  -8.08300 20.36200 21.67300
H  -6.89800 19.18100 22.27100
H  -7.01500 19.55000 20.51000
H  -3.28100 25.31300 19.91600
H  -1.24100 27.03700 20.87000
H  -1.74600 23.71400 20.06700
H  -1.07000 24.40500 21.66000
H  -0.69200 24.90900 19.99300
H  -3.74000 28.50300 21.15100
H  -3.69500 27.59000 19.70000
H  -2.66500 28.97400 18.76700
H  -1.20500 28.63400 19.69900
H  -2.35100 29.98700 20.25700
H  -0.37600 30.01600 25.07800
H  0.82800 28.71100 24.95700
H  0.59300 29.47600 26.53000
H  -3.47100 28.02200 29.64700
H  -1.28600 27.84200 33.16100
H  -0.08900 26.98800 32.21500
H  -1.49000 26.09200 33.02300

