158

Mg 24.84800 -6.95200 48.06500
C  27.47300 -4.90400 46.80500
C  22.79200 -5.65900 45.48700
C  22.53800 -9.30700 48.83100
C  27.20200 -8.60300 49.78400
N  25.14900 -5.53100 46.27000
C  26.29900 -4.85300 45.98300
C  26.07800 -3.98300 44.77300
C  24.55000 -4.11600 44.41500
C  24.11000 -5.11600 45.46400
C  23.74600 -2.76100 44.33000
C  27.11500 -4.40700 43.59100
C  27.88700 -3.31000 42.92700
H  27.70100 -2.99100 41.45600
N  22.92700 -7.32100 47.40500
C  22.20400 -6.65600 46.39800
C  20.90200 -7.21100 46.28300
C  20.80400 -8.33900 47.18400
C  22.09300 -8.34500 47.92000
C  19.89600 -6.66100 45.35000
C  19.69400 -9.31600 47.30900
O  18.81800 -9.31200 46.49100
C  19.55100 -10.33000 48.38300
N  24.91500 -8.71000 49.10000
C  23.76400 -9.46700 49.38300
C  24.08700 -10.61500 50.28500
C  25.56400 -10.43700 50.68900
C  25.96100 -9.19400 49.82800
C  23.07900 -10.84000 51.45400
C  26.35400 -11.72200 50.27000
C  27.23200 -12.33900 51.35800
N  26.88400 -6.72600 48.47600
C  27.70300 -7.49500 49.17800
C  28.96900 -6.87000 49.30300
C  28.92600 -5.82600 48.41800
C  27.65300 -5.90600 47.74600
C  30.21900 -7.34100 50.03200
C  29.60400 -4.68400 47.88200
O  30.67900 -4.28800 48.28000
C  28.79300 -4.03900 46.70200
C  28.54500 -2.63400 46.91100
O  28.10000 -2.15100 47.96900
O  28.93600 -1.91500 45.81800
C  28.94200 -0.47200 45.90100
H  22.22800 -5.33000 44.61200
H  21.79900 -10.06800 49.09300
H  27.81500 -9.21500 50.44800
H  26.24700 -2.99100 45.19200
H  24.51900 -4.61900 43.44900
H  24.40100 -1.89200 44.39100
H  22.99400 -2.79900 45.11900
H  23.30500 -2.70700 43.33500
H  26.47200 -4.87000 42.84300
H  27.77300 -5.19300 43.96100
H  28.92600 -3.61400 43.05600
H  27.78900 -2.36400 43.46000
H  19.95300 -7.07900 44.34500
H  20.03400 -5.58000 45.36500
H  18.86200 -6.77300 45.67400
H  20.19000 -11.16900 48.11000
H  18.59800 -10.80300 48.14800
H  19.68800 -9.94800 49.39500
H  23.88300 -11.54700 49.75800
H  25.63000 -10.29600 51.76800
H  22.36700 -11.65800 51.34400
H  22.42000 -9.98100 51.58700
H  23.60900 -10.95500 52.39900
H  27.01500 -11.60200 49.41100
H  25.64100 -12.50700 50.01900
H  28.17800 -12.60900 50.88800
H  26.75900 -13.14300 51.92100
H  27.51000 -11.54100 52.04700
H  30.93600 -7.77800 49.33800
H  30.23000 -8.12600 50.78800
H  30.69900 -6.41300 50.34200
H  29.31900 -4.26500 45.77400
H  29.46800 0.04000 45.09600
H  29.25700 -0.14800 46.89200
H  27.90200 -0.15300 45.83100
Mg 30.04900 59.09500 39.99700
C  27.00900 57.58600 38.76300
C  31.62700 56.30200 39.14900
C  32.87500 60.94600 40.12600
C  28.12100 62.08600 40.15800
N  29.36100 57.18200 39.13000
C  28.12700 56.75300 38.62200
C  28.23600 55.29000 38.10500
C  29.58600 54.82400 38.74800
C  30.22600 56.19800 39.04900
C  29.32400 53.97600 39.98500
C  28.30400 55.11400 36.51800
C  27.15700 54.33300 35.82400
H  26.08400 55.15900 35.17800
N  31.99700 58.63000 39.81500
C  32.45800 57.48600 39.35800
C  33.86200 57.50900 39.33500
C  34.29900 58.81100 39.69100
C  33.04100 59.53000 39.91600
C  34.66700 56.30100 38.90600
C  35.73900 59.24800 39.84200
O  36.61400 58.45900 39.57700
C  36.15700 60.53100 40.35700
N  30.42500 61.29600 39.98500
C  31.68300 61.72700 40.13500
C  31.65900 63.21900 40.37300
C  30.19700 63.68700 40.27800
C  29.52200 62.31000 40.19200
C  32.45500 63.54600 41.68500
C  29.86600 64.56800 39.03700
C  30.30600 66.07000 39.16400
N  27.95600 59.65500 39.83500
C  27.42100 60.87900 39.93100
C  26.00600 60.83800 39.55800
C  25.75700 59.46800 39.32000
C  26.97100 58.81800 39.35600
C  25.04600 61.94000 39.34500
C  24.75200 58.50300 38.91100
O  23.55600 58.66600 38.80200
C  25.58600 57.19700 38.52600
C  25.12500 56.10000 39.44100
O  25.21800 56.13600 40.66600
O  24.65500 55.03000 38.71700
C  24.40500 53.79300 39.55700
H  32.19900 55.40800 38.89100
H  33.76400 61.57500 40.20600
H  27.43200 62.92700 40.06100
H  27.35800 54.72500 38.41900
H  30.26200 54.33800 38.04400
H  29.77700 54.59000 40.76400
H  29.93300 53.07500 40.05500
H  28.28600 53.69100 40.15600
H  29.27100 54.67800 36.26800
H  28.27600 56.09200 36.03900
H  26.82900 53.60300 36.56400
H  27.61800 53.73300 35.03900
H  35.10100 55.83500 39.79000
H  35.48400 56.61500 38.25600
H  34.14300 55.53700 38.33100
H  37.24300 60.47700 40.44000
H  35.74300 60.53200 41.36500
H  35.76000 61.34600 39.75100
H  32.18600 63.55500 39.48000
H  29.89700 64.19100 41.19600
H  31.72900 63.85400 42.43800
H  33.14400 64.37400 41.51700
H  32.99400 62.70000 42.11100
H  28.78700 64.57700 38.88200
H  30.17300 64.06400 38.12000
H  29.45600 66.75200 39.18900
H  30.75200 66.32400 38.20300
H  30.96000 66.22200 40.02300
H  24.06500 61.64400 38.97500
H  25.58400 62.58900 38.65400
H  25.03700 62.50400 40.27800
H  25.43600 56.97700 37.46900
H  23.96000 53.05100 38.89400
H  23.66700 53.98000 40.33800
H  25.26100 53.33600 40.05400

