158

Mg 46.89400 17.14000 28.26100
C  44.86400 16.75000 31.24600
C  48.93000 19.16200 30.10800
C  48.47500 17.86100 25.38800
C  44.29800 15.48700 26.44000
N  46.92700 17.82800 30.45700
C  46.09800 17.51400 31.49200
C  46.60200 17.99800 32.85300
C  47.82100 18.93000 32.43800
C  47.90100 18.63800 30.91300
C  47.67400 20.47000 32.71500
C  46.93900 16.78900 33.74400
C  46.26400 16.64500 35.07300
H  46.02900 18.02700 35.81400
N  48.55000 18.27900 27.78600
C  49.24800 19.06300 28.70900
C  50.30400 19.77500 27.92400
C  50.15600 19.41200 26.59300
C  49.11300 18.42700 26.54600
C  51.18200 20.74600 28.56300
C  50.85700 19.87300 25.28800
O  50.65500 19.39400 24.20300
C  51.93600 21.01900 25.32200
N  46.59400 16.56300 26.25300
C  47.36400 17.01700 25.25000
C  46.76500 16.72900 23.83600
C  45.36600 16.14400 24.21400
C  45.44100 15.93900 25.72900
C  46.60200 18.04900 22.99500
C  45.00400 14.86800 23.48300
C  44.85400 14.93100 22.00100
N  45.00200 16.37600 28.65000
C  44.10400 15.63600 27.85600
C  42.94900 15.26200 28.62300
C  43.25700 15.61900 29.94800
C  44.46600 16.33300 29.95600
C  41.78200 14.46600 28.02500
C  42.77700 15.47900 31.29800
O  41.77300 14.90500 31.78800
C  43.78300 16.32600 32.17200
C  43.08000 17.47900 32.71500
O  43.13200 18.63100 32.30100
O  42.60700 17.09400 33.96300
C  42.14600 18.17000 34.86500
H  49.63200 19.64200 30.79300
H  48.76300 18.19100 24.38800
H  43.43100 15.14400 25.87200
H  45.79900 18.63300 33.22700
H  48.72700 18.67900 32.98900
H  46.60500 20.66400 32.79300
H  48.16700 21.14800 32.01800
H  48.25000 20.72000 33.60600
H  48.01200 16.71500 33.92200
H  46.66700 15.84600 33.27000
H  46.83900 16.02800 35.76400
H  45.31100 16.12500 34.97100
H  50.83800 21.19300 29.49500
H  51.25800 21.59400 27.88300
H  52.13600 20.25200 28.75100
H  51.63500 21.97100 25.75900
H  52.14700 21.38800 24.31900
H  52.83400 20.69600 25.85000
H  47.27700 15.86500 23.41500
H  44.61800 16.93300 24.13900
H  47.08500 17.88400 22.03100
H  47.00200 18.86900 23.59200
H  45.56700 18.32100 22.78800
H  44.00800 14.58600 23.82300
H  45.71600 14.06900 23.69000
H  45.77800 14.51800 21.59500
H  44.81500 15.97900 21.70500
H  43.90400 14.55100 21.62500
H  41.99500 13.40100 28.11200
H  41.67200 14.69500 26.96500
H  40.85800 14.66700 28.56700
H  44.12100 15.62200 32.93300
H  41.14900 18.50600 34.58000
H  42.77600 19.05800 34.82500
H  42.07100 17.74000 35.86400
Mg 0.90000 42.91000 26.30300
C  2.77300 43.29300 29.39000
C  -1.78900 41.98800 28.25700
C  -0.72800 42.43600 23.49900
C  3.75600 43.62400 24.53700
N  0.65000 42.59600 28.60400
C  1.48500 42.79400 29.67200
C  0.74400 42.86000 30.97400
C  -0.74200 42.24700 30.59300
C  -0.61100 42.27900 29.02800
C  -0.92300 40.78900 31.18500
C  0.72200 44.19900 31.72100
C  1.05000 44.20000 33.21400
H  0.64300 43.00600 34.05700
N  -1.01900 42.38700 25.92600
C  -2.02100 41.94000 26.86400
C  -3.08200 41.37200 26.17500
C  -2.84500 41.47600 24.75100
C  -1.46600 42.13100 24.63100
C  -4.27300 40.73800 26.90000
C  -3.81700 41.18300 23.58900
O  -3.45000 41.33400 22.42600
C  -5.20200 40.56700 23.73600
N  1.49000 43.00200 24.22600
C  0.59400 42.90500 23.24400
C  1.21500 43.11100 21.85500
C  2.60100 43.65900 22.20100
C  2.63200 43.52200 23.78900
C  1.20900 41.75300 21.03300
C  2.95000 45.06800 21.63400
C  3.92200 45.15100 20.39000
N  2.85900 43.33300 26.79700
C  3.93900 43.57300 25.96800
C  5.14200 43.84300 26.71300
C  4.71200 43.71600 28.07400
C  3.28600 43.44500 28.02300
C  6.50400 44.33400 26.15400
C  5.16700 43.76600 29.43300
O  6.31400 43.98600 29.90100
C  3.92800 43.41600 30.28200
C  4.18800 42.21600 31.04700
O  4.03100 41.04500 30.61700
O  4.65900 42.63900 32.32200
C  4.70500 41.59600 33.33500
H  -2.58600 41.58900 28.88900
H  -1.20500 42.22400 22.54000
H  4.65400 43.90700 23.98400
H  1.23300 42.16900 31.66200
H  -1.49800 42.92100 30.99600
H  -1.67100 40.95500 31.96000
H  0.05700 40.54200 31.59500
H  -1.27700 40.04700 30.47000
H  -0.23700 44.71100 31.64800
H  1.52700 44.82400 31.33400
H  0.40900 44.98800 33.60900
H  2.12400 44.36400 33.29500
H  -5.19200 40.72100 26.31500
H  -4.31600 40.92000 27.97400
H  -3.99000 39.68800 26.82400
H  -5.06500 39.61600 24.25200
H  -5.68800 40.29200 22.79900
H  -5.91500 41.10600 24.35900
H  0.57800 43.85300 21.37400
H  3.43000 43.05700 21.82900
H  0.44800 41.66000 20.25900
H  1.12400 40.85800 21.64900
H  2.22300 41.57400 20.67600
H  3.33200 45.67700 22.45400
H  2.01400 45.53900 21.33400
H  3.42200 45.55600 19.51000
H  4.52900 44.27800 20.14900
H  4.60500 45.99600 20.47000
H  6.33100 44.91200 25.24600
H  7.01400 43.44100 25.79200
H  7.08200 44.73000 26.98900
H  3.69100 44.26000 30.93000
H  5.72400 41.21800 33.25400
H  4.16200 40.68300 33.09200
H  4.46100 41.96900 34.33000

