158

Mg 24.11900 -6.25900 45.27000
C  26.31600 -3.86400 43.93300
C  21.55900 -4.91100 43.49300
C  22.34600 -9.00600 46.04100
C  27.09300 -7.72600 46.71400
N  24.03300 -4.70100 43.88400
C  24.99700 -3.75100 43.44400
C  24.38800 -2.68700 42.51400
C  22.90600 -3.00500 42.62400
C  22.81000 -4.26100 43.39600
C  22.08600 -1.85700 43.35400
C  25.07700 -2.77000 41.06900
C  25.61400 -1.48800 40.30100
H  25.05500 -1.39700 38.86600
N  22.13300 -6.80900 44.98000
C  21.25900 -6.15900 44.17000
C  20.11500 -6.94400 43.99400
C  20.20900 -8.11200 44.79000
C  21.59000 -7.98400 45.29700
C  18.92400 -6.59500 43.21500
C  19.14800 -9.18300 45.05500
O  17.99300 -8.86400 44.67700
C  19.37300 -10.41100 45.77400
N  24.66200 -8.08100 46.06200
C  23.70200 -9.08700 46.25400
C  24.33600 -10.37400 46.78500
C  25.77100 -9.89800 47.17300
C  25.87600 -8.43600 46.63800
C  23.54500 -11.03200 47.89900
C  26.99900 -10.86700 46.82700
C  28.04500 -11.07600 47.88800
N  26.30700 -5.83300 45.38200
C  27.33000 -6.54000 45.97500
C  28.60600 -5.82900 45.84800
C  28.26900 -4.76900 45.03000
C  26.85600 -4.83100 44.80800
C  29.99500 -6.17000 46.30700
C  28.74000 -3.66800 44.17600
O  29.88900 -3.29600 43.98500
C  27.50800 -3.06700 43.47000
C  27.49700 -1.60000 43.86700
O  27.01300 -1.14800 44.93200
O  28.30100 -0.88500 43.00600
C  28.81300 0.38100 43.50000
H  20.76800 -4.25900 43.11700
H  21.79300 -9.94600 46.09600
H  28.00200 -8.19300 47.10000
H  24.63900 -1.76000 43.02800
H  22.40300 -2.97200 41.65800
H  22.50300 -1.80700 44.36000
H  21.05900 -2.21100 43.44200
H  22.11600 -0.87400 42.88500
H  24.34100 -3.27900 40.44800
H  25.98200 -3.36900 41.17600
H  26.69800 -1.57700 40.23200
H  25.27100 -0.66300 40.92600
H  18.72600 -7.32300 42.42800
H  18.95900 -5.56200 42.86900
H  18.02700 -6.60100 43.83400
H  18.51700 -11.02700 45.49800
H  19.30100 -10.17300 46.83500
H  20.25500 -10.99100 45.50500
H  24.37400 -10.97800 45.87800
H  25.76000 -9.65400 48.23500
H  24.23500 -11.19700 48.72700
H  23.12600 -11.99000 47.59000
H  22.70500 -10.45600 48.28600
H  27.38300 -10.67300 45.82500
H  26.48900 -11.83000 46.79100
H  27.86600 -12.03900 48.36600
H  27.85300 -10.37400 48.70000
H  29.04000 -10.97600 47.45400
H  30.04100 -5.96100 47.37600
H  30.80100 -5.66200 45.77800
H  30.15400 -7.24400 46.20300
H  27.72300 -3.21000 42.41100
H  28.81300 0.52400 44.58000
H  28.07200 1.13300 43.22800
H  29.77300 0.64300 43.05600
Mg 16.62200 51.76900 25.35900
C  18.26100 50.65700 28.23300
C  13.94400 52.73600 27.36000
C  15.01400 52.80100 22.55700
C  19.26000 50.32300 23.41300
N  16.13300 51.64300 27.48300
C  17.01400 51.23800 28.50500
C  16.36200 51.35600 29.92200
C  14.86500 51.76700 29.59800
C  14.92600 52.08800 28.05200
C  13.70200 50.84000 30.06900
C  17.04700 52.32300 30.86700
C  17.38900 51.73300 32.26500
H  16.33200 51.91000 33.49200
N  14.75300 52.66200 25.00600
C  13.86300 53.11000 26.00100
C  12.76500 53.83400 25.32600
C  12.96900 53.71000 23.93000
C  14.27500 52.98600 23.75600
C  11.63400 54.55500 26.01000
C  12.11300 54.24700 22.78400
O  12.46800 54.11100 21.63200
C  10.83200 54.89400 23.07800
N  17.12100 51.77200 23.34800
C  16.24900 52.20800 22.33300
C  16.89100 52.02600 20.94000
C  18.33000 51.47000 21.29100
C  18.24400 51.18700 22.79000
C  16.16300 51.06100 20.02000
C  19.58500 52.29600 20.86000
C  20.76900 51.56700 20.22900
N  18.38500 50.53400 25.66100
C  19.30900 50.04100 24.80300
C  20.29500 49.29300 25.55500
C  20.02300 49.63300 26.94000
C  18.79900 50.37100 26.95000
C  21.49500 48.56600 25.02000
C  20.43100 49.44300 28.27800
O  21.42100 48.83300 28.74500
C  19.34500 50.07000 29.20900
C  18.98600 49.03900 30.20500
O  18.36200 48.04700 29.89000
O  19.44600 49.26700 31.47000
C  19.18500 48.27500 32.54900
H  13.10500 53.07200 27.97300
H  14.44600 53.19500 21.71200
H  20.10900 50.08100 22.77000
H  16.30700 50.32800 30.28100
H  14.66200 52.75500 30.01100
H  13.97100 49.85100 30.43800
H  13.18000 50.81700 29.11200
H  13.08000 51.33900 30.81200
H  16.37300 53.16700 31.01700
H  17.89900 52.77500 30.35900
H  18.33400 52.16700 32.59300
H  17.53100 50.65900 32.14600
H  10.66000 54.11000 25.80400
H  11.70500 55.63300 25.86200
H  11.92600 54.30900 27.03000
H  10.17400 54.23400 23.64300
H  10.40700 55.11200 22.09900
H  10.86200 55.85400 23.59500
H  16.90000 53.03500 20.52900
H  18.55500 50.51300 20.81900
H  15.91400 50.14100 20.54900
H  16.90300 50.65900 19.32800
H  15.32400 51.53900 19.51500
H  19.85700 52.67800 21.84400
H  19.42900 53.18100 20.24200
H  20.82800 52.02100 19.24000
H  20.68700 50.48200 20.17400
H  21.67800 51.75600 20.80100
H  21.61800 48.60300 23.93800
H  21.52800 47.49400 25.21500
H  22.39700 49.00900 25.44400
H  19.75100 50.89900 29.78800
H  18.87400 48.78800 33.45900
H  20.14200 47.78600 32.73400
H  18.43100 47.51400 32.35200

