158

Mg 7.38700 53.97900 41.96600
C  6.72600 50.34800 41.57800
C  10.55800 53.38300 41.03000
C  7.81300 57.27600 41.91800
C  3.89300 54.45600 41.87500
N  8.42400 52.07800 41.28500
C  8.09700 50.74600 41.22300
C  9.35600 49.87700 41.14100
C  10.51700 50.86400 41.32700
C  9.78800 52.23100 41.21900
C  11.24400 50.73800 42.73100
C  9.40900 49.13100 39.74900
C  9.10300 50.08800 38.52800
H  8.05300 49.56900 37.53600
N  8.98800 55.21600 41.54400
C  10.21300 54.80600 41.14200
C  11.16200 55.92900 40.99200
C  10.37600 57.09800 41.29800
C  8.99800 56.61700 41.62800
C  12.61600 55.83500 40.53400
C  10.94000 58.52700 41.36100
O  12.08400 58.77300 41.05100
C  10.09700 59.72700 41.81200
N  6.11300 55.55300 41.79800
C  6.50900 56.86600 41.97700
C  5.39000 57.85800 41.83500
C  4.11100 56.97100 41.91500
C  4.73400 55.58400 41.77700
C  5.29800 59.13000 42.72600
C  3.09500 57.21900 40.78600
C  1.63400 57.16800 41.22500
N  5.65600 52.65400 41.93600
C  4.27500 53.01700 41.97300
C  3.50700 51.75900 42.16800
C  4.41600 50.71300 42.05800
C  5.65900 51.29300 41.78900
C  2.03400 51.72700 42.54900
C  4.62900 49.26800 42.06300
O  3.83300 48.37300 42.45100
C  6.09000 48.95500 41.59800
C  6.03700 48.22500 40.30500
O  5.38100 48.61300 39.35900
O  6.59800 46.93800 40.51400
C  6.31900 45.99800 39.36500
H  11.61500 53.11100 41.00000
H  7.83000 58.35500 42.08500
H  2.84000 54.71600 41.99800
H  9.26500 49.00500 41.78800
H  11.28700 50.74600 40.56500
H  12.29300 50.47000 42.60600
H  10.79400 50.21400 43.57500
H  11.31200 51.75500 43.11600
H  8.89700 48.16900 39.77600
H  10.43400 48.76400 39.68900
H  10.02900 50.19800 37.96300
H  8.87700 51.10000 38.86400
H  12.74200 54.95500 39.90200
H  13.28500 55.73800 41.38900
H  13.00500 56.69400 39.98700
H  9.33800 59.86100 41.04000
H  10.67900 60.64900 41.79600
H  9.69000 59.47000 42.79000
H  5.43100 58.30600 40.84200
H  3.69000 56.89600 42.91800
H  6.21400 59.16600 43.31600
H  4.45800 58.98400 43.40600
H  5.20200 59.95200 42.01700
H  3.14400 56.61300 39.88100
H  3.25700 58.24200 40.44800
H  1.08800 56.44400 40.62000
H  1.13700 58.10600 40.97700
H  1.50000 57.02100 42.29700
H  1.72300 52.76600 42.65900
H  1.71700 51.27900 43.49000
H  1.48500 51.25700 41.73300
H  6.49400 48.33300 42.39600
H  5.88800 45.07700 39.75800
H  7.27300 45.70200 38.92600
H  5.66800 46.36700 38.57200
Mg 0.82500 43.91900 26.23200
C  3.23300 43.90300 28.76300
C  -1.50600 42.90500 28.56300
C  -1.33200 43.66200 23.70200
C  3.45000 44.16100 23.90200
N  0.87000 43.44700 28.45200
C  1.96700 43.60400 29.24400
C  1.59900 43.42400 30.72900
C  0.17500 42.82900 30.52800
C  -0.23400 43.11500 29.11700
C  -0.05900 41.34400 31.00600
C  1.61700 44.84400 31.41700
C  1.54700 44.99600 32.95400
H  1.26600 43.79700 33.89200
N  -1.18900 43.38800 26.17200
C  -1.94100 43.03000 27.19700
C  -3.26300 42.74000 26.72400
C  -3.26200 43.02200 25.30400
C  -1.89500 43.36900 24.99100
C  -4.43000 42.19200 27.49900
C  -4.37800 42.97400 24.24400
O  -4.16900 43.38500 23.11500
C  -5.84300 42.69000 24.57800
N  1.08100 43.91800 24.06900
C  -0.00300 43.81100 23.28200
C  0.44100 43.85900 21.78900
C  1.96900 44.08300 21.90500
C  2.21100 43.98100 23.38200
C  0.01400 42.66600 20.95900
C  2.46700 45.39900 21.14100
C  1.99900 46.73500 21.90700
N  2.90300 44.19400 26.21700
C  3.88500 44.29400 25.25800
C  5.17700 44.43900 25.85600
C  4.96900 44.25800 27.22900
C  3.57100 44.11900 27.42300
C  6.46400 44.38800 25.08500
C  5.64700 44.04500 28.49200
O  6.80100 43.69900 28.70500
C  4.63300 44.13700 29.55600
C  4.92700 43.05700 30.64300
O  5.00600 41.85200 30.35500
O  4.97400 43.63200 31.86500
C  5.27300 42.71300 32.98400
H  -2.25400 42.59000 29.29400
H  -1.94100 43.50500 22.80900
H  4.23800 44.31700 23.16200
H  2.26700 42.70000 31.19700
H  -0.54900 43.34800 31.15500
H  -0.54500 40.64800 30.32300
H  -0.60700 41.36800 31.94700
H  0.86900 40.87000 31.32600
H  0.72000 45.32200 31.02500
H  2.45300 45.45300 31.07400
H  0.83100 45.80700 33.09100
H  2.48600 45.40600 33.32300
H  -5.21200 42.93500 27.34100
H  -4.14600 42.21400 28.55100
H  -4.85500 41.25200 27.14800
H  -6.09100 41.66400 24.84800
H  -6.53500 42.78400 23.74100
H  -6.19500 43.41100 25.31500
H  -0.06800 44.70900 21.33500
H  2.45100 43.17000 21.55400
H  -0.27600 41.99500 21.76700
H  0.77900 42.21800 20.32500
H  -0.88500 42.94400 20.40800
H  2.08500 45.38400 20.12000
H  3.55600 45.39900 21.13100
H  2.27400 47.55700 21.24700
H  2.55900 46.79400 22.84000
H  0.92800 46.93900 21.92900
H  6.32400 44.88800 24.12600
H  6.61800 43.35300 24.77900
H  7.28500 44.92000 25.56700
H  4.64400 45.12100 30.02500
H  5.08600 43.26900 33.90300
H  6.31400 42.39300 32.93600
H  4.62700 41.83600 32.94500

