158

Mg 35.56100 2.11000 29.31400
C  33.21900 3.41900 31.61700
C  37.85800 2.03400 31.78700
C  37.92800 1.21000 27.03100
C  33.18400 2.43800 26.87300
N  35.55500 2.70600 31.45700
C  34.45100 3.08300 32.18300
C  34.75500 3.01600 33.65200
C  36.33900 2.94900 33.70800
C  36.62500 2.44500 32.25900
C  37.09600 4.26600 34.07900
C  33.97900 1.84500 34.35900
C  33.87800 1.88200 35.86200
H  34.38100 3.20100 36.51100
N  37.56200 1.59200 29.41500
C  38.33500 1.65500 30.50300
C  39.72100 1.33600 30.23400
C  39.64800 0.89200 28.89200
C  38.26700 1.21300 28.38600
C  40.85800 1.50800 31.21500
C  40.79400 0.31000 28.07300
O  40.75600 -0.06000 26.91900
C  42.03800 0.02500 28.80000
N  35.62300 1.85200 27.20000
C  36.65700 1.49800 26.48800
C  36.30300 1.44400 24.97500
C  34.73100 1.64300 24.99400
C  34.46200 1.93200 26.47900
C  37.17700 2.41500 24.10600
C  33.96400 0.43200 24.32400
C  33.41600 -0.69300 25.16700
N  33.58300 2.79700 29.20500
C  32.76800 2.95300 28.10100
C  31.47400 3.48700 28.49000
C  31.58200 3.70600 29.87600
C  32.89500 3.26400 30.25100
C  30.16900 3.65200 27.72300
C  30.92900 4.17000 31.05900
O  29.86000 4.70500 31.17600
C  31.89800 3.84900 32.27800
C  31.99200 5.08300 33.06900
O  32.50100 6.11500 32.65400
O  31.41200 4.98300 34.33300
C  31.36100 6.18700 35.16000
H  38.61000 2.20200 32.56100
H  38.69600 0.88400 26.32600
H  32.35800 2.38400 26.16000
H  34.42300 3.92700 34.15000
H  36.71000 2.21900 34.42700
H  37.82200 4.05000 34.86200
H  36.38800 4.95700 34.53700
H  37.66600 4.66200 33.23800
H  34.52300 0.92500 34.14600
H  33.00000 1.74200 33.89200
H  34.51200 1.08500 36.25000
H  32.87800 1.55600 36.14600
H  41.02400 0.55300 31.71500
H  40.48500 2.15500 32.00900
H  41.70700 2.07300 30.82900
H  42.69300 0.89500 28.84500
H  42.43100 -0.77300 28.16900
H  41.79400 -0.37100 29.78500
H  36.64600 0.47200 24.62200
H  34.38700 2.52900 24.46000
H  36.60800 3.17200 23.56600
H  37.79400 1.78600 23.46400
H  37.85000 2.97700 24.75300
H  34.53200 0.03500 23.48300
H  33.08000 0.92200 23.91700
H  33.62500 -1.62700 24.64700
H  32.32700 -0.65600 25.16700
H  33.80700 -0.64500 26.18400
H  29.84500 2.66500 27.39500
H  30.21900 4.31100 26.85500
H  29.42300 4.14200 28.35000
H  31.52100 3.00300 32.85300
H  31.96200 7.03800 34.84100
H  31.74100 5.77100 36.09200
H  30.30900 6.44600 35.28600
Mg 41.24500 8.82500 29.42800
C  42.99400 9.51100 32.43100
C  39.11900 6.82700 31.25100
C  39.94800 7.81600 26.48300
C  44.06200 10.02700 27.70900
N  41.20400 8.21600 31.62800
C  41.79100 8.87600 32.69800
C  41.16300 8.57900 34.05600
C  40.00100 7.59100 33.65000
C  40.03200 7.59800 32.07000
C  40.26300 6.10900 34.07200
C  40.62200 9.97800 34.67000
C  40.72400 10.20100 36.16100
H  41.19800 11.60900 36.80700
N  39.63900 7.66300 28.99700
C  38.90400 6.92500 29.88600
C  37.80500 6.31200 29.11700
C  37.94600 6.75100 27.71900
C  39.21000 7.43600 27.67300
C  36.75400 5.40100 29.78300
C  37.09800 6.50800 26.49400
O  37.47600 6.86600 25.36400
C  35.77300 5.74600 26.58200
N  41.94300 8.93500 27.32200
C  41.19800 8.43800 26.34200
C  41.76300 8.85300 24.99600
C  43.05400 9.66700 25.39600
C  43.07700 9.55700 26.87000
C  42.10600 7.61300 24.14900
C  43.00200 11.14700 24.97800
C  41.78600 12.01400 25.16400
N  43.14500 9.59600 29.86900
C  44.15100 10.05700 29.08300
C  45.24400 10.65100 29.85000
C  44.81300 10.49800 31.19800
C  43.54000 9.81900 31.11500
C  46.55600 11.36600 29.40800
C  45.19000 10.80200 32.51800
O  46.11300 11.45200 32.99500
C  44.00000 10.12900 33.44700
C  44.52700 9.09400 34.44700
O  44.46200 7.87300 34.37800
O  45.18600 9.77100 35.39400
C  45.63600 8.98100 36.54400
H  38.29200 6.36300 31.79300
H  39.61900 7.45200 25.50700
H  44.81300 10.61400 27.17600
H  41.85300 8.09600 34.74800
H  39.04300 7.92700 34.04800
H  39.53700 5.83300 34.83600
H  41.28000 5.98000 34.44400
H  40.25800 5.42900 33.22000
H  39.54300 10.05700 34.53800
H  41.05800 10.76600 34.05600
H  41.34000 9.38900 36.54600
H  39.76500 9.97600 36.62900
H  37.06700 4.97900 30.73800
H  36.58500 4.51800 29.16700
H  35.82600 5.93100 29.99500
H  35.18300 6.38900 27.23500
H  35.96700 4.87500 27.20800
H  35.41400 5.61600 25.56100
H  41.05000 9.46800 24.44700
H  43.93300 9.12700 25.04600
H  42.08300 6.74800 24.81200
H  43.02900 7.62400 23.57100
H  41.36800 7.41600 23.37200
H  42.96000 11.20100 23.89000
H  43.99600 11.51100 25.23800
H  42.18000 13.00800 25.37800
H  41.14600 11.67500 25.97800
H  41.26200 12.21600 24.23000
H  46.33900 12.37100 29.76900
H  46.52000 11.43100 28.32100
H  47.38200 10.85500 29.90400
H  43.52300 10.90600 34.04400
H  46.38300 9.56300 37.08400
H  46.09100 8.02900 36.27200
H  44.75200 8.89000 37.17400

