158

Mg 24.99700 -7.48200 47.37200
C  27.04200 -5.05000 45.83800
C  22.38300 -6.26200 45.24900
C  23.08500 -10.31000 47.94100
C  27.74600 -8.98700 48.71100
N  24.77200 -5.81200 45.63000
C  25.75900 -4.94100 45.28100
C  25.18000 -3.93400 44.27300
C  23.57800 -4.14700 44.31200
C  23.51700 -5.44000 45.15500
C  22.91800 -3.00200 45.06100
C  25.86000 -4.19600 42.87200
C  26.55200 -2.98800 42.18200
H  25.75100 -2.26200 41.06600
N  22.93400 -8.15100 46.72900
C  22.07600 -7.53600 45.96100
C  20.81200 -8.12200 46.01700
C  20.91200 -9.25900 46.82400
C  22.35600 -9.31400 47.21700
C  19.65500 -7.47300 45.30200
C  19.91600 -10.32400 47.12100
O  18.82700 -10.27500 46.49700
C  20.11100 -11.32400 48.21900
N  25.37300 -9.33200 48.20200
C  24.45700 -10.33100 48.32000
C  25.02000 -11.49200 49.18700
C  26.52100 -11.18900 49.08600
C  26.54900 -9.71500 48.63900
C  24.41300 -11.65400 50.68600
C  27.40200 -12.15700 48.11300
C  28.54700 -13.06400 48.85500
N  26.91800 -6.96300 47.58000
C  27.96900 -7.72700 48.13100
C  29.22200 -6.99600 48.01200
C  28.84900 -5.93100 47.17800
C  27.47000 -5.98000 46.83400
C  30.54500 -7.31100 48.61000
C  29.30300 -4.70900 46.51000
O  30.41400 -4.21400 46.50500
C  28.16900 -4.17300 45.53700
C  27.98900 -2.75400 45.78600
O  27.32000 -2.31100 46.72800
O  28.76200 -2.02300 44.91600
C  28.78000 -0.55500 45.22100
H  21.52200 -5.85200 44.71800
H  22.57000 -11.23700 48.20100
H  28.60200 -9.57100 49.05600
H  25.49300 -2.99300 44.72400
H  23.17200 -4.22400 43.30400
H  22.69500 -3.40800 46.04800
H  21.99400 -2.72700 44.55300
H  23.47900 -2.12600 45.38500
H  25.04100 -4.51100 42.22600
H  26.63700 -4.95300 42.98200
H  27.49200 -3.34400 41.76100
H  26.84100 -2.20900 42.88700
H  18.68700 -7.97100 45.34400
H  19.97800 -7.40000 44.26400
H  19.43800 -6.51900 45.78200
H  19.17200 -11.65200 48.66500
H  20.74300 -10.70300 48.85300
H  20.55500 -12.20200 47.74800
H  24.88600 -12.42200 48.63400
H  27.03300 -11.17800 50.04700
H  25.16500 -11.37900 51.42600
H  24.13400 -12.69800 50.83000
H  23.54700 -11.00200 50.79300
H  27.83300 -11.49000 47.36600
H  26.80000 -12.90600 47.59800
H  28.41700 -12.92000 49.92800
H  29.50500 -12.70800 48.47500
H  28.44700 -14.14100 48.72000
H  30.93600 -8.19200 48.10000
H  30.54700 -7.46900 49.68800
H  31.22600 -6.49100 48.37800
H  28.54000 -4.33400 44.52500
H  27.73900 -0.23700 45.27600
H  29.43000 0.02000 44.56100
H  29.06900 -0.32900 46.24800
Mg 46.50600 24.94600 29.16100
C  47.11000 27.31200 31.63600
C  45.51500 22.74200 31.56700
C  46.46400 22.64400 26.87800
C  48.17300 27.21100 26.87500
N  46.23500 25.10400 31.34200
C  46.55100 26.14400 32.12300
C  46.08700 25.85400 33.52100
C  45.80900 24.30500 33.53600
C  45.96900 23.96100 32.07200
C  46.63900 23.44400 34.45800
C  44.95100 26.78300 34.12600
C  45.17900 27.62500 35.46000
H  45.73400 26.87000 36.66000
N  45.90000 22.98700 29.17900
C  45.47400 22.27200 30.24300
C  45.04000 20.92200 29.83700
C  45.28800 20.85700 28.38500
C  45.96300 22.17400 28.08700
C  44.44500 19.88700 30.66200
C  44.88800 19.77700 27.35500
O  45.16100 19.89000 26.18400
C  44.10600 18.57200 27.75400
N  47.17300 25.01200 27.15800
C  47.10100 23.84900 26.42800
C  47.67900 24.03800 24.96300
C  48.27600 25.46400 25.11000
C  47.81000 25.93000 26.44300
C  48.83100 23.03900 24.69600
C  47.78300 26.34400 23.92300
C  48.73200 26.55400 22.75700
N  47.38500 26.95100 29.18000
C  47.98400 27.68000 28.18900
C  48.34200 28.93300 28.64900
C  48.01500 28.90700 30.05700
C  47.47100 27.61600 30.31300
C  49.16300 29.98800 27.94200
C  48.12300 29.62800 31.31500
O  48.52400 30.80900 31.51300
C  47.57600 28.50700 32.42200
C  48.57800 28.04800 33.45700
O  49.22900 27.00800 33.40700
O  48.70800 29.07600 34.35700
C  49.51400 28.74800 35.52500
H  45.17800 22.04500 32.33700
H  46.37700 21.87500 26.10800
H  48.67300 27.86000 26.15300
H  46.96700 25.97600 34.15200
H  44.76900 24.06300 33.75600
H  47.34100 22.76200 33.97800
H  46.02600 22.83400 35.12200
H  47.20300 24.04500 35.17200
H  44.02800 26.25400 34.36200
H  44.62700 27.46800 33.34300
H  44.17000 27.93600 35.73100
H  45.91100 28.35500 35.11500
H  43.55500 19.45000 30.20900
H  44.11600 20.19200 31.65600
H  45.03900 18.99200 30.84600
H  43.06400 18.86500 27.87900
H  44.52900 18.08200 28.63000
H  44.17100 17.84700 26.94200
H  46.80000 23.81700 24.35700
H  49.36500 25.42800 25.08600
H  49.41300 23.48100 23.88800
H  48.35100 22.10300 24.41100
H  49.46100 22.76000 25.54000
H  47.52500 27.34700 24.26200
H  46.88700 25.87800 23.51400
H  49.26300 27.50500 22.70200
H  48.02600 26.53300 21.92600
H  49.45200 25.74600 22.63500
H  49.48800 29.59700 26.97800
H  49.96100 30.39600 28.56300
H  48.59200 30.89400 27.73600
H  46.81800 28.91900 33.08700
H  48.85200 28.54500 36.36600
H  50.09600 29.57300 35.93600
H  50.22100 27.92600 35.41300

