158

Mg 44.27800 5.23700 47.35300
C  42.16600 8.20700 47.34700
C  41.33500 3.50600 47.14400
C  46.11300 2.77000 46.90700
C  47.00200 7.50200 47.16500
N  42.06100 5.87100 47.24800
C  41.42200 7.06800 47.19100
C  39.88200 6.94700 47.02500
C  39.68500 5.39700 46.94800
C  41.15300 4.86900 47.18300
C  38.64900 4.81400 47.91300
C  39.09800 7.73100 45.88900
C  39.85100 8.09700 44.57100
H  39.07700 7.59900 43.28400
N  43.78700 3.38200 47.01400
C  42.57900 2.82900 47.05700
C  42.77000 1.43900 46.75600
C  44.13300 1.14600 46.64000
C  44.78000 2.46200 46.78400
C  41.55500 0.48700 46.75300
C  44.81700 -0.21200 46.37700
O  44.11500 -1.21000 46.35800
C  46.16500 -0.37100 46.16800
N  46.30100 5.18500 46.97600
C  46.84500 3.93800 47.00100
C  48.40800 3.94500 46.97600
C  48.62200 5.48800 47.17300
C  47.22500 6.14900 47.11400
C  49.00900 3.09600 48.07300
C  49.44800 6.01400 45.97300
C  50.96600 5.78700 46.09700
N  44.59000 7.39700 47.38600
C  45.75900 8.11300 47.28700
C  45.50000 9.51600 47.30200
C  44.09200 9.57300 47.35700
C  43.55300 8.30100 47.43900
C  46.50100 10.63800 46.95800
C  42.96900 10.55100 47.37800
O  42.91500 11.74200 47.26500
C  41.67300 9.65500 47.19000
C  40.55100 10.02100 48.15000
O  40.41200 9.67400 49.27700
O  39.80300 11.07700 47.64200
C  38.86800 11.76100 48.57300
H  40.45200 2.88000 47.00000
H  46.80500 1.92900 46.82100
H  47.82100 8.22500 47.16300
H  39.52700 7.39200 47.95400
H  39.50600 5.19600 45.89200
H  37.88100 5.58800 47.91900
H  39.09000 4.75400 48.90800
H  38.24500 3.88000 47.52300
H  38.72900 8.66100 46.32200
H  38.21600 7.13300 45.66200
H  40.89900 7.80300 44.63100
H  39.80400 9.17800 44.43600
H  41.63400 -0.37400 46.09000
H  40.76000 0.95700 46.17500
H  41.26800 0.30200 47.78800
H  46.56300 0.25800 45.37200
H  46.51900 -1.37100 45.91800
H  46.81300 -0.18100 47.02400
H  48.62900 3.59300 45.96800
H  49.09300 5.65300 48.14200
H  48.21100 2.70500 48.70400
H  49.61900 3.69500 48.75000
H  49.45500 2.18800 47.66800
H  49.26400 7.08000 45.83800
H  49.13700 5.50100 45.06300
H  51.30700 4.99100 45.43400
H  51.30100 5.51900 47.09900
H  51.49100 6.72700 45.93200
H  46.04300 11.57500 47.27200
H  46.69400 10.58300 45.88700
H  47.43400 10.50000 47.50400
H  41.21900 9.89000 46.22700
H  39.50700 11.96900 49.43100
H  38.03200 11.17900 48.96100
H  38.47600 12.64800 48.07600
Mg 1.53700 41.93400 25.35000
C  2.45700 42.00800 28.70900
C  -1.29400 40.23700 26.51600
C  0.81200 40.99200 22.16900
C  4.79200 42.61700 24.32900
N  0.58600 41.40100 27.46700
C  1.16500 41.62000 28.63600
C  0.19700 41.26000 29.78600
C  -0.97700 40.46000 29.01400
C  -0.47000 40.58100 27.57800
C  -1.27300 39.00900 29.46400
C  -0.26900 42.40900 30.64800
C  -0.19300 42.28400 32.19700
H  -0.59700 40.91900 32.79700
N  -0.09700 40.97900 24.51000
C  -1.16600 40.44000 25.15100
C  -2.13200 40.13200 24.10100
C  -1.51300 40.27000 22.87800
C  -0.20100 40.80500 23.10600
C  -3.49600 39.68200 24.51600
C  -2.23600 40.07300 21.51300
O  -1.71700 40.21800 20.44000
C  -3.59400 39.39900 21.42500
N  2.62700 41.73700 23.54300
C  2.09700 41.36500 22.33600
C  3.04600 41.65100 21.17000
C  4.16700 42.50100 21.96100
C  3.87600 42.21800 23.34700
C  3.50400 40.45400 20.35200
C  4.31100 44.02100 21.62700
C  2.97600 44.81600 21.32600
N  3.20300 42.33500 26.27800
C  4.50000 42.62600 25.74400
C  5.35900 42.99000 26.86600
C  4.62500 42.63300 28.00900
C  3.30000 42.32300 27.61000
C  6.76100 43.34500 26.78400
C  4.67500 42.66100 29.47700
O  5.62100 42.97400 30.19600
C  3.32600 42.17200 29.96600
C  3.52900 40.88000 30.61000
O  3.99500 39.92600 30.01600
O  3.23000 40.96700 31.92100
C  3.54200 39.78800 32.63400
H  -2.18800 39.73300 26.88700
H  0.52400 40.59700 21.19300
H  5.75000 42.98800 23.95900
H  0.69700 40.57500 30.47100
H  -1.89400 41.03200 28.87300
H  -0.63900 38.67900 30.28700
H  -1.00800 38.31600 28.66500
H  -2.29000 38.85500 29.82600
H  -1.29200 42.64800 30.35700
H  0.33100 43.29600 30.44500
H  -0.87800 43.04200 32.57600
H  0.77900 42.53700 32.62000
H  -3.70600 39.83400 25.57500
H  -3.42200 38.60800 24.34500
H  -4.23400 40.18400 23.89100
H  -4.35600 40.17500 21.35600
H  -3.81300 38.60500 22.13900
H  -3.55100 38.91300 20.45100
H  2.49800 42.27400 20.46300
H  5.07600 42.01700 21.60500
H  2.94500 39.57000 20.65800
H  4.57000 40.23300 20.41200
H  3.26200 40.59400 19.29900
H  4.80400 44.01500 20.65500
H  4.89200 44.66100 22.29100
H  2.11200 44.15500 21.39000
H  3.15000 45.32700 20.37900
H  2.87400 45.55800 22.11800
H  6.90300 44.29000 27.30800
H  7.22400 43.56100 25.82200
H  7.32300 42.54600 27.26900
H  2.96100 42.92900 30.66000
H  4.46800 39.35100 32.25900
H  2.75600 39.06900 32.40100
H  3.52700 39.91900 33.71600

