158

Mg 17.80400 -2.04200 28.04700
C  16.93600 -0.08500 30.83200
C  19.97600 -3.77300 29.94100
C  19.25900 -3.09700 25.25000
C  15.81200 0.26000 26.26800
N  18.31600 -1.87600 30.13400
C  17.87800 -1.06400 31.15600
C  18.31500 -1.54800 32.50500
C  19.36700 -2.62300 32.13700
C  19.19500 -2.87600 30.66200
C  20.84600 -2.33900 32.60200
C  17.00600 -2.10100 33.33300
C  17.06900 -1.71600 34.87200
H  18.49200 -1.92200 35.44000
N  19.29400 -3.44000 27.64200
C  20.03400 -4.04600 28.54000
C  20.75700 -5.08800 27.89900
C  20.52200 -5.05200 26.50100
C  19.70100 -3.79700 26.41400
C  21.63000 -6.11600 28.60500
C  20.89000 -5.97900 25.38400
O  20.60100 -5.68200 24.24900
C  21.76100 -7.16900 25.64400
N  17.56600 -1.51500 26.08500
C  18.35100 -2.00200 25.08100
C  17.87800 -1.45900 23.69200
C  16.70200 -0.53500 24.05100
C  16.68100 -0.63100 25.55400
C  18.95300 -0.64900 22.90600
C  15.35900 -0.92400 23.34700
C  14.56400 0.22200 22.79000
N  16.43800 -0.33500 28.42900
C  15.67700 0.44200 27.61700
C  14.87700 1.42900 28.33900
C  15.40300 1.35700 29.62800
C  16.27800 0.24900 29.62800
C  13.92500 2.37300 27.71100
C  15.36200 1.92000 30.97400
O  14.81400 2.90100 31.45900
C  16.44400 0.98000 31.78300
C  17.58000 1.90900 32.30500
O  18.62200 2.15500 31.79400
O  17.03500 2.49200 33.42700
C  17.88900 3.38900 34.15900
H  20.66200 -4.47400 30.42100
H  19.78300 -3.46900 24.36700
H  15.24500 0.95000 25.63800
H  18.85400 -0.71900 32.96400
H  19.16800 -3.54400 32.68500
H  20.86700 -1.86600 33.58400
H  21.44900 -1.76600 31.89900
H  21.41900 -3.24700 32.79100
H  16.88500 -3.14800 33.05300
H  16.14800 -1.56900 32.92400
H  16.41500 -2.33500 35.48600
H  16.71300 -0.70400 35.06500
H  22.53200 -6.41200 28.07000
H  21.07000 -7.04100 28.74700
H  21.98500 -5.67900 29.53800
H  22.71800 -6.85100 26.05800
H  21.83200 -7.57700 24.63600
H  21.28900 -7.87000 26.33100
H  17.53700 -2.32800 23.12900
H  16.82600 0.49600 23.71700
H  19.90100 -0.82600 23.41600
H  18.76000 0.41800 22.79900
H  19.07100 -1.13900 21.94000
H  14.73900 -1.31100 24.15600
H  15.50400 -1.75100 22.65100
H  14.96500 1.18900 23.09300
H  13.56000 0.24700 23.21300
H  14.40200 0.08100 21.72100
H  14.49200 3.26900 27.45500
H  13.12300 2.54400 28.42800
H  13.59900 1.85700 26.80700
H  15.86900 0.57500 32.61600
H  18.92600 3.35800 33.82400
H  17.80500 3.08300 35.20200
H  17.30400 4.28100 33.93500
Mg 43.27900 3.88700 47.09900
C  41.36000 6.84900 47.09400
C  40.29000 2.11600 46.74700
C  45.01600 1.20800 46.25400
C  46.08400 6.00600 46.50100
N  41.09000 4.49800 46.94500
C  40.51400 5.72300 47.06200
C  38.96800 5.66400 47.08200
C  38.79900 4.10500 47.11800
C  40.15700 3.47400 46.88300
C  38.15300 3.58800 48.43200
C  38.26200 6.36800 45.86300
C  39.19600 6.92100 44.76000
H  38.80600 6.38900 43.36100
N  42.75300 1.87000 46.85600
C  41.49000 1.31400 46.69700
C  41.54600 -0.04300 46.42700
C  42.95200 -0.39800 46.32500
C  43.63800 0.86800 46.53400
C  40.34200 -0.89300 46.22500
C  43.44100 -1.89200 46.07400
O  42.63500 -2.82800 45.86200
C  44.85500 -2.29600 46.03300
N  45.21600 3.65600 46.36100
C  45.71800 2.39400 46.16400
C  47.15400 2.49400 45.68000
C  47.54700 3.97800 45.98200
C  46.18400 4.64600 46.29800
C  48.02500 1.46500 46.39800
C  48.53500 4.71300 44.99000
C  49.87800 4.95600 45.62300
N  43.70400 6.04600 46.75800
C  44.94500 6.72300 46.65300
C  44.65300 8.18700 46.75000
C  43.26800 8.26400 46.97000
C  42.74300 6.94700 46.97300
C  45.75600 9.23800 46.65800
C  42.19700 9.17100 47.29600
O  42.22400 10.39100 47.34900
C  40.91600 8.28900 47.31200
C  40.08900 8.54100 48.49600
O  40.10800 7.81700 49.46000
O  39.28000 9.59700 48.33200
C  38.28800 10.07800 49.27000
H  39.28800 1.70900 46.59900
H  45.53400 0.30400 45.92900
H  47.03300 6.53400 46.61600
H  38.65800 6.13000 48.01800
H  38.21500 3.64000 46.32400
H  37.72500 4.40900 49.00600
H  38.93200 3.14500 49.05300
H  37.39100 2.85400 48.17100
H  37.72200 7.23800 46.23700
H  37.52700 5.73500 45.36600
H  40.23600 6.60600 44.84300
H  39.06500 8.00300 44.77700
H  39.85000 -0.80100 45.25700
H  39.55800 -0.62800 46.93500
H  40.46400 -1.94800 46.46800
H  45.44600 -1.88200 46.85000
H  45.16400 -1.94400 45.04900
H  44.99100 -3.37700 46.03700
H  47.16700 2.30400 44.60700
H  48.02600 3.81400 46.94700
H  48.90400 1.91400 46.86000
H  48.26900 0.79300 45.57500
H  47.51000 0.99800 47.23700
H  48.16800 5.71100 44.75000
H  48.52700 4.20900 44.02300
H  50.62000 4.47900 44.98200
H  49.95400 4.49100 46.60500
H  49.98000 6.03300 45.75500
H  46.13200 9.48600 47.65000
H  45.39900 10.20500 46.30400
H  46.58600 8.89600 46.04000
H  40.30000 8.64100 46.48400
H  38.28200 9.43100 50.14700
H  37.38300 10.03500 48.66400
H  38.58200 11.10000 49.51200

