158

Mg 25.99100 -0.55500 28.74300
C  27.63000 -0.91900 31.79100
C  23.01400 -0.05800 30.61400
C  24.28400 -0.22400 25.98000
C  28.85300 -1.60800 27.14300
N  25.43900 -0.24700 31.04100
C  26.35600 -0.39700 32.02600
C  25.65300 -0.25800 33.37000
C  24.13900 -0.06600 33.02300
C  24.19700 -0.10600 31.47500
C  23.15000 -1.21700 33.54400
C  26.24500 0.84800 34.25600
C  26.74600 0.40100 35.69500
H  26.42300 1.37200 36.77500
N  23.89200 -0.21700 28.35800
C  22.87000 -0.03000 29.25300
C  21.63700 0.22500 28.48600
C  22.02600 0.40600 27.10500
C  23.43200 -0.05100 27.10000
C  20.21400 0.46500 29.08500
C  21.24300 0.89400 25.91500
O  21.73900 0.76900 24.82900
C  19.88000 1.57300 26.11600
N  26.54900 -0.87400 26.79200
C  25.64700 -0.70200 25.78500
C  26.32900 -0.83100 24.38600
C  27.68600 -1.55500 24.76900
C  27.73400 -1.33200 26.33900
C  25.40800 -1.53200 23.34100
C  28.92500 -1.01200 23.97800
C  28.80300 -0.61500 22.50800
N  27.84500 -1.14300 29.33500
C  28.92700 -1.44500 28.57700
C  30.08100 -1.67600 29.37600
C  29.62800 -1.44900 30.68300
C  28.25500 -1.18500 30.60800
C  31.43100 -2.13900 28.83800
C  30.03400 -1.49500 32.04000
O  31.07400 -1.71500 32.52400
C  28.76000 -1.17800 32.80100
C  28.40300 -2.31900 33.74800
O  27.56200 -3.17200 33.48100
O  29.11900 -2.29900 34.93700
C  28.68000 -3.29300 35.92300
H  22.17400 0.22200 31.25300
H  23.90200 -0.01100 24.97900
H  29.76300 -1.97300 26.66300
H  25.52400 -1.14000 33.99800
H  23.70500 0.89100 33.31200
H  23.53500 -2.16000 33.93200
H  22.26700 -1.44200 32.94600
H  22.81200 -0.74500 34.46600
H  25.44900 1.55000 34.50300
H  27.06600 1.26600 33.67300
H  27.80200 0.27800 35.45500
H  26.29100 -0.57500 35.86300
H  19.97900 -0.14300 29.95800
H  19.46900 0.15300 28.35300
H  19.94800 1.51200 29.22900
H  19.92700 2.29500 26.93100
H  19.15500 0.81700 26.42100
H  19.50200 2.12200 25.25400
H  26.57700 0.20800 24.17100
H  27.52300 -2.62700 24.65800
H  25.77100 -2.45900 22.89900
H  25.26000 -0.76700 22.57800
H  24.49400 -1.77000 23.88400
H  29.63800 -1.83400 24.03100
H  29.35500 -0.21200 24.58200
H  27.94100 -1.00500 21.96700
H  29.65000 -0.97500 21.92500
H  28.75900 0.46000 22.33400
H  31.51400 -1.84300 27.79300
H  31.68100 -3.17200 29.08300
H  32.13100 -1.51500 29.39400
H  29.02300 -0.31200 33.40800
H  27.72900 -2.92300 36.30500
H  29.34500 -3.26000 36.78700
H  28.73600 -4.36700 35.74900
Mg -10.30600 39.39200 41.76400
C  -8.86500 36.32700 41.06600
C  -7.43200 40.92400 40.48200
C  -11.88900 42.41800 42.01600
C  -13.27100 37.83900 42.47800
N  -8.29500 38.68900 40.91700
C  -7.96600 37.39700 40.72800
C  -6.50300 37.25600 40.19800
C  -6.05100 38.72100 40.19300
C  -7.33100 39.57600 40.59500
C  -4.61500 38.89700 40.86200
C  -6.50100 36.54100 38.75800
C  -5.13100 35.83000 38.45900
H  -4.31900 36.18800 37.23100
N  -9.74600 41.38600 41.35900
C  -8.55500 41.77800 40.79200
C  -8.54400 43.22000 40.62200
C  -9.82200 43.68000 41.10100
C  -10.54000 42.50900 41.59600
C  -7.35400 43.95900 39.93700
C  -10.42100 45.08600 41.01400
O  -9.73000 46.01000 40.64500
C  -11.82600 45.50700 41.45100
N  -12.33100 40.01600 42.18800
C  -12.67100 41.28400 42.31600
C  -14.12600 41.45700 42.86700
C  -14.56300 39.95700 42.92200
C  -13.32800 39.20900 42.41800
C  -14.06100 42.24300 44.23800
C  -15.81500 39.61800 42.09000
C  -17.22900 39.46000 42.80400
N  -11.01900 37.52100 41.69700
C  -12.22000 36.99700 42.05200
C  -12.36000 35.56800 41.92700
C  -11.03500 35.20800 41.62200
C  -10.26200 36.42500 41.46000
C  -13.50000 34.71600 42.42500
C  -10.07500 34.09800 41.42200
O  -10.17900 32.87900 41.59800
C  -8.72800 34.82300 41.04100
C  -7.71200 34.31400 41.98600
O  -7.62300 34.61000 43.17200
O  -6.80500 33.60400 41.27100
C  -5.60100 33.18500 42.00000
H  -6.50000 41.37200 40.13200
H  -12.39800 43.33800 42.31100
H  -14.23200 37.37200 42.70100
H  -5.91100 36.62600 40.86200
H  -5.95000 38.96500 39.13500
H  -4.79800 39.70900 41.56600
H  -3.87200 39.00800 40.07200
H  -4.30300 38.01200 41.41700
H  -6.80600 37.19600 37.94200
H  -7.27000 35.77100 38.82400
H  -5.19700 34.74200 38.46000
H  -4.48700 36.15300 39.27700
H  -6.88100 43.29400 39.21500
H  -6.68300 44.39500 40.67700
H  -7.74500 44.83100 39.41300
H  -11.87700 45.41500 42.53600
H  -12.58600 44.90600 40.95200
H  -12.17300 46.48300 41.11100
H  -14.71000 42.06300 42.17400
H  -14.73800 39.70000 43.96700
H  -13.01300 42.50000 44.39200
H  -14.35400 41.54300 45.02000
H  -14.70000 43.12200 44.32600
H  -15.62200 38.61900 41.70000
H  -15.82100 40.37700 41.30700
H  -17.88700 40.27600 42.50500
H  -17.19600 39.36200 43.88900
H  -17.71200 38.59700 42.34400
H  -14.18700 34.42800 41.62900
H  -14.14400 35.14000 43.19600
H  -13.02700 33.80700 42.79700
H  -8.50800 34.42500 40.05100
H  -5.81500 33.10100 43.06600
H  -4.76700 33.85000 41.77600
H  -5.26800 32.21200 41.64000

