158

Mg 48.19600 33.87400 27.35100
C  46.18000 32.77600 30.00600
C  48.60800 36.89100 29.10800
C  49.28200 35.26500 24.55700
C  46.93500 31.12600 25.48000
N  47.64700 34.65200 29.40300
C  46.84100 33.99800 30.33900
C  46.81900 34.72900 31.60700
C  47.28600 36.19300 31.23300
C  47.90500 35.95700 29.81400
C  46.20700 37.30500 31.24800
C  47.88800 34.06500 32.51500
C  47.56700 34.13800 34.06400
H  48.49800 35.03800 34.97900
N  49.09600 35.78800 26.96000
C  49.20100 36.83600 27.84200
C  50.02900 37.80200 27.22800
C  50.20400 37.39200 25.85300
C  49.54600 36.09600 25.72100
C  50.63900 39.02700 27.84200
C  50.91100 38.07000 24.70000
O  50.93400 37.56000 23.56100
C  51.48300 39.47000 24.81600
N  47.95100 33.45800 25.27300
C  48.61600 34.10800 24.30800
C  48.55800 33.35300 22.99100
C  47.72500 32.09200 23.29200
C  47.57200 32.18300 24.80800
C  47.94100 34.24200 21.82800
C  48.42500 30.72700 22.81700
C  49.60400 30.35600 23.62600
N  47.12700 32.16200 27.73000
C  46.75300 31.07200 26.89800
C  46.00500 30.12300 27.54100
C  45.74900 30.81800 28.77200
C  46.42000 32.02500 28.81800
C  45.44500 28.78000 27.05800
C  44.89900 30.76500 29.92400
O  44.10600 29.88000 30.31200
C  45.15000 32.03700 30.76400
C  45.45200 31.70500 32.17400
O  46.40700 31.10100 32.63500
O  44.43400 32.23200 33.02000
C  44.41100 31.70700 34.44300
H  48.93200 37.77400 29.66300
H  49.85700 35.44500 23.64700
H  46.51500 30.30200 24.90000
H  45.83200 34.77100 32.06800
H  48.10100 36.36800 31.93600
H  45.18200 37.00900 31.47100
H  46.15700 37.71700 30.24000
H  46.46400 38.10200 31.94600
H  48.91300 34.41900 32.40900
H  48.14700 33.04900 32.21800
H  47.56700 33.11400 34.43800
H  46.57600 34.55500 34.23900
H  50.18800 39.96400 27.51500
H  51.70100 39.10600 27.61100
H  50.72000 38.88700 28.92000
H  50.81400 40.18200 25.30000
H  51.68600 39.93100 23.84900
H  52.43200 39.41500 25.35000
H  49.54400 33.07700 22.61600
H  46.74500 32.03600 22.81900
H  47.71100 35.23400 22.21600
H  46.97400 33.82500 21.54800
H  48.60600 34.37500 20.97500
H  48.84400 30.81100 21.81400
H  47.82300 29.82500 22.70800
H  50.39800 30.23200 22.89000
H  49.44600 29.40100 24.12700
H  49.87700 31.07300 24.39900
H  45.41000 28.76800 25.96800
H  44.38200 28.84300 27.29000
H  45.92700 27.92300 27.52800
H  44.15000 32.47100 30.74000
H  44.80700 30.69600 34.54000
H  43.44100 31.70700 34.93900
H  44.99300 32.34300 35.11000
Mg -5.78200 25.13700 25.39100
C  -4.02800 26.44400 28.09200
C  -7.20000 22.83400 27.60600
C  -7.13700 23.50700 22.69200
C  -3.97800 27.23400 23.28500
N  -5.58600 24.75900 27.59700
C  -4.88100 25.43300 28.51100
C  -5.28900 25.01200 29.88600
C  -5.92300 23.63200 29.65700
C  -6.28700 23.74200 28.18400
C  -5.18200 22.37100 30.10700
C  -6.17200 26.04100 30.55100
C  -6.19500 26.09100 32.11600
H  -5.51200 25.00600 32.98100
N  -7.09200 23.52700 25.19900
C  -7.59100 22.75800 26.20900
C  -8.51800 21.78500 25.71100
C  -8.54400 21.97700 24.27700
C  -7.54100 23.09100 23.94400
C  -9.04200 20.61100 26.49100
C  -9.35600 21.15800 23.26700
O  -9.42100 21.35400 22.05400
C  -10.30200 20.01400 23.72600
N  -5.44100 25.24000 23.32000
C  -6.20700 24.46300 22.42200
C  -5.90400 24.87200 21.01200
C  -5.05600 26.18400 21.14000
C  -4.76700 26.22600 22.63200
C  -5.22600 23.89800 20.01700
C  -5.84100 27.38900 20.50500
C  -7.02900 28.02600 21.13700
N  -4.34600 26.54900 25.66400
C  -3.64900 27.22500 24.67500
C  -2.79400 28.16400 25.25200
C  -2.83300 27.89800 26.63500
C  -3.84000 26.88400 26.82200
C  -1.96800 29.32700 24.65200
C  -2.34400 28.21400 27.93500
O  -1.53000 29.06600 28.24900
C  -3.13800 27.31900 28.97400
C  -2.16400 26.54000 29.85300
O  -1.38900 25.63600 29.51300
O  -2.41900 26.97300 31.14800
C  -1.59500 26.33300 32.18300
H  -7.51000 22.14300 28.39200
H  -7.49600 22.99200 21.79800
H  -3.33900 27.79700 22.60200
H  -4.41900 24.94000 30.53800
H  -6.82800 23.58900 30.26200
H  -5.08000 21.67000 29.27800
H  -5.77600 21.81800 30.83400
H  -4.25300 22.68100 30.58600
H  -7.19000 25.87200 30.19800
H  -5.82200 27.01800 30.21700
H  -7.21900 26.03100 32.48600
H  -5.84500 27.04400 32.51300
H  -8.71900 20.74500 27.52300
H  -8.73000 19.65500 26.07200
H  -10.13100 20.65500 26.53300
H  -11.13200 20.42300 24.30100
H  -9.62100 19.32300 24.22400
H  -10.68400 19.46800 22.86300
H  -6.83400 25.04000 20.46900
H  -4.21200 26.16400 20.45000
H  -5.51000 22.84600 20.03700
H  -4.15600 23.97600 20.21000
H  -5.63300 24.14400 19.03600
H  -6.00600 27.17300 19.44900
H  -5.04300 28.12800 20.42700
H  -6.80800 28.98300 21.60900
H  -7.45800 27.28400 21.81100
H  -7.85000 28.21600 20.44500
H  -0.94800 28.99100 24.46900
H  -1.97700 30.15200 25.36400
H  -2.44800 29.60700 23.71400
H  -3.78400 27.91900 29.61600
H  -1.72600 26.92900 33.08600
H  -0.55100 26.44100 31.89100
H  -1.72000 25.25400 32.28300

