158

Mg 17.50100 -1.97700 28.44300
C  16.35200 0.06900 31.07000
C  19.06300 -4.03300 30.80600
C  19.01800 -3.50200 25.90200
C  16.17000 0.34900 26.23100
N  17.67800 -2.02100 30.66800
C  17.23600 -0.98200 31.53300
C  17.50900 -1.31000 32.93100
C  18.40900 -2.57100 32.86600
C  18.49000 -2.87300 31.36200
C  19.73000 -2.43500 33.69100
C  16.26800 -1.55200 33.86700
C  16.27500 -0.80000 35.22000
H  17.69100 -0.55200 35.78700
N  18.81700 -3.59300 28.34600
C  19.32700 -4.31500 29.42100
C  20.20500 -5.32000 28.93000
C  20.13500 -5.19600 27.48800
C  19.29400 -4.08100 27.15500
C  20.97300 -6.29300 29.80200
C  20.87500 -6.06300 26.37200
O  20.60300 -5.95800 25.15300
C  22.02700 -7.09200 26.87200
N  17.23800 -1.85700 26.32400
C  18.14800 -2.48600 25.53700
C  18.29100 -1.85700 24.15500
C  17.14600 -0.79400 24.13200
C  16.74300 -0.77200 25.64700
C  19.69300 -1.42900 23.84900
C  15.88400 -0.94900 23.33400
C  15.65600 -0.04600 22.10700
N  16.32400 -0.27500 28.56200
C  15.82300 0.61200 27.54200
C  14.99500 1.67300 28.17300
C  15.27300 1.54400 29.54900
C  16.05300 0.37800 29.73500
C  14.15300 2.66500 27.54800
C  14.96600 2.09200 30.83400
O  14.24600 3.08400 31.10900
C  15.67000 1.16900 31.86700
C  16.54700 2.03700 32.66300
O  17.77300 2.07100 32.60200
O  15.69000 2.73700 33.54600
C  16.39500 3.77300 34.34400
H  19.52300 -4.70900 31.53000
H  19.66300 -3.84700 25.09100
H  16.02100 1.16900 25.52500
H  17.99400 -0.39300 33.26600
H  17.87700 -3.37200 33.38000
H  20.63200 -2.51800 33.08300
H  19.84000 -3.13700 34.51700
H  19.75200 -1.46200 34.18200
H  15.98500 -2.57900 34.09900
H  15.43500 -1.26500 33.22500
H  15.80700 -1.33600 36.04500
H  15.78900 0.14700 34.98500
H  22.02200 -6.09900 29.57700
H  20.66400 -7.33700 29.74600
H  20.88300 -5.96200 30.83700
H  22.65900 -7.39400 26.03600
H  21.42000 -7.94900 27.16400
H  22.60400 -6.50900 27.59000
H  18.01200 -2.60200 23.41000
H  17.53700 0.18500 23.85500
H  19.83500 -0.35100 23.92100
H  19.99400 -1.90000 22.91300
H  20.39000 -1.88700 24.55100
H  14.98300 -0.82500 23.93500
H  15.73400 -2.01300 23.15000
H  16.41100 0.73800 22.04400
H  14.67800 0.42200 22.22000
H  15.45200 -0.52400 21.14900
H  14.11600 2.53600 26.46600
H  14.42100 3.68100 27.83900
H  13.18700 2.43700 27.99800
H  14.80200 0.78500 32.40300
H  17.24700 3.40600 34.91600
H  15.77700 4.18300 35.14300
H  16.67400 4.63700 33.74000
Mg 26.81500 51.64200 26.59900
C  25.13400 52.49100 29.42400
C  29.38600 50.37400 28.45700
C  28.63700 50.89400 23.67500
C  24.74300 53.56300 24.75300
N  27.19500 51.51300 28.77400
C  26.29200 51.82400 29.75600
C  26.84400 51.54800 31.13700
C  28.29800 50.86800 30.77400
C  28.35400 50.96600 29.25600
C  29.43100 51.66500 31.36200
C  25.92900 50.68100 32.08300
C  26.52300 50.28700 33.38600
H  26.19600 51.12300 34.63600
N  28.73000 50.68800 26.20100
C  29.65300 50.27800 27.04700
C  30.77300 49.71100 26.41100
C  30.45600 49.70000 25.01900
C  29.22100 50.41300 24.91100
C  32.01700 49.08100 27.13900
C  31.26300 49.14100 23.88000
O  30.90800 49.22400 22.74000
C  32.54800 48.47800 24.10900
N  26.77300 52.18900 24.50900
C  27.58800 51.75200 23.52600
C  27.18800 52.30600 22.12600
C  25.88900 53.19500 22.52800
C  25.76200 52.90600 24.02300
C  28.27900 53.16500 21.32500
C  24.62300 53.08200 21.64300
C  23.80900 51.81100 21.83200
N  25.21500 52.75400 26.97100
C  24.35700 53.39700 26.09400
C  23.25500 53.98800 26.83600
C  23.53600 53.70000 28.18700
C  24.72100 52.92600 28.19500
C  22.11100 54.74100 26.29100
C  23.02900 53.82800 29.52200
O  22.05000 54.41300 29.96800
C  24.05900 53.06100 30.38700
C  24.51300 54.06000 31.40300
O  25.26400 55.00900 31.17400
O  23.78200 53.91600 32.54700
C  23.98800 54.91300 33.61900
H  30.14200 49.92000 29.10100
H  29.11900 50.58000 22.74700
H  23.93000 53.96500 24.14600
H  26.93300 52.57500 31.49100
H  28.31100 49.82500 31.09100
H  29.17800 52.03700 32.35500
H  29.68000 52.52400 30.73900
H  30.21500 50.93600 31.56700
H  25.57800 49.83400 31.49200
H  25.11200 51.38900 32.22500
H  27.60800 50.37400 33.33200
H  26.27700 49.23100 33.49100
H  31.93900 47.99500 27.19900
H  32.00100 49.53800 28.12800
H  32.96800 49.37600 26.69400
H  33.28800 49.03900 24.68000
H  32.94100 48.30600 23.10600
H  32.49200 47.44100 24.44000
H  26.83100 51.41900 21.60300
H  26.14600 54.25300 22.58200
H  29.31500 52.99800 21.61800
H  27.97800 54.16400 21.00800
H  28.28600 52.54500 20.42800
H  25.03700 53.03300 20.63600
H  24.00700 53.96600 21.80600
H  22.83300 52.07700 22.23900
H  24.15800 51.17900 22.64900
H  23.72400 51.21700 20.92200
H  21.52400 54.11000 25.62400
H  22.53300 55.44700 25.57700
H  21.39800 55.09900 27.03400
H  23.53600 52.25000 30.89500
H  23.76800 54.40900 34.56100
H  23.19600 55.65400 33.51000
H  24.97300 55.36400 33.73400

