158

Mg 27.57600 50.82800 26.11300
C  25.48000 51.72900 28.81700
C  29.68500 49.50400 28.35000
C  29.80900 50.57200 23.65200
C  25.34000 52.53900 24.00400
N  27.53500 50.61800 28.35300
C  26.59900 51.06600 29.28800
C  26.99100 50.63100 30.66000
C  28.46500 50.24900 30.52800
C  28.61800 50.12300 28.97700
C  29.55400 51.22000 31.16300
C  26.07900 49.52000 31.21800
C  25.62000 49.59000 32.64300
H  26.56000 49.97500 33.73700
N  29.48700 50.08600 26.00000
C  30.17900 49.51800 27.03400
C  31.50500 49.10600 26.60400
C  31.59300 49.45900 25.24800
C  30.28800 50.08500 24.91000
C  32.46600 48.32200 27.42400
C  32.76000 49.42700 24.31800
O  32.69700 49.94300 23.20500
C  34.03200 48.87000 24.83400
N  27.61200 51.61600 24.12100
C  28.59800 51.23500 23.24600
C  28.21700 51.41900 21.72600
C  26.84000 52.16700 21.89500
C  26.52500 52.10800 23.43300
C  29.25700 52.22200 20.92000
C  25.70000 51.54900 21.06800
C  25.19500 50.17200 21.49800
N  25.80600 51.97700 26.32500
C  24.97500 52.54000 25.38100
C  23.80600 53.18600 25.96200
C  23.96800 52.88500 27.31800
C  25.19700 52.15600 27.49800
C  22.68400 54.00000 25.26900
C  23.41000 53.04900 28.62700
O  22.34600 53.58800 28.97600
C  24.34700 52.33000 29.60700
C  24.79500 53.38000 30.66200
O  25.59800 54.31800 30.42200
O  24.16700 53.15300 31.86500
C  24.68800 53.91600 33.04000
H  30.48600 49.12000 28.98500
H  30.38300 50.51000 22.72500
H  24.55700 53.04400 23.43500
H  26.93900 51.51300 31.29800
H  28.59000 49.20200 30.80600
H  29.04900 51.96000 31.78500
H  30.09600 51.64600 30.31900
H  30.22800 50.70500 31.84800
H  26.48300 48.51200 31.12100
H  25.18000 49.56200 30.60300
H  25.14400 48.65100 32.92800
H  24.84500 50.35600 32.65600
H  33.45500 48.74700 27.59000
H  32.63400 47.34700 26.96700
H  32.05000 48.03500 28.39000
H  34.70800 48.80600 23.98100
H  33.75900 47.84600 25.09200
H  34.29000 49.51500 25.67500
H  28.31400 50.39600 21.36400
H  26.83500 53.20300 21.55600
H  30.08000 52.63600 21.50200
H  28.68000 53.00300 20.42400
H  29.70700 51.62300 20.12800
H  26.20900 51.50200 20.10600
H  24.86700 52.24200 20.94600
H  25.36200 49.46700 20.68300
H  24.19800 50.10700 21.93300
H  25.87200 49.78300 22.25800
H  21.77700 54.09300 25.86600
H  22.40200 53.37100 24.42400
H  23.03000 55.01400 25.06900
H  23.78000 51.52600 30.07500
H  24.78100 54.97800 32.81300
H  25.65200 53.49700 33.32800
H  23.96100 53.97700 33.85000
Mg 1.97800 41.61800 25.18500
C  2.52500 42.15600 28.52500
C  -0.95000 40.01000 25.92700
C  1.46100 41.30000 21.88400
C  5.19600 42.73400 24.56900
N  0.75100 41.30200 27.05300
C  1.26300 41.56000 28.26200
C  0.26000 41.17400 29.32700
C  -0.74000 40.17200 28.58000
C  -0.36600 40.54000 27.11300
C  -0.72100 38.68900 28.98200
C  -0.49100 42.32400 29.97500
C  -0.32600 42.64700 31.46400
H  -0.86800 41.64500 32.47400
N  0.34700 40.84100 24.08400
C  -0.72300 40.18600 24.54400
C  -1.57200 39.79800 23.42900
C  -0.94200 40.26300 22.20000
C  0.32300 40.86600 22.65100
C  -2.95000 39.27600 23.69100
C  -1.57200 40.33500 20.83300
O  -1.01100 40.81400 19.83900
C  -2.88900 39.72500 20.62300
N  3.25100 41.72700 23.50300
C  2.72200 41.73100 22.28000
C  3.77200 42.17300 21.24300
C  4.92400 42.78300 22.09600
C  4.40800 42.44600 23.45800
C  4.14500 41.05800 20.28200
C  5.04400 44.34100 21.73000
C  3.72600 45.24900 21.89900
N  3.63300 42.19500 26.29600
C  4.85600 42.67000 25.86600
C  5.68400 43.00600 27.09100
C  4.73300 42.88100 28.10600
C  3.50700 42.47400 27.58500
C  7.10300 43.52900 27.08800
C  4.57900 43.09400 29.53200
O  5.32100 43.56500 30.38900
C  3.13100 42.56700 29.86000
C  3.34900 41.27500 30.61000
O  4.05400 40.39300 30.27400
O  2.66500 41.29900 31.82000
C  2.83500 40.13000 32.71400
H  -1.87200 39.47400 26.16100
H  1.27200 41.29800 20.80800
H  6.14200 43.21200 24.30400
H  0.76700 40.61900 30.11600
H  -1.75200 40.56900 28.66500
H  0.00900 38.52200 29.77400
H  -0.46800 38.02700 28.15400
H  -1.67700 38.27200 29.29900
H  -1.56600 42.25800 29.80700
H  -0.24400 43.18400 29.35300
H  -0.77800 43.62600 31.62700
H  0.74500 42.64100 31.66300
H  -3.68100 40.03500 23.40900
H  -3.10300 38.98300 24.72900
H  -3.09200 38.40900 23.04600
H  -3.64100 40.08500 21.32500
H  -2.70600 38.65300 20.69900
H  -3.17000 39.88000 19.58200
H  3.27500 42.96900 20.68800
H  5.87600 42.32000 21.83500
H  5.08500 41.08800 19.73100
H  3.35000 40.91300 19.55000
H  4.22900 40.12900 20.84500
H  5.57100 44.50300 20.79000
H  5.77200 44.70200 22.45600
H  3.88000 45.98200 22.69100
H  2.85800 44.60700 22.05000
H  3.58000 45.83100 20.98900
H  7.82800 42.71600 27.12800
H  7.10400 44.16800 27.97100
H  7.30300 44.13400 26.20400
H  2.68700 43.33400 30.49500
H  2.88000 39.14800 32.24200
H  1.95000 40.06000 33.34700
H  3.70400 40.24100 33.36300

