158

Mg 26.83400 50.86500 26.05600
C  24.89500 52.21700 28.73700
C  29.27800 50.15000 28.10500
C  28.41200 49.55100 23.41300
C  24.34400 52.26600 23.81600
N  27.04700 51.13700 28.21100
C  26.12500 51.67400 29.13500
C  26.64000 51.52900 30.57500
C  28.20100 51.13200 30.33400
C  28.20500 50.84700 28.78600
C  29.22000 52.11700 30.81500
C  25.78600 50.41800 31.31900
C  25.06700 50.79800 32.63900
H  25.89500 51.31600 33.83500
N  28.68200 49.98900 25.75700
C  29.47800 49.67600 26.79500
C  30.59900 48.86500 26.30300
C  30.25000 48.51300 24.98000
C  29.09200 49.40200 24.62600
C  31.69400 48.34700 27.19800
C  30.83500 47.35900 24.09100
O  30.45100 47.17500 22.92500
C  31.94400 46.50000 24.54100
N  26.57600 51.15200 23.87300
C  27.26100 50.24300 23.05800
C  26.69000 50.15000 21.63900
C  25.31400 50.96000 21.90300
C  25.42700 51.53400 23.26700
C  27.46800 50.64000 20.40300
C  24.00500 50.05100 21.65400
C  22.95800 50.69500 20.64900
N  24.98500 52.10000 26.22900
C  24.15800 52.52400 25.17900
C  22.96000 53.12000 25.71600
C  23.16000 52.96100 27.16500
C  24.43800 52.35500 27.36000
C  21.80700 53.71300 24.97000
C  22.65400 53.23000 28.53300
O  21.61000 53.77300 28.83400
C  23.70000 52.78600 29.56000
C  24.06200 54.01700 30.38700
O  24.77200 54.96600 29.96400
O  23.43800 53.87400 31.63200
C  23.68900 55.06400 32.52600
H  30.12300 49.79900 28.70100
H  28.70500 48.82800 22.64800
H  23.58200 52.59000 23.10500
H  26.55800 52.47600 31.10700
H  28.41100 50.14400 30.74200
H  29.68700 51.64200 31.67900
H  28.70800 53.01600 31.15600
H  30.01800 52.43600 30.14500
H  26.51600 49.66600 31.61800
H  25.04000 49.89500 30.72000
H  24.39300 50.01800 32.99500
H  24.43000 51.61500 32.30100
H  31.71900 48.73000 28.21800
H  32.68300 48.60000 26.81600
H  31.60400 47.26700 27.31600
H  32.62000 47.03200 25.21000
H  32.56400 46.22100 23.68900
H  31.57800 45.59600 25.02900
H  26.56400 49.07700 21.50000
H  25.41800 51.89900 21.36000
H  26.97800 51.47200 19.89700
H  27.47600 49.86100 19.64000
H  28.44300 51.01900 20.70800
H  23.65300 49.86300 22.66800
H  24.42100 49.18800 21.13500
H  23.35700 51.69200 20.46300
H  21.96100 50.80200 21.07500
H  22.85100 50.23200 19.66800
H  22.12200 54.65800 24.52800
H  21.04700 53.93700 25.71900
H  21.47600 53.12900 24.11200
H  23.24100 51.94500 30.08000
H  24.29500 55.87600 32.12400
H  24.24500 54.53700 33.30100
H  22.71200 55.40100 32.87300
Mg 6.38700 54.77500 40.79200
C  5.90300 51.30500 40.62900
C  9.56200 54.38400 39.55500
C  6.70800 58.13400 40.33800
C  3.04700 55.12100 41.92500
N  7.49000 53.04200 39.99400
C  7.15400 51.66700 40.13200
C  8.28600 50.80000 39.49300
C  9.46900 51.79900 39.29300
C  8.82700 53.16100 39.69000
C  10.77100 51.53500 40.09500
C  7.92200 50.00700 38.17900
C  6.84600 50.56000 37.17800
H  7.45000 50.79200 35.80500
N  7.96300 56.09800 40.06500
C  9.17400 55.70300 39.64700
C  10.05000 56.92400 39.52800
C  9.21500 58.05000 39.80200
C  7.85600 57.49300 40.06900
C  11.46600 56.85100 39.09200
C  9.65800 59.49200 39.80400
O  10.81200 59.68700 39.63400
C  8.68600 60.62200 39.93100
N  4.98600 56.39400 40.99200
C  5.40800 57.68200 40.74700
C  4.21200 58.65500 40.84200
C  3.13800 57.75100 41.45900
C  3.69100 56.31400 41.46400
C  4.62300 59.83000 41.78300
C  1.70000 58.06100 40.89700
C  1.15800 57.24000 39.56500
N  4.81000 53.56400 41.25100
C  3.55700 53.82500 41.77700
C  2.89900 52.55500 42.09900
C  3.74400 51.54100 41.75500
C  4.89700 52.21500 41.16100
C  1.46000 52.38700 42.53100
C  3.87900 50.10300 41.66000
O  3.11100 49.21500 42.02000
C  5.27000 49.94100 40.91200
C  4.98600 49.09500 39.73200
O  4.59500 49.60600 38.64000
O  5.44500 47.84500 39.88400
C  5.50700 46.96000 38.70300
H  10.53700 54.20500 39.09600
H  6.67400 59.19900 40.09900
H  2.08300 55.31100 42.40100
H  8.47600 50.05700 40.26700
H  9.77500 51.93200 38.25500
H  11.23900 50.63800 39.69000
H  10.44200 51.16000 41.06500
H  11.44600 52.38600 40.17900
H  7.64500 49.00100 38.49600
H  8.87000 49.79500 37.68600
H  6.38300 51.45100 37.60200
H  6.13000 49.78400 36.90800
H  11.66500 57.21400 38.08400
H  11.87400 55.84600 39.19700
H  12.09900 57.43600 39.75900
H  8.03900 60.41200 39.08000
H  9.28600 61.52900 39.84300
H  8.08100 60.52200 40.83200
H  3.81600 59.02600 39.89700
H  3.19200 58.00200 42.51800
H  3.74600 60.22400 42.29700
H  4.84700 60.66700 41.12200
H  5.45200 59.67200 42.47300
H  1.75500 59.12800 40.68300
H  0.99800 57.78100 41.68200
H  0.09200 57.04400 39.68300
H  1.81300 56.37200 39.48600
H  1.30500 57.84700 38.67100
H  1.22200 51.35400 42.78600
H  0.79900 52.70800 41.72600
H  1.24000 52.95200 43.43700
H  5.83000 49.34200 41.63000
H  6.24700 46.16100 38.74100
H  5.79500 47.48700 37.79300
H  4.52300 46.54300 38.49100

