158

Mg 9.39100 48.43200 25.86300
C  7.36300 48.98800 28.72700
C  12.07000 50.10800 27.63600
C  11.43200 48.23200 23.10100
C  6.68000 47.42800 24.16400
N  9.68600 49.40600 27.99000
C  8.73000 49.51300 28.97400
C  9.43400 49.86100 30.27600
C  10.82200 50.41600 29.82900
C  10.87200 50.01100 28.36700
C  11.10100 51.92900 30.09400
C  9.50600 48.68900 31.19800
C  9.11000 48.98100 32.67400
H  8.91500 47.80200 33.61400
N  11.46100 48.94300 25.47100
C  12.31700 49.69700 26.30000
C  13.60500 49.60800 25.72000
C  13.45400 49.06200 24.39600
C  12.08600 48.67600 24.27300
C  14.84300 50.28000 26.43000
C  14.63000 48.84900 23.38800
O  14.39900 48.32900 22.29800
C  16.09000 49.41000 23.58700
N  9.19200 47.89600 23.89600
C  10.10900 47.91200 22.92200
C  9.47700 47.48400 21.53300
C  8.09600 46.97000 22.01200
C  7.94600 47.42900 23.43500
C  9.46800 48.69800 20.57200
C  7.90900 45.40300 21.89100
C  8.57600 44.52500 22.96200
N  7.34100 48.22600 26.25000
C  6.32800 47.95200 25.40600
C  5.12200 47.91500 26.13600
C  5.44900 48.35800 27.40400
C  6.86400 48.57700 27.45800
C  3.83000 47.57900 25.56500
C  4.83500 48.69300 28.74400
O  3.69100 48.76200 29.10400
C  6.13000 48.89900 29.69100
C  6.15000 47.67300 30.53000
O  6.73200 46.60900 30.25000
O  5.21200 47.74800 31.54000
C  5.04100 46.46000 32.32100
H  12.86800 50.63300 28.16500
H  12.07900 48.07700 22.23600
H  5.85400 46.98900 23.60100
H  8.90900 50.70200 30.72800
H  11.66700 49.84000 30.20500
H  10.71300 52.41400 29.19800
H  12.16500 52.16100 30.13000
H  10.58300 52.25600 30.99500
H  10.50100 48.25500 31.09400
H  8.89800 47.84400 30.87600
H  8.12900 49.42800 32.51700
H  9.81100 49.66700 33.15000
H  14.68500 50.59900 27.46000
H  15.19900 51.16300 25.90000
H  15.64600 49.54300 26.43800
H  15.89800 50.45000 23.32500
H  16.74300 48.98800 22.82200
H  16.46600 49.15700 24.57800
H  10.15500 46.72500 21.14400
H  7.39900 47.39600 21.29100
H  9.70600 49.63300 21.08000
H  8.49300 48.85500 20.11000
H  10.27900 48.58900 19.85100
H  8.37200 45.16300 20.93300
H  6.85600 45.12300 21.89200
H  9.37600 45.01300 23.51900
H  8.95000 43.68500 22.37700
H  7.87200 44.25000 23.74700
H  3.64200 46.51500 25.42700
H  3.83600 48.10200 24.60800
H  3.03700 47.92700 26.22700
H  5.98600 49.84900 30.20600
H  5.39700 46.70900 33.32100
H  5.61200 45.60900 31.95100
H  4.00200 46.14900 32.43200
Mg -1.84000 34.75700 26.40300
C  -3.61600 33.21000 29.15400
C  -0.75200 37.02500 28.68400
C  -0.67700 36.32700 23.79800
C  -3.23200 32.25800 24.41900
N  -2.23300 35.07900 28.72400
C  -2.97500 34.37000 29.58200
C  -2.92200 34.99900 31.03100
C  -2.04600 36.25000 30.82700
C  -1.65500 36.11800 29.34000
C  -2.59400 37.71100 31.34000
C  -2.33700 34.07600 32.03600
C  -2.43900 34.47600 33.53600
H  -3.17100 33.58900 34.60100
N  -0.91500 36.47800 26.25600
C  -0.44500 37.22600 27.30800
C  0.32500 38.29000 26.82200
C  0.44500 38.09200 25.47400
C  -0.42200 36.93600 25.08900
C  0.94200 39.29000 27.75900
C  1.28100 38.81600 24.47100
O  1.45400 38.48600 23.26300
C  2.12000 40.00500 24.93600
N  -2.03600 34.44500 24.42800
C  -1.42200 35.17100 23.49600
C  -1.40700 34.51500 22.08600
C  -2.11700 33.16200 22.37600
C  -2.44100 33.25000 23.84200
C  -1.97900 35.51700 21.03700
C  -1.39900 31.89600 21.89400
C  -0.05000 31.50600 22.58800
N  -3.28400 33.08300 26.60000
C  -3.71400 32.17500 25.75100
C  -4.45300 31.15300 26.41100
C  -4.40800 31.47900 27.71700
C  -3.70100 32.72000 27.80400
C  -5.13100 30.02500 25.74800
C  -4.87200 31.10500 28.96900
O  -5.59600 30.16500 29.25900
C  -4.37600 32.21800 30.01600
C  -5.50900 32.67500 30.73500
O  -6.50900 33.17800 30.27300
O  -5.31700 32.43000 32.12100
C  -6.57600 32.55100 32.91600
H  -0.26100 37.71100 29.37800
H  -0.22500 36.83600 22.94400
H  -3.58400 31.53700 23.67800
H  -3.96000 35.21700 31.28500
H  -1.11500 36.09200 31.37000
H  -2.59300 38.40000 30.49600
H  -2.06700 38.08800 32.21600
H  -3.62600 37.51800 31.63600
H  -1.33200 33.78100 31.73300
H  -2.84800 33.12300 31.89800
H  -2.73400 35.52200 33.45200
H  -1.37700 34.55300 33.77000
H  2.01800 39.29500 27.57900
H  0.70500 39.23900 28.82200
H  0.75800 40.31000 27.42200
H  1.42600 40.77200 25.28100
H  2.61000 40.31300 24.01200
H  2.87300 39.68500 25.65500
H  -0.33700 34.39800 21.91500
H  -3.05000 33.08500 21.81900
H  -1.19000 35.78800 20.33600
H  -2.33900 36.45100 21.46800
H  -2.74300 35.08000 20.39400
H  -1.26900 31.99100 20.81600
H  -2.16700 31.12500 21.95900
H  0.13300 32.13600 23.45900
H  0.79500 31.40800 21.90700
H  -0.09700 30.48400 22.96300
H  -5.42700 29.37700 26.57300
H  -4.53800 29.51400 24.99000
H  -6.04300 30.42100 25.30300
H  -3.66200 31.60600 30.56700
H  -6.39900 32.73900 33.97500
H  -7.14600 31.62300 32.86600
H  -7.24400 33.38100 32.68600

