158

Mg 36.01300 3.24400 30.30500
C  33.36200 3.93700 32.64100
C  38.12500 2.98200 32.85700
C  38.27200 2.68800 28.05300
C  33.50500 3.34100 27.72300
N  35.72700 3.42300 32.52000
C  34.59300 3.68300 33.21200
C  34.90700 3.51400 34.69500
C  36.45400 3.44600 34.77400
C  36.80100 3.24100 33.30900
C  37.13400 4.65000 35.46900
C  34.25900 2.22500 35.30900
C  34.07300 2.34100 36.78800
H  34.89100 3.29000 37.68000
N  37.96600 2.97000 30.43600
C  38.67600 2.89400 31.56700
C  40.10100 2.65600 31.20700
C  40.10000 2.48800 29.77200
C  38.75000 2.74500 29.35600
C  41.15400 2.53300 32.28100
C  41.23000 1.98600 28.94400
O  41.20100 1.90200 27.71100
C  42.62700 1.68400 29.53200
N  35.88600 3.22700 28.16200
C  37.02500 2.96400 27.41300
C  36.68600 2.55200 25.96600
C  35.16400 2.56500 25.99400
C  34.80200 3.11300 27.34700
C  37.51000 3.42800 24.92000
C  34.51600 1.16000 25.65200
C  33.56500 0.93500 24.38200
N  33.87900 3.66000 30.14800
C  32.98700 3.69900 29.04400
C  31.64900 3.95700 29.51000
C  31.79500 4.06300 30.90700
C  33.13600 3.86400 31.25200
C  30.45000 4.16000 28.66100
C  31.01900 4.28500 32.09100
O  29.87500 4.58600 32.23700
C  32.02700 4.12500 33.31500
C  32.07600 5.41500 33.99800
O  32.29900 6.52400 33.52500
O  31.79800 5.19600 35.35000
C  31.88700 6.43300 36.18400
H  38.81300 2.71300 33.66000
H  39.13000 2.49000 27.40700
H  32.69900 3.24100 26.99300
H  34.65500 4.43700 35.21700
H  36.79300 2.50500 35.20800
H  36.56200 5.55400 35.26100
H  38.04300 4.92100 34.93000
H  37.23800 4.45600 36.53600
H  35.02800 1.47500 35.12800
H  33.32500 1.94800 34.82100
H  34.30100 1.35800 37.20000
H  33.02700 2.63300 36.87800
H  42.18200 2.44500 31.93100
H  41.04200 1.57500 32.78900
H  40.99900 3.28500 33.05500
H  43.34800 1.41600 28.75900
H  42.57100 0.84000 30.21900
H  43.05000 2.61500 29.91000
H  37.08400 1.53700 25.98700
H  34.75600 3.26600 25.26500
H  36.85200 3.99700 24.26300
H  38.04600 2.75600 24.25000
H  38.19200 4.12800 25.40200
H  34.22800 0.75200 26.62100
H  35.21400 0.39700 25.30800
H  33.97400 0.08600 23.83400
H  33.54900 1.77500 23.68700
H  32.53400 0.66600 24.61100
H  29.86500 3.25400 28.82300
H  30.53000 4.23300 27.57700
H  29.88200 5.04600 28.94500
H  31.81300 3.35100 34.05200
H  32.73900 7.02500 35.85100
H  32.02600 6.11700 37.21800
H  31.00300 7.06500 36.09400
Mg 6.06200 54.43700 41.10900
C  5.22700 51.11500 40.77700
C  9.10400 53.88800 39.47200
C  6.45800 57.79600 40.46700
C  2.77800 55.14400 42.00800
N  6.96700 52.73500 40.01200
C  6.48600 51.44400 40.13600
C  7.58300 50.40200 39.57200
C  8.80500 51.34100 39.54400
C  8.29800 52.75100 39.62600
C  9.87200 51.21300 40.63200
C  7.26400 49.82500 38.09000
C  6.57400 50.80500 37.07000
H  7.14100 50.89600 35.67100
N  7.73400 55.68300 40.24300
C  8.85100 55.25300 39.63600
C  9.66800 56.34200 39.27700
C  8.98300 57.58400 39.62800
C  7.67500 57.08400 40.15200
C  11.13200 56.11000 38.81200
C  9.44600 59.00700 39.54400
O  10.55200 59.32800 39.01200
C  8.64800 60.16000 40.06700
N  4.79600 56.20900 41.13600
C  5.17700 57.46100 40.88400
C  4.04400 58.44800 40.93500
C  2.86600 57.60300 41.40000
C  3.48700 56.24800 41.52300
C  4.31500 59.79900 41.57800
C  1.61800 57.60900 40.49200
C  0.34200 58.09900 41.16500
N  4.42700 53.38700 41.62100
C  3.15400 53.77300 42.00600
C  2.34600 52.57100 42.30400
C  3.17600 51.52800 41.83300
C  4.37600 52.04300 41.38700
C  0.92300 52.45100 42.83400
C  3.15900 50.10700 41.64000
O  2.31700 49.22200 41.88000
C  4.64100 49.76600 41.16800
C  4.53800 48.88600 40.02100
O  4.03000 49.16400 38.94100
O  5.09400 47.66500 40.34000
C  4.93500 46.68100 39.26600
H  10.14600 53.69900 39.20500
H  6.46800 58.86300 40.23200
H  1.80100 55.42300 42.40700
H  7.75600 49.53700 40.21300
H  9.32100 51.22700 38.59100
H  9.76500 50.31400 41.23900
H  9.76900 52.04200 41.33200
H  10.86300 51.28300 40.18200
H  6.62700 48.94000 38.08800
H  8.17200 49.49800 37.58400
H  6.62800 51.78900 37.53800
H  5.53400 50.58400 36.83200
H  11.78900 56.97800 38.86900
H  11.20600 55.77000 37.77900
H  11.57800 55.34400 39.44600
H  7.84400 60.50800 39.41800
H  9.34200 60.96900 40.29300
H  8.31400 59.78200 41.03300
H  3.92900 58.51000 39.85300
H  2.51100 57.81400 42.40900
H  3.72700 60.50700 40.99400
H  5.33500 60.18000 41.62700
H  4.03700 59.79100 42.63200
H  1.49600 56.61500 40.06000
H  1.78200 58.31700 39.67900
H  -0.50000 57.51400 40.79500
H  0.24600 59.15700 40.92200
H  0.31100 57.96700 42.24700
H  0.99400 51.91600 43.78100
H  0.35000 51.90200 42.08700
H  0.36700 53.38600 42.90000
H  5.23500 49.21400 41.89600
H  5.53600 45.78800 39.43600
H  5.09400 47.07700 38.26300
H  3.89000 46.37800 39.19200

