158

Mg 24.39600 -4.72900 45.64800
C  26.50700 -2.32700 44.41300
C  22.05500 -3.84600 43.06100
C  22.71800 -7.47300 46.33000
C  27.08700 -5.91000 47.77200
N  24.27500 -3.21100 43.90300
C  25.25700 -2.38300 43.67700
C  24.86900 -1.58500 42.38200
C  23.33800 -1.83200 42.25100
C  23.18200 -3.04400 43.08900
C  22.38900 -0.72000 42.78500
C  25.60300 -2.16200 41.03800
C  26.54700 -1.18200 40.42900
H  26.32700 -1.06300 38.94600
N  22.57900 -5.47600 44.89800
C  21.82800 -4.98800 43.87400
C  20.64500 -5.84200 43.81400
C  20.80200 -6.89900 44.70300
C  22.07100 -6.62700 45.39000
C  19.41800 -5.45200 42.92400
C  19.73900 -8.02200 44.91100
O  18.74900 -8.17900 44.20500
C  19.77900 -8.90400 46.16600
N  24.92900 -6.53000 46.79000
C  23.94000 -7.37000 46.94500
C  24.42800 -8.55000 47.79000
C  25.63700 -7.97800 48.54000
C  25.96200 -6.73800 47.66000
C  23.39500 -9.18100 48.84900
C  26.79700 -9.06800 48.74000
C  27.37400 -9.39000 50.11300
N  26.39200 -4.13000 46.18100
C  27.37300 -4.71500 46.99900
C  28.62600 -3.95500 46.90300
C  28.33900 -3.00000 45.85200
C  26.93900 -3.19500 45.44800
C  29.98300 -4.30700 47.66900
C  28.85100 -1.96000 45.08100
O  29.96100 -1.51300 45.07800
C  27.71000 -1.50100 44.08300
C  27.51000 -0.05000 44.31300
O  27.57300 0.51300 45.38700
O  27.50700 0.71600 43.10100
C  27.73200 2.14000 43.30000
H  21.31700 -3.68400 42.27300
H  22.17100 -8.35900 46.65800
H  27.87700 -6.07100 48.50800
H  25.21200 -0.57400 42.60000
H  23.00800 -2.01400 41.22800
H  22.96000 0.02000 43.34500
H  21.63700 -1.05700 43.49900
H  21.92600 -0.14700 41.98200
H  24.87300 -2.43900 40.27700
H  26.12500 -3.08100 41.30300
H  27.58400 -1.48800 40.56500
H  26.50000 -0.15700 40.79900
H  19.09400 -6.31300 42.33900
H  19.54100 -4.67400 42.17100
H  18.55100 -5.19100 43.53100
H  20.33700 -9.83500 46.06800
H  18.78600 -9.33200 46.30800
H  19.95400 -8.24900 47.01900
H  24.77600 -9.34300 47.12800
H  25.31000 -7.62800 49.51900
H  23.81400 -9.65400 49.73700
H  22.81000 -9.94900 48.34400
H  22.76600 -8.36800 49.21200
H  27.64300 -8.55900 48.27800
H  26.63700 -10.02400 48.24200
H  26.83000 -8.81300 50.86100
H  28.41300 -9.07100 50.20200
H  27.19700 -10.42800 50.39400
H  30.59200 -5.08200 47.20400
H  29.82100 -4.64300 48.69300
H  30.53300 -3.37600 47.81000
H  28.10400 -1.76600 43.10200
H  28.56200 2.29400 43.99000
H  26.93800 2.71500 43.77500
H  27.94000 2.57400 42.32200
Mg -5.48900 24.51800 27.04300
C  -4.18900 26.12900 29.88400
C  -7.33200 22.44500 29.07500
C  -6.67700 23.03500 24.23900
C  -3.46500 26.56600 24.97200
N  -5.74000 24.37900 29.16800
C  -5.13700 25.15700 30.17100
C  -5.78700 24.77900 31.52900
C  -6.44900 23.43900 31.31800
C  -6.54400 23.34300 29.77000
C  -5.81100 22.20000 31.92700
C  -6.76800 25.93400 32.01800
C  -6.99200 26.22100 33.58800
H  -6.60400 25.21500 34.66900
N  -6.96900 23.06000 26.68800
C  -7.64400 22.38000 27.63500
C  -8.57500 21.49100 26.99200
C  -8.48500 21.72100 25.62000
C  -7.31600 22.61100 25.43100
C  -9.48200 20.55600 27.81700
C  -9.31900 21.05700 24.43600
O  -9.09700 21.31700 23.27800
C  -10.31800 19.99000 24.91500
N  -5.01400 24.64500 24.91200
C  -5.69400 23.89100 23.94000
C  -5.10600 24.20900 22.54700
C  -4.07900 25.42500 22.89100
C  -4.22100 25.61800 24.35600
C  -4.45000 23.01700 21.84600
C  -4.27600 26.69200 21.97500
C  -2.98200 27.26700 21.39500
N  -3.88600 25.91500 27.32600
C  -3.37300 26.82000 26.38800
C  -2.58700 27.82000 27.12100
C  -2.85800 27.56000 28.51000
C  -3.70900 26.39300 28.60700
C  -1.71300 28.94300 26.50900
C  -2.53800 28.06900 29.81800
O  -1.82100 28.95900 30.21900
C  -3.44400 27.16000 30.76800
C  -2.58700 26.50600 31.79600
O  -1.56200 25.90300 31.55900
O  -3.22800 26.68600 33.00000
C  -2.48700 26.11200 34.13700
H  -7.76700 21.63400 29.66400
H  -7.13400 22.56400 23.36700
H  -3.00800 27.40400 24.44200
H  -4.98100 24.68100 32.25700
H  -7.50100 23.39200 31.60000
H  -5.31300 22.54900 32.83200
H  -5.09100 21.86500 31.18100
H  -6.43600 21.33400 32.14600
H  -7.74500 25.62700 31.64500
H  -6.53000 26.94200 31.67900
H  -8.04600 26.48700 33.66700
H  -6.53500 27.19900 33.74000
H  -10.52300 20.52000 27.49500
H  -9.52400 20.80900 28.87700
H  -9.13200 19.52400 27.83800
H  -11.09700 20.49200 25.49000
H  -9.77200 19.20500 25.43900
H  -10.73000 19.56600 24.00000
H  -5.91800 24.64500 21.96500
H  -3.05100 25.07100 22.80300
H  -3.45900 23.33300 21.52000
H  -5.11800 22.65400 21.06500
H  -4.15900 22.22600 22.53700
H  -4.79100 27.47500 22.53200
H  -5.02300 26.56700 21.19100
H  -3.05300 27.58600 20.35500
H  -2.25200 26.45800 21.39600
H  -2.51800 28.04500 22.00100
H  -0.83500 28.60100 25.96100
H  -1.61600 29.65300 27.33000
H  -2.36800 29.42800 25.78500
H  -4.18500 27.72600 31.33300
H  -1.44300 26.42400 34.17700
H  -2.43300 25.03200 34.00300
H  -3.01600 26.30600 35.07100

