158

Mg -11.45500 37.69800 42.72800
C  -8.81700 35.44600 41.91900
C  -9.57600 40.22200 41.34300
C  -14.03800 39.69200 42.63900
C  -13.54900 34.87100 43.34800
N  -9.57200 37.71400 41.53600
C  -8.56400 36.70000 41.43400
C  -7.38300 37.23300 40.78100
C  -7.49400 38.73600 41.06400
C  -8.96300 38.93800 41.30100
C  -6.70400 39.13500 42.31500
C  -7.60900 36.86400 39.24200
C  -6.40800 36.90100 38.25000
H  -6.25900 35.81500 37.15200
N  -11.72500 39.81400 42.23500
C  -10.85200 40.70700 41.65400
C  -11.40500 42.02900 41.44000
C  -12.75600 41.88700 41.99900
C  -12.91600 40.47900 42.37200
C  -10.59100 43.21700 40.87800
C  -13.67600 43.10800 42.12600
O  -13.44200 44.19800 41.66100
C  -15.09400 42.89500 42.75000
N  -13.47500 37.37200 42.89100
C  -14.39900 38.32000 42.89200
C  -15.83600 37.91600 43.04400
C  -15.54800 36.39200 43.47800
C  -14.14900 36.16800 43.15300
C  -16.53300 38.67500 44.13100
C  -16.52100 35.39200 42.92000
C  -17.01900 34.26500 43.90900
N  -11.30000 35.60500 42.82600
C  -12.19400 34.57000 43.13700
C  -11.43200 33.30600 43.10500
C  -10.22100 33.65000 42.59200
C  -10.12600 35.05600 42.44700
C  -12.04800 32.00700 43.33300
C  -8.95300 33.04300 42.16100
O  -8.59600 31.84300 42.15800
C  -7.96200 34.19400 41.74800
C  -6.83000 34.25200 42.70900
O  -5.64800 34.14800 42.38900
O  -7.28700 34.30400 44.00800
C  -6.29100 34.37000 45.08300
H  -8.91500 40.93600 40.84700
H  -14.98000 40.20600 42.43400
H  -14.24100 34.08400 43.65400
H  -6.38100 36.86200 40.99600
H  -7.19900 39.34500 40.21000
H  -7.41700 39.32200 43.11700
H  -6.17100 40.06300 42.11000
H  -6.01900 38.38900 42.71700
H  -8.39500 37.56200 38.95400
H  -8.07900 35.88300 39.16800
H  -5.45000 36.89600 38.77000
H  -6.40700 37.86000 37.73100
H  -10.95900 43.46400 39.88200
H  -9.58200 42.81200 40.80900
H  -10.59700 44.12300 41.48500
H  -15.56100 43.77700 43.18900
H  -15.12000 42.27200 43.64400
H  -15.75300 42.37800 42.05300
H  -16.35800 38.08100 42.10100
H  -15.60500 36.45900 44.56500
H  -15.84600 39.22700 44.77200
H  -17.12500 37.90600 44.62700
H  -17.14700 39.41300 43.61400
H  -16.06700 34.95700 42.02900
H  -17.37000 36.00500 42.62000
H  -16.40600 34.17100 44.80500
H  -16.93100 33.26200 43.49200
H  -18.03400 34.54300 44.19300
H  -11.54100 31.52100 44.16700
H  -11.92600 31.37600 42.45300
H  -13.09600 32.09000 43.61900
H  -7.74700 34.08400 40.68500
H  -6.78800 34.65600 46.01100
H  -5.44800 35.02700 44.87000
H  -5.90100 33.36300 45.23000
Mg 1.15300 42.19800 24.89000
C  3.18800 42.28300 27.68300
C  -1.40100 40.95300 26.65000
C  -0.47500 41.64200 21.85900
C  4.11000 42.99000 22.91200
N  0.97700 41.86600 27.01600
C  1.87100 42.01900 27.99100
C  1.26300 41.84400 29.34200
C  -0.24200 41.29500 29.03500
C  -0.19300 41.26100 27.46700
C  -0.73300 39.95500 29.71500
C  1.31400 43.12500 30.18100
C  0.99400 43.10100 31.68800
H  0.64200 41.81200 32.42700
N  -0.68100 41.50100 24.34900
C  -1.63700 41.01300 25.23200
C  -2.83400 40.65600 24.52900
C  -2.67500 41.00000 23.12400
C  -1.23600 41.44400 23.04700
C  -4.03300 39.96800 25.20900
C  -3.61400 40.94600 21.88300
O  -3.26700 41.31300 20.76600
C  -5.00400 40.38100 21.97500
N  1.85300 42.06500 22.65100
C  0.88200 41.97700 21.68400
C  1.49100 42.29000 20.26600
C  2.83800 42.97900 20.65800
C  2.96200 42.63600 22.15700
C  1.61500 41.06400 19.34600
C  2.91400 44.44900 20.30000
C  2.15000 45.45700 21.16000
N  3.08800 42.59700 25.19000
C  4.18500 42.85400 24.29900
C  5.41400 42.97200 25.10700
C  5.00600 42.78500 26.37800
C  3.61300 42.56300 26.40800
C  6.85900 43.18300 24.69100
C  5.53400 42.61400 27.66500
O  6.72400 42.64200 27.99500
C  4.38600 42.44500 28.62700
C  4.72400 41.37500 29.64600
O  5.13100 40.25600 29.35000
O  4.47300 41.83100 30.93100
C  4.70800 40.92400 32.03600
H  -2.19600 40.49600 27.24400
H  -1.04500 41.63400 20.92800
H  4.99300 43.25300 22.32600
H  1.78400 41.07700 29.91600
H  -0.98500 42.04600 29.30700
H  -1.13100 39.24500 28.99000
H  -1.57600 40.22800 30.34900
H  -0.00900 39.44600 30.35200
H  0.76700 43.84500 29.57100
H  2.35800 43.43800 30.19800
H  0.19100 43.82200 31.84300
H  1.77900 43.50200 32.32900
H  -5.00400 40.45000 25.09500
H  -3.80900 39.64700 26.22700
H  -4.31300 39.06700 24.66300
H  -4.94000 39.32800 22.25200
H  -5.59900 40.77900 21.15300
H  -5.48100 40.90400 22.80400
H  0.86600 43.07100 19.83200
H  3.71100 42.60100 20.12500
H  2.67100 41.03500 19.07900
H  1.03200 41.20600 18.43600
H  1.25100 40.20300 19.90700
H  2.78200 44.66400 19.23900
H  3.98300 44.59200 20.45900
H  2.88500 45.92100 21.81900
H  1.36700 44.90000 21.67400
H  1.77300 46.25900 20.52500
H  7.50700 42.39300 25.07000
H  7.30300 44.13400 24.98400
H  7.00300 43.02400 23.62200
H  4.53700 43.41400 29.10300
H  5.76100 40.92000 32.31900
H  4.40400 39.94700 31.66200
H  4.07800 41.10800 32.90700

