158

Mg -0.00500 44.22900 25.54700
C  2.18800 44.45400 28.14700
C  -2.49600 43.71500 27.89500
C  -2.18200 43.34500 23.05900
C  2.52700 44.50400 23.23700
N  -0.06400 43.90800 27.84300
C  0.92000 44.18200 28.66600
C  0.42900 44.05400 30.10600
C  -1.06800 43.73400 29.96800
C  -1.23200 43.77800 28.50500
C  -1.64300 42.46200 30.69200
C  0.92300 45.15900 31.12900
C  0.31000 45.22800 32.48100
H  0.23000 43.94800 33.30000
N  -2.06600 43.73500 25.49100
C  -2.91500 43.63100 26.57000
C  -4.33200 43.53700 26.15100
C  -4.23200 43.32200 24.72400
C  -2.80200 43.50300 24.35700
C  -5.59700 43.53600 26.96300
C  -5.28900 42.96400 23.59200
O  -5.02600 42.75700 22.39600
C  -6.71700 42.74700 23.97400
N  0.13000 43.89100 23.45300
C  -0.84700 43.52900 22.66000
C  -0.38800 43.43500 21.17200
C  1.09200 44.06900 21.22400
C  1.29100 44.12000 22.75800
C  -0.49400 41.99600 20.59400
C  1.22200 45.51400 20.51100
C  1.41700 46.78700 21.37900
N  1.96500 44.43700 25.57300
C  2.90900 44.54200 24.58300
C  4.28700 44.58100 25.19400
C  4.03400 44.55500 26.52600
C  2.63300 44.53700 26.75900
C  5.49900 44.87300 24.48100
C  4.65600 44.54600 27.82300
O  5.81600 44.69900 28.20100
C  3.45500 44.45800 28.95400
C  3.71000 43.25500 29.85100
O  3.56500 42.05100 29.55700
O  4.07200 43.68800 31.11400
C  4.40400 42.64700 32.07900
H  -3.34900 43.64700 28.57400
H  -2.82200 43.15900 22.19500
H  3.36300 44.66000 22.55200
H  0.92800 43.13700 30.42000
H  -1.53700 44.69100 30.19700
H  -2.29800 42.73600 31.52000
H  -0.84800 41.86000 31.13200
H  -2.14600 41.81200 29.97500
H  0.85600 46.07000 30.53500
H  1.99000 45.07900 31.33800
H  -0.59500 45.83600 32.45600
H  1.06300 45.85500 32.95900
H  -5.43700 43.87700 27.98600
H  -5.95700 42.50800 26.91300
H  -6.27600 44.20900 26.44000
H  -7.28600 42.19900 23.22400
H  -7.01500 43.78800 24.09300
H  -6.80400 42.16500 24.89200
H  -1.04200 44.17300 20.70700
H  1.80700 43.38000 20.77400
H  -1.35900 41.99900 19.93000
H  -0.68100 41.24000 21.35500
H  0.38800 41.68300 20.03400
H  0.46500 45.65400 19.73900
H  2.10400 45.38800 19.88200
H  1.31700 46.83000 22.46400
H  0.78800 47.59700 21.00900
H  2.43300 47.13100 21.18900
H  5.46400 44.98400 23.39700
H  6.19800 44.03700 24.51700
H  5.84700 45.77000 24.99300
H  3.64000 45.36700 29.52600
H  4.88800 43.25400 32.84300
H  5.21300 42.02300 31.69600
H  3.53300 42.09600 32.43300
Mg -4.83000 25.54700 25.85600
C  -3.54900 27.26700 28.72800
C  -6.57000 23.56100 27.94400
C  -5.59700 23.95100 23.20700
C  -2.77700 27.78400 23.90900
N  -4.98100 25.42400 27.99900
C  -4.47300 26.25600 29.01000
C  -4.98200 25.86100 30.39400
C  -5.53700 24.41800 30.03900
C  -5.79000 24.50900 28.59200
C  -4.48000 23.21600 30.36800
C  -6.10100 26.77000 30.81500
C  -6.79800 26.52400 32.20100
H  -6.13200 25.52700 33.16200
N  -5.93100 24.04200 25.59800
C  -6.66100 23.34400 26.55300
C  -7.51100 22.37400 25.91200
C  -7.17600 22.39400 24.54400
C  -6.15100 23.47300 24.40400
C  -8.43300 21.42600 26.74500
C  -7.78700 21.59700 23.35800
O  -7.34400 21.76800 22.22000
C  -9.02300 20.69000 23.51600
N  -4.32400 25.94600 23.75200
C  -4.71500 25.01900 22.91300
C  -4.28500 25.32900 21.45400
C  -3.30300 26.63700 21.71700
C  -3.51600 26.87000 23.19800
C  -3.52000 24.18200 20.79500
C  -3.59800 27.95500 20.94100
C  -2.59800 28.29800 19.86700
N  -3.48800 27.21100 26.24200
C  -2.76700 27.96000 25.28700
C  -1.91900 28.86100 25.99600
C  -2.21900 28.68100 27.39600
C  -3.20300 27.63900 27.46100
C  -1.00400 29.97900 25.49800
C  -1.96500 29.12100 28.75700
O  -1.12300 29.88700 29.20800
C  -2.95600 28.23900 29.63300
C  -2.14200 27.46500 30.62900
O  -1.17600 26.75400 30.40800
O  -2.56700 27.77200 31.83000
C  -1.91100 27.08600 32.96600
H  -6.96200 22.86900 28.69200
H  -5.73700 23.42100 22.26300
H  -2.12800 28.43000 23.31200
H  -4.20400 25.83200 31.15700
H  -6.53200 24.32700 30.47500
H  -3.58800 23.66300 30.80600
H  -4.32000 22.72000 29.41100
H  -4.83800 22.43300 31.03700
H  -6.87400 26.73300 30.04800
H  -5.79400 27.81600 30.83600
H  -7.83100 26.20400 32.06800
H  -6.85200 27.51400 32.65300
H  -8.34800 21.54000 27.82500
H  -8.29400 20.36500 26.53500
H  -9.46400 21.74200 26.58300
H  -9.19400 20.18900 22.56400
H  -9.81700 21.32700 23.90700
H  -8.71300 19.98700 24.28900
H  -5.10600 25.57500 20.78000
H  -2.28500 26.28400 21.55500
H  -3.94200 23.89400 19.83200
H  -3.38200 23.20100 21.24900
H  -2.48200 24.46300 20.62300
H  -3.57400 28.78300 21.64900
H  -4.63000 27.97400 20.59300
H  -1.74800 27.61700 19.81600
H  -2.09500 29.21200 20.18300
H  -3.03900 28.61700 18.92300
H  -0.66000 29.69400 24.50400
H  -0.08100 29.95400 26.07600
H  -1.48700 30.94100 25.66800
H  -3.66900 28.80700 30.23200
H  -2.32600 27.47300 33.89600
H  -0.82100 27.11400 32.95800
H  -2.25400 26.05600 32.87600

