158

Mg 2.19000 8.87700 27.96400
C  2.67800 11.03100 30.75700
C  2.33500 6.22600 30.13600
C  2.10100 6.91100 25.34500
C  2.22700 11.74500 25.93300
N  2.56400 8.65500 30.12600
C  2.53300 9.70500 31.08100
C  2.24000 9.21200 32.50600
C  2.53400 7.69200 32.32500
C  2.40300 7.51700 30.80600
C  3.90800 7.16000 32.86900
C  0.76400 9.48600 32.95400
C  0.43500 9.19100 34.39600
H  1.51800 8.72300 35.48500
N  2.12800 6.88800 27.75500
C  2.17900 5.95800 28.77600
C  1.95400 4.55400 28.20500
C  1.83000 4.77200 26.82900
C  2.05500 6.23300 26.57300
C  2.11500 3.33100 29.14000
C  1.49100 3.77700 25.68700
O  1.57500 4.06100 24.49700
C  0.98600 2.37400 26.05500
N  2.19700 9.27000 25.94500
C  2.06900 8.27200 25.10200
C  2.00300 8.79900 23.67700
C  1.63500 10.32100 23.92100
C  2.12000 10.52400 25.35900
C  3.34400 8.54900 22.90700
C  0.13100 10.57800 23.80200
C  -0.39400 11.16100 22.46400
N  2.53900 10.96100 28.20100
C  2.50200 12.06100 27.28800
C  2.75800 13.28300 28.02100
C  2.79300 12.91200 29.33700
C  2.60800 11.50900 29.39900
C  2.90000 14.69600 27.48500
C  2.93800 13.45300 30.75100
O  3.22600 14.59800 31.05800
C  2.64800 12.19300 31.68200
C  3.64900 12.19800 32.70500
O  4.81000 11.80400 32.56500
O  3.05800 12.67500 33.87200
C  3.99200 12.58200 35.01700
H  2.41600 5.42400 30.87300
H  1.96400 6.24700 24.48900
H  1.96500 12.47700 25.16600
H  3.06600 9.64500 33.07000
H  1.71900 7.11900 32.76600
H  4.68200 7.89400 32.64500
H  4.06400 6.19400 32.38900
H  3.84500 6.94100 33.93500
H  0.10000 8.84100 32.38000
H  0.43900 10.50600 32.74700
H  -0.40400 8.49600 34.36600
H  0.10400 10.12400 34.85300
H  1.42500 3.55300 29.95500
H  3.10100 3.33600 29.60400
H  1.90800 2.42900 28.56500
H  1.82600 1.76900 26.39600
H  0.52100 1.93400 25.17300
H  0.18100 2.40000 26.78900
H  1.22900 8.34700 23.05600
H  2.28200 10.97300 23.33300
H  3.48500 7.47100 22.82700
H  4.18800 8.94100 23.47400
H  3.45000 8.95700 21.90200
H  -0.18400 11.30800 24.54800
H  -0.39500 9.68500 24.13800
H  0.09700 10.73100 21.59100
H  -0.23900 12.24000 22.47900
H  -1.47400 11.02100 22.42200
H  3.90400 15.12000 27.50900
H  2.19900 15.31900 28.04000
H  2.57800 14.68900 26.44400
H  1.64100 12.30200 32.08600
H  4.40900 11.57600 34.96400
H  3.41700 12.75400 35.92700
H  4.71300 13.38300 34.85600
Mg 46.16900 24.80600 28.44300
C  47.05900 27.09200 31.08500
C  45.53200 22.45600 30.96600
C  45.53900 22.51500 26.09300
C  47.46100 26.95200 26.17700
N  46.36900 24.84600 30.75000
C  46.66600 25.83900 31.57400
C  46.26900 25.51200 33.07600
C  46.06200 23.95300 33.02800
C  46.03300 23.68300 31.46000
C  47.13700 22.99000 33.73700
C  45.06400 26.36000 33.59900
C  45.26600 27.48400 34.67600
H  44.30900 27.45200 35.85900
N  45.54400 22.84400 28.50200
C  45.35600 22.04700 29.60900
C  44.92700 20.65500 29.21300
C  44.73500 20.71900 27.79100
C  45.33800 22.00100 27.39000
C  44.66100 19.47900 30.21700
C  44.13500 19.73100 26.78500
O  43.96500 20.09000 25.59400
C  43.65400 18.31100 27.25400
N  46.43900 24.76600 26.38500
C  46.01900 23.71900 25.65100
C  46.26700 23.97600 24.13500
C  46.68500 25.50800 24.11800
C  46.84700 25.80700 25.62100
C  47.18400 23.11200 23.34600
C  45.71500 26.60700 23.44400
C  46.20000 27.62500 22.38100
N  47.03700 26.65700 28.52900
C  47.60800 27.40100 27.54100
C  48.24200 28.59900 28.13400
C  48.02600 28.59800 29.47400
C  47.30300 27.36400 29.71700
C  48.73800 29.73600 27.29400
C  48.19400 29.24400 30.81300
O  48.64400 30.32300 31.01300
C  47.51900 28.35900 31.85900
C  48.65600 28.08400 32.83100
O  49.67100 27.45800 32.57500
O  48.35600 28.60700 34.06700
C  49.33500 28.21600 35.04800
H  45.32200 21.72200 31.74600
H  45.39300 21.83600 25.25100
H  47.87500 27.60800 25.40800
H  47.17200 25.71100 33.65400
H  45.12800 23.70700 33.53300
H  46.76000 22.51800 34.64400
H  48.04800 23.50300 34.04600
H  47.52200 22.16300 33.14000
H  44.37900 25.67800 34.10400
H  44.57400 26.87900 32.77500
H  45.07900 28.43200 34.17100
H  46.20900 27.24100 35.16400
H  43.88200 18.79900 29.87200
H  44.39000 19.84100 31.20900
H  45.59500 18.93700 30.36500
H  44.38000 17.68200 27.76800
H  43.48300 17.57800 26.46500
H  42.72900 18.40400 27.82400
H  45.32800 23.87300 23.59300
H  47.63500 25.61800 23.59600
H  47.57500 23.69700 22.51400
H  46.82000 22.09800 23.18100
H  48.13300 23.12800 23.88200
H  45.25300 27.21100 24.22500
H  44.99600 25.99800 22.89700
H  45.71100 27.53000 21.41200
H  47.27000 27.54700 22.19100
H  46.04200 28.63600 22.75500
H  48.66900 30.50400 28.06500
H  48.05900 29.87500 26.45300
H  49.74100 29.47300 26.95900
H  46.75900 28.88800 32.43400
H  50.32500 28.64800 34.90400
H  49.54800 27.15700 34.89900
H  48.96400 28.27300 36.07100

