158

Mg 39.84600 9.27000 29.09400
C  41.96700 10.36200 31.70600
C  37.62800 8.18700 31.43100
C  38.03700 7.90600 26.58500
C  42.26000 10.14000 26.82400
N  39.78800 9.33600 31.23400
C  40.74400 9.81300 32.13300
C  40.30200 9.76600 33.57200
C  39.04100 8.93100 33.50300
C  38.72000 8.88500 31.94800
C  39.13500 7.63700 34.31500
C  39.97300 11.21300 34.15000
C  39.07400 11.31200 35.45600
H  39.41100 12.40300 36.47900
N  37.94900 8.41000 28.96700
C  37.23900 7.95200 30.05100
C  36.03100 7.24700 29.62400
C  36.19400 7.12700 28.19000
C  37.39400 7.86800 27.84300
C  34.98900 6.65200 30.56700
C  35.30300 6.30600 27.21700
O  35.61300 6.06000 26.05500
C  34.07200 5.65000 27.71000
N  40.10900 9.03800 26.99900
C  39.25200 8.40500 26.19000
C  39.55200 8.70900 24.72100
C  40.82500 9.55000 24.81800
C  41.11100 9.54000 26.26600
C  39.53000 7.44700 23.84400
C  40.67300 11.04500 24.31500
C  40.02200 12.23600 25.17500
N  41.75900 9.99600 29.21100
C  42.66300 10.38100 28.20400
C  43.81700 10.96800 28.75400
C  43.62700 10.87300 30.11700
C  42.37300 10.33300 30.38200
C  44.94300 11.53200 28.00900
C  44.20900 11.23000 31.31200
O  45.36200 11.55400 31.54400
C  43.20300 10.80100 32.46300
C  43.91100 9.84600 33.29000
O  44.43000 8.79500 32.90100
O  43.87500 10.18200 34.63800
C  44.30100 9.27400 35.67600
H  37.00300 7.82100 32.24800
H  37.43300 7.66700 25.70700
H  42.92100 10.60100 26.08700
H  41.12600 9.32100 34.13000
H  38.25100 9.51500 33.97600
H  38.31300 7.70000 35.02800
H  40.00600 7.64200 34.97000
H  39.08300 6.72100 33.72700
H  39.51300 11.83700 33.38400
H  40.93600 11.70700 34.27900
H  39.14900 10.35700 35.97600
H  38.03600 11.38500 35.13300
H  34.00700 7.05000 30.31100
H  35.07300 6.93100 31.61800
H  34.78500 5.59400 30.40500
H  34.42500 4.89800 28.41500
H  33.50800 5.09800 26.95900
H  33.34300 6.30500 28.18800
H  38.75600 9.40200 24.44900
H  41.68400 9.11700 24.30500
H  40.43800 7.10900 23.34500
H  38.82700 7.60500 23.02600
H  39.18400 6.54100 24.34000
H  40.20500 11.10500 23.33200
H  41.68200 11.36300 24.05300
H  39.73200 12.05600 26.21000
H  39.12200 12.56200 24.65200
H  40.67400 13.10400 25.26600
H  44.69700 11.87800 27.00600
H  45.70900 10.75700 28.01900
H  45.27700 12.42900 28.53100
H  43.09600 11.67100 33.11100
H  43.79100 8.34000 35.44100
H  43.89800 9.56800 36.64600
H  45.36300 9.05200 35.77300
Mg 30.82400 58.14700 40.92400
C  28.10800 56.45400 39.25100
C  32.88600 55.79700 39.51200
C  33.43600 60.13400 41.54200
C  28.56700 60.81700 41.42700
N  30.50700 56.38500 39.62200
C  29.36800 55.86500 39.07100
C  29.61000 54.55400 38.31600
C  31.10100 54.22600 38.74300
C  31.54900 55.57400 39.31200
C  31.40100 52.97400 39.71800
C  29.28100 54.72900 36.83800
C  28.40700 53.58700 36.20900
H  27.76600 53.93000 34.82900
N  32.85200 57.96700 40.61500
C  33.52500 56.93000 40.05500
C  34.98000 57.14400 40.11400
C  35.12200 58.38000 40.77100
C  33.76800 58.89100 41.02000
C  36.04300 56.26500 39.54700
C  36.42700 59.12400 41.15100
O  37.48800 58.76000 40.64200
C  36.48300 60.42700 42.10600
N  30.99300 60.25000 41.26300
C  32.16100 60.76800 41.71800
C  32.06400 62.26300 42.03700
C  30.50300 62.39300 42.29700
C  29.97400 61.06000 41.64000
C  32.96700 62.83100 43.17100
C  29.87300 63.68700 41.72800
C  28.86700 64.40400 42.65700
N  28.75700 58.55600 40.55400
C  27.97200 59.61700 40.96400
C  26.65300 59.44000 40.43900
C  26.61900 58.21300 39.80300
C  27.92700 57.67400 39.91600
C  25.48700 60.39200 40.63700
C  25.87000 57.29900 39.03600
O  24.71500 57.26900 38.69000
C  26.77300 55.97200 38.77900
C  26.34100 54.78600 39.65200
O  26.10000 54.88000 40.84400
O  26.29000 53.65300 38.94700
C  26.21800 52.33500 39.67300
H  33.58400 55.02800 39.17300
H  34.19400 60.88300 41.78200
H  27.87200 61.62700 41.65700
H  28.98400 53.81700 38.81900
H  31.80400 54.12300 37.91700
H  30.61900 52.21500 39.70600
H  31.51300 53.44300 40.69600
H  32.35900 52.55200 39.41500
H  30.27200 54.76100 36.38500
H  28.88300 55.73800 36.73300
H  27.62100 53.25500 36.88700
H  29.09800 52.75000 36.10500
H  36.73200 55.97700 40.34100
H  36.57800 56.79700 38.76000
H  35.68400 55.32700 39.12200
H  36.14900 61.33400 41.60200
H  37.52800 60.64300 42.32700
H  35.97800 60.29300 43.06300
H  32.38300 62.71300 41.09700
H  30.38000 62.30800 43.37700
H  33.76800 63.40400 42.70200
H  33.28800 61.97000 43.75800
H  32.38300 63.51300 43.78900
H  29.31000 63.34600 40.86000
H  30.58300 64.42400 41.35400
H  28.66100 63.74000 43.49700
H  27.93500 64.50900 42.10300
H  29.25300 65.40800 42.83600
H  25.65400 61.38700 40.22400
H  25.42800 60.48200 41.72200
H  24.58800 59.92800 40.23200
H  26.68600 55.61700 37.75200
H  25.66000 51.58000 39.11900
H  25.98400 52.42800 40.73400
H  27.14500 51.76100 39.66600

