158

Mg 47.33600 24.78000 28.82600
C  47.84900 27.43500 31.17900
C  46.34400 22.76100 31.39700
C  46.95500 22.42800 26.46500
C  48.64700 27.00400 26.41200
N  47.14600 25.06600 31.02300
C  47.31200 26.24500 31.75100
C  46.94300 25.95800 33.15800
C  46.68200 24.37000 33.28000
C  46.74200 24.03700 31.80200
C  47.68500 23.51500 34.28900
C  45.77100 26.84400 33.61700
C  45.70700 27.43700 35.05300
H  46.17200 26.61800 36.26400
N  46.80400 22.89600 28.89300
C  46.38300 22.20000 30.06000
C  45.89800 20.89600 29.69600
C  46.19000 20.74600 28.34400
C  46.70300 22.03000 27.83500
C  45.22600 19.93300 30.66700
C  45.95100 19.56100 27.44800
O  46.48300 19.52300 26.31800
C  45.39800 18.37200 27.97000
N  48.03400 24.63900 26.67100
C  47.58400 23.62100 25.95800
C  47.79200 23.88500 24.43200
C  48.36200 25.37700 24.44000
C  48.34500 25.71000 25.93500
C  48.70300 22.70000 23.83000
C  47.46000 26.26200 23.45800
C  46.27000 27.06200 24.14900
N  48.14500 26.75200 28.74200
C  48.67300 27.49200 27.70900
C  49.04800 28.84700 28.18800
C  48.75400 28.79500 29.51200
C  48.16200 27.53300 29.82800
C  49.67900 30.00900 27.38200
C  48.74000 29.66400 30.68100
O  49.08200 30.85400 30.78200
C  48.04600 28.79900 31.79600
C  49.01500 28.69300 32.90600
O  50.17100 28.32500 32.85200
O  48.47000 29.03700 34.07500
C  49.37900 29.03100 35.23700
H  45.98500 22.17600 32.24700
H  46.73600 21.76700 25.62300
H  48.97300 27.61900 25.57100
H  47.81600 26.23700 33.74900
H  45.63900 24.26900 33.58100
H  48.56800 24.11600 34.50800
H  48.03900 22.58300 33.85000
H  47.15700 23.30500 35.22000
H  44.79900 26.37800 33.45300
H  45.72900 27.73000 32.98400
H  44.65900 27.65000 35.26000
H  46.09500 28.45500 35.09100
H  44.21600 19.66700 30.35700
H  45.11400 20.35100 31.66800
H  45.83300 19.02800 30.63800
H  44.40100 18.58900 28.35200
H  45.96200 18.01900 28.83300
H  45.30200 17.67800 27.13500
H  46.81300 23.83700 23.95500
H  49.37800 25.33400 24.04700
H  49.50100 23.09700 23.20300
H  48.07600 22.10700 23.16500
H  49.09200 21.99300 24.56300
H  47.13100 25.53700 22.71400
H  48.15800 26.96500 23.00500
H  46.34600 26.92100 25.22700
H  45.28200 26.89700 23.71800
H  46.39100 28.13700 24.01200
H  49.67400 29.58600 26.37700
H  50.70500 30.18100 27.70900
H  49.18200 30.97000 27.51000
H  47.17100 29.37900 32.09000
H  50.22300 29.68300 35.01300
H  49.88400 28.09300 35.46700
H  48.93400 29.43800 36.14500
Mg 41.73900 41.11300 26.74600
C  40.91200 43.61200 29.09200
C  42.67800 39.05400 29.27700
C  42.78700 38.83400 24.33900
C  41.22500 43.43500 24.21700
N  41.89000 41.41700 28.90700
C  41.28100 42.44100 29.69100
C  41.34200 42.09900 31.18100
C  41.95100 40.66600 31.15200
C  42.25000 40.38700 29.71500
C  43.13700 40.45200 32.11300
C  39.84000 42.16000 31.79900
C  39.91200 41.65300 33.27200
H  39.21300 42.49800 34.34900
N  42.60100 39.20100 26.77500
C  42.87200 38.55400 27.94000
C  43.37200 37.25800 27.62100
C  43.53800 37.20800 26.15300
C  42.93600 38.44300 25.66700
C  43.78400 36.18600 28.63400
C  44.15200 36.14000 25.23800
O  44.27800 36.29800 24.03000
C  44.75800 34.95100 25.83100
N  41.93200 41.17100 24.68600
C  42.37000 40.08900 23.86600
C  42.44900 40.46700 22.31800
C  41.53700 41.79300 22.33400
C  41.56100 42.17700 23.85900
C  43.91100 40.55100 21.70100
C  40.24300 41.65300 21.57400
C  39.25000 40.63600 22.19500
N  41.12400 43.14200 26.59400
C  41.08700 43.97400 25.55500
C  40.73600 45.33600 25.96500
C  40.57100 45.20400 27.31800
C  40.89000 43.85900 27.72700
C  40.60400 46.60500 25.13700
C  40.22900 45.86300 28.60900
O  40.00200 47.09500 28.68000
C  40.22400 44.81000 29.69800
C  40.83400 45.46800 30.86600
O  41.92700 46.06100 30.87600
O  39.97000 45.58800 31.93900
C  40.23300 46.41800 33.11200
H  42.91700 38.35500 30.08200
H  43.17800 38.21100 23.53200
H  40.93400 44.19000 23.48300
H  41.97300 42.76200 31.77300
H  41.19900 39.97200 31.52800
H  43.30800 41.40300 32.61700
H  43.96300 40.05200 31.52500
H  42.71000 39.69500 32.77100
H  39.14200 41.53000 31.24900
H  39.48600 43.18900 31.74300
H  40.92800 41.35000 33.52400
H  39.32000 40.73800 33.24500
H  44.83900 36.12000 28.90000
H  43.41700 35.22300 28.28100
H  43.23700 36.46000 29.53700
H  45.35600 34.32400 25.17000
H  43.99900 34.30000 26.26300
H  45.44100 35.27900 26.61400
H  41.84200 39.69100 21.85200
H  42.04400 42.61100 21.82200
H  44.20200 41.57300 21.45900
H  43.93200 39.87000 20.85000
H  44.59200 40.25700 22.50000
H  40.46500 41.40900 20.53500
H  39.71300 42.60500 21.53100
H  38.97400 39.90000 21.43900
H  38.32500 41.10100 22.53700
H  39.73800 40.10400 23.01100
H  40.58300 46.27000 24.10000
H  41.46800 47.23200 25.35800
H  39.70000 47.16800 25.36700
H  39.15900 44.64900 29.86300
H  40.56800 45.90000 34.01100
H  39.23800 46.83500 33.26400
H  40.98800 47.18400 32.93500

