158

Mg 6.11400 53.67200 41.72600
C  5.67400 50.31500 40.87400
C  9.25100 53.56000 40.51000
C  6.10100 57.05300 41.58800
C  2.57100 53.83100 42.57800
N  7.17200 52.09900 40.58300
C  6.90900 50.78100 40.43700
C  8.02400 50.05000 39.91200
C  9.25500 51.00000 40.16700
C  8.54700 52.33000 40.46900
C  10.26000 50.45400 41.32600
C  7.93200 49.58300 38.43500
C  7.14700 50.45800 37.41200
H  7.18700 49.95600 35.95200
N  7.53600 55.13200 41.16900
C  8.80100 54.86900 40.78100
C  9.55300 56.08500 40.64700
C  8.73700 57.14100 41.12100
C  7.39300 56.46500 41.35700
C  10.92500 56.09600 40.01900
C  9.10100 58.62100 41.23600
O  10.25700 58.95100 41.17400
C  8.07400 59.60000 41.56500
N  4.52200 55.24200 42.02100
C  4.87200 56.50600 41.87900
C  3.61200 57.39100 42.13600
C  2.51100 56.38700 42.63000
C  3.18100 55.04900 42.30500
C  3.80400 58.73300 42.90400
C  1.05000 56.64800 42.20900
C  0.00800 56.29000 43.27400
N  4.49600 52.36800 41.90900
C  3.17900 52.58200 42.30500
C  2.61300 51.22500 42.47200
C  3.48700 50.33800 41.87900
C  4.64400 51.10000 41.50700
C  1.38200 50.87000 43.36500
C  3.76000 48.92800 41.57500
O  3.05300 47.99100 41.89300
C  5.14300 48.86600 40.88700
C  5.02800 48.09100 39.59600
O  4.44800 48.46100 38.60600
O  5.60700 46.81200 39.72400
C  5.45900 45.95600 38.59900
H  10.29500 53.47800 40.19900
H  6.08600 58.13400 41.43300
H  1.52300 53.92700 42.86900
H  8.11900 49.13300 40.49400
H  9.95600 51.09000 39.33700
H  10.42600 51.25700 42.04400
H  11.23900 50.23700 40.89800
H  9.99000 49.56000 41.88800
H  7.37100 48.66000 38.28900
H  8.95800 49.36600 38.13900
H  7.67600 51.41000 37.45900
H  6.14800 50.78600 37.69800
H  10.94500 56.11900 38.92900
H  11.40400 55.18400 40.37600
H  11.47300 56.95300 40.41200
H  8.60800 60.53000 41.76000
H  7.70800 59.27100 42.53800
H  7.34000 59.70900 40.76700
H  3.41400 57.79700 41.14400
H  2.67900 56.59400 43.68700
H  3.38600 59.58100 42.36100
H  4.86500 58.97800 42.94200
H  3.49000 58.69500 43.94700
H  0.80000 56.00500 41.36600
H  1.14300 57.67500 41.85400
H  -0.56200 57.20900 43.40400
H  0.55800 56.05500 44.18500
H  -0.70700 55.53700 42.94100
H  0.94000 49.98300 42.91200
H  0.64900 51.67000 43.46900
H  1.76200 50.63200 44.35800
H  5.79700 48.24400 41.49800
H  4.95100 45.04600 38.91800
H  6.44300 45.61900 38.27100
H  4.94200 46.36300 37.73000
Mg -1.08600 34.77200 26.46800
C  -2.66200 32.87800 29.06000
C  0.15300 36.82400 29.01000
C  0.23900 36.69900 24.12200
C  -2.67200 32.93500 24.13200
N  -1.38300 34.84800 28.79800
C  -1.87600 33.89100 29.58000
C  -1.53000 34.20700 31.06800
C  -0.75100 35.52100 31.06300
C  -0.64900 35.80400 29.52200
C  -1.50800 36.72900 31.90300
C  -0.87400 33.02300 31.98000
C  -1.45800 32.88600 33.40000
H  -0.51500 32.97900 34.56700
N  0.04500 36.43300 26.52900
C  0.54400 37.10200 27.67700
C  1.53000 38.04200 27.29500
C  1.53100 38.11600 25.86900
C  0.63600 37.00200 25.43300
C  2.30700 38.95700 28.31000
C  2.29200 38.99900 24.93900
O  2.21200 38.82100 23.71700
C  3.05000 40.16900 25.48700
N  -1.24900 34.86700 24.37100
C  -0.54900 35.68500 23.61100
C  -0.67500 35.39900 22.11700
C  -1.33300 33.95000 22.18400
C  -1.75900 33.87500 23.64400
C  -1.57200 36.42100 21.28900
C  -0.65500 32.66400 21.58900
C  0.66100 32.36000 22.30700
N  -2.41800 33.28300 26.52700
C  -3.02300 32.67600 25.49600
C  -3.80400 31.58400 25.93200
C  -3.68900 31.68700 27.32600
C  -2.85400 32.71300 27.64800
C  -4.70300 30.68700 25.19900
C  -4.02300 30.98500 28.53600
O  -4.67000 29.97000 28.64000
C  -3.39100 31.74700 29.75000
C  -4.52600 32.30200 30.52600
O  -5.31500 33.15500 30.21300
O  -4.58900 31.64100 31.77300
C  -5.66300 32.08700 32.63900
H  0.42100 37.56900 29.76200
H  0.58500 37.29100 23.27200
H  -3.11700 32.23900 23.41800
H  -2.48300 34.44800 31.53800
H  0.21000 35.44200 31.57200
H  -2.47900 36.86200 31.42600
H  -0.93600 37.65400 31.97800
H  -1.75400 36.32100 32.88300
H  0.20000 33.20200 32.01500
H  -1.13200 32.02300 31.63100
H  -1.89900 31.89100 33.46300
H  -2.26300 33.61000 33.52700
H  3.34400 38.65100 28.16900
H  2.13600 38.71600 29.35900
H  2.09400 39.99200 28.04100
H  2.37800 40.80300 26.06500
H  3.50600 40.73400 24.67400
H  3.89900 39.90800 26.11800
H  0.35400 35.46100 21.76300
H  -2.31300 33.89600 21.71000
H  -1.51500 37.42000 21.72200
H  -2.63500 36.18200 21.26000
H  -1.32800 36.54600 20.23400
H  -0.49000 32.69800 20.51200
H  -1.27000 31.77900 21.75400
H  1.29100 31.86900 21.56500
H  0.43200 31.66900 23.11900
H  1.30000 33.19900 22.58500
H  -4.75400 30.99200 24.15400
H  -5.70700 30.77900 25.61300
H  -4.37600 29.65100 25.28700
H  -2.76300 31.09000 30.35100
H  -5.24600 32.88500 33.25400
H  -5.84600 31.17100 33.20100
H  -6.59700 32.40800 32.17700

