158

Mg 25.58300 -6.84200 47.51900
C  26.98200 -4.08900 45.55100
C  22.79300 -6.66700 45.51100
C  24.72700 -9.67800 48.95400
C  28.88800 -7.14200 48.94100
N  25.03700 -5.65700 45.59500
C  25.69000 -4.55900 45.08000
C  24.82400 -3.86000 44.00400
C  23.42700 -4.57500 44.15500
C  23.78100 -5.75600 45.12500
C  22.30900 -3.52500 44.61500
C  25.40500 -3.84500 42.53500
C  25.87600 -2.53300 41.99100
H  25.07000 -2.07100 40.72900
N  24.00100 -8.01600 47.30700
C  22.93700 -7.78600 46.41700
C  21.98600 -8.86400 46.67200
C  22.51800 -9.77400 47.60100
C  23.81300 -9.20000 48.00500
C  20.73800 -8.89900 45.87000
C  21.90600 -11.09700 48.03800
O  20.84000 -11.44200 47.65100
C  22.66100 -12.08300 48.85200
N  26.69300 -8.28300 48.65400
C  26.02200 -9.34500 49.25100
C  26.81500 -10.04900 50.32000
C  28.19300 -9.32600 50.19400
C  27.93800 -8.20900 49.20000
C  26.17700 -10.12600 51.75800
C  29.45100 -10.11600 49.69100
C  30.75900 -9.71900 50.23100
N  27.47900 -5.80300 47.39800
C  28.66200 -6.02800 48.13100
C  29.53100 -4.92700 47.87200
C  28.98300 -4.24400 46.83100
C  27.69800 -4.70800 46.58400
C  30.83800 -4.63100 48.53300
C  29.15200 -3.14300 45.93200
O  30.13900 -2.39400 45.79200
C  27.83300 -2.92300 45.18700
C  27.08700 -1.65100 45.44600
O  27.16000 -0.72900 44.68100
O  26.47400 -1.53800 46.66700
C  25.61400 -0.41100 46.97200
H  21.93500 -6.58000 44.84100
H  24.32300 -10.55700 49.46100
H  29.84200 -7.09500 49.47100
H  24.79700 -2.86300 44.44400
H  23.22800 -4.96300 43.15600
H  21.37500 -3.70400 44.08300
H  22.68200 -2.51900 44.42700
H  22.07900 -3.58600 45.67900
H  24.67800 -4.27100 41.84400
H  26.18700 -4.59800 42.43200
H  26.93700 -2.60000 41.75000
H  25.77800 -1.80600 42.79700
H  20.90400 -9.46200 44.95100
H  20.45800 -7.87200 45.63800
H  19.86800 -9.33300 46.36500
H  23.62200 -12.25600 48.36800
H  22.16900 -13.04000 48.67700
H  22.64100 -11.96100 49.93500
H  26.88100 -11.08500 49.98900
H  28.52100 -8.82700 51.10600
H  25.30600 -9.48400 51.88700
H  26.90000 -9.77900 52.49600
H  25.93600 -11.16300 51.99200
H  29.33300 -10.03500 48.61100
H  29.29800 -11.17500 49.89800
H  31.41200 -9.34700 49.44300
H  31.20500 -10.51800 50.82400
H  30.51100 -9.02200 51.03200
H  30.92900 -3.58600 48.82900
H  31.64300 -4.75300 47.80900
H  31.09300 -5.23500 49.40400
H  28.04400 -3.03500 44.12300
H  24.65100 -0.74800 47.35400
H  25.39900 0.21100 46.10300
H  26.04800 0.29000 47.68600
Mg 44.12900 4.22400 48.25400
C  42.01800 6.98000 47.58700
C  41.55300 2.15800 47.79400
C  46.29700 1.65500 48.54200
C  46.81300 6.51000 48.29800
N  42.05900 4.59800 47.53800
C  41.37100 5.74400 47.37500
C  39.93500 5.50500 47.14000
C  39.77700 4.04000 47.43100
C  41.23700 3.57100 47.59100
C  38.89700 3.76900 48.69100
C  39.48800 5.91900 45.69000
C  38.29900 6.85900 45.65600
H  37.60500 6.83900 44.28500
N  43.92000 2.18000 48.03400
C  42.78400 1.52700 47.94500
C  43.04600 0.08500 48.01700
C  44.45900 -0.05200 48.24400
C  44.98200 1.33100 48.27700
C  42.07100 -0.99500 47.82300
C  45.15200 -1.37500 48.42000
O  44.57500 -2.45300 48.39300
C  46.62100 -1.48100 48.68900
N  46.14300 4.04700 48.12400
C  46.86500 2.86700 48.46100
C  48.26600 3.14700 48.88900
C  48.42900 4.66200 48.41300
C  47.00600 5.12300 48.18700
C  48.52800 2.97700 50.44600
C  49.28000 4.79200 47.15100
C  50.73500 5.06500 47.55700
N  44.44700 6.34300 48.08700
C  45.54300 7.12700 48.17700
C  45.22400 8.52300 48.07500
C  43.82300 8.51200 47.85300
C  43.40000 7.21100 47.85300
C  46.27400 9.59800 48.05100
C  42.73400 9.33700 47.60800
O  42.67600 10.55600 47.43700
C  41.38600 8.40200 47.48200
C  40.51800 8.80400 48.71200
O  40.98800 8.95900 49.81900
O  39.24000 9.13600 48.34700
C  38.52600 9.83500 49.44900
H  40.68200 1.50000 47.77600
H  47.07000 0.93300 48.81700
H  47.59800 7.26200 48.39600
H  39.39800 6.08800 47.88900
H  39.31900 3.41900 46.66100
H  38.09100 4.49200 48.81500
H  39.58300 3.91100 49.52600
H  38.54700 2.73600 48.68200
H  39.28100 5.05200 45.06300
H  40.38500 6.24900 45.16600
H  38.63800 7.87300 45.86600
H  37.49800 6.64500 46.36400
H  42.08900 -1.47200 46.84400
H  41.05300 -0.63000 47.95800
H  42.20100 -1.66800 48.67000
H  46.68700 -0.94600 49.63600
H  47.13400 -0.96200 47.87800
H  46.95500 -2.50200 48.87400
H  48.86500 2.39400 48.37900
H  48.89200 5.26700 49.19300
H  47.80500 2.34000 50.95600
H  48.62800 3.93100 50.96500
H  49.42800 2.37300 50.33100
H  48.87100 5.64400 46.60800
H  49.30800 3.84300 46.61600
H  50.88400 5.12500 48.63500
H  51.11400 5.94000 47.02900
H  51.52000 4.39700 47.20400
H  46.91500 9.35100 47.20500
H  46.93900 9.48500 48.90800
H  45.98400 10.64500 48.13900
H  40.78700 8.38900 46.57100
H  39.04800 10.66100 49.93300
H  38.28800 9.10500 50.22300
H  37.57000 10.23700 49.11300

