158

Mg 24.92200 -5.49600 45.69400
C  26.84600 -2.82800 44.01300
C  22.38400 -4.86600 43.60700
C  23.66700 -8.19400 46.81300
C  28.01900 -6.16500 47.30000
N  24.77100 -4.13900 43.83000
C  25.57300 -3.09000 43.42700
C  24.87400 -2.38400 42.27500
C  23.38800 -2.85600 42.38700
C  23.49000 -4.03800 43.32300
C  22.37900 -1.71500 42.81300
C  25.56200 -2.55100 40.90500
C  25.35700 -1.41000 39.89200
H  26.21100 -1.42400 38.62200
N  23.14300 -6.40600 45.32700
C  22.20600 -6.04000 44.38900
C  21.05400 -6.90900 44.64200
C  21.40800 -7.94800 45.55600
C  22.84300 -7.54100 45.95400
C  19.75600 -6.71300 43.84800
C  20.48100 -9.06600 46.12200
O  19.35800 -9.20700 45.73300
C  20.91800 -9.94300 47.34400
N  25.74300 -6.97000 46.84300
C  24.97500 -8.01300 47.18700
C  25.78800 -9.09200 47.90800
C  27.16400 -8.39000 48.17000
C  26.97600 -7.10400 47.36300
C  25.17100 -9.58500 49.27100
C  28.42800 -9.17800 47.69400
C  29.57300 -9.23100 48.74200
N  26.98800 -4.50100 45.94200
C  28.09300 -4.89900 46.61700
C  29.13300 -3.98800 46.44100
C  28.78300 -3.18500 45.38600
C  27.43500 -3.52100 45.14800
C  30.42800 -4.10700 47.08400
C  29.22700 -2.15200 44.44800
O  30.40400 -1.76800 44.25900
C  27.97300 -1.92400 43.45000
C  27.66600 -0.46600 43.26600
O  26.94700 0.18900 44.00900
O  28.53800 0.07800 42.32500
C  28.50500 1.53400 41.98500
H  21.45900 -4.63300 43.07600
H  23.18800 -9.14300 47.06600
H  28.92400 -6.40600 47.86200
H  24.95800 -1.35400 42.62100
H  23.09300 -3.17400 41.38700
H  21.88300 -1.52500 41.86100
H  22.79000 -0.74400 43.09000
H  21.68400 -2.11700 43.55000
H  25.10000 -3.44100 40.47700
H  26.60900 -2.78000 41.10400
H  25.70100 -0.52600 40.43000
H  24.29800 -1.25800 39.68500
H  19.38300 -7.66400 43.47000
H  19.88400 -6.10700 42.95100
H  18.97800 -6.12300 44.33200
H  20.01700 -10.33700 47.81400
H  21.33800 -9.33400 48.14500
H  21.57200 -10.76900 47.06400
H  25.86100 -9.97300 47.27000
H  27.19700 -8.05900 49.20800
H  24.16000 -9.19900 49.40600
H  25.83600 -9.42900 50.12100
H  24.98300 -10.65400 49.18000
H  28.81100 -8.78600 46.75200
H  28.09900 -10.17100 47.38700
H  29.54800 -10.18400 49.27000
H  29.33100 -8.55900 49.56500
H  30.54500 -9.05500 48.28100
H  31.05500 -3.22300 46.96300
H  30.83800 -5.01600 46.64500
H  30.26700 -4.20800 48.15700
H  28.33900 -2.15300 42.44800
H  28.04500 1.73700 41.01800
H  29.49900 1.97200 41.89100
H  28.02100 2.12900 42.75900
Mg 36.50400 49.29500 26.21500
C  37.23100 47.31600 29.15900
C  35.22800 51.70300 28.28700
C  35.70800 51.02500 23.52400
C  37.35500 46.47900 24.22600
N  36.30100 49.41500 28.52200
C  36.78200 48.59300 29.46600
C  36.65600 49.18700 30.83200
C  35.86900 50.56100 30.55800
C  35.71600 50.58600 29.02900
C  34.54000 50.86400 31.30000
C  38.09100 49.51600 31.56300
C  38.29500 49.33800 33.15700
H  36.95000 49.39400 33.94000
N  35.54400 51.10900 25.95000
C  35.14000 51.98200 26.93200
C  34.58200 53.22900 26.27300
C  34.65500 52.99800 24.85400
C  35.34500 51.68700 24.68600
C  33.91700 54.31700 27.00500
C  34.27100 53.83500 23.69400
O  34.46000 53.55900 22.54100
C  33.46300 55.02400 23.94500
N  36.59200 48.83000 24.15000
C  36.26200 49.74300 23.23200
C  36.56900 49.28000 21.79600
C  37.04800 47.79700 22.01900
C  37.06100 47.66000 23.54500
C  35.36400 49.40900 20.78200
C  38.39300 47.44200 21.37100
C  38.41200 47.22100 19.80600
N  37.10300 47.31200 26.53600
C  37.43900 46.32400 25.63400
C  37.91400 45.18600 26.30400
C  37.89800 45.52400 27.69900
C  37.35600 46.77500 27.82900
C  38.19500 43.84100 25.70200
C  38.22100 45.00600 29.01300
O  38.66400 43.88300 29.34700
C  37.78000 46.18700 29.98200
C  36.84500 45.65100 30.94900
O  35.85200 45.00800 30.63500
O  37.30300 45.89600 32.20000
C  36.89500 45.01700 33.31300
H  34.77800 52.43000 28.96600
H  35.61500 51.57900 22.58800
H  37.78300 45.61800 23.70800
H  36.00300 48.52600 31.40400
H  36.52700 51.41900 30.69300
H  33.73300 51.11000 30.61000
H  34.66400 51.71600 31.96800
H  34.19200 49.97000 31.81900
H  38.51800 50.49400 31.33900
H  38.81500 48.77000 31.23300
H  38.76100 50.28300 33.43800
H  38.85800 48.45000 33.44400
H  33.91100 55.24900 26.43900
H  34.39400 54.49700 27.96800
H  32.87000 54.08200 27.19500
H  32.65900 54.75100 24.62800
H  33.00800 55.38800 23.02400
H  34.09700 55.82000 24.33600
H  37.45900 49.85900 21.55300
H  36.28600 47.09100 21.68700
H  34.47400 49.81500 21.26200
H  35.11300 48.45700 20.31300
H  35.76900 50.00600 19.96500
H  38.84700 46.57100 21.84600
H  39.03400 48.31400 21.49500
H  37.46600 46.73700 19.56400
H  39.29800 46.63800 19.55400
H  38.45800 48.21500 19.36100
H  39.18500 43.54300 26.04800
H  38.15400 43.74300 24.61700
H  37.41900 43.24400 26.18000
H  38.65500 46.38300 30.60200
H  37.75800 44.49200 33.72200
H  36.25100 44.23200 32.91600
H  36.39600 45.44600 34.18200

