158

Mg 0.87100 7.29800 26.36200
C  1.89100 8.97600 29.12500
C  1.01100 4.43700 28.21300
C  0.62200 5.41600 23.49600
C  1.33900 10.16200 24.41600
N  1.36000 6.78700 28.45200
C  1.57200 7.69000 29.45300
C  1.53100 7.02600 30.81800
C  1.34900 5.49900 30.45100
C  1.26000 5.61200 28.91200
C  2.48000 4.57200 30.97600
C  0.29900 7.56400 31.57900
C  0.32900 7.73800 33.11800
H  1.43400 6.97900 33.91200
N  0.83500 5.24500 25.90100
C  0.85000 4.22500 26.85100
C  0.55500 2.93900 26.20900
C  0.48200 3.22600 24.80200
C  0.60700 4.65700 24.67400
C  0.19600 1.68800 26.94300
C  0.25900 2.24900 23.61400
O  0.45700 2.51200 22.46100
C  -0.10000 0.91400 23.91700
N  0.74400 7.71900 24.32300
C  0.59600 6.80200 23.33300
C  0.58900 7.53300 22.00200
C  0.45700 9.09100 22.29200
C  0.86500 8.98500 23.76300
C  1.72800 7.14500 21.11100
C  -0.99000 9.70900 22.23800
C  -1.00700 10.97700 21.40000
N  1.27400 9.22800 26.68500
C  1.58900 10.28500 25.82000
C  1.90500 11.45700 26.59500
C  1.99200 10.98300 27.86900
C  1.67300 9.60700 27.90000
C  2.10400 12.86900 26.13100
C  2.33100 11.40200 29.19500
O  2.66200 12.48000 29.63400
C  2.15500 10.10800 30.16400
C  3.30300 9.97900 31.09900
O  4.48000 9.98000 30.81200
O  2.79300 10.21900 32.41300
C  3.80300 10.38500 33.37700
H  1.08200 3.54900 28.84400
H  0.45800 4.74500 22.65000
H  1.54800 11.04400 23.80700
H  2.48400 7.14000 31.33500
H  0.52600 5.07100 31.02400
H  2.02300 3.62400 31.25800
H  2.89800 4.99800 31.88800
H  3.22500 4.40000 30.19900
H  -0.54000 6.91100 31.33800
H  0.11300 8.59100 31.26700
H  -0.63100 7.48100 33.56400
H  0.46700 8.80200 33.31200
H  0.81300 0.91900 26.47800
H  -0.87900 1.57600 26.80200
H  0.43900 1.71800 28.00600
H  0.68300 0.40600 24.48000
H  -0.18100 0.34600 22.99000
H  -0.99500 0.75700 24.52000
H  -0.34900 7.20800 21.55300
H  1.20900 9.62200 21.71000
H  2.59100 7.78300 21.30100
H  1.46700 7.13800 20.05300
H  2.00800 6.12800 21.38800
H  -1.47500 9.83300 23.20600
H  -1.64200 9.02400 21.69600
H  0.00300 11.36400 21.26100
H  -1.45500 11.76500 22.00400
H  -1.52400 10.89300 20.44400
H  3.01000 13.12900 25.58400
H  2.16400 13.42700 27.06600
H  1.16300 13.15700 25.66200
H  1.31600 10.26600 30.84200
H  4.50400 11.20600 33.22600
H  4.41700 9.53200 33.66600
H  3.32300 10.81100 34.25800
Mg 17.26400 -2.35900 27.76700
C  15.94900 -0.29100 30.54700
C  19.05100 -4.03000 30.23400
C  18.79100 -3.76400 25.32200
C  15.85000 0.03200 25.60500
N  17.34500 -2.20900 30.10000
C  16.71500 -1.39000 30.96300
C  17.12800 -1.64500 32.42600
C  18.17700 -2.76600 32.31500
C  18.28500 -2.98600 30.77300
C  19.52700 -2.57500 32.98900
C  15.87200 -2.11100 33.26500
C  15.92400 -1.84900 34.79900
H  17.13300 -1.22700 35.56200
N  18.52700 -3.86200 27.74100
C  19.14600 -4.47200 28.84200
C  19.89300 -5.62400 28.33300
C  19.83800 -5.56400 26.91600
C  18.97600 -4.40100 26.57900
C  20.56200 -6.70700 29.17800
C  20.58900 -6.43100 25.92600
O  20.39800 -6.10000 24.77900
C  21.42300 -7.64300 26.26000
N  17.20500 -1.95700 25.70800
C  18.05100 -2.66600 24.92700
C  17.98700 -2.07700 23.37500
C  17.07500 -0.82800 23.53100
C  16.68200 -0.93900 24.98900
C  19.47000 -1.65800 22.85400
C  15.81200 -0.72800 22.50400
C  16.27400 -0.42000 21.11000
N  16.02500 -0.61800 27.93300
C  15.48600 0.24300 27.01700
C  14.64200 1.21200 27.58900
C  14.83800 1.07300 29.00100
C  15.65400 -0.08500 29.19300
C  13.88900 2.25200 26.92100
C  14.56300 1.69400 30.29700
O  13.89900 2.62800 30.52900
C  15.30300 0.77900 31.38800
C  16.19600 1.63300 32.15800
O  17.43600 1.65000 32.08500
O  15.48700 2.30100 33.15900
C  16.26400 2.94500 34.16900
H  19.71100 -4.60900 30.88300
H  19.20600 -4.19900 24.41000
H  15.42300 0.77400 24.92600
H  17.40900 -0.67400 32.83300
H  17.82100 -3.72500 32.69000
H  20.29100 -2.78900 32.24000
H  19.65100 -3.19900 33.87400
H  19.46400 -1.56500 33.39100
H  15.67100 -3.15100 33.00800
H  14.96800 -1.62300 32.90100
H  15.68300 -2.84600 35.16800
H  15.04500 -1.23800 35.00400
H  21.63300 -6.72000 28.97600
H  19.96400 -7.55200 28.83600
H  20.28500 -6.52200 30.21600
H  21.67400 -8.15600 25.33200
H  20.97200 -8.28500 27.01600
H  22.32400 -7.27000 26.74700
H  17.54300 -2.81700 22.70900
H  17.59200 0.12400 23.41100
H  20.21000 -1.89900 23.61700
H  19.55100 -0.63200 22.49600
H  19.69300 -2.28200 21.98800
H  15.13200 0.08800 22.74800
H  15.27100 -1.67300 22.56500
H  17.26900 0.01300 21.21800
H  15.59100 0.12600 20.45900
H  16.50100 -1.38400 20.65600
H  12.82700 2.00500 26.89400
H  14.15600 2.64400 25.93900
H  14.04700 3.07800 27.61300
H  14.42700 0.45800 31.95100
H  16.40200 3.98100 33.86000
H  17.22700 2.50800 34.43200
H  15.60000 2.98400 35.03300

