158

Mg 47.21100 32.96000 25.52400
C  45.69800 31.98700 28.69100
C  47.73400 35.97600 27.02400
C  48.81300 33.74500 22.86300
C  46.46800 29.77700 24.33900
N  46.83400 33.81100 27.72500
C  46.35000 33.21300 28.85700
C  46.50600 34.09800 30.13700
C  46.95400 35.45800 29.42200
C  47.24300 35.10900 27.99400
C  46.01900 36.67700 29.61200
C  47.53100 33.50100 31.12500
C  47.12300 33.33000 32.56600
H  46.41600 34.38900 33.41600
N  48.04100 34.69800 24.99500
C  48.19900 35.85900 25.73500
C  48.94500 36.83100 24.96100
C  49.22100 36.25900 23.68300
C  48.71900 34.82500 23.78800
C  49.40800 38.21400 25.45100
C  49.90700 36.72700 22.48000
O  50.22400 36.06200 21.51200
C  50.44300 38.18700 22.43700
N  47.55300 31.89600 23.83100
C  48.32600 32.41600 22.86500
C  48.62300 31.39400 21.76400
C  47.88300 30.12400 22.20600
C  47.26300 30.58400 23.52900
C  48.06200 31.90300 20.35400
C  48.68500 28.82900 22.26700
C  49.65700 28.76500 21.04100
N  46.19900 31.26500 26.20700
C  45.87600 30.12100 25.57000
C  45.03000 29.23900 26.37000
C  44.96200 30.04000 27.53700
C  45.67500 31.20600 27.46200
C  44.40400 27.88300 25.95600
C  44.35300 29.98200 28.80600
O  43.61700 29.13200 29.23900
C  44.69900 31.31600 29.58300
C  45.07900 30.85300 30.97900
O  46.10300 30.37800 31.36600
O  43.97400 31.01400 31.81600
C  44.25400 30.86700 33.26400
H  47.95400 36.99500 27.34600
H  49.30300 33.92200 21.90300
H  46.37000 28.75300 23.97300
H  45.55600 34.07100 30.67000
H  47.83300 35.90800 29.88300
H  45.49400 36.97100 28.70400
H  46.63100 37.56800 29.74600
H  45.26200 36.61400 30.39400
H  48.41800 34.13400 31.14800
H  47.70700 32.50600 30.71600
H  48.02100 33.01000 33.09500
H  46.49700 32.43900 32.57800
H  50.49000 38.08700 25.46200
H  49.11300 38.38900 26.48600
H  49.13500 39.17300 25.01000
H  50.65300 38.48300 21.40900
H  51.32500 38.33100 23.06100
H  49.69000 38.84200 22.87500
H  49.70400 31.42200 21.62800
H  47.05300 29.88000 21.54300
H  47.92800 32.98500 20.38200
H  47.11700 31.48400 20.00900
H  48.83600 31.94100 19.58700
H  48.09400 27.91800 22.17400
H  49.24400 28.93600 23.19600
H  50.62900 29.11500 21.39000
H  49.36600 29.32500 20.15300
H  49.71700 27.70500 20.79100
H  44.26400 27.83000 24.87600
H  43.47500 27.64200 26.47300
H  45.13900 27.11700 26.20400
H  43.81900 31.93900 29.74100
H  43.52500 30.21100 33.74100
H  44.26000 31.87100 33.68600
H  45.20300 30.38300 33.49600
Mg -1.70700 35.58200 26.49100
C  -3.43900 33.72400 28.86900
C  -0.80700 37.78500 28.95700
C  0.16600 37.22400 24.08700
C  -2.90400 33.48900 24.07700
N  -2.16900 35.75700 28.63200
C  -2.83300 34.82900 29.44500
C  -2.71000 35.20700 30.93100
C  -2.07100 36.65700 30.89100
C  -1.64100 36.74000 29.41100
C  -3.07000 37.77200 31.22700
C  -1.99300 34.18700 31.85900
C  -2.88700 33.40900 32.89100
H  -2.32200 33.18600 34.36100
N  -0.55000 37.22100 26.56900
C  -0.31500 38.03000 27.63300
C  0.53600 39.11300 27.21300
C  0.90200 38.92400 25.83300
C  0.17300 37.71900 25.43500
C  0.93100 40.20800 28.17500
C  1.89500 39.67500 24.94700
O  2.13800 39.39300 23.79400
C  2.58900 40.84600 25.56400
N  -1.22500 35.28400 24.39600
C  -0.57700 36.12200 23.59100
C  -0.68300 35.73900 22.13400
C  -1.48500 34.42500 22.15900
C  -1.89200 34.39500 23.62400
C  -1.20100 36.81900 21.24200
C  -0.66600 33.12200 21.76000
C  -1.48500 31.99400 21.12500
N  -2.98000 34.02700 26.44100
C  -3.40700 33.30100 25.37200
C  -4.35300 32.30100 25.82300
C  -4.36300 32.48800 27.17300
C  -3.53800 33.48300 27.53700
C  -5.10300 31.42000 24.98900
C  -4.87600 31.97100 28.34900
O  -5.72600 31.13600 28.55600
C  -4.23200 32.75600 29.60700
C  -5.44400 33.18600 30.33500
O  -6.12600 34.17400 30.07000
O  -5.65700 32.36100 31.36200
C  -6.83800 32.62400 32.22900
H  -0.51900 38.50800 29.72400
H  0.67300 37.82900 23.33100
H  -3.33700 32.92400 23.24800
H  -3.68400 35.28800 31.41300
H  -1.18100 36.65600 31.51900
H  -4.05500 37.42500 30.91600
H  -2.73200 38.73500 30.84400
H  -3.17200 37.99700 32.28900
H  -1.33300 34.72200 32.54100
H  -1.57200 33.34900 31.30300
H  -2.98200 32.37100 32.57300
H  -3.89000 33.83600 32.89400
H  1.93400 40.04700 28.57100
H  0.19800 40.21900 28.98100
H  0.77700 41.21600 27.79000
H  3.18900 41.42800 24.86400
H  3.26800 40.55000 26.36300
H  1.82900 41.53100 25.94100
H  0.34600 35.42300 21.96700
H  -2.36400 34.60700 21.54000
H  -1.90300 37.47200 21.76100
H  -1.89400 36.40500 20.50900
H  -0.38900 37.36000 20.75700
H  -0.27800 32.82100 22.73300
H  0.15900 33.47600 21.14200
H  -1.85900 31.28500 21.86400
H  -0.82800 31.37900 20.51000
H  -2.21000 32.27300 20.36100
H  -4.69200 31.44900 23.98000
H  -6.17500 31.60600 25.05900
H  -4.97600 30.38600 25.31000
H  -3.63600 32.13300 30.27400
H  -6.62500 33.35800 33.00700
H  -7.22700 31.70700 32.67000
H  -7.52900 32.99700 31.47300

