158

Mg 36.05500 2.48700 30.28600
C  33.41300 3.44900 32.34800
C  38.22500 2.48100 32.99900
C  38.56400 1.34900 28.26900
C  33.80200 2.31800 27.59200
N  35.82900 2.88000 32.39700
C  34.62500 3.21300 33.01400
C  34.86300 3.31300 34.53800
C  36.40300 3.40300 34.63800
C  36.90200 2.88000 33.21300
C  36.74400 4.89100 34.74100
C  34.19500 2.03000 35.20400
C  33.69100 2.05100 36.65100
H  34.34100 3.07500 37.66200
N  38.11300 2.00800 30.54400
C  38.78800 2.08500 31.73700
C  40.14700 1.72900 31.55700
C  40.24800 1.40300 30.19900
C  38.96700 1.57600 29.59300
C  41.12400 1.57300 32.70900
C  41.45300 0.91200 29.44000
O  41.43000 0.64300 28.23400
C  42.77900 0.76400 30.13100
N  36.21600 2.12500 28.15800
C  37.27900 1.51200 27.63800
C  37.02000 1.07100 26.17400
C  35.48100 1.09900 26.09200
C  35.16400 1.92200 27.35700
C  37.68000 2.03700 25.10800
C  34.78100 -0.25400 26.17800
C  33.95000 -0.57900 24.89700
N  34.10700 3.05700 29.89300
C  33.32000 2.92300 28.80200
C  31.90600 3.23300 29.17300
C  31.94700 3.47700 30.57500
C  33.29200 3.37600 30.91400
C  30.70800 3.13300 28.30100
C  31.15000 3.88700 31.71900
O  29.99200 4.23900 31.85200
C  32.11400 3.80000 32.91400
C  31.98100 5.14300 33.58600
O  32.38900 6.16300 33.21500
O  31.55100 4.91900 34.84600
C  31.79500 6.01500 35.79800
H  38.83100 2.61400 33.89800
H  39.23700 0.87000 27.55500
H  32.99400 2.04300 26.91100
H  34.35800 4.18600 34.95300
H  36.69800 2.88400 35.55100
H  37.54500 5.16100 34.05200
H  36.97800 5.17100 35.76800
H  35.89300 5.54100 34.53600
H  34.88200 1.20600 35.01500
H  33.36800 1.70800 34.57000
H  33.58100 1.06300 37.09600
H  32.69000 2.41800 36.42200
H  40.61700 1.36100 33.65100
H  41.53100 2.55900 32.93100
H  42.02400 0.98100 32.54900
H  43.08700 1.63500 30.70800
H  43.53000 0.59600 29.36000
H  42.81000 -0.18600 30.66500
H  37.38400 0.05400 26.03300
H  35.11800 1.71400 25.26800
H  37.08500 2.09800 24.19700
H  38.64500 1.67300 24.75600
H  37.61500 3.06100 25.47700
H  33.95900 -0.19700 26.89300
H  35.47400 -1.04000 26.47700
H  33.82000 -1.64400 24.70600
H  34.52800 -0.17600 24.06500
H  33.03300 -0.00000 24.77700
H  30.68900 2.18600 27.76200
H  30.81300 3.93200 27.56700
H  29.76700 3.17700 28.85000
H  31.68000 2.93500 33.41500
H  30.94000 6.68700 35.86200
H  32.70400 6.56000 35.54500
H  31.94500 5.55900 36.77700
Mg 16.18800 52.20600 26.29800
C  18.19300 51.37800 29.09300
C  13.65600 52.93000 28.57300
C  14.52300 53.28000 23.78900
C  18.79400 51.08800 24.25500
N  16.01800 52.29600 28.63200
C  16.91700 51.79300 29.49900
C  16.32600 51.93100 30.99700
C  14.75200 52.17600 30.73100
C  14.74000 52.46900 29.24300
C  13.88200 50.95800 31.17100
C  16.95200 53.23300 31.62000
C  17.53900 52.99500 33.09600
H  16.60600 52.26200 34.12700
N  14.31300 52.99300 26.13500
C  13.44500 53.23000 27.13900
C  12.28800 53.85400 26.59400
C  12.54500 54.06000 25.24400
C  13.84200 53.47700 24.99400
C  11.13500 54.45800 27.46100
C  11.75700 54.86600 24.16000
O  12.07200 54.93000 22.98300
C  10.45300 55.38600 24.50600
N  16.66200 52.12900 24.30200
C  15.76700 52.70600 23.40500
C  16.29300 52.63200 21.95500
C  17.72300 52.10100 22.20000
C  17.74200 51.74900 23.72100
C  15.33700 51.80300 20.88500
C  18.88100 53.12000 21.83900
C  20.22300 52.50000 21.47300
N  18.05500 51.29900 26.54900
C  18.98100 50.95200 25.61800
C  20.16800 50.47900 26.31200
C  19.87200 50.64500 27.66000
C  18.61300 51.20100 27.76000
C  21.29600 49.87000 25.70800
C  20.41700 50.50500 29.05100
O  21.49500 50.07400 29.48200
C  19.35100 51.01700 29.99800
C  18.98400 49.81300 30.83200
O  18.28000 48.86900 30.45200
O  19.37800 50.07100 32.10500
C  18.67400 49.20100 33.02900
H  12.75400 53.18000 29.13600
H  14.03000 53.66900 22.89500
H  19.55300 50.79300 23.52700
H  16.50100 50.98800 31.51500
H  14.34300 53.09500 31.14900
H  13.08200 50.73100 30.46700
H  13.40100 51.20900 32.11600
H  14.45400 50.03600 31.28000
H  16.21500 54.03200 31.69900
H  17.77800 53.64400 31.03900
H  17.85400 53.94700 33.52300
H  18.44900 52.39800 33.03700
H  11.14100 54.12400 28.49900
H  10.20800 54.11800 26.99900
H  11.18600 55.54400 27.53500
H  9.78400 55.65600 23.68800
H  10.50700 56.23500 25.18800
H  9.97900 54.51000 24.94700
H  16.30200 53.63100 21.51800
H  17.86100 51.21000 21.58800
H  14.64400 51.17200 21.44100
H  15.93000 51.31900 20.10900
H  14.71200 52.58500 20.45300
H  19.15200 53.79400 22.65000
H  18.58900 53.79400 21.03400
H  20.09800 51.56500 20.92600
H  20.77400 52.30900 22.39400
H  20.79900 53.17800 20.84400
H  21.02500 49.07200 25.01600
H  21.92900 49.44600 26.48800
H  21.86200 50.58200 25.10800
H  19.65700 51.80800 30.68300
H  18.89800 49.76100 33.93600
H  19.04300 48.18700 33.18400
H  17.62700 49.15300 32.72700

