158

Mg 45.99400 24.61300 28.82900
C  46.94100 27.00500 31.35200
C  45.24200 22.45600 31.53300
C  45.81300 22.12100 26.65900
C  47.55400 26.71700 26.57700
N  46.09300 24.77500 31.15200
C  46.37800 25.85200 31.91000
C  46.09600 25.64300 33.39400
C  45.66900 24.13400 33.37800
C  45.57200 23.80100 31.89100
C  46.65000 23.20900 34.15200
C  44.92800 26.59400 33.89400
C  45.25000 27.46700 35.18200
H  44.18000 27.40500 36.31600
N  45.47400 22.54300 29.04100
C  45.10500 21.90600 30.19400
C  44.83400 20.51600 29.80400
C  45.07800 20.38300 28.39200
C  45.42500 21.76700 27.92500
C  44.50600 19.48600 30.94500
C  45.06600 19.15400 27.55800
O  45.42600 19.11000 26.33300
C  44.51900 17.87200 28.28300
N  46.67400 24.37200 26.93600
C  46.35500 23.31100 26.15700
C  46.76700 23.51200 24.71500
C  47.14400 25.06200 24.62900
C  47.13000 25.44900 26.14200
C  47.85500 22.48700 24.33100
C  46.05100 25.89600 23.84500
C  44.76300 26.27600 24.62900
N  46.91300 26.57700 28.77900
C  47.51500 27.26300 27.79100
C  47.97100 28.57400 28.31000
C  47.75200 28.55200 29.71700
C  47.15100 27.25900 29.97800
C  48.53400 29.64800 27.40000
C  47.77300 29.29800 30.93400
O  47.97100 30.51900 31.07600
C  47.31400 28.32900 32.13100
C  48.47200 28.10600 33.01200
O  49.64200 27.84700 32.70800
O  48.18300 28.49600 34.32400
C  49.27500 28.50600 35.27100
H  44.95400 21.87200 32.41000
H  45.68400 21.31800 25.92900
H  47.87700 27.31900 25.72500
H  47.03600 25.82700 33.91600
H  44.71700 24.03600 33.89900
H  46.00800 22.59700 34.78600
H  47.27000 23.71300 34.89300
H  47.22100 22.56300 33.48600
H  43.99700 26.04900 34.05100
H  44.78000 27.32400 33.09800
H  45.34700 28.51200 34.88800
H  46.20100 27.23600 35.66100
H  45.02900 18.54900 30.75000
H  43.44000 19.30000 30.80900
H  44.73100 19.86500 31.94100
H  45.40400 17.37600 28.68200
H  44.07700 17.14700 27.60000
H  43.72700 18.07600 29.00300
H  45.95400 23.28700 24.02300
H  48.08900 25.30400 24.14300
H  48.28000 21.95100 25.18000
H  48.68700 22.97500 23.82200
H  47.44800 21.73700 23.65300
H  45.67600 25.29100 23.01900
H  46.44600 26.86900 23.55500
H  44.64800 25.62200 25.49300
H  43.88300 26.01200 24.04200
H  44.77400 27.33000 24.90600
H  47.76300 30.41200 27.30300
H  48.74600 29.20800 26.42600
H  49.52000 29.90600 27.78700
H  46.42500 28.67900 32.65700
H  49.87000 27.60600 35.11000
H  48.98500 28.59200 36.31800
H  49.91300 29.37900 35.13300
Mg 16.31100 52.47600 24.52700
C  17.83900 51.62200 27.53800
C  13.46700 53.41700 26.47000
C  14.63000 53.23300 21.70400
C  18.85300 50.95300 22.71300
N  15.75500 52.46600 26.79100
C  16.63500 52.23100 27.76500
C  15.98300 52.50400 29.20700
C  14.57300 52.97900 28.80900
C  14.49300 52.95000 27.24600
C  13.36100 52.17400 29.45600
C  16.80200 53.48700 30.06600
C  17.20000 52.99700 31.54400
H  16.35100 51.95600 32.23700
N  14.39300 53.23500 24.15900
C  13.34000 53.51600 25.06000
C  12.23200 54.10800 24.42000
C  12.52100 54.21100 22.98800
C  13.91700 53.50100 22.90200
C  11.06100 54.57700 25.24500
C  11.69400 54.75700 21.82900
O  12.10700 54.88000 20.68900
C  10.27600 55.28400 22.01700
N  16.63100 52.16100 22.49700
C  15.77800 52.54600 21.53300
C  16.32700 52.17800 20.19900
C  17.87100 51.69600 20.47300
C  17.80500 51.57600 21.96100
C  15.47900 50.99100 19.67100
C  19.03100 52.59900 20.00700
C  19.17700 52.99200 18.53000
N  18.00500 51.50400 24.95900
C  18.93900 50.91400 24.11500
C  20.04100 50.52600 24.89500
C  19.62600 50.70700 26.24400
C  18.40500 51.28400 26.24700
C  21.21300 49.92400 24.44100
C  20.02500 50.53400 27.61600
O  21.15600 50.20100 28.05500
C  18.89500 51.10000 28.48100
C  18.38800 50.01600 29.28900
O  17.64800 49.06800 29.04200
O  19.09700 50.01200 30.48600
C  18.95600 48.87300 31.38300
H  12.67500 53.82400 27.10300
H  14.02800 53.52100 20.84000
H  19.68700 50.54900 22.13500
H  15.95900 51.51200 29.65700
H  14.39100 54.01000 29.11500
H  12.56000 52.06300 28.72500
H  12.81900 52.74000 30.21400
H  13.78900 51.31800 29.97700
H  16.16500 54.36900 30.13600
H  17.72000 53.72300 29.52900
H  17.12500 53.86200 32.20400
H  18.20700 52.58100 31.53300
H  10.15000 54.55100 24.64700
H  11.19900 55.60300 25.58600
H  10.81200 53.98200 26.12400
H  10.29700 56.12900 22.70600
H  9.60200 54.45800 22.24600
H  9.93800 55.69000 21.06300
H  16.30300 53.03000 19.52000
H  17.98000 50.66400 20.14000
H  16.01800 50.04700 19.59000
H  15.23400 51.32700 18.66400
H  14.66200 50.67500 20.32000
H  19.82600 51.87900 20.20200
H  19.24900 53.39100 20.72300
H  19.44200 54.04700 18.47200
H  18.22100 52.82200 18.03600
H  19.93700 52.33900 18.10000
H  21.08200 49.54900 23.42600
H  21.36200 49.13400 25.17800
H  21.95800 50.71500 24.52000
H  19.21200 52.01600 28.97900
H  18.88800 47.92100 30.85500
H  18.13300 48.94900 32.09400
H  19.90600 48.80300 31.91200

