158

Mg 2.18700 -2.08600 44.14900
C  5.68900 -1.52600 43.32900
C  1.48100 0.52400 42.06900
C  -0.89800 -3.14200 44.29200
C  3.31100 -5.23400 45.33800
N  3.48800 -0.67000 42.86900
C  4.84300 -0.71800 42.61300
C  5.22100 0.22500 41.49900
C  3.95500 1.11800 41.40200
C  2.87600 0.32000 42.14900
C  3.98200 2.60600 41.91700
C  5.57100 -0.54500 40.10200
C  6.75300 0.06000 39.37200
H  6.50900 0.57700 37.95300
N  0.45200 -1.34000 43.35200
C  0.32300 -0.27800 42.48800
C  -1.10100 0.03200 42.42800
C  -1.77500 -0.95500 43.17200
C  -0.75600 -1.82900 43.71700
C  -1.66600 1.14800 41.58900
C  -3.26200 -1.13600 43.17900
O  -3.95200 -0.37400 42.53600
C  -3.98800 -2.20900 43.99900
N  1.33000 -3.89800 44.93900
C  0.03600 -4.13400 44.63300
C  -0.36200 -5.59300 44.78300
C  1.00800 -6.27100 45.05800
C  1.95900 -5.08300 45.03000
C  -1.48200 -5.84700 45.92100
C  1.37600 -7.41100 44.06100
C  1.44200 -8.80200 44.66700
N  4.08100 -3.06900 44.60800
C  4.33400 -4.34200 45.07600
C  5.76600 -4.53500 45.20800
C  6.35900 -3.44900 44.56600
C  5.26300 -2.63200 44.09800
C  6.44400 -5.53900 46.07100
C  7.57200 -2.76800 44.19500
O  8.75800 -2.98600 44.43100
C  7.20300 -1.58100 43.26300
C  7.86800 -0.34100 43.77000
O  8.78500 0.23400 43.22800
O  7.28300 0.12000 44.92600
C  7.45100 1.58600 45.16100
H  1.24300 1.46800 41.57400
H  -1.91000 -3.55300 44.30200
H  3.64800 -6.23700 45.61000
H  6.10600 0.80300 41.76700
H  3.70500 1.20500 40.34500
H  3.63700 3.27400 41.12800
H  4.97200 2.91800 42.24900
H  3.29800 2.69700 42.76000
H  4.72200 -0.46500 39.42300
H  5.76000 -1.60200 40.29100
H  7.47500 -0.75600 39.39200
H  7.09300 0.93300 39.92900
H  -0.91000 1.86000 41.26100
H  -2.44600 1.72400 42.08700
H  -2.25500 0.67200 40.80500
H  -4.99800 -1.87600 44.23700
H  -3.44600 -2.35000 44.93400
H  -3.99800 -3.08200 43.34600
H  -0.80900 -5.88800 43.83400
H  0.81500 -6.66900 46.05500
H  -1.26400 -6.69600 46.57000
H  -2.47700 -5.89000 45.47800
H  -1.44200 -5.02500 46.63600
H  2.34600 -7.23800 43.59300
H  0.78700 -7.41000 43.14400
H  1.56200 -8.68200 45.74400
H  2.27400 -9.42800 44.34500
H  0.52000 -9.37700 44.58400
H  6.45000 -6.39500 45.39700
H  5.89900 -5.79500 46.98000
H  7.45800 -5.15500 46.18300
H  7.61500 -1.73700 42.26700
H  7.03800 1.92700 44.21100
H  8.48700 1.89600 45.29000
H  6.87500 2.07100 45.94900
Mg 47.75200 16.43800 28.29000
C  45.70400 16.05100 31.04800
C  49.86100 18.48400 30.21900
C  49.49400 17.20700 25.55800
C  45.23800 14.83200 26.35200
N  47.74900 17.28200 30.38200
C  46.86000 16.82200 31.32000
C  47.30500 17.25200 32.69600
C  48.45300 18.22700 32.42800
C  48.79700 17.94200 30.91000
C  48.10700 19.69100 32.80800
C  47.83800 16.06600 33.60600
C  47.78000 16.26400 35.14500
H  47.41100 17.57400 35.70000
N  49.56900 17.53200 27.95200
C  50.23200 18.28500 28.83500
C  51.41200 18.78500 28.18100
C  51.39900 18.38600 26.84100
C  50.18600 17.63500 26.72800
C  52.53400 19.39900 28.95600
C  52.33700 18.64400 25.73400
O  52.09900 18.21000 24.59000
C  53.53100 19.58000 25.92600
N  47.42300 16.00700 26.31800
C  48.31900 16.42500 25.39000
C  47.72800 16.10200 23.94600
C  46.56300 14.99400 24.23500
C  46.40300 15.26500 25.74300
C  47.26500 17.34700 23.12200
C  46.78900 13.52800 23.81900
C  45.57400 12.99300 23.06600
N  45.74800 15.71200 28.55000
C  44.91400 15.00600 27.70300
C  43.82100 14.52700 28.41500
C  44.04600 14.90700 29.75100
C  45.24400 15.58600 29.78500
C  42.66900 13.76300 27.83600
C  43.48400 14.89700 31.10000
O  42.44900 14.51500 31.55900
C  44.58200 15.61300 31.99100
C  43.86100 16.74800 32.71900
O  43.47700 17.77400 32.20600
O  43.68700 16.47500 34.02000
C  43.03700 17.55800 34.86400
H  50.46900 19.18400 30.79600
H  49.93400 17.46900 24.59300
H  44.57800 14.28900 25.67300
H  46.46100 17.64800 33.26000
H  49.36000 18.17200 33.03000
H  48.66900 19.92600 33.71200
H  47.06100 19.81600 33.08700
H  48.47200 20.34900 32.01900
H  48.82200 15.70300 33.30800
H  47.27800 15.15500 33.39900
H  48.70100 15.99000 35.66100
H  47.09600 15.47900 35.46800
H  52.61900 20.46800 28.76000
H  53.43600 18.87700 28.63500
H  52.34700 19.18000 30.00700
H  53.16700 20.46000 26.45600
H  53.74000 19.91600 24.91100
H  54.34800 19.04200 26.40700
H  48.46800 15.56100 23.35500
H  45.66300 15.36000 23.74200
H  46.35700 17.36200 22.51900
H  48.07500 17.58800 22.43400
H  47.10000 18.13400 23.85800
H  46.93100 13.01700 24.77100
H  47.76700 13.52800 23.33700
H  44.65700 13.57000 22.95100
H  45.25000 12.01100 23.41000
H  45.96000 12.84500 22.05800
H  42.37200 14.19000 26.87800
H  41.87700 13.74000 28.58500
H  43.02100 12.76500 27.57700
H  44.85200 14.82300 32.69200
H  43.79300 18.33800 34.94500
H  42.81400 17.06700 35.81100
H  42.12900 18.01500 34.47000

