158

Mg 23.82600 -5.92600 45.39900
C  26.37500 -3.92600 43.98500
C  21.61600 -4.46000 43.39400
C  21.84300 -8.46500 46.20900
C  26.57400 -7.76100 47.15200
N  24.04600 -4.40700 44.00000
C  25.09700 -3.67700 43.49600
C  24.76700 -2.68000 42.52000
C  23.21400 -2.62400 42.59800
C  22.88500 -3.90700 43.38300
C  22.65500 -1.37100 43.21800
C  25.41800 -3.12000 41.19100
C  26.19500 -2.00700 40.43100
H  25.87500 -1.79500 38.97400
N  21.94900 -6.42000 44.90200
C  21.19400 -5.61000 44.02900
C  19.88400 -6.30300 43.92200
C  19.87900 -7.39100 44.83400
C  21.28300 -7.45400 45.38100
C  18.79200 -5.89000 42.99800
C  18.65700 -8.39400 45.01300
O  17.59300 -8.35700 44.39700
C  18.67300 -9.54200 46.06300
N  24.18200 -7.81700 46.49800
C  23.13000 -8.65700 46.75200
C  23.62600 -9.99900 47.39000
C  24.99900 -9.52200 48.11800
C  25.30200 -8.23700 47.20400
C  22.78000 -10.65000 48.49700
C  26.09400 -10.51600 48.20300
C  26.97900 -10.67600 49.51000
N  26.04000 -5.77000 45.67300
C  26.90600 -6.55700 46.39400
C  28.23200 -5.90400 46.19400
C  28.08900 -4.97300 45.24400
C  26.70700 -4.92000 44.93900
C  29.45900 -6.35500 46.89200
C  28.78900 -4.04900 44.44000
O  30.00400 -3.80500 44.48500
C  27.75500 -3.26000 43.61400
C  27.87700 -1.78300 43.93300
O  27.39500 -1.24900 44.88700
O  28.63200 -1.10500 42.97300
C  28.80600 0.34000 43.22800
H  20.85500 -3.92100 42.82700
H  21.19900 -9.30900 46.46500
H  27.43700 -8.28100 47.57300
H  25.12100 -1.71700 42.88800
H  22.90500 -2.80100 41.56800
H  23.32100 -0.69000 43.74900
H  22.01400 -1.69600 44.03700
H  22.06000 -0.83000 42.48200
H  24.66000 -3.44700 40.47900
H  26.10000 -3.96300 41.30300
H  27.23200 -2.34300 40.42900
H  26.39800 -1.10100 41.00200
H  19.20400 -5.12400 42.34100
H  17.85700 -5.55300 43.44500
H  18.60900 -6.68700 42.27700
H  19.37400 -10.28200 45.67700
H  17.67000 -9.96700 46.11300
H  19.03000 -9.11500 47.00000
H  23.79800 -10.70700 46.58000
H  24.86900 -9.20600 49.15300
H  22.17000 -11.39800 47.99000
H  22.07700 -9.98600 49.00000
H  23.38600 -11.07900 49.29500
H  26.81500 -10.40200 47.39400
H  25.63500 -11.48300 48.00000
H  27.06000 -9.78100 50.12700
H  27.92800 -11.13900 49.23700
H  26.59500 -11.47700 50.14200
H  29.44500 -7.40700 47.17600
H  29.54800 -5.83800 47.84800
H  30.33300 -6.24000 46.25100
H  28.01600 -3.48700 42.58100
H  29.09400 0.91900 42.35200
H  29.54100 0.46000 44.02400
H  27.89600 0.75100 43.66500
Mg 42.76800 41.57500 26.90200
C  41.77700 43.71000 29.53100
C  43.76000 39.32300 29.29800
C  43.83600 39.49700 24.47000
C  41.98700 44.05300 24.60800
N  42.76500 41.51900 29.11800
C  42.11000 42.46100 29.97700
C  42.18200 41.98100 31.43800
C  42.93300 40.60000 31.29100
C  43.17300 40.47100 29.84900
C  44.33600 40.45700 32.08300
C  40.79700 41.87300 32.11200
C  40.58200 42.63900 33.51600
H  40.23400 41.88100 34.76600
N  43.68900 39.68700 26.88500
C  44.00000 38.95900 27.95000
C  44.67700 37.79300 27.55100
C  44.55300 37.74200 26.13800
C  43.97100 39.00800 25.75300
C  45.25800 36.73800 28.54400
C  44.90400 36.62200 25.15000
O  44.60400 36.60600 23.92000
C  45.43200 35.40100 25.68500
N  43.15500 41.81200 24.85900
C  43.46200 40.79600 24.09200
C  43.31200 41.15800 22.56900
C  42.62000 42.59900 22.59300
C  42.57700 42.84200 24.09000
C  44.67000 41.04700 21.75100
C  41.28700 42.49800 21.86900
C  40.70100 43.74600 21.29700
N  42.12400 43.55800 26.97100
C  41.85700 44.45000 25.97000
C  41.42600 45.68000 26.53400
C  41.44300 45.39000 27.94100
C  41.73000 44.07800 28.12700
C  41.02500 46.92500 25.74800
C  41.07000 46.02900 29.22400
O  40.62900 47.13700 29.40100
C  41.32700 44.98500 30.30900
C  42.24400 45.47200 31.36600
O  43.43700 45.65200 31.21100
O  41.58900 45.68800 32.56400
C  42.45500 45.97400 33.71000
H  43.98900 38.54100 30.02500
H  44.10200 38.85500 23.62700
H  41.71200 44.85500 23.92000
H  42.75500 42.69100 32.03400
H  42.36100 39.73000 31.61400
H  45.20200 40.29900 31.44000
H  44.23200 39.59800 32.74700
H  44.55000 41.17300 32.87600
H  40.40100 40.86100 32.19800
H  40.05200 42.37600 31.49500
H  39.73100 43.32000 33.54900
H  41.44000 43.22400 33.85000
H  44.71700 35.79300 28.58600
H  45.39300 37.10100 29.56300
H  46.27300 36.54800 28.19400
H  44.65600 35.17100 26.41400
H  46.38500 35.58700 26.18100
H  45.52500 34.55000 25.01000
H  42.52600 40.47600 22.24600
H  43.26600 43.32300 22.09800
H  44.51200 40.18900 21.09800
H  45.52700 40.88800 22.40500
H  44.96100 41.91400 21.15800
H  40.55300 42.23600 22.63200
H  41.26600 41.71700 21.10900
H  39.83500 44.12500 21.83900
H  40.41400 43.51400 20.27200
H  41.47600 44.50200 21.16600
H  41.82000 47.66600 25.83400
H  40.23200 47.40900 26.31900
H  40.61300 46.66400 24.77300
H  40.39500 44.82400 30.85100
H  43.41300 46.49300 33.66700
H  42.63500 45.07800 34.30500
H  41.99800 46.69300 34.39000

