158

Mg 36.48300 49.04400 26.07700
C  36.22800 46.95300 28.90600
C  35.63700 51.65300 27.98400
C  36.40200 50.96800 23.11400
C  36.56400 46.10800 24.09000
N  36.05700 49.28100 28.30600
C  36.01100 48.36800 29.26700
C  35.80500 49.03200 30.65700
C  35.44500 50.47300 30.25600
C  35.76500 50.50600 28.76500
C  34.06900 51.05000 30.76300
C  37.00800 48.81400 31.68300
C  36.45400 48.44100 33.09300
H  35.04400 48.68600 33.63700
N  36.14600 51.01500 25.65800
C  35.84700 51.95600 26.62300
C  35.85000 53.25600 26.05400
C  36.01800 53.12800 24.65700
C  36.20900 51.61700 24.39000
C  35.55500 54.41300 26.94900
C  36.18000 54.15600 23.52100
O  36.25300 53.82300 22.35100
C  36.04300 55.60200 23.94400
N  36.29900 48.53700 23.88700
C  36.49400 49.52100 22.95800
C  36.77400 48.93200 21.48800
C  37.12600 47.44300 21.97000
C  36.60500 47.36200 23.41800
C  35.50500 48.92200 20.57300
C  38.64600 47.15900 22.00500
C  39.24500 45.81200 21.40800
N  36.44300 46.94400 26.35800
C  36.45000 45.90300 25.44600
C  36.54900 44.73800 26.21300
C  36.50100 45.10900 27.58500
C  36.45900 46.46700 27.64100
C  36.92800 43.37900 25.58500
C  36.60700 44.63200 28.85900
O  36.86900 43.52500 29.32600
C  36.34200 45.75300 29.81300
C  35.05000 45.47300 30.55500
O  33.87100 45.62900 30.14300
O  35.40800 44.97600 31.77800
C  34.42100 44.60500 32.80000
H  35.36400 52.52200 28.58700
H  36.29200 51.43600 22.13400
H  36.79800 45.22800 23.48700
H  34.95500 48.49800 31.08200
H  36.16800 51.17300 30.67500
H  33.61300 50.22900 31.31600
H  33.54900 51.26500 29.83000
H  34.07100 51.99000 31.31500
H  37.55600 49.74900 31.79300
H  37.66200 48.06400 31.23600
H  37.14500 48.84200 33.83500
H  36.54100 47.37200 33.28800
H  36.22200 55.24200 26.71200
H  35.84400 54.27800 27.99100
H  34.54900 54.79000 26.76800
H  36.05400 56.25600 23.07200
H  36.95000 55.96100 24.43000
H  35.16400 55.82400 24.55000
H  37.60500 49.32700 20.90300
H  36.64000 46.75100 21.28200
H  35.06100 47.95000 20.35800
H  35.92700 49.31900 19.65000
H  34.74500 49.59000 20.97800
H  38.93700 47.30600 23.04600
H  39.11800 47.93700 21.40500
H  39.84900 45.18600 22.06400
H  39.86400 45.93500 20.51900
H  38.33100 45.31900 21.07800
H  36.26600 43.08400 24.77100
H  36.92500 42.62400 26.37200
H  37.91200 43.41900 25.11800
H  37.20900 45.87100 30.46200
H  33.43000 44.57400 32.34700
H  34.51900 45.34800 33.59100
H  34.72500 43.63900 33.20300
Mg -4.77900 25.81600 26.10700
C  -3.56900 27.62800 28.84900
C  -6.41400 23.67100 28.24000
C  -5.84100 24.02100 23.35100
C  -2.57500 27.61600 24.00400
N  -4.80500 25.58800 28.22800
C  -4.36700 26.48100 29.19600
C  -4.79100 25.90300 30.64200
C  -5.27200 24.50900 30.34600
C  -5.52700 24.57800 28.85800
C  -4.43200 23.34300 30.89800
C  -5.91600 26.88000 31.10700
C  -6.60400 26.64400 32.48500
H  -5.97100 25.66200 33.53300
N  -6.08600 24.11600 25.80100
C  -6.69700 23.45100 26.82600
C  -7.63700 22.52200 26.24500
C  -7.48900 22.53300 24.79000
C  -6.47300 23.60300 24.51400
C  -8.54300 21.71200 27.12700
C  -8.10800 21.61400 23.76000
O  -7.79400 21.61800 22.54800
C  -9.03500 20.47900 24.13800
N  -4.25500 25.81500 23.94700
C  -4.73600 24.87500 23.09900
C  -4.15200 25.10200 21.71500
C  -2.97000 26.16500 21.94100
C  -3.30400 26.58200 23.39100
C  -3.63300 23.75200 20.98700
C  -3.04800 27.42700 20.98500
C  -2.43000 27.24300 19.58100
N  -3.40500 27.35900 26.30000
C  -2.62600 28.06500 25.40200
C  -1.88000 29.11000 26.11300
C  -2.20500 28.99700 27.47500
C  -3.09900 27.91000 27.50700
C  -1.07000 30.10700 25.48700
C  -2.01700 29.52900 28.80600
O  -1.28600 30.46200 29.18400
C  -2.91300 28.66300 29.72400
C  -2.02200 28.07400 30.77500
O  -1.00500 27.49700 30.61600
O  -2.73900 28.25500 31.98600
C  -2.09500 27.62800 33.22400
H  -6.82500 22.94200 28.94100
H  -6.22500 23.55700 22.43900
H  -1.73800 28.10800 23.50500
H  -3.98100 25.80000 31.36500
H  -6.30200 24.42700 30.69300
H  -4.94200 22.91300 31.76100
H  -3.49100 23.73800 31.28100
H  -4.30000 22.57900 30.13200
H  -6.67900 26.78300 30.33500
H  -5.55300 27.90600 31.05600
H  -7.65400 26.42600 32.29100
H  -6.59100 27.65100 32.90300
H  -9.54400 21.80500 26.70400
H  -8.62300 22.14200 28.12500
H  -8.25600 20.66000 27.11200
H  -10.05600 20.82800 24.29000
H  -8.61600 19.89600 24.95900
H  -9.12900 19.86200 23.24500
H  -4.91800 25.47900 21.03800
H  -2.00700 25.65400 21.95000
H  -2.55200 23.65300 20.88500
H  -4.05300 23.65000 19.98700
H  -3.96500 22.94400 21.63900
H  -2.45700 28.24200 21.40100
H  -4.05200 27.80700 20.79000
H  -1.38500 27.55300 19.61000
H  -3.00000 27.85600 18.88300
H  -2.42700 26.18000 19.34100
H  -1.62500 31.03600 25.36300
H  -0.76800 29.71400 24.51600
H  -0.14100 30.23400 26.04300
H  -3.65300 29.32300 30.17800
H  -2.02600 26.57100 32.96500
H  -2.82600 27.66900 34.03100
H  -1.06600 27.91300 33.44500

