158

Mg 17.42300 52.24000 25.86300
C  19.59000 50.75800 28.24400
C  15.30100 53.02400 28.38400
C  15.48200 53.46100 23.52900
C  19.83800 51.28900 23.42100
N  17.48400 51.85400 28.05100
C  18.46700 51.28600 28.82400
C  18.11400 51.40700 30.34800
C  16.66600 52.01600 30.34600
C  16.48600 52.38300 28.85200
C  15.44200 51.14900 30.82900
C  18.97300 52.35600 31.12400
C  19.41100 51.90200 32.54100
H  18.38500 51.18000 33.38500
N  15.58500 52.99600 25.90800
C  14.80900 53.25800 27.03500
C  13.46200 53.75800 26.59600
C  13.52000 54.01100 25.21800
C  14.87400 53.47500 24.85600
C  12.37700 53.96400 27.48100
C  12.55500 54.55600 24.23100
O  12.67100 54.64600 23.01700
C  11.31400 55.31100 24.84600
N  17.60100 52.21700 23.76000
C  16.68200 52.92200 23.09400
C  17.01900 52.99500 21.59400
C  18.39900 52.41500 21.51800
C  18.65400 51.89300 22.96200
C  15.95200 52.40400 20.60900
C  19.55000 53.40100 21.06000
C  20.04600 54.44900 22.08900
N  19.34000 51.27400 25.77700
C  20.17300 50.97000 24.71800
C  21.38100 50.29000 25.15300
C  21.20100 50.20500 26.56200
C  19.93000 50.78100 26.87200
C  22.54500 49.83100 24.33000
C  21.77900 49.71900 27.85200
O  22.82300 49.10800 28.10100
C  20.73600 50.02700 28.91300
C  20.45100 48.73100 29.50400
O  20.15600 47.72200 28.86300
O  20.28200 48.88300 30.82400
C  19.73500 47.76900 31.60400
H  14.72600 53.39200 29.23600
H  14.88700 53.95700 22.75900
H  20.64800 51.15800 22.70000
H  18.11200 50.41000 30.78800
H  16.44900 52.95300 30.85900
H  15.91300 50.43400 31.50400
H  15.01200 50.51600 30.05300
H  14.77000 51.82700 31.35600
H  18.53500 53.33200 31.33400
H  19.89800 52.50500 30.56800
H  19.88500 52.75600 33.02400
H  20.22100 51.18900 32.39100
H  12.11200 55.01300 27.61300
H  12.65100 53.49200 28.42400
H  11.46200 53.50100 27.10900
H  10.69600 54.74100 25.54000
H  10.70800 55.73600 24.04600
H  11.64500 56.21100 25.36600
H  17.10300 54.04900 21.33100
H  18.36700 51.55000 20.85500
H  16.44300 51.59200 20.07300
H  15.46700 53.11800 19.94300
H  15.09400 52.02200 21.16200
H  19.21000 53.71700 20.07400
H  20.42400 52.75500 20.98800
H  19.32800 54.59100 22.89700
H  20.04500 55.38100 21.52300
H  21.08600 54.29800 22.37700
H  23.20000 49.15900 24.88300
H  23.12500 50.70000 24.01900
H  22.15700 49.26300 23.48400
H  21.12400 50.79000 29.58900
H  20.36100 46.91900 31.33200
H  18.69700 47.55600 31.35100
H  19.82600 47.93700 32.67800
Mg -11.17400 37.17900 42.14100
C  -8.86900 34.62600 41.52200
C  -8.90700 39.45000 40.65700
C  -13.61300 39.47200 42.40800
C  -13.37700 34.75300 43.38100
N  -9.28000 36.96000 40.94000
C  -8.51700 35.82700 40.88600
C  -7.33900 36.04500 40.00400
C  -7.19200 37.64600 40.04400
C  -8.53600 38.05900 40.59700
C  -5.97100 38.05800 40.93700
C  -7.50600 35.34400 38.65900
C  -6.37700 34.35800 38.25700
H  -5.51300 34.83100 37.08100
N  -11.34600 39.18500 41.56300
C  -10.25800 39.95000 41.10000
C  -10.71400 41.32500 40.90000
C  -12.05600 41.36100 41.30000
C  -12.42300 39.97400 41.83700
C  -9.81000 42.33100 40.41800
C  -12.91800 42.57900 41.13100
O  -12.45000 43.56200 40.62600
C  -14.38000 42.66900 41.58400
N  -13.19600 37.15400 42.79100
C  -14.00700 38.26600 42.90600
C  -15.47100 37.94800 43.30100
C  -15.37200 36.33800 43.62900
C  -13.88800 36.02400 43.19900
C  -16.07200 38.93900 44.33000
C  -16.47900 35.48100 42.93800
C  -17.14700 34.29300 43.82100
N  -11.14900 35.07500 42.47400
C  -12.10400 34.26400 43.07100
C  -11.57100 32.96100 43.15500
C  -10.25400 33.02800 42.56500
C  -10.05700 34.33200 42.17300
C  -12.34000 31.74000 43.53100
C  -9.08400 32.25700 42.19100
O  -8.85000 31.06100 42.36600
C  -8.15400 33.34700 41.47600
C  -6.82500 33.27300 42.11600
O  -5.87900 32.59400 41.80800
O  -6.81100 34.15500 43.19300
C  -5.48300 34.50900 43.68300
H  -8.23900 40.20600 40.23900
H  -14.41700 40.21000 42.36500
H  -14.10300 34.13300 43.91100
H  -6.53900 35.47600 40.47800
H  -7.08500 37.98500 39.01300
H  -5.52400 38.91100 40.42600
H  -5.34100 37.17500 41.04400
H  -6.25300 38.39600 41.93400
H  -7.69600 36.09500 37.89200
H  -8.46700 34.83500 38.73600
H  -6.73100 33.36500 37.98100
H  -5.83300 34.18100 39.18500
H  -10.01800 42.52400 39.36600
H  -8.82800 41.95200 40.70100
H  -9.93000 43.30200 40.90000
H  -14.30200 42.40100 42.63700
H  -14.98000 41.89700 41.10200
H  -14.71500 43.69300 41.41300
H  -15.97700 38.01200 42.33800
H  -15.46200 36.26300 44.71200
H  -16.63500 39.68900 43.77500
H  -15.38000 39.47300 44.98100
H  -16.80000 38.54800 45.04100
H  -16.00800 35.03600 42.06100
H  -17.22500 36.08700 42.42500
H  -16.82700 33.34300 43.39300
H  -18.23700 34.31800 43.79000
H  -16.80500 34.17000 44.84900
H  -12.50900 31.21600 42.59000
H  -13.29300 32.03800 43.96800
H  -11.68700 31.24500 44.24900
H  -7.97400 32.98000 40.46500
H  -5.57800 35.14400 44.56500
H  -4.97700 35.21800 43.02800
H  -4.89200 33.64100 43.97700

