158

Mg -2.03000 17.02800 25.82800
C  -2.15000 14.75200 28.47100
C  -2.12700 19.63200 28.13500
C  -2.33200 19.11500 23.32100
C  -2.12200 14.28200 23.64100
N  -2.27700 17.16000 28.00000
C  -2.30300 16.07100 28.88200
C  -2.61300 16.53000 30.29800
C  -2.55300 18.12400 30.15000
C  -2.33500 18.37700 28.69400
C  -3.82400 18.94400 30.65000
C  -1.54200 16.09300 31.29700
C  -1.51100 16.83300 32.65800
H  -1.22400 16.06200 33.97100
N  -2.24800 19.16600 25.74700
C  -2.08800 20.01900 26.77300
C  -2.22900 21.39400 26.25500
C  -2.25600 21.31900 24.84500
C  -2.28000 19.86200 24.55000
C  -2.45200 22.62100 27.07900
C  -2.30900 22.35500 23.79000
O  -2.47000 22.12800 22.62300
C  -2.10100 23.73400 24.17300
N  -2.20500 16.76300 23.83600
C  -2.28000 17.82300 22.92000
C  -2.24700 17.27600 21.49200
C  -2.01300 15.72300 21.64200
C  -2.17000 15.54700 23.12100
C  -3.54700 17.59300 20.73600
C  -0.59300 15.23000 21.09000
C  -0.57700 14.23500 19.92800
N  -2.07100 14.94500 25.97500
C  -2.00900 14.03900 25.00700
C  -1.95800 12.74900 25.56400
C  -2.03300 12.99500 26.91200
C  -2.02300 14.36200 27.15100
C  -1.77100 11.44800 24.86800
C  -1.89600 12.38300 28.16000
O  -1.76600 11.22400 28.44700
C  -1.99100 13.45200 29.26500
C  -0.86000 13.29900 30.24100
O  0.23600 13.82900 30.11000
O  -1.26400 12.51600 31.29400
C  -0.25100 12.21900 32.26500
H  -1.85300 20.43800 28.81900
H  -2.44100 19.75900 22.44500
H  -2.18200 13.43300 22.95600
H  -3.58700 16.23900 30.69200
H  -1.69600 18.57800 30.64800
H  -4.21400 19.46900 29.77900
H  -3.57600 19.66700 31.42800
H  -4.66200 18.28300 30.87200
H  -0.58600 16.24100 30.79500
H  -1.71700 15.07300 31.64200
H  -2.43800 17.39900 32.74700
H  -0.61900 17.44000 32.50800
H  -3.44400 22.97500 26.79500
H  -1.67600 23.38600 27.04100
H  -2.49800 22.33300 28.12900
H  -1.16200 23.91700 24.69400
H  -2.91600 24.06900 24.81600
H  -2.02200 24.40300 23.31700
H  -1.44400 17.74200 20.92100
H  -2.73100 15.10300 21.10500
H  -4.35000 18.21100 21.14000
H  -4.05000 16.64500 20.54600
H  -3.19900 17.97700 19.77700
H  -0.06000 14.86900 21.97000
H  -0.10400 16.18400 20.89800
H  0.17600 13.45600 20.05000
H  -0.35500 14.69700 18.96600
H  -1.52800 13.72500 19.78100
H  -1.36900 10.70600 25.55600
H  -1.09800 11.60900 24.02500
H  -2.79900 11.17100 24.63200
H  -2.94100 13.27400 29.76800
H  -0.65900 12.05100 33.26100
H  0.54900 12.95900 32.29500
H  0.36400 11.35300 32.01900
Mg 40.36700 8.89900 29.86800
C  42.12500 10.26600 32.70900
C  38.00100 7.75700 32.05500
C  38.94900 7.40600 27.31000
C  43.12900 9.92200 27.83500
N  40.11400 8.98300 32.05100
C  40.87600 9.68400 33.00300
C  40.32800 9.45800 34.37200
C  39.00700 8.64200 34.21300
C  39.05000 8.44100 32.68700
C  38.87200 7.30400 34.99700
C  40.14400 10.76500 35.24000
C  39.43600 10.52200 36.64100
H  40.34200 10.42200 37.95000
N  38.59500 7.84500 29.69200
C  37.75900 7.51900 30.68200
C  36.69200 6.80600 30.13600
C  36.92400 6.64000 28.73500
C  38.18100 7.27300 28.50400
C  35.48500 6.35000 30.96200
C  36.16700 5.87100 27.71700
O  36.64000 5.60500 26.62900
C  34.74000 5.48200 28.02500
N  41.10000 8.57900 27.92900
C  40.25700 8.00800 27.01900
C  40.90400 7.98700 25.59500
C  42.20400 8.80300 25.79100
C  42.14200 9.16700 27.28400
C  41.16500 6.46800 25.07800
C  42.20700 10.01300 24.76700
C  41.21800 11.14800 24.95500
N  42.23300 9.93900 30.16100
C  43.21300 10.29200 29.22700
C  44.21800 11.08100 29.99600
C  43.86100 11.05400 31.33200
C  42.64200 10.36200 31.42800
C  45.36600 11.73600 29.29700
C  44.30000 11.41000 32.67100
O  45.25900 12.07500 32.95800
C  43.19200 10.93500 33.69700
C  43.71400 9.95000 34.64300
O  43.90700 8.76500 34.40700
O  43.88400 10.56300 35.88100
C  44.46700 9.65700 36.92900
H  37.19600 7.46500 32.73400
H  38.52200 7.07600 26.36100
H  43.97800 10.26300 27.23900
H  41.02900 8.75400 34.82300
H  38.20500 9.36900 34.34400
H  39.67900 7.28000 35.73000
H  39.21300 6.45100 34.41200
H  37.88400 7.15300 35.43100
H  39.57200 11.55200 34.74900
H  41.12500 11.16800 35.49300
H  38.85400 9.60400 36.54800
H  38.75200 11.37100 36.66400
H  34.67000 6.77700 30.37900
H  35.39000 6.73000 31.97900
H  35.43000 5.26100 30.94700
H  34.63000 4.98700 28.99000
H  34.49100 4.70400 27.30400
H  34.11700 6.34400 27.78600
H  40.40200 8.55300 24.81100
H  43.09200 8.17800 25.70500
H  42.16700 6.24500 24.71200
H  40.48600 6.22100 24.26200
H  41.01700 5.70200 25.83800
H  42.07200 9.61100 23.76300
H  43.18900 10.48500 24.72900
H  40.37400 10.91100 25.60300
H  40.88700 11.58800 24.01500
H  41.72000 12.00100 25.41200
H  45.85400 12.50900 29.89100
H  45.07400 12.18400 28.34800
H  46.08000 10.97700 28.97600
H  42.85500 11.89900 34.07900
H  45.41000 10.07800 37.27700
H  44.76800 8.68300 36.54200
H  43.76100 9.47400 37.74000

