158

Mg 30.65500 58.31700 41.16400
C  27.66800 56.65100 40.34100
C  32.51200 55.65800 39.76900
C  33.38700 60.16500 41.43300
C  28.71500 61.07700 42.17200
N  30.10700 56.43200 40.21600
C  28.82700 55.88300 40.06400
C  28.85500 54.53600 39.44200
C  30.40400 54.19100 39.55400
C  31.06900 55.51600 39.85000
C  30.66400 53.22700 40.75800
C  28.21200 54.54200 37.96600
C  28.41600 55.80000 37.07200
H  27.91800 55.61800 35.62400
N  32.62800 57.99500 40.55300
C  33.24000 56.80900 40.00100
C  34.65300 56.99900 39.78000
C  34.92800 58.36100 40.23400
C  33.61700 58.97100 40.70000
C  35.59300 55.93100 39.20500
C  36.19900 59.23300 40.04900
O  37.19700 58.73000 39.54700
C  36.25600 60.69500 40.30800
N  30.97300 60.39200 41.60500
C  32.24400 60.73800 41.88600
C  32.24700 62.20200 42.38800
C  30.79400 62.35100 42.86600
C  30.09900 61.27100 42.17000
C  33.45200 62.45500 43.38000
C  30.24300 63.76500 42.52200
C  29.65900 64.54300 43.70800
N  28.57100 58.87800 41.25400
C  27.97100 60.01500 41.59400
C  26.56700 59.81100 41.57900
C  26.34200 58.45900 41.08500
C  27.63800 57.97100 40.83100
C  25.52000 60.81000 41.97800
C  25.36800 57.51700 40.78800
O  24.12600 57.55000 40.90900
C  26.18100 56.26800 40.19600
C  25.73900 54.98300 40.73500
O  26.09100 54.53900 41.83600
O  24.91200 54.28700 39.82800
C  24.58300 52.87300 40.09800
H  33.17600 54.81500 39.56700
H  34.27900 60.77000 41.60800
H  28.23100 61.97400 42.56400
H  28.23100 53.86000 40.02700
H  30.96100 53.86600 38.67500
H  30.92400 53.84700 41.61600
H  31.50400 52.60900 40.44100
H  29.86100 52.56600 41.08600
H  27.15800 54.27300 37.89900
H  28.65000 53.72300 37.39700
H  29.48000 56.03400 37.11500
H  27.90800 56.61600 37.58600
H  36.67200 56.05900 39.29100
H  35.27400 55.57900 38.22400
H  35.28700 55.09500 39.83400
H  35.39800 61.10600 39.77500
H  37.13100 61.10900 39.80700
H  36.22000 60.81700 41.39100
H  32.44000 62.83000 41.51800
H  30.75100 62.21500 43.94600
H  33.79800 61.50400 43.78500
H  32.94400 62.97200 44.19300
H  34.28300 63.10500 43.10200
H  29.46000 63.61400 41.78000
H  31.09800 64.26100 42.06100
H  29.46500 63.81100 44.49200
H  28.73700 65.00000 43.34900
H  30.38000 65.31100 43.99100
H  25.51700 61.66500 41.30200
H  25.72100 61.15600 42.99100
H  24.58000 60.25800 41.98600
H  25.99000 56.28100 39.12300
H  24.16400 52.27800 39.28700
H  23.86500 52.82700 40.91700
H  25.56500 52.44300 40.29500
Mg 0.43400 42.49200 25.96400
C  2.28400 42.68700 29.05200
C  -2.23300 41.34800 27.80000
C  -0.99200 41.84500 23.12500
C  3.36200 43.40700 24.36000
N  0.08600 42.17500 28.26300
C  0.97000 42.32700 29.31000
C  0.16100 42.37900 30.57500
C  -1.31800 41.87700 30.19500
C  -1.15400 41.84400 28.63000
C  -1.73900 40.42800 30.70500
C  0.28300 43.64900 31.38000
C  0.58300 43.56800 32.87600
H  0.36100 42.29400 33.62000
N  -1.34500 41.76100 25.52800
C  -2.31600 41.24900 26.37500
C  -3.48400 40.77800 25.66600
C  -3.09200 40.84000 24.25700
C  -1.75200 41.49800 24.26100
C  -4.73400 40.28400 26.31900
C  -4.02500 40.48200 23.09900
O  -3.54600 40.42000 21.94100
C  -5.39700 39.91300 23.26200
N  1.14700 42.59700 24.02600
C  0.31900 42.38000 23.01400
C  1.00500 42.65600 21.64200
C  2.23900 43.46400 22.08500
C  2.27800 43.13800 23.55500
C  1.35200 41.44800 20.76600
C  2.17000 44.98600 21.95300
C  3.19000 45.60500 20.97200
N  2.43300 42.89400 26.47600
C  3.48900 43.19700 25.71100
C  4.71600 43.36900 26.42000
C  4.27000 43.13000 27.76700
C  2.88400 42.86500 27.75900
C  6.06100 43.71300 25.92600
C  4.71100 43.05600 29.09600
O  5.87600 42.98500 29.54900
C  3.40400 42.82600 30.01700
C  3.56400 41.59800 30.86900
O  3.70800 40.46200 30.46900
O  3.85700 42.08400 32.14800
C  4.38200 40.98300 33.04500
H  -3.10100 41.02800 28.38100
H  -1.42800 41.69400 22.13600
H  4.22200 43.77800 23.79800
H  0.67600 41.58600 31.11800
H  -2.17100 42.54500 30.31600
H  -1.19100 40.17000 31.61100
H  -1.42000 39.77800 29.89000
H  -2.81200 40.32100 30.86700
H  -0.67100 44.15300 31.22600
H  1.08500 44.34800 31.14100
H  -0.02400 44.30800 33.39800
H  1.60100 43.94300 32.99000
H  -4.59300 40.15400 27.39200
H  -5.16300 39.38600 25.87500
H  -5.47300 41.07700 26.20100
H  -6.07400 40.60800 23.75800
H  -5.15100 38.99500 23.79600
H  -5.80200 39.70800 22.27100
H  0.37400 43.35600 21.09400
H  3.17800 43.10000 21.66700
H  0.84100 40.57800 21.17800
H  2.43200 41.32100 20.68600
H  0.87200 41.71600 19.82500
H  2.21200 45.55200 22.88300
H  1.13700 45.13000 21.63800
H  2.64900 46.20100 20.23700
H  3.57400 44.80900 20.33300
H  4.10300 46.00700 21.41000
H  6.74100 43.10200 26.51900
H  6.27900 44.78100 25.90800
H  6.16800 43.25600 24.94200
H  3.20600 43.74700 30.56500
H  4.49200 41.24700 34.09600
H  5.35800 40.63900 32.70200
H  3.70400 40.13300 32.96500

