158

Mg 1.68300 7.83400 25.83400
C  2.39300 9.73400 28.68900
C  1.71600 4.97200 27.74200
C  1.10700 6.10800 23.04600
C  2.44700 10.72500 23.94100
N  2.14300 7.47600 27.96700
C  2.26700 8.38600 29.00300
C  2.36900 7.72300 30.38900
C  2.45800 6.14200 29.94100
C  2.02200 6.18100 28.48200
C  3.80400 5.32500 30.16100
C  1.24300 7.89900 31.47300
C  1.90100 8.05200 32.89200
H  2.95100 7.08200 33.35300
N  1.36000 5.78600 25.42000
C  1.30800 4.82400 26.35400
C  0.93900 3.57100 25.76200
C  0.80100 3.84100 24.38600
C  1.03200 5.30700 24.20100
C  0.79700 2.34300 26.58300
C  0.42700 2.93600 23.23800
O  0.04900 3.34100 22.13900
C  0.44800 1.51100 23.44300
N  1.79700 8.38600 23.80500
C  1.40800 7.50500 22.84500
C  1.43600 8.16500 21.46200
C  1.94400 9.59700 21.72400
C  2.04000 9.57700 23.28000
C  2.13700 7.39500 20.38900
C  1.12800 10.77200 21.08400
C  1.82700 11.66300 20.08100
N  2.28000 9.82300 26.18000
C  2.57300 10.88900 25.31300
C  2.74300 12.10300 26.12000
C  2.72000 11.64400 27.40300
C  2.50000 10.29000 27.42000
C  2.83600 13.53800 25.76900
C  2.78000 12.15700 28.75700
O  2.98000 13.31500 29.11000
C  2.56700 10.90600 29.64700
C  3.87600 10.83000 30.45600
O  4.97500 10.32500 30.12400
O  3.57700 11.39500 31.68100
C  4.67100 11.26100 32.64500
H  1.58700 4.09700 28.38400
H  0.82400 5.66800 22.08800
H  2.82200 11.61200 23.42500
H  3.26900 8.07500 30.89200
H  1.71200 5.51700 30.43200
H  4.35800 5.26400 29.22500
H  3.58900 4.35700 30.61300
H  4.39700 5.82800 30.92600
H  0.59000 7.03500 31.59400
H  0.67200 8.79100 31.21400
H  0.93300 8.03800 33.39300
H  2.25700 9.07900 32.96500
H  -0.08700 1.89400 26.12900
H  0.65100 2.53500 27.64600
H  1.71300 1.79900 26.35300
H  -0.46500 1.25100 23.98000
H  1.26500 1.32200 24.13900
H  0.59200 1.00200 22.49000
H  0.36700 8.17200 21.24700
H  2.99200 9.76300 21.47100
H  1.47300 6.58500 20.08600
H  3.09100 6.99700 20.73300
H  2.09000 8.11800 19.57400
H  0.76600 11.29800 21.96800
H  0.23000 10.35900 20.62500
H  2.83400 11.32900 19.83100
H  1.95700 12.68500 20.43600
H  1.12500 11.69800 19.24700
H  1.92900 13.95000 26.21100
H  2.70100 13.76100 24.71000
H  3.67000 13.99800 26.29800
H  1.74500 11.10000 30.33600
H  4.97900 10.21700 32.58300
H  4.33500 11.56600 33.63500
H  5.51100 11.94200 32.50400
Mg 17.35900 -2.50300 28.50100
C  16.68000 -0.27000 31.25200
C  19.04400 -4.34300 30.66700
C  18.40500 -4.07300 25.88200
C  15.88800 0.01900 26.33000
N  17.62600 -2.35500 30.73300
C  17.24400 -1.44200 31.68900
C  17.68300 -1.78700 33.07300
C  18.73100 -2.91500 32.80800
C  18.44700 -3.24700 31.30500
C  20.19200 -2.68100 33.08500
C  16.51000 -2.17200 33.91200
C  16.57400 -1.80600 35.38000
H  17.90100 -1.30500 35.95400
N  18.38800 -4.22100 28.37100
C  19.03300 -4.87700 29.36300
C  19.68400 -6.01400 28.79400
C  19.44800 -5.97600 27.38800
C  18.73300 -4.70400 27.11600
C  20.46400 -6.94300 29.69800
C  19.84900 -7.04100 26.32800
O  19.57400 -6.99800 25.11200
C  20.70600 -8.17500 26.76700
N  17.03800 -2.08800 26.37900
C  17.65600 -2.88400 25.52300
C  17.62400 -2.36000 24.11400
C  16.64400 -1.16300 24.14900
C  16.49300 -1.08000 25.68200
C  19.05600 -2.14000 23.57700
C  15.27100 -1.45600 23.45900
C  14.68200 -0.39400 22.49700
N  16.43700 -0.62400 28.71000
C  15.89800 0.20500 27.72400
C  15.33700 1.39400 28.34300
C  15.56000 1.27700 29.69500
C  16.26800 0.01100 29.86200
C  14.60900 2.52500 27.64600
C  15.48100 1.92000 30.98600
O  15.03400 3.07200 31.18800
C  16.16500 0.96900 32.09400
C  17.27300 1.60900 32.77600
O  18.48200 1.63000 32.58900
O  16.75200 2.21900 33.97300
C  17.59900 2.79300 35.04500
H  19.82400 -4.72700 31.32800
H  18.95700 -4.57400 25.08400
H  15.40800 0.74000 25.66500
H  18.28000 -1.01100 33.55200
H  18.49800 -3.82500 33.36000
H  20.74600 -2.47900 32.16800
H  20.78000 -3.54900 33.38300
H  20.36300 -1.87700 33.80100
H  16.38500 -3.24600 33.77300
H  15.60400 -1.79100 33.43900
H  16.29500 -2.73500 35.87600
H  15.81200 -1.05200 35.57600
H  21.38700 -7.27100 29.21900
H  19.84300 -7.81300 29.91200
H  20.57300 -6.42300 30.65000
H  20.24700 -8.75800 27.56500
H  21.69700 -7.92900 27.15000
H  20.80700 -8.93100 25.98800
H  17.23100 -3.15200 23.47600
H  17.17600 -0.28700 23.77800
H  19.22200 -1.15700 23.13500
H  19.35900 -2.86500 22.82200
H  19.77700 -2.16900 24.39400
H  14.57600 -1.66500 24.27200
H  15.26700 -2.33800 22.82000
H  13.94200 0.20800 23.02400
H  14.29300 -0.94100 21.63900
H  15.44500 0.31700 22.17900
H  13.73000 2.89300 28.17500
H  14.25100 2.23900 26.65800
H  15.35000 3.31100 27.49700
H  15.38500 0.71100 32.81100
H  17.05300 3.65500 35.42800
H  18.54800 3.20300 34.69900
H  17.67100 2.11100 35.89200

