158

Mg 49.37500 45.85000 42.64200
C  45.95000 46.84700 41.94300
C  48.79700 43.12300 40.70800
C  52.55900 45.33300 42.90600
C  49.74800 49.31400 43.80300
N  47.59300 45.16400 41.59000
C  46.28400 45.60100 41.48700
C  45.43500 44.76300 40.57300
C  46.29300 43.43400 40.33600
C  47.65900 43.92800 40.94900
C  45.68200 42.14100 40.98200
C  44.95400 45.39900 39.23800
C  43.41100 45.35300 39.06600
H  42.97400 45.52800 37.59500
N  50.53700 44.39200 42.10300
C  50.11800 43.33000 41.30100
C  51.15000 42.43200 41.24000
C  52.28500 42.94200 41.97200
C  51.85500 44.26900 42.39800
C  51.13600 41.13100 40.37400
C  53.64900 42.32200 42.15200
O  53.92800 41.30800 41.59600
C  54.69700 42.94700 43.00700
N  50.91300 47.12400 43.12000
C  52.17300 46.61500 43.34100
C  53.16800 47.76400 43.55800
C  52.29000 49.03600 43.88900
C  50.91600 48.47900 43.59600
C  54.28200 47.48600 44.66000
C  52.61500 50.29500 43.18600
C  52.68000 51.60500 44.01100
N  48.14300 47.72800 42.90800
C  48.41500 48.93900 43.46800
C  47.25200 49.68100 43.55700
C  46.19100 48.86400 43.07200
C  46.80200 47.68600 42.59700
C  47.06800 51.04000 44.14200
C  44.82400 48.77100 42.77800
O  43.95600 49.54900 42.99000
C  44.58600 47.46600 41.95200
C  43.60700 46.78500 42.74800
O  43.54300 46.71600 43.99000
O  42.80300 46.08500 41.89500
C  41.95000 45.16600 42.61900
H  48.76200 42.23200 40.07700
H  53.64800 45.26300 42.90100
H  49.98400 50.31400 44.17300
H  44.51300 44.53300 41.10600
H  46.47800 43.19500 39.28900
H  44.62500 42.21600 41.23700
H  46.14700 41.86500 41.92900
H  45.78300 41.31500 40.27700
H  45.46100 44.88700 38.42000
H  45.29700 46.43000 39.14900
H  43.01200 46.24000 39.55900
H  42.87500 44.52600 39.53300
H  51.93300 40.46700 40.70900
H  51.41900 41.46000 39.37500
H  50.16000 40.64900 40.42900
H  54.23000 43.36600 43.89800
H  55.23300 43.73600 42.47800
H  55.45000 42.18200 43.19600
H  53.65200 47.93000 42.59500
H  52.20400 49.29300 44.94500
H  55.32800 47.50500 44.35400
H  54.11100 46.42600 44.84800
H  54.25000 48.09100 45.56600
H  51.88300 50.61500 42.44400
H  53.57400 50.13300 42.69300
H  52.86900 51.44700 45.07200
H  51.71600 52.10400 43.91100
H  53.46500 52.17900 43.52000
H  47.13400 51.79100 43.35600
H  47.89300 51.16100 44.84500
H  46.09200 51.11200 44.62000
H  44.14500 47.74900 40.99600
H  42.44900 44.22200 42.83700
H  41.08500 44.82600 42.04900
H  41.58800 45.63600 43.53300
Mg 27.29400 51.21200 26.59100
C  25.36400 52.25800 29.17600
C  29.66300 50.03800 28.91800
C  29.46000 50.43600 24.03400
C  25.01800 52.45500 24.32000
N  27.45100 50.99000 28.73600
C  26.49500 51.52700 29.60600
C  26.79000 51.12500 31.01700
C  28.31400 50.67600 30.93500
C  28.51100 50.58500 29.42700
C  29.24600 51.75000 31.54200
C  25.72500 50.08400 31.48700
C  25.08600 50.07200 32.88500
H  26.05000 50.37600 34.05500
N  29.24500 50.25000 26.50000
C  30.01900 49.80300 27.56200
C  31.21700 49.14600 27.05400
C  31.17000 49.41000 25.61000
C  29.91100 50.11500 25.31700
C  32.35000 48.49800 27.91000
C  32.26600 49.16700 24.63400
O  32.21800 49.47400 23.40800
C  33.52100 48.51000 25.02600
N  27.33700 51.61600 24.51600
C  28.34700 51.15600 23.67800
C  27.84900 51.07500 22.22800
C  26.40900 51.66700 22.30700
C  26.19200 51.90800 23.81400
C  28.78200 51.90200 21.25800
C  25.38400 50.74400 21.79200
C  24.90100 49.51600 22.58600
N  25.49000 52.09900 26.70600
C  24.63300 52.52900 25.72700
C  23.54600 53.32200 26.28100
C  23.74300 53.15600 27.68800
C  24.93500 52.43500 27.88300
C  22.52000 54.13600 25.50200
C  23.20200 53.45200 28.95400
O  22.18600 54.03800 29.22800
C  24.17400 52.78000 29.98100
C  24.58900 53.78000 31.01800
O  25.42000 54.67900 30.78400
O  24.02500 53.59700 32.24600
C  24.29100 54.54000 33.33900
H  30.29500 49.54300 29.65800
H  30.05900 50.06400 23.20000
H  24.21600 52.67900 23.61400
H  26.82500 52.04100 31.60600
H  28.62500 49.66400 31.19200
H  30.26800 51.50800 31.25100
H  29.25300 51.61300 32.62300
H  29.07600 52.79000 31.26400
H  26.34300 49.18700 31.45000
H  24.99200 49.89100 30.70400
H  24.72700 49.06100 33.07700
H  24.19300 50.69600 32.86300
H  32.25900 47.41600 27.82300
H  32.17800 48.58900 28.98300
H  33.29700 48.99900 27.71200
H  33.37700 47.61600 25.63200
H  34.26900 49.08100 25.57500
H  34.01000 48.23100 24.09200
H  27.76900 50.01500 21.99000
H  26.35500 52.58800 21.72600
H  29.75300 52.17900 21.66900
H  28.30200 52.76300 20.79200
H  29.09800 51.35400 20.37100
H  25.73700 50.38000 20.82700
H  24.50800 51.32900 21.51300
H  25.70300 49.27400 23.28200
H  24.82200 48.58100 22.03100
H  24.05100 49.71400 23.23900
H  22.81700 55.14000 25.20100
H  21.74000 54.29800 26.24600
H  22.24100 53.68400 24.55100
H  23.48300 52.03700 30.37900
H  24.86000 55.40600 32.99900
H  24.88900 53.95500 34.03800
H  23.35000 54.90600 33.74800

