158

Mg 0.64200 7.18500 25.33000
C  1.29100 8.99900 28.25800
C  0.98800 4.30100 27.12500
C  0.37300 5.42900 22.38100
C  0.61000 10.17700 23.51700
N  1.15500 6.75500 27.43100
C  1.21500 7.60200 28.45500
C  1.13800 6.99900 29.75400
C  1.36800 5.47400 29.39400
C  1.12300 5.48600 27.86100
C  2.73800 4.92800 29.89900
C  -0.14700 7.24900 30.60100
C  0.01900 7.90200 31.98100
H  1.20100 7.39200 32.79100
N  0.82600 5.18800 24.85500
C  0.81500 4.12400 25.73200
C  0.82400 2.89100 25.06700
C  0.66100 3.15700 23.65900
C  0.57100 4.65600 23.55900
C  0.88400 1.57200 25.81700
C  0.42600 2.22400 22.49500
O  0.47400 2.59500 21.32800
C  0.33800 0.79000 22.75700
N  0.39400 7.71300 23.28300
C  0.26100 6.77200 22.25400
C  0.03500 7.50700 20.90600
C  -0.01500 9.03100 21.36000
C  0.31500 9.00800 22.83600
C  1.26200 7.31600 19.92500
C  -1.44800 9.62500 21.03900
C  -2.60200 9.11000 21.97100
N  0.72600 9.22600 25.75300
C  0.79700 10.32400 24.87800
C  1.17500 11.52800 25.66400
C  1.31300 11.00900 26.98500
C  1.11300 9.57900 27.00500
C  1.20100 12.94300 25.36200
C  1.52900 11.47800 28.36900
O  1.72100 12.59300 28.84100
C  1.53100 10.14900 29.19000
C  2.89200 9.96700 29.91500
O  3.79900 9.23400 29.57300
O  2.84700 10.75400 31.00300
C  3.82500 10.66000 32.15400
H  0.92600 3.39500 27.73200
H  0.45900 4.82600 21.47500
H  0.55300 11.08400 22.91100
H  1.94600 7.42300 30.35000
H  0.53600 4.96300 29.87800
H  3.05300 4.47100 28.96100
H  2.56400 4.11000 30.59900
H  3.48500 5.62400 30.28000
H  -0.82900 6.39900 30.60600
H  -0.73100 8.00200 30.07300
H  -0.86400 7.91200 32.62000
H  0.23100 8.95900 31.82500
H  0.47700 1.64200 26.82600
H  1.93300 1.27700 25.85200
H  0.32800 0.77700 25.31900
H  0.42000 0.29800 21.78800
H  -0.49200 0.29200 23.25900
H  1.20000 0.45800 23.33500
H  -0.89800 7.11300 20.50300
H  0.67500 9.73900 20.90000
H  2.05900 6.74300 20.39800
H  1.72100 8.24100 19.57700
H  0.93200 6.65200 19.12500
H  -1.55900 9.17800 20.05100
H  -1.37900 10.70900 20.94700
H  -3.36100 8.81700 21.24700
H  -2.97000 9.96600 22.53700
H  -2.30600 8.38800 22.73300
H  0.69600 13.16100 24.42000
H  2.23000 13.30000 25.34300
H  0.78600 13.50500 26.19800
H  0.70300 10.26200 29.88900
H  4.66800 11.35000 32.10100
H  4.21800 9.64500 32.10400
H  3.32300 10.59900 33.11900
Mg -1.56600 34.03500 27.41800
C  -3.25600 32.25600 29.95700
C  -0.44000 36.19700 29.78900
C  -0.42900 36.11500 24.99000
C  -3.55300 32.35000 25.03000
N  -2.03400 34.25800 29.55500
C  -2.58000 33.36200 30.47200
C  -2.36300 33.84800 31.90500
C  -1.74100 35.26300 31.79700
C  -1.33700 35.28700 30.23300
C  -2.64900 36.46400 32.16700
C  -1.57700 32.76400 32.73900
C  -2.09800 32.37200 34.16800
H  -1.23200 32.06800 35.37200
N  -0.41200 35.72800 27.42100
C  0.07700 36.41600 28.53000
C  0.92800 37.47700 28.09100
C  0.99300 37.38500 26.61300
C  -0.01200 36.41000 26.26400
C  1.76200 38.34500 29.08500
C  1.77200 38.26700 25.66100
O  1.67800 38.16500 24.41900
C  2.69300 39.41500 26.10900
N  -2.15600 34.32400 25.33000
C  -1.38400 35.22400 24.57400
C  -1.75900 34.97700 23.08600
C  -2.47700 33.59400 23.07000
C  -2.75400 33.41200 24.52200
C  -2.53200 36.22000 22.47100
C  -1.77700 32.33300 22.47700
C  -0.54900 31.83100 23.35100
N  -3.17500 32.62300 27.43700
C  -3.74600 31.94200 26.44000
C  -4.57000 30.86100 26.94400
C  -4.39700 30.94200 28.29700
C  -3.50200 32.04600 28.58500
C  -5.37800 29.98600 26.01900
C  -4.82400 30.42100 29.56700
O  -5.55400 29.44800 29.70300
C  -3.93900 31.16000 30.74500
C  -4.94800 31.72600 31.73900
O  -5.55100 32.80400 31.59900
O  -4.99700 30.96100 32.87700
C  -5.77100 31.63000 33.98000
H  -0.24400 36.95100 30.55400
H  -0.01100 36.65500 24.13800
H  -4.08900 31.82300 24.23800
H  -3.35600 33.97200 32.33800
H  -0.83700 35.21400 32.40400
H  -2.54800 37.23600 31.40400
H  -2.27700 36.77200 33.14400
H  -3.66000 36.06700 32.25700
H  -0.57300 33.16400 32.88300
H  -1.55000 31.83000 32.17700
H  -2.66400 31.46700 33.95100
H  -2.75000 33.19600 34.45800
H  1.43800 39.38400 29.01800
H  2.83000 38.35800 28.86500
H  1.56600 38.10900 30.13100
H  3.60500 38.92800 26.45400
H  2.14800 39.85000 26.94700
H  2.82100 40.12400 25.29100
H  -0.82200 34.87000 22.54000
H  -3.45200 33.58000 22.58300
H  -2.94500 36.80000 23.29700
H  -3.31500 35.85100 21.80900
H  -1.85000 36.72800 21.78900
H  -1.32500 32.59400 21.52000
H  -2.49500 31.53800 22.27600
H  -0.57400 32.12400 24.40000
H  0.37800 32.29500 23.01300
H  -0.49700 30.74300 23.37800
H  -5.76900 29.09700 26.51200
H  -4.71500 29.77200 25.18100
H  -6.15400 30.67900 25.69600
H  -3.30400 30.45300 31.27900
H  -6.65500 32.18500 33.66600
H  -5.15600 32.34400 34.52800
H  -5.99500 30.83300 34.68900

