158

Mg 35.39000 1.95200 29.06100
C  33.21700 3.09400 31.76800
C  37.86800 2.14600 31.40900
C  37.44800 1.42500 26.64600
C  32.70900 2.41500 26.81400
N  35.52300 2.54500 31.40900
C  34.48900 2.86000 32.28500
C  35.00700 2.93100 33.70300
C  36.52100 2.82600 33.48000
C  36.68000 2.37700 32.01900
C  37.35700 4.14600 33.61500
C  34.44100 1.77100 34.66900
C  34.06100 2.18300 36.13000
H  34.80000 3.49900 36.68800
N  37.40800 1.72600 29.08000
C  38.24500 1.77200 30.12700
C  39.60700 1.51500 29.70500
C  39.51900 1.39000 28.27100
C  38.07600 1.49700 27.90400
C  40.67900 1.49300 30.61600
C  40.68900 1.22100 27.22400
O  40.42800 1.00500 26.06200
C  42.14700 1.32800 27.59000
N  35.07200 1.82100 27.03800
C  36.13100 1.49600 26.23000
C  35.65200 1.22300 24.79400
C  34.10700 1.34400 24.91900
C  33.95000 1.93700 26.30400
C  36.20000 2.29300 23.77600
C  33.43200 -0.01500 24.74500
C  31.93400 0.00400 24.32800
N  33.35000 2.68600 29.15400
C  32.41100 2.79900 28.19300
C  31.20600 3.28800 28.76800
C  31.45700 3.39800 30.18400
C  32.80900 3.06300 30.34700
C  29.91900 3.53900 28.08600
C  30.86600 3.69700 31.47200
O  29.73100 4.00800 31.76300
C  32.04100 3.55900 32.60200
C  32.24100 4.81200 33.31200
O  32.79700 5.80600 32.86500
O  31.65200 4.61900 34.60200
C  31.80800 5.88500 35.36900
H  38.75100 2.08100 32.04800
H  38.12600 1.27400 25.80300
H  31.89900 2.52200 26.08900
H  34.65700 3.86900 34.13500
H  36.93800 2.09100 34.16900
H  37.32900 4.70700 32.68100
H  38.36400 3.86900 33.92700
H  37.17600 4.79600 34.47100
H  35.09200 0.89700 34.68200
H  33.50100 1.51500 34.17900
H  34.42500 1.35100 36.73200
H  32.99400 2.17700 36.35600
H  41.47700 0.80200 30.34600
H  40.29600 0.93600 31.47100
H  41.03300 2.47300 30.93700
H  42.60200 0.50700 28.14400
H  42.24500 2.27500 28.12000
H  42.70500 1.29600 26.65300
H  35.95300 0.20500 24.54600
H  33.73100 2.08300 24.21200
H  37.17500 2.63700 24.12000
H  35.57200 3.17100 23.62300
H  36.29800 1.77500 22.82200
H  33.57800 -0.58000 25.66500
H  33.92700 -0.54600 23.93300
H  31.80300 -0.44400 23.34300
H  31.59900 1.02400 24.14200
H  31.24000 -0.42600 25.05000
H  29.57200 2.64100 27.57500
H  30.28400 4.23100 27.32800
H  29.10100 4.02900 28.61600
H  31.60900 2.78600 33.23700
H  31.85600 5.74200 36.44900
H  30.93400 6.46400 35.07100
H  32.68100 6.50500 35.16800
Mg -11.75200 17.48800 41.84800
C  -8.57500 15.88000 41.59600
C  -10.43800 20.24100 40.39200
C  -14.81600 18.44700 41.21400
C  -13.10400 14.23800 42.73400
N  -9.69900 17.97700 41.21300
C  -8.52600 17.20300 41.15800
C  -7.36400 17.96500 40.40700
C  -8.01500 19.43900 40.29100
C  -9.50300 19.19700 40.64100
C  -7.41000 20.56800 41.22900
C  -7.09700 17.30300 38.97800
C  -5.62800 17.17000 38.68100
H  -5.21000 17.73300 37.29400
N  -12.50300 19.17200 41.17900
C  -11.79100 20.24300 40.63700
C  -12.70200 21.32600 40.25800
C  -14.04300 20.84800 40.40000
C  -13.86400 19.43000 40.92500
C  -12.29700 22.64300 39.70600
C  -15.28500 21.64100 40.27000
O  -15.26200 22.81200 39.87700
C  -16.60600 20.99100 40.50300
N  -13.68200 16.36700 41.83200
C  -14.77700 17.16400 41.78300
C  -16.03200 16.49300 42.25100
C  -15.51800 15.13900 42.75900
C  -13.99700 15.27700 42.45400
C  -16.72200 17.31800 43.35800
C  -16.09800 13.92700 41.94900
C  -17.11600 13.04600 42.76100
N  -10.99700 15.47800 42.19300
C  -11.68100 14.35600 42.59500
C  -10.72700 13.18800 42.62100
C  -9.44700 13.77200 42.31700
C  -9.65200 15.17300 42.05700
C  -10.97500 11.76600 42.90900
C  -8.03800 13.54100 42.07600
O  -7.38500 12.49900 42.10300
C  -7.44800 14.87100 41.68700
C  -6.45000 15.33100 42.69500
O  -6.68600 15.46200 43.89400
O  -5.26900 15.66400 42.09200
C  -4.16400 16.06600 42.97200
H  -9.97000 21.09000 39.89100
H  -15.84000 18.68000 40.91700
H  -13.53200 13.38100 43.25800
H  -6.49700 17.94800 41.06700
H  -8.10900 19.78800 39.26300
H  -7.39800 21.43900 40.57400
H  -6.37800 20.36500 41.51500
H  -8.13000 20.75100 42.02600
H  -7.38900 18.04200 38.23200
H  -7.71100 16.41200 38.84700
H  -5.31600 16.12600 38.69900
H  -4.88800 17.63200 39.33400
H  -11.32800 22.58200 39.21000
H  -12.12200 23.45500 40.41100
H  -12.95300 22.99500 38.91000
H  -17.41700 21.71800 40.46300
H  -16.53700 20.54700 41.49700
H  -16.79000 20.25000 39.72500
H  -16.76600 16.46400 41.44600
H  -15.60800 15.09500 43.84400
H  -17.12900 16.65800 44.12500
H  -17.47700 17.83200 42.76300
H  -15.98100 17.96500 43.82800
H  -15.29500 13.26200 41.63300
H  -16.58400 14.19900 41.01100
H  -17.11500 13.46100 43.76800
H  -16.66600 12.05400 42.81200
H  -18.12100 13.00600 42.34100
H  -10.09600 11.12900 43.01400
H  -11.55300 11.46200 42.03600
H  -11.47800 11.57100 43.85600
H  -7.10000 14.77400 40.65900
H  -3.91800 17.12800 42.97700
H  -3.25300 15.63900 42.55100
H  -4.17700 15.67400 43.98900

