158

Mg 36.13500 48.85900 24.10200
C  36.44900 47.30100 27.30800
C  34.61900 51.55300 25.71200
C  35.87200 50.18800 21.15700
C  37.64200 46.06800 22.68700
N  35.56600 49.31100 26.35400
C  35.88200 48.56000 27.44700
C  35.45200 49.30000 28.74400
C  34.95000 50.73600 28.17800
C  34.98600 50.52600 26.62000
C  33.47600 51.14200 28.69600
C  36.70900 49.37200 29.74500
C  36.34300 49.20100 31.26900
H  34.90000 49.11100 31.73000
N  35.25400 50.59500 23.51700
C  34.74500 51.59900 24.24200
C  34.40300 52.70300 23.40200
C  34.79600 52.39500 22.06200
C  35.31900 50.98600 22.14600
C  33.87300 53.93500 23.92400
C  34.82200 53.18800 20.74900
O  34.95900 52.62600 19.64600
C  34.60100 54.69600 20.79800
N  36.51000 48.16200 22.18500
C  36.39400 48.95900 21.14600
C  36.80300 48.30400 19.86100
C  37.46900 47.00600 20.36100
C  37.24900 47.09800 21.82300
C  35.57900 48.07700 18.90500
C  38.91500 46.91700 20.08900
C  39.84000 47.93000 20.79500
N  36.89100 47.00300 24.78400
C  37.41300 45.94900 24.07800
C  37.74300 44.86000 24.97100
C  37.34600 45.34200 26.22900
C  36.95100 46.69600 26.10400
C  38.26300 43.51400 24.63700
C  37.14000 44.99500 27.62500
O  37.31400 43.89800 28.19500
C  36.64500 46.25200 28.40100
C  35.42200 46.00300 29.29500
O  34.25400 45.84400 28.90000
O  35.84300 45.96100 30.58800
C  34.96700 45.21200 31.54900
H  34.30400 52.47900 26.19700
H  35.84800 50.55900 20.13000
H  38.25300 45.27700 22.24700
H  34.58100 48.78300 29.14800
H  35.71600 51.48700 28.37000
H  33.46800 52.15600 29.09700
H  33.15800 50.44800 29.47400
H  32.75200 51.11700 27.88200
H  37.05500 50.40200 29.65800
H  37.47600 48.67500 29.40700
H  36.62900 50.15200 31.71800
H  36.91300 48.51400 31.89500
H  34.20000 54.78700 23.32900
H  34.28600 54.07900 24.92300
H  32.78400 53.89800 23.89300
H  34.75200 55.01300 19.76600
H  35.38900 55.16000 21.39100
H  33.58100 54.88600 21.13300
H  37.50600 49.03400 19.46100
H  36.96000 46.10100 20.02900
H  34.72500 48.02900 19.58100
H  35.63400 47.16700 18.30700
H  35.47900 48.84100 18.13400
H  39.00700 46.91900 19.00300
H  39.16300 45.89000 20.35600
H  39.21700 48.62700 21.35500
H  40.51200 48.43600 20.10200
H  40.41000 47.43700 21.58200
H  39.33200 43.62400 24.45900
H  37.64200 43.06700 23.86000
H  38.02200 42.94100 25.53300
H  37.43100 46.53800 29.09900
H  34.36700 45.84800 32.19900
H  35.49200 44.52200 32.21000
H  34.25900 44.59300 31.00000
Mg 9.29200 48.60600 27.73100
C  7.61900 47.82200 30.70500
C  12.14600 48.96200 29.62500
C  10.93900 49.23300 24.93100
C  6.28900 48.64900 25.94000
N  9.76900 48.65900 29.97600
C  8.95400 48.22500 30.98500
C  9.60800 48.31800 32.35300
C  11.10200 48.79100 31.93000
C  11.03300 48.92400 30.43100
C  11.55400 50.05600 32.74000
C  9.59300 46.93900 33.19500
C  10.60200 46.62500 34.36200
H  10.08900 45.77800 35.58700
N  11.32100 48.82300 27.29800
C  12.34400 48.90600 28.20900
C  13.58900 48.77100 27.47100
C  13.21800 48.86200 26.02600
C  11.77200 49.02000 26.06800
C  14.94400 48.49200 28.06200
C  14.13500 48.66300 24.83100
O  13.85600 48.45800 23.66600
C  15.61700 48.62200 25.11100
N  8.65800 49.04100 25.78200
C  9.58500 49.31000 24.78100
C  8.99800 49.30000 23.31100
C  7.44000 49.37300 23.70400
C  7.40800 48.94000 25.22800
C  9.52200 50.41100 22.42300
C  6.59600 48.35000 22.74600
C  5.92200 48.96900 21.55000
N  7.33200 48.34600 28.22800
C  6.19700 48.39000 27.38400
C  4.99500 47.98400 28.19500
C  5.55200 47.71300 29.46300
C  6.96300 47.95600 29.46500
C  3.62900 47.94000 27.60000
C  5.19100 47.33700 30.84100
O  4.06200 47.05800 31.24700
C  6.50600 47.36600 31.64300
C  6.60700 46.04800 32.22400
O  7.22300 45.04700 31.84200
O  5.82000 46.11000 33.33900
C  5.73300 44.86100 34.05900
H  13.09800 48.95900 30.15900
H  11.52100 49.38200 24.01900
H  5.35600 48.68600 25.37400
H  9.10300 49.09300 32.92900
H  11.90600 48.09500 32.16600
H  11.06700 50.14900 33.71000
H  11.38900 50.99700 32.21500
H  12.58900 49.85000 33.01400
H  9.60300 46.07700 32.52900
H  8.62800 47.08800 33.68100
H  11.05200 47.54400 34.73900
H  11.41200 45.98100 34.02000
H  14.96100 48.40100 29.14800
H  15.57800 49.36600 27.91300
H  15.49400 47.72600 27.51500
H  15.97400 49.37900 25.80900
H  16.12200 48.95100 24.20300
H  15.96000 47.66700 25.50900
H  9.21200 48.33500 22.85300
H  7.02600 50.38100 23.71500
H  9.48100 49.91800 21.45100
H  10.55000 50.65400 22.69000
H  8.85600 51.27300 22.44400
H  5.81500 47.81100 23.28200
H  7.27600 47.61200 22.32100
H  6.69600 49.42900 20.93600
H  5.25300 49.78500 21.82300
H  5.33800 48.13400 21.16300
H  3.03100 47.13600 28.03000
H  3.62300 47.79300 26.52000
H  3.17600 48.91500 27.77800
H  6.48300 48.13800 32.41100
H  6.08300 44.98900 35.08400
H  6.23000 44.00600 33.60000
H  4.68100 44.57600 34.06200

