158

Mg 26.18000 -0.13400 29.35000
C  27.85300 -0.60000 32.44100
C  23.29900 0.28300 30.98100
C  24.54500 -0.45100 26.28200
C  29.17700 -1.20300 27.68000
N  25.67000 -0.17400 31.52600
C  26.51500 -0.34500 32.60100
C  25.72600 0.02800 33.92100
C  24.29300 -0.06600 33.39700
C  24.42900 0.04400 31.84200
C  23.45400 -1.25100 33.86600
C  26.13900 1.43000 34.49900
C  25.80200 1.64900 35.93100
H  26.88100 1.82300 37.02700
N  24.26300 -0.02500 28.72200
C  23.23400 0.22300 29.57500
C  22.07900 0.44000 28.78400
C  22.37900 0.20700 27.39600
C  23.82100 -0.14800 27.47400
C  20.73300 0.66600 29.38000
C  21.52300 0.19600 26.07800
O  21.87800 -0.02200 24.90200
C  20.04200 0.50100 26.28900
N  26.77800 -0.69900 27.27600
C  25.89800 -0.72900 26.22700
C  26.62800 -1.19000 24.97000
C  28.18500 -1.20700 25.34800
C  28.04100 -1.09200 26.86900
C  26.05000 -2.44900 24.25800
C  29.03700 -0.11300 24.75800
C  30.45800 -0.55700 24.66400
N  28.11200 -0.62100 29.85800
C  29.24800 -0.98600 29.07800
C  30.36600 -1.11400 29.94500
C  29.87400 -0.96500 31.25100
C  28.50200 -0.76000 31.13500
C  31.71100 -1.38900 29.53300
C  30.32800 -0.93400 32.67800
O  31.37100 -1.16500 33.23100
C  29.03700 -0.57900 33.49300
C  28.80400 -1.57300 34.58400
O  28.39700 -2.69700 34.28900
O  29.08300 -0.99600 35.84600
C  28.73100 -1.87700 36.99200
H  22.38300 0.39600 31.56500
H  24.12700 -0.43300 25.27400
H  30.05000 -1.56500 27.13300
H  25.87700 -0.71500 34.70400
H  23.83600 0.85400 33.76200
H  23.18800 -1.93700 33.06100
H  22.54700 -0.83600 34.30600
H  24.00200 -1.86600 34.57900
H  25.65200 2.14100 33.83100
H  27.21800 1.54500 34.39600
H  25.20100 0.79900 36.25300
H  25.21500 2.56200 35.84100
H  19.91700 0.14400 28.88000
H  20.52900 1.71400 29.15900
H  20.54600 0.54100 30.44700
H  19.53200 -0.29600 26.83000
H  19.62000 0.69800 25.30300
H  20.03000 1.50100 26.72200
H  26.57900 -0.44500 24.17600
H  28.59500 -2.19200 25.12800
H  25.03400 -2.68400 24.57500
H  26.68300 -3.32200 24.41800
H  25.99800 -2.32600 23.17600
H  29.12900 0.73500 25.43600
H  28.70400 0.19800 23.76800
H  30.77200 -0.49100 23.62200
H  30.51700 -1.60200 24.96800
H  31.16000 -0.00600 25.29100
H  31.92500 -0.85100 28.60900
H  31.90100 -2.42200 29.24200
H  32.39000 -1.07300 30.32500
H  29.17000 0.37200 34.01100
H  27.64400 -1.91600 37.06600
H  29.10200 -1.37100 37.88400
H  28.98200 -2.93600 36.93400
Mg 15.72400 52.34800 25.37600
C  17.95300 51.02700 27.93700
C  13.40700 52.87000 27.72600
C  13.85800 53.28800 22.91700
C  18.26000 51.28100 23.00800
N  15.80000 52.13700 27.58400
C  16.79800 51.60200 28.41800
C  16.35200 51.80900 29.83500
C  14.81900 52.05500 29.72100
C  14.62200 52.41100 28.26900
C  13.93200 50.80400 30.17500
C  17.10900 53.11900 30.36000
C  17.12100 53.44900 31.84300
H  16.14100 52.62200 32.74100
N  13.85900 53.00800 25.36700
C  13.00900 53.11800 26.41400
C  11.71200 53.66000 25.93400
C  11.94200 53.91700 24.55800
C  13.28200 53.40000 24.20400
C  10.48900 53.89300 26.81900
C  10.88500 54.45600 23.59300
O  11.11100 54.47300 22.36300
C  9.52900 54.89600 24.13400
N  16.08800 52.24800 23.27400
C  15.16100 52.85000 22.50000
C  15.54400 52.76200 21.01300
C  16.98000 52.24500 21.03300
C  17.15800 51.95200 22.52100
C  14.57000 52.05600 20.04800
C  18.05900 53.11200 20.35300
C  18.47500 52.65200 18.93300
N  17.69400 51.31100 25.42900
C  18.54300 50.95900 24.37400
C  19.66800 50.20300 24.91700
C  19.56500 50.26100 26.31300
C  18.33300 50.97000 26.59700
C  20.74800 49.59800 24.12800
C  20.09400 49.92300 27.60200
O  21.09300 49.35200 27.95500
C  19.09500 50.49900 28.70000
C  18.81200 49.58600 29.83500
O  18.53400 48.34600 29.75800
O  19.15200 50.23500 30.98000
C  19.06500 49.47900 32.26400
H  12.61500 53.05900 28.45300
H  13.17700 53.47300 22.08400
H  19.00000 50.99400 22.25800
H  16.43800 50.92300 30.46400
H  14.58400 53.00200 30.20700
H  14.49200 49.90500 30.43100
H  13.22300 50.54000 29.39000
H  13.25200 51.07400 30.98300
H  16.58800 53.97500 29.93300
H  18.10200 53.07400 29.91200
H  16.84500 54.48200 32.05500
H  18.13500 53.31400 32.22100
H  9.67900 53.21100 26.56200
H  10.21900 54.94100 26.94600
H  10.68400 53.57200 27.84200
H  8.98700 54.20100 24.77500
H  9.02200 54.84000 23.17100
H  9.75300 55.89000 24.52200
H  15.52100 53.81200 20.72300
H  16.90400 51.29500 20.50300
H  13.60800 51.74600 20.45500
H  14.92600 51.07600 19.73100
H  14.39500 52.61300 19.12800
H  18.91200 53.22400 21.02200
H  17.63800 54.11700 20.30700
H  17.99600 51.76600 18.51600
H  19.52400 52.42700 19.12600
H  18.47800 53.53800 18.29800
H  21.63200 50.18300 23.87600
H  20.22600 49.09500 23.31300
H  20.95200 48.74000 24.76800
H  19.65600 51.30200 29.17700
H  19.86700 48.74100 32.26200
H  18.12700 48.94300 32.41200
H  19.12800 50.17400 33.10100

