158

Mg 35.27900 1.15600 28.74400
C  33.16200 2.77900 30.96700
C  37.73700 1.39000 31.22400
C  37.62800 0.45100 26.46500
C  32.94300 1.57200 26.19500
N  35.44500 1.95700 30.92500
C  34.37900 2.53500 31.57500
C  34.64900 2.62300 33.06500
C  36.23000 2.45500 33.03100
C  36.50000 1.82300 31.66900
C  36.81200 3.91800 33.25200
C  33.84000 1.42500 33.87600
C  33.10300 1.93400 35.15600
H  33.92100 2.92200 36.02100
N  37.42500 0.78100 28.84000
C  38.18700 0.89100 29.97000
C  39.46100 0.34200 29.65100
C  39.56100 0.11900 28.22000
C  38.20700 0.53300 27.73500
C  40.49800 0.20800 30.68800
C  40.73300 -0.43500 27.40700
O  40.65500 -0.69100 26.18900
C  41.99000 -0.69300 28.20700
N  35.31800 1.13000 26.59500
C  36.35600 0.62300 25.90100
C  36.02000 0.51700 24.44500
C  34.50400 0.59200 24.39200
C  34.18900 1.07100 25.77700
C  36.73800 1.58500 23.51500
C  33.78700 -0.78000 24.21400
C  32.81000 -0.78500 22.98200
N  33.46300 1.98000 28.56800
C  32.56200 1.97700 27.52300
C  31.32700 2.54300 27.93000
C  31.48600 2.82100 29.32000
C  32.77500 2.45100 29.65200
C  30.19300 2.66500 27.00500
C  30.84900 3.35500 30.47100
O  29.78000 3.75400 30.67300
C  31.86200 3.27800 31.61700
C  32.01000 4.48600 32.49800
O  32.86100 5.33800 32.42100
O  31.07800 4.39300 33.50800
C  31.27800 5.39600 34.58100
H  38.46300 1.48000 32.03400
H  38.30600 -0.01100 25.74500
H  32.09700 1.40200 25.52700
H  34.35400 3.59300 33.46300
H  36.69500 1.84300 33.80300
H  36.05100 4.60500 33.62200
H  37.09100 4.32700 32.28100
H  37.66100 3.94800 33.93500
H  34.62700 0.71700 34.13400
H  33.11500 1.00900 33.17600
H  32.75100 1.06900 35.71800
H  32.23800 2.48800 34.79000
H  41.18900 -0.62300 30.55200
H  40.04500 -0.17400 31.60300
H  40.97100 1.18600 30.78100
H  42.71700 -1.00100 27.45600
H  41.71500 -1.55600 28.81500
H  42.40000 0.18300 28.70800
H  36.38900 -0.44300 24.08200
H  34.15500 1.34000 23.67900
H  36.06700 2.29800 23.03700
H  37.28400 1.17500 22.66500
H  37.49200 2.26400 23.91300
H  33.23400 -1.07400 25.10600
H  34.45000 -1.63200 24.05900
H  33.15500 -1.38600 22.14100
H  32.61600 0.24700 22.69200
H  31.91200 -1.26100 23.37700
H  30.30100 3.62800 26.50700
H  29.28600 2.68000 27.60900
H  30.10600 1.77900 26.37700
H  31.54100 2.48600 32.29400
H  30.93000 6.35500 34.19600
H  32.31900 5.32300 34.89500
H  30.66300 5.14000 35.44300
Mg 47.22100 24.86900 28.66800
C  47.67700 27.09100 31.35300
C  46.26700 22.48200 31.08900
C  47.00900 22.67000 26.13500
C  48.21700 27.29100 26.32800
N  47.02100 24.74100 30.99400
C  47.18800 25.86800 31.84000
C  46.85700 25.45600 33.29000
C  46.49500 23.98600 33.25700
C  46.59800 23.70100 31.71700
C  47.33100 23.07600 34.22600
C  45.69800 26.42900 33.68500
C  45.98800 27.31000 34.98300
H  44.96100 27.36000 36.05900
N  46.65700 22.89400 28.58500
C  46.29800 22.07900 29.69100
C  45.96700 20.80000 29.13300
C  46.06500 20.82200 27.70600
C  46.61200 22.19800 27.38700
C  45.44500 19.69600 29.95400
C  45.68400 19.86900 26.58600
O  45.79100 20.12800 25.41000
C  45.26800 18.45000 26.95300
N  47.65200 24.94600 26.57000
C  47.54700 23.86300 25.76200
C  47.68100 24.17000 24.29500
C  47.82900 25.76200 24.31500
C  47.91500 26.02100 25.81400
C  48.90500 23.48000 23.53800
C  46.68700 26.45800 23.62200
C  45.29100 26.28300 24.22100
N  47.80600 26.76800 28.73900
C  48.19600 27.64500 27.70200
C  48.53500 28.97500 28.31700
C  48.35700 28.76000 29.71200
C  47.97400 27.41100 29.94600
C  48.95600 30.18300 27.59900
C  48.51600 29.35800 31.03300
O  48.94400 30.49000 31.34400
C  47.98600 28.34500 32.07300
C  49.06800 28.07800 33.06400
O  50.00500 27.33700 32.87900
O  48.94400 28.90600 34.15600
C  49.84500 28.77500 35.26100
H  45.78000 21.78800 31.77700
H  46.95700 22.04200 25.24300
H  48.49000 27.98900 25.53300
H  47.75300 25.72300 33.85000
H  45.50700 23.94400 33.71600
H  47.98700 23.51100 34.98000
H  47.94700 22.30600 33.76200
H  46.55000 22.49200 34.71400
H  44.75600 25.91900 33.88300
H  45.41200 27.17200 32.94000
H  46.15800 28.35600 34.72800
H  46.95800 26.96500 35.34200
H  44.45300 19.38300 29.62700
H  45.31800 19.86000 31.02400
H  46.11500 18.84300 29.84200
H  44.75300 18.13200 26.04600
H  44.56900 18.47300 27.78900
H  46.18800 17.89000 27.12000
H  46.74900 23.84700 23.83000
H  48.78800 26.07300 23.90200
H  49.47800 22.83000 24.19800
H  49.52600 24.23400 23.05300
H  48.50800 22.73400 22.85000
H  46.73500 26.24100 22.55500
H  46.91000 27.52000 23.72600
H  45.33600 25.86300 25.22600
H  44.72200 25.50600 23.71100
H  44.73600 27.22100 24.24400
H  48.93000 31.08900 28.20300
H  48.48600 30.30300 26.62300
H  50.02500 30.00600 27.47400
H  47.17100 28.84000 32.60100
H  49.50400 28.03900 35.98800
H  49.91500 29.66600 35.88400
H  50.82700 28.41000 34.96000

