158

Mg 29.21900 58.71700 41.57100
C  26.26200 57.07600 40.84600
C  30.88200 56.07700 39.96800
C  31.79000 60.69800 41.36200
C  27.15300 61.48700 42.61500
N  28.63000 56.79600 40.58000
C  27.39500 56.40300 40.30600
C  27.30700 55.15600 39.53900
C  28.79400 54.67500 39.57600
C  29.51200 55.91600 40.04300
C  28.99800 53.53100 40.60500
C  26.73700 55.43300 38.03400
C  26.28300 54.25100 37.21500
H  25.73000 54.60800 35.79500
N  31.15100 58.37100 40.97400
C  31.68200 57.23000 40.34000
C  33.07400 57.38600 40.13600
C  33.33300 58.74700 40.35000
C  32.04100 59.41500 40.91200
C  34.02500 56.31900 39.68100
C  34.59700 59.45600 40.06600
O  35.57400 58.82100 39.66200
C  34.76200 60.91600 40.07900
N  29.40700 60.89500 41.85800
C  30.65300 61.40200 41.86500
C  30.61300 62.84100 42.35100
C  29.18700 63.06900 42.87600
C  28.47400 61.77500 42.32500
C  31.68800 63.33600 43.28400
C  28.56500 64.47600 42.42600
C  28.07600 65.45900 43.54500
N  27.07500 59.19000 41.84600
C  26.43100 60.30900 42.32300
C  25.01900 60.06800 42.36500
C  24.89300 58.84200 41.75400
C  26.19300 58.36900 41.51800
C  23.97700 60.91700 42.99500
C  23.95700 57.77000 41.45600
O  22.71800 57.75500 41.47500
C  24.83500 56.60600 40.76900
C  24.54100 55.39700 41.52600
O  24.57600 55.27900 42.72600
O  23.94100 54.38100 40.76500
C  23.55100 53.12600 41.54800
H  31.34600 55.21100 39.49200
H  32.65400 61.35800 41.26000
H  26.62400 62.28000 43.14900
H  26.64300 54.42400 39.99900
H  29.13600 54.32400 38.60300
H  28.22300 53.71200 41.35000
H  29.98000 53.66900 41.05700
H  29.09100 52.51500 40.22100
H  27.57700 55.83000 37.46400
H  25.97200 56.20900 38.06600
H  25.43900 53.87100 37.79000
H  27.06800 53.49800 37.15100
H  33.39100 55.43200 39.68100
H  34.68800 56.18800 40.53600
H  34.45400 56.46900 38.69000
H  34.04700 61.39300 39.40800
H  35.70800 61.34400 39.74600
H  34.73700 61.32900 41.08800
H  30.81700 63.47000 41.48500
H  29.22600 63.09400 43.96500
H  32.56300 62.68700 43.31500
H  31.43600 63.33200 44.34400
H  32.02400 64.32000 42.95500
H  27.77000 64.37800 41.68700
H  29.33400 64.96300 41.82700
H  27.01400 65.65600 43.39400
H  28.62100 66.40200 43.54100
H  28.17000 64.93800 44.49800
H  24.13300 61.99300 42.92100
H  23.98100 60.82300 44.08100
H  23.03900 60.57500 42.55900
H  24.55700 56.49600 39.72100
H  24.08700 53.01400 42.49100
H  23.71900 52.26800 40.89700
H  22.48400 53.27600 41.70900
Mg -8.87600 18.45000 42.11700
C  -5.36700 17.91400 42.18400
C  -8.34500 21.65000 41.24900
C  -12.11200 18.65800 41.64500
C  -9.25200 14.94200 42.42600
N  -7.03100 19.63400 41.76000
C  -5.75800 19.18200 41.72100
C  -4.85400 20.38700 41.30000
C  -5.74800 21.60400 40.96800
C  -7.12200 20.95600 41.38100
C  -5.44000 22.88700 41.86800
C  -3.79300 19.96700 40.34100
C  -4.32700 19.20400 39.03200
H  -4.12900 19.76000 37.64500
N  -10.09100 20.00500 41.66000
C  -9.71400 21.28000 41.33500
C  -10.84400 22.08900 41.21600
C  -11.98200 21.28000 41.44700
C  -11.46200 19.90900 41.51800
C  -10.86300 23.60200 41.06700
C  -13.49300 21.67900 41.47300
O  -13.84900 22.81300 41.31700
C  -14.59700 20.74500 42.03400
N  -10.44300 17.00600 41.98000
C  -11.67600 17.34100 41.80800
C  -12.58800 16.17300 41.88400
C  -11.69600 14.95100 42.16100
C  -10.31400 15.65000 42.22800
C  -13.65300 16.37300 42.99800
C  -11.78600 13.73700 41.19300
C  -13.16200 13.36400 40.60600
N  -7.58000 16.74300 42.35800
C  -7.92500 15.44100 42.53300
C  -6.70500 14.64700 42.69500
C  -5.66700 15.59500 42.58900
C  -6.24300 16.83000 42.37100
C  -6.50100 13.22300 42.79100
C  -4.23800 15.78800 42.59500
O  -3.35600 14.95000 42.78600
C  -3.93000 17.33000 42.43300
C  -3.40000 17.78100 43.72100
O  -2.25200 18.14200 43.91700
O  -4.38100 17.54700 44.66400
C  -3.81200 17.51900 45.99300
H  -8.05600 22.64500 40.90400
H  -13.16700 18.76900 41.38700
H  -9.40600 13.86200 42.47200
H  -4.29600 20.67500 42.19100
H  -5.60000 21.81900 39.91000
H  -4.49300 22.78400 42.39800
H  -6.22900 23.00000 42.61100
H  -5.42700 23.79400 41.26200
H  -2.88700 19.62900 40.84300
H  -3.46500 20.92900 39.94600
H  -5.39700 19.01400 39.12100
H  -3.82800 18.23600 39.07000
H  -11.66600 23.99000 40.44000
H  -9.90900 23.81400 40.58500
H  -10.90200 24.15000 42.00800
H  -14.25300 20.20700 42.91700
H  -14.99600 20.05200 41.29300
H  -15.45400 21.34800 42.33500
H  -13.06300 16.05700 40.91000
H  -11.81300 14.61100 43.19000
H  -14.59300 16.41100 42.44700
H  -13.47100 17.32000 43.50500
H  -13.75400 15.58300 43.74200
H  -11.61900 12.85600 41.81200
H  -10.99300 13.72300 40.44500
H  -13.16700 13.59500 39.54100
H  -13.89100 13.92600 41.19100
H  -13.36800 12.33900 40.91300
H  -5.62800 13.12800 42.14500
H  -7.35700 12.70800 42.35600
H  -6.37600 12.93200 43.83400
H  -3.24200 17.65000 41.65000
H  -2.93900 16.87600 45.88300
H  -4.53100 17.12900 46.71400
H  -3.44000 18.49000 46.32000

