158

Mg 7.88900 3.20500 27.84500
C  9.41300 1.62300 30.64400
C  6.31900 5.38900 30.17300
C  6.33400 4.76800 25.28400
C  8.95000 0.63200 25.85200
N  7.85200 3.44000 30.15400
C  8.61300 2.70500 31.01500
C  8.41200 3.26200 32.49800
C  7.36300 4.37600 32.32700
C  7.12600 4.40100 30.81600
C  6.06200 4.27900 33.13100
C  9.77800 3.71100 33.14300
C  9.92200 3.49800 34.69000
H  10.49700 4.61200 35.55300
N  6.58800 4.84300 27.75800
C  6.13100 5.59100 28.79500
C  5.38200 6.68400 28.22100
C  5.23200 6.46200 26.83000
C  6.02900 5.25600 26.59000
C  4.84000 7.78700 29.11000
C  4.65000 7.35900 25.72600
O  4.72200 7.11500 24.52100
C  4.01900 8.61600 26.07100
N  7.53500 2.64600 25.90400
C  7.07500 3.50800 24.96900
C  7.38200 3.20100 23.48600
C  8.02200 1.72500 23.75200
C  8.23600 1.65300 25.25400
C  6.05100 3.31100 22.67100
C  9.32500 1.60900 22.89800
C  10.55200 2.43400 23.39100
N  8.92000 1.42400 28.14100
C  9.18400 0.41100 27.29800
C  9.87400 -0.65500 27.99500
C  10.07400 -0.11200 29.27200
C  9.40800 1.05800 29.30900
C  10.57300 -1.83600 27.51700
C  10.75000 -0.36100 30.52700
O  11.48800 -1.25100 30.89700
C  10.25900 0.71700 31.43600
C  9.47600 0.13700 32.52000
O  8.49400 -0.55800 32.34300
O  10.15300 0.32400 33.73200
C  9.35300 -0.18400 34.86700
H  5.85900 6.13500 30.82400
H  6.06100 5.48100 24.50300
H  9.29400 -0.22900 25.27500
H  7.96300 2.44100 33.05800
H  7.79700 5.31700 32.66900
H  5.23900 3.86700 32.54600
H  5.77200 5.28100 33.44700
H  6.11700 3.64300 34.01500
H  9.89000 4.77300 32.92800
H  10.53400 3.10000 32.65000
H  10.64800 2.70300 34.86300
H  8.94800 3.24500 35.11000
H  5.40600 7.96800 30.02400
H  3.77200 7.67000 29.29700
H  4.90600 8.72700 28.56200
H  3.32000 8.44600 26.89000
H  3.54900 8.81800 25.10800
H  4.82400 9.29500 26.35400
H  8.11700 3.84700 23.00700
H  7.37800 0.88000 23.50800
H  5.16600 3.50300 23.27800
H  5.94400 2.34700 22.17500
H  6.04100 4.03200 21.85400
H  9.10100 1.95400 21.88900
H  9.54300 0.54200 22.84300
H  11.13200 1.80500 24.06700
H  10.25100 3.33800 23.92000
H  11.10900 2.78100 22.52000
H  11.59000 -1.69200 27.15300
H  9.97100 -2.36400 26.77800
H  10.67300 -2.56400 28.32200
H  11.13800 1.20800 31.85300
H  9.24600 -1.26800 34.91200
H  8.35700 0.23700 34.99900
H  9.80800 0.09500 35.81700
Mg 16.02500 -1.91900 27.68200
C  15.17900 0.17900 30.44600
C  17.98900 -3.83800 29.78100
C  17.33800 -3.42400 25.02600
C  14.34900 0.34000 25.67100
N  16.46200 -1.84300 29.81500
C  15.99100 -0.95400 30.80000
C  16.59600 -1.17400 32.20000
C  17.62500 -2.29500 31.90100
C  17.35500 -2.71700 30.37400
C  19.06600 -1.80800 32.01600
C  15.50800 -1.41200 33.35300
C  15.80600 -1.00800 34.86000
H  17.11300 -0.21800 35.20200
N  17.38500 -3.49700 27.39400
C  18.05800 -4.17600 28.41000
C  18.78000 -5.22500 27.86000
C  18.63700 -5.13700 26.43600
C  17.73300 -4.01400 26.21900
C  19.62800 -6.20200 28.71700
C  19.25300 -6.00100 25.41800
O  19.01500 -5.78700 24.26800
C  20.14700 -7.15100 25.67900
N  15.87300 -1.56700 25.64900
C  16.49000 -2.35600 24.71500
C  16.10500 -1.98500 23.28900
C  14.94600 -0.97000 23.50900
C  15.03900 -0.73600 25.05100
C  17.29400 -1.41900 22.43500
C  13.53100 -1.47600 23.11800
C  13.09100 -1.18800 21.71400
N  14.91100 -0.15300 27.97400
C  14.31600 0.66000 27.03200
C  13.59100 1.69100 27.63100
C  13.83700 1.56200 28.98900
C  14.68800 0.43000 29.16600
C  12.79300 2.69800 26.92900
C  13.55600 2.02700 30.33600
O  12.82300 2.88600 30.75600
C  14.54300 1.28200 31.31800
C  15.46100 2.24700 31.93000
O  16.43700 2.71000 31.34900
O  14.95300 2.70500 33.17900
C  15.79100 3.78400 33.77100
H  18.53200 -4.39600 30.54700
H  17.74500 -3.80900 24.08900
H  13.61400 0.91900 25.10600
H  16.93100 -0.15100 32.37100
H  17.47000 -3.19000 32.50300
H  19.49000 -1.71900 31.01600
H  19.73100 -2.46400 32.57800
H  19.07000 -0.85000 32.53600
H  15.31800 -2.48600 33.35900
H  14.58200 -0.94300 33.01900
H  15.74600 -1.94100 35.42100
H  14.87300 -0.55700 35.19800
H  19.39900 -7.24400 28.49300
H  19.35100 -6.14800 29.77000
H  20.70400 -6.06400 28.61200
H  21.13600 -6.97300 26.10200
H  20.43100 -7.58200 24.71900
H  19.65100 -7.86000 26.34100
H  15.79000 -2.89100 22.77100
H  15.17800 -0.03500 23.00000
H  17.14700 -0.34600 22.31300
H  17.44600 -1.98500 21.51500
H  18.20900 -1.54200 23.01500
H  12.74300 -1.06100 23.74700
H  13.60300 -2.56100 23.19600
H  12.10400 -0.78000 21.93100
H  13.14000 -2.07600 21.08300
H  13.73700 -0.45100 21.23600
H  13.24400 2.85600 25.94900
H  12.75000 3.66100 27.43900
H  11.75300 2.38700 26.83000
H  13.93900 0.85700 32.12000
H  15.76400 3.82400 34.86000
H  15.67700 4.79900 33.38900
H  16.85300 3.66400 33.55300

