158

Mg 35.58100 48.01800 26.88400
C  36.12200 45.70200 29.61700
C  34.06200 50.12800 29.07400
C  34.75500 49.90600 24.26600
C  36.54900 45.40700 24.73500
N  34.97500 47.82200 29.11100
C  35.42600 46.89400 30.05600
C  35.33100 47.45800 31.49200
C  34.36200 48.72900 31.25300
C  34.41200 48.90100 29.69400
C  32.92700 48.65200 31.85200
C  36.69400 47.83500 32.18400
C  36.71300 47.47900 33.69000
H  36.38600 48.64900 34.64000
N  34.64400 49.83600 26.67700
C  34.13200 50.57500 27.68400
C  33.81300 51.89300 27.26200
C  33.86000 51.81000 25.81700
C  34.37000 50.46900 25.48100
C  33.35500 53.12700 28.09400
C  33.62300 52.93900 24.74100
O  33.64000 52.74700 23.51600
C  33.32400 54.28900 25.24100
N  35.66300 47.67800 24.86300
C  35.36400 48.65700 23.91100
C  35.53600 48.20300 22.45300
C  36.51300 47.02000 22.67600
C  36.15000 46.58600 24.14900
C  34.26600 47.85300 21.62200
C  38.02500 47.31600 22.51700
C  38.68400 46.51700 21.38600
N  36.22400 46.00600 27.07500
C  36.53600 45.10100 26.11900
C  36.91800 43.84600 26.72000
C  36.84800 44.07100 28.10200
C  36.37300 45.39700 28.27400
C  37.33700 42.57000 25.96000
C  37.03400 43.46300 29.41400
O  37.37200 42.34600 29.77200
C  36.68100 44.57200 30.45000
C  35.65400 44.02700 31.39600
O  34.49100 43.64000 31.12600
O  36.19300 44.03700 32.66200
C  35.27500 43.56200 33.70000
H  33.72600 50.90400 29.76500
H  34.70400 50.52900 23.37100
H  36.64100 44.58300 24.02500
H  34.91800 46.69900 32.15600
H  34.77100 49.63700 31.69700
H  32.72600 49.41400 32.60600
H  32.62600 47.66800 32.21200
H  32.23000 48.84800 31.03800
H  36.90600 48.90100 32.10000
H  37.50400 47.28300 31.70900
H  37.74700 47.24600 33.94400
H  36.20900 46.54000 33.92200
H  32.36900 53.31600 27.67100
H  34.01400 53.98900 27.98600
H  33.30300 52.85800 29.14900
H  33.06800 54.88000 24.36200
H  34.08400 54.72000 25.89400
H  32.36400 54.05000 25.69900
H  36.06300 48.94500 21.85300
H  36.29500 46.16700 22.03400
H  34.16100 46.81600 21.30200
H  34.18700 48.49900 20.74800
H  33.35900 48.08800 22.17700
H  38.68600 47.15600 23.36900
H  38.26200 48.37000 22.37700
H  38.75300 45.48900 21.74200
H  39.69500 46.91200 21.28500
H  38.10800 46.56900 20.46200
H  36.85200 42.41200 24.99600
H  37.09800 41.65000 26.49200
H  38.42600 42.53900 25.91500
H  37.54900 44.91600 31.01300
H  35.85500 43.42000 34.61200
H  34.95200 42.55700 33.42800
H  34.48400 44.28900 33.88400
Mg -2.58900 35.16100 26.79400
C  -4.51200 33.24600 29.04700
C  -1.88200 37.32300 29.21400
C  -0.73600 36.60400 24.48700
C  -4.03000 33.00100 24.26000
N  -3.11800 35.23700 28.84400
C  -3.77500 34.33900 29.62000
C  -3.67800 34.63300 31.13600
C  -3.27200 36.16700 31.08900
C  -2.79600 36.29600 29.63900
C  -4.38400 37.16500 31.58500
C  -2.75700 33.66900 31.88300
C  -3.21500 33.01300 33.22200
H  -3.51100 33.94000 34.43700
N  -1.58400 36.86100 26.82200
C  -1.24900 37.54900 27.97900
C  -0.25100 38.53700 27.65700
C  0.10000 38.35700 26.27200
C  -0.78000 37.23100 25.79200
C  0.29200 39.51300 28.70700
C  1.17100 39.11100 25.45800
O  1.41200 38.85700 24.28500
C  2.08800 40.07100 26.17300
N  -2.60700 34.98200 24.62400
C  -1.56500 35.59400 23.92100
C  -1.48200 35.09400 22.51100
C  -2.36700 33.80600 22.58500
C  -3.10400 33.95200 23.90700
C  -1.91800 36.21000 21.47700
C  -1.57800 32.44100 22.53700
C  -2.00600 31.33300 21.53300
N  -3.97400 33.43100 26.61300
C  -4.45200 32.69700 25.51900
C  -5.28900 31.60600 26.02000
C  -5.30300 31.76400 27.36900
C  -4.57300 32.87200 27.69400
C  -6.01200 30.49900 25.17800
C  -5.85100 31.27600 28.65800
O  -6.49400 30.26200 29.02800
C  -5.29400 32.19500 29.81000
C  -6.42400 32.71000 30.59300
O  -7.27100 33.50300 30.18300
O  -6.41800 32.22500 31.87200
C  -7.41100 32.89400 32.75900
H  -1.53700 37.84400 30.11000
H  0.05200 37.02500 23.85800
H  -4.33400 32.28000 23.49800
H  -4.63700 34.52800 31.64200
H  -2.43300 36.26200 31.77900
H  -4.50400 37.85800 30.75300
H  -4.05300 37.60700 32.52500
H  -5.31800 36.65100 31.81200
H  -1.78800 34.16000 31.98000
H  -2.71400 32.87000 31.14300
H  -2.43600 32.36700 33.62700
H  -4.03300 32.35700 32.92300
H  -0.24600 39.45100 29.65300
H  0.04000 40.52900 28.40200
H  1.35400 39.35000 28.89400
H  1.52000 40.91100 26.57100
H  2.76800 40.51700 25.44800
H  2.58100 39.47700 26.94300
H  -0.45000 34.79700 22.32100
H  -2.99800 33.77800 21.69700
H  -2.80400 35.93400 20.90600
H  -1.11100 36.64900 20.89000
H  -2.36100 37.08300 21.95700
H  -1.64700 31.93500 23.50100
H  -0.53700 32.68200 22.31900
H  -2.99900 31.48100 21.11000
H  -2.09900 30.45100 22.16600
H  -1.23600 31.07300 20.80700
H  -5.50700 29.55100 25.36200
H  -6.15100 30.71200 24.11800
H  -6.98200 30.45100 25.67300
H  -4.71800 31.60500 30.52300
H  -8.42500 32.61700 32.47000
H  -7.29200 33.97400 32.66900
H  -7.25400 32.57600 33.78900

