158

Mg 46.81100 24.31100 28.58700
C  47.58800 26.77000 31.15400
C  46.27700 22.09300 31.20500
C  46.60100 21.90900 26.24500
C  48.19000 26.52200 26.27300
N  46.85500 24.45900 30.90600
C  47.06800 25.59500 31.69500
C  46.91600 25.26400 33.21600
C  46.60300 23.68400 33.17800
C  46.59100 23.33300 31.64000
C  47.60000 22.86300 34.06600
C  45.72300 26.10100 33.88000
C  45.99000 26.53700 35.28600
H  44.72500 27.01200 36.09100
N  46.39400 22.30100 28.67700
C  46.12000 21.57500 29.86100
C  45.75500 20.24300 29.41000
C  45.90200 20.11800 28.02700
C  46.33700 21.40900 27.52500
C  45.28600 19.25900 30.39200
C  45.88900 18.84000 27.17400
O  46.24700 18.93100 25.98500
C  45.41100 17.57700 27.75900
N  47.34400 24.17000 26.59000
C  47.01500 23.14200 25.78000
C  47.37800 23.35000 24.28300
C  48.02000 24.77400 24.38400
C  47.79400 25.23700 25.77300
C  48.47000 22.27500 23.63400
C  47.36700 25.86200 23.34000
C  47.89500 25.73300 21.85600
N  47.60000 26.26100 28.57100
C  48.22200 27.01300 27.58100
C  48.78400 28.21000 28.09200
C  48.49400 28.14800 29.46200
C  47.81900 26.98300 29.75600
C  49.61000 29.29400 27.36600
C  48.80000 28.87500 30.72700
O  49.44900 29.88800 30.88600
C  48.17800 27.99100 31.83700
C  49.14800 27.63200 32.83800
O  50.13700 26.95900 32.70400
O  48.77800 28.13200 34.04200
C  49.64500 27.93100 35.25300
H  46.09400 21.46700 32.08100
H  46.33000 21.21000 25.45100
H  48.75700 27.14700 25.58100
H  47.79600 25.55900 33.78700
H  45.64800 23.42700 33.63700
H  48.08500 23.58500 34.72200
H  48.32700 22.45200 33.36500
H  47.17500 22.01100 34.59700
H  44.84400 25.46300 33.79600
H  45.47500 26.98900 33.29800
H  46.64100 27.40500 35.19200
H  46.53800 25.72200 35.76000
H  45.05400 19.78500 31.31800
H  46.05000 18.51300 30.61300
H  44.36700 18.83400 29.98800
H  46.12100 17.14300 28.46300
H  45.30400 16.94400 26.87800
H  44.37600 17.73800 28.06100
H  46.47600 23.37600 23.67300
H  49.10200 24.85500 24.28000
H  49.17300 22.88800 23.07000
H  47.97300 21.56200 22.97600
H  48.99800 21.75000 24.43000
H  47.54700 26.87000 23.71300
H  46.27800 25.80600 23.31300
H  47.00600 25.59300 21.24200
H  48.60600 24.91400 21.74100
H  48.30900 26.70200 21.57900
H  50.19900 28.72600 26.64500
H  50.25100 29.59500 28.19400
H  49.10900 30.10000 26.83000
H  47.46100 28.51800 32.46600
H  49.17000 27.28900 35.99400
H  49.80000 28.89800 35.73200
H  50.58600 27.50300 34.90500
Mg 30.56600 58.21000 39.52000
C  27.64700 56.44100 38.54000
C  32.30000 55.52600 38.68200
C  33.10900 60.25900 39.56000
C  28.39700 61.09200 39.99600
N  29.96900 56.20800 38.77000
C  28.77900 55.71100 38.35800
C  28.88500 54.35800 37.61500
C  30.29900 53.89900 38.14600
C  30.93600 55.27200 38.64900
C  30.36700 52.77700 39.16700
C  28.76600 54.63000 36.12500
C  27.49900 54.08500 35.45400
H  26.68000 54.99200 34.52900
N  32.46500 57.94000 39.10000
C  33.03500 56.72400 38.86100
C  34.44500 56.91100 38.74700
C  34.71000 58.27100 39.00700
C  33.44100 58.90300 39.21100
C  35.43600 55.76200 38.37800
C  36.11600 59.04000 39.11100
O  37.16400 58.39600 38.89900
C  36.27700 60.49200 39.30600
N  30.70700 60.33900 39.85200
C  31.90500 60.91900 39.81400
C  31.90900 62.39000 40.42000
C  30.34400 62.70400 40.38800
C  29.77500 61.30200 40.16100
C  32.54000 62.56500 41.80700
C  29.88400 63.79000 39.35600
C  29.70500 65.26400 39.89300
N  28.43400 58.66900 39.41000
C  27.74400 59.89500 39.68000
C  26.31600 59.66200 39.58700
C  26.22600 58.31000 39.10800
C  27.55700 57.77300 39.08400
C  25.24700 60.69400 39.71400
C  25.27400 57.24400 38.74200
O  24.05000 57.26400 38.60600
C  26.16800 56.03600 38.43600
C  25.84600 54.89600 39.33100
O  26.44800 54.59300 40.30900
O  24.71100 54.29300 38.79000
C  24.04900 53.32300 39.69400
H  32.96800 54.69200 38.45500
H  33.91600 60.99300 39.58500
H  27.76800 61.97900 40.08800
H  28.13800 53.66500 38.00200
H  30.77500 53.52900 37.23800
H  29.37500 52.38800 39.39300
H  30.64500 53.14900 40.15400
H  31.07100 52.03300 38.79400
H  29.55700 54.22000 35.49700
H  28.85200 55.70500 35.96300
H  26.88000 53.60800 36.21300
H  27.80800 53.27100 34.79800
H  36.47000 56.10700 38.39100
H  35.08600 55.49200 37.38200
H  35.24800 54.87600 38.98500
H  35.90200 60.93500 40.22900
H  35.87500 61.06400 38.47000
H  37.35200 60.66200 39.23700
H  32.50100 63.01900 39.75600
H  30.04900 63.00600 41.39300
H  32.75300 61.51300 41.99600
H  31.95400 63.12600 42.53400
H  33.40700 63.22500 41.81100
H  29.02300 63.47100 38.76700
H  30.76300 63.93000 38.72700
H  30.59800 65.86600 39.72500
H  29.46300 65.18300 40.95300
H  28.90800 65.71100 39.29900
H  25.01800 60.80900 40.77400
H  24.34500 60.56800 39.11400
H  25.70200 61.62300 39.37200
H  25.88600 55.83200 37.40300
H  22.98700 53.55900 39.76600
H  24.38400 53.33700 40.73100
H  24.06200 52.30100 39.31400

