158

Mg 6.75900 54.72900 41.03800
C  5.57400 51.33500 40.57600
C  9.52800 53.75800 39.29600
C  7.70300 58.00800 41.07900
C  3.68100 55.54500 42.32200
N  7.30100 52.78700 39.76900
C  6.78300 51.56600 39.89700
C  7.61600 50.53900 39.12800
C  9.02300 51.24400 39.20700
C  8.61400 52.68100 39.49000
C  9.95400 50.76700 40.31700
C  6.98000 50.46400 37.66400
C  7.17200 49.17000 36.91200
H  6.48400 49.05700 35.53900
N  8.42800 55.70300 40.38200
C  9.50400 55.10900 39.68100
C  10.42200 56.14700 39.34500
C  10.00100 57.29800 39.93700
C  8.66900 57.04500 40.53200
C  11.73300 55.79800 38.52900
C  10.78500 58.62900 39.81700
O  11.65600 58.75800 38.94200
C  10.37700 59.85000 40.64600
N  5.86800 56.48100 41.66000
C  6.44900 57.66100 41.59700
C  5.48200 58.74700 42.17800
C  4.19500 57.96900 42.73400
C  4.55400 56.59900 42.09600
C  5.97100 59.83600 43.16300
C  2.85900 58.52000 42.26500
C  1.76500 58.69600 43.34200
N  4.98000 53.73300 41.37100
C  3.81500 54.22100 41.87900
C  2.95400 53.15000 42.19300
C  3.57600 51.99200 41.70700
C  4.82200 52.39700 41.17100
C  1.63500 53.23800 42.83900
C  3.39700 50.54100 41.44800
O  2.48800 49.80800 41.70400
C  4.74100 50.07400 40.89900
C  4.51800 49.06900 39.85600
O  3.67100 49.16700 38.91300
O  5.38300 47.98900 39.97500
C  4.96800 46.75800 39.23200
H  10.46000 53.38100 38.87000
H  7.82700 59.08500 40.94900
H  2.65800 55.66000 42.68600
H  7.58400 49.59600 39.67300
H  9.45900 51.17600 38.21100
H  9.35800 50.26200 41.07600
H  10.44500 51.66900 40.68200
H  10.74700 50.09800 39.98300
H  7.47400 51.25900 37.10600
H  5.90900 50.66400 37.62500
H  6.79400 48.33200 37.49700
H  8.24700 49.12000 36.74000
H  11.97300 54.75200 38.34000
H  12.59700 56.12900 39.10400
H  11.86600 56.18500 37.51900
H  11.19600 60.56600 40.58000
H  10.17400 59.62900 41.69400
H  9.59200 60.41000 40.13800
H  5.11500 59.28900 41.30700
H  4.22600 57.89900 43.82200
H  5.76600 60.81700 42.73200
H  7.05400 59.86300 43.28400
H  5.57300 59.74000 44.17300
H  2.43100 57.88500 41.48900
H  3.04600 59.50100 41.82900
H  1.62000 59.72900 43.65500
H  2.03400 58.13000 44.23400
H  0.74900 58.39300 43.08800
H  1.74200 53.41600 43.90900
H  1.10900 52.28900 42.73900
H  1.07500 54.10000 42.47500
H  5.20200 49.47200 41.68400
H  3.88800 46.66200 39.34100
H  5.47100 45.96800 39.79000
H  5.24800 46.76800 38.17900
Mg 1.94700 42.46800 25.53900
C  2.85600 42.55400 28.96300
C  -1.13800 41.18300 26.48400
C  1.46700 41.53400 22.32600
C  5.31400 43.34300 24.70800
N  0.96000 42.01400 27.55000
C  1.51400 42.30000 28.78900
C  0.45200 41.96000 29.93800
C  -0.71600 41.30100 29.15000
C  -0.31600 41.48600 27.60900
C  -1.01800 39.84000 29.54400
C  0.03200 43.37300 30.63300
C  -0.22800 43.30300 32.15900
H  -1.02500 42.12900 32.72800
N  0.30100 41.61100 24.57700
C  -0.85700 41.16200 25.09700
C  -1.67200 40.59300 24.06200
C  -0.93000 40.68800 22.80300
C  0.32500 41.31200 23.18500
C  -3.07100 40.01600 24.34300
C  -1.42100 40.35700 21.35900
O  -0.73800 40.48200 20.40400
C  -2.83200 39.99900 21.11100
N  3.15300 42.52200 23.78600
C  2.75200 42.04800 22.58100
C  3.72800 42.31300 21.40700
C  4.81700 43.20200 22.16200
C  4.42300 43.05200 23.67800
C  4.20100 41.05800 20.66000
C  4.87300 44.59000 21.65000
C  3.61100 45.44200 21.75600
N  3.69000 42.86000 26.55500
C  5.03600 43.14900 26.11900
C  5.89200 43.31300 27.22900
C  5.09200 43.04300 28.34600
C  3.72800 42.85700 27.86900
C  7.40100 43.64600 27.25000
C  5.19400 42.91200 29.78600
O  6.18500 42.98200 30.48700
C  3.64200 42.68400 30.24100
C  3.70700 41.43100 31.06000
O  3.98500 40.35300 30.56600
O  3.43800 41.63000 32.38900
C  3.72200 40.50400 33.25400
H  -2.10600 40.72500 26.69600
H  1.32400 41.21200 21.29300
H  6.36900 43.57500 24.55000
H  0.96900 41.26400 30.59900
H  -1.61500 41.90300 29.28300
H  -0.36500 39.48300 30.34100
H  -0.86900 39.30500 28.60600
H  -1.99700 39.74400 30.01300
H  -0.90700 43.68500 30.17700
H  0.81500 44.13100 30.60100
H  -0.75400 44.18100 32.53200
H  0.73800 43.30000 32.66300
H  -3.85500 40.74400 24.13700
H  -3.13500 39.58400 25.34100
H  -3.22600 39.11300 23.75200
H  -2.95000 38.93600 21.31800
H  -3.02000 40.06700 20.04000
H  -3.51100 40.67200 21.63400
H  3.26300 42.98400 20.68500
H  5.78700 42.77800 21.90200
H  3.49900 40.83300 19.85800
H  4.28400 40.28000 21.41800
H  5.16400 41.20800 20.17000
H  5.10800 44.43300 20.59700
H  5.66100 45.02500 22.26500
H  2.67800 44.87900 21.78400
H  3.57700 45.95000 20.79300
H  3.62900 46.11800 22.61100
H  7.78400 43.27600 28.20100
H  7.47200 44.72800 27.35800
H  7.98100 43.23200 26.42400
H  3.35600 43.56400 30.81600
H  4.78300 40.57600 33.49000
H  3.49800 39.49800 32.89800
H  3.05600 40.71200 34.09200

