158

Mg 25.18700 1.06600 28.97300
C  27.24900 0.75900 31.73100
C  22.53000 1.80700 31.27100
C  23.21600 1.73600 26.48700
C  27.76300 0.20700 26.76700
N  24.89900 1.11200 31.14900
C  25.93000 1.16200 32.06200
C  25.50500 1.56300 33.46600
C  24.03000 1.84000 33.25400
C  23.79800 1.66400 31.75600
C  22.95900 0.91700 33.97100
C  26.31300 2.75400 34.10600
C  26.73100 2.75700 35.59300
H  26.06800 3.77800 36.51700
N  23.15200 1.45700 28.90500
C  22.23300 1.69400 29.91500
C  20.90400 1.90700 29.33400
C  21.13200 2.08600 27.91000
C  22.55900 1.72400 27.72700
C  19.62200 2.05000 30.25400
C  20.10400 2.45100 26.87500
O  20.30600 2.31900 25.65600
C  18.69000 3.01600 27.11900
N  25.41200 0.83100 26.89700
C  24.42600 1.24700 26.07200
C  24.84600 1.31000 24.56600
C  26.36500 0.96100 24.69800
C  26.52800 0.61800 26.17400
C  24.19300 0.25700 23.71800
C  27.40900 1.95000 24.10600
C  27.75200 3.18100 25.02200
N  27.11200 0.42100 29.20800
C  28.08700 0.10000 28.19100
C  29.30300 -0.10800 28.89800
C  29.02100 0.11800 30.28100
C  27.69100 0.52600 30.36800
C  30.60100 -0.45300 28.29900
C  29.62600 0.07600 31.62100
O  30.71900 -0.19400 31.99900
C  28.44700 0.56400 32.58000
C  28.29600 -0.46100 33.65700
O  27.44100 -1.30400 33.53600
O  28.95500 -0.22300 34.80200
C  28.49700 -0.97400 35.97700
H  21.66800 1.99800 31.91400
H  22.69800 1.92400 25.54400
H  28.54500 0.12600 26.00800
H  25.53800 0.67000 34.09100
H  23.90700 2.89100 33.51500
H  22.65000 0.10200 33.31600
H  22.18600 1.63800 34.23600
H  23.36200 0.48300 34.88600
H  25.75700 3.66600 33.89100
H  27.17400 2.99800 33.48500
H  27.80900 2.79000 35.75300
H  26.41300 1.76800 35.92300
H  19.45100 3.09600 30.50900
H  19.75200 1.41700 31.13200
H  18.78100 1.68400 29.66500
H  18.74000 3.55700 28.06400
H  17.95100 2.21400 27.10600
H  18.35400 3.57600 26.24600
H  24.60700 2.29700 24.17100
H  26.68400 -0.01600 24.33400
H  24.83400 -0.36900 23.09800
H  23.65100 0.74200 22.90600
H  23.40200 -0.21400 24.30200
H  26.93800 2.49000 23.28500
H  28.34700 1.48900 23.79700
H  27.14500 3.20000 25.92800
H  27.71400 4.11500 24.46300
H  28.78700 3.10800 25.35700
H  30.27000 -1.04500 27.44500
H  31.15800 -1.14000 28.93500
H  31.28700 0.37700 28.13000
H  28.82000 1.49400 33.01100
H  27.44800 -0.70700 36.10000
H  29.09100 -0.89200 36.88700
H  28.48500 -2.02700 35.69600
Mg 35.56100 2.11000 29.31400
C  33.21900 3.41900 31.61700
C  37.85800 2.03400 31.78700
C  37.92800 1.21000 27.03100
C  33.18400 2.43800 26.87300
N  35.55500 2.70600 31.45700
C  34.45100 3.08300 32.18300
C  34.75500 3.01600 33.65200
C  36.33900 2.94900 33.70800
C  36.62500 2.44500 32.25900
C  37.09600 4.26600 34.07900
C  33.97900 1.84500 34.35900
C  33.87800 1.88200 35.86200
H  34.38100 3.20100 36.51100
N  37.56200 1.59200 29.41500
C  38.33500 1.65500 30.50300
C  39.72100 1.33600 30.23400
C  39.64800 0.89200 28.89200
C  38.26700 1.21300 28.38600
C  40.85800 1.50800 31.21500
C  40.79400 0.31000 28.07300
O  40.75600 -0.06000 26.91900
C  42.03800 0.02500 28.80000
N  35.62300 1.85200 27.20000
C  36.65700 1.49800 26.48800
C  36.30300 1.44400 24.97500
C  34.73100 1.64300 24.99400
C  34.46200 1.93200 26.47900
C  37.17700 2.41500 24.10600
C  33.96400 0.43200 24.32400
C  33.41600 -0.69300 25.16700
N  33.58300 2.79700 29.20500
C  32.76800 2.95300 28.10100
C  31.47400 3.48700 28.49000
C  31.58200 3.70600 29.87600
C  32.89500 3.26400 30.25100
C  30.16900 3.65200 27.72300
C  30.92900 4.17000 31.05900
O  29.86000 4.70500 31.17600
C  31.89800 3.84900 32.27800
C  31.99200 5.08300 33.06900
O  32.50100 6.11500 32.65400
O  31.41200 4.98300 34.33300
C  31.36100 6.18700 35.16000
H  38.61000 2.20200 32.56100
H  38.69600 0.88400 26.32600
H  32.35800 2.38400 26.16000
H  34.42300 3.92700 34.15000
H  36.71000 2.21900 34.42700
H  37.82200 4.05000 34.86200
H  36.38800 4.95700 34.53700
H  37.66600 4.66200 33.23800
H  34.52300 0.92500 34.14600
H  33.00000 1.74200 33.89200
H  34.51200 1.08500 36.25000
H  32.87800 1.55600 36.14600
H  41.02400 0.55300 31.71500
H  40.48500 2.15500 32.00900
H  41.70700 2.07300 30.82900
H  42.69300 0.89500 28.84500
H  42.43100 -0.77300 28.16900
H  41.79400 -0.37100 29.78500
H  36.64600 0.47200 24.62200
H  34.38700 2.52900 24.46000
H  36.60800 3.17200 23.56600
H  37.79400 1.78600 23.46400
H  37.85000 2.97700 24.75300
H  34.53200 0.03500 23.48300
H  33.08000 0.92200 23.91700
H  33.62500 -1.62700 24.64700
H  32.32700 -0.65600 25.16700
H  33.80700 -0.64500 26.18400
H  29.84500 2.66500 27.39500
H  30.21900 4.31100 26.85500
H  29.42300 4.14200 28.35000
H  31.52100 3.00300 32.85300
H  31.96200 7.03800 34.84100
H  31.74100 5.77100 36.09200
H  30.30900 6.44600 35.28600

