158

Mg 2.31000 -0.58500 44.25900
C  5.53300 0.34900 43.74900
C  1.27300 2.18400 42.50900
C  -0.87200 -1.95400 44.20200
C  3.52100 -3.72600 45.46500
N  3.29200 1.08400 43.15500
C  4.67100 1.20300 43.03100
C  4.95700 2.55400 42.25400
C  3.59700 3.21700 42.08100
C  2.63100 2.09800 42.56100
C  3.40100 4.57400 42.76900
C  5.62200 2.30400 40.79100
C  6.57000 3.35600 40.20200
H  6.08200 4.01700 38.90300
N  0.49700 0.11600 43.66400
C  0.27100 1.32200 42.98100
C  -1.16000 1.55600 42.92300
C  -1.82400 0.37000 43.29600
C  -0.74000 -0.58600 43.73100
C  -1.67300 2.92300 42.45500
C  -3.32100 0.19000 43.23400
O  -4.11400 1.06600 42.83500
C  -3.90500 -1.15600 43.63100
N  1.47600 -2.61700 44.61700
C  0.14800 -2.83600 44.65100
C  -0.19200 -4.16400 45.39500
C  1.23300 -4.74400 45.63600
C  2.16600 -3.72400 45.09800
C  -1.14800 -4.15500 46.67800
C  1.49000 -6.15500 44.93900
C  0.91500 -7.32800 45.72100
N  4.15800 -1.50600 44.64800
C  4.48900 -2.74200 45.15000
C  5.86800 -2.81400 45.29900
C  6.37600 -1.60100 44.80900
C  5.28700 -0.88800 44.33300
C  6.64000 -3.97300 45.80900
C  7.58100 -0.84200 44.50400
O  8.76600 -1.08200 44.79200
C  7.08700 0.44300 43.76900
C  7.52800 1.71500 44.47700
O  7.15300 2.16400 45.56900
O  8.48700 2.40000 43.76000
C  9.17000 3.58300 44.39900
H  0.96600 3.12000 42.03800
H  -1.84700 -2.24500 44.60100
H  3.99300 -4.59900 45.92100
H  5.65100 3.17900 42.81600
H  3.53100 3.37900 41.00500
H  3.59800 5.46700 42.17600
H  4.06900 4.55600 43.63100
H  2.52800 4.80800 43.37800
H  4.82900 2.02700 40.09600
H  6.20800 1.38600 40.76000
H  7.56500 2.93800 40.04700
H  6.66500 4.07700 41.01400
H  -0.98800 3.74700 42.65800
H  -2.72400 3.12700 42.66300
H  -1.71100 2.92500 41.36500
H  -4.97400 -1.17000 43.41900
H  -3.84100 -1.22900 44.71700
H  -3.45400 -2.03600 43.17300
H  -0.74800 -4.77900 44.68800
H  1.38000 -4.93500 46.69900
H  -1.42900 -3.12300 46.88900
H  -0.79800 -4.60700 47.60600
H  -2.10100 -4.63500 46.45200
H  2.56100 -6.22800 44.75100
H  0.94000 -6.19700 43.99900
H  1.60400 -8.06800 46.12800
H  0.21000 -7.82100 45.05100
H  0.29500 -7.02000 46.56200
H  7.08000 -4.50400 44.96500
H  5.97500 -4.70900 46.26100
H  7.35900 -3.72500 46.58900
H  7.49300 0.38500 42.75900
H  9.35700 3.34100 45.44500
H  8.53700 4.47000 44.37500
H  10.17600 3.63200 43.98300
Mg -10.30600 39.39200 41.76400
C  -8.86500 36.32700 41.06600
C  -7.43200 40.92400 40.48200
C  -11.88900 42.41800 42.01600
C  -13.27100 37.83900 42.47800
N  -8.29500 38.68900 40.91700
C  -7.96600 37.39700 40.72800
C  -6.50300 37.25600 40.19800
C  -6.05100 38.72100 40.19300
C  -7.33100 39.57600 40.59500
C  -4.61500 38.89700 40.86200
C  -6.50100 36.54100 38.75800
C  -5.13100 35.83000 38.45900
H  -4.31900 36.18800 37.23100
N  -9.74600 41.38600 41.35900
C  -8.55500 41.77800 40.79200
C  -8.54400 43.22000 40.62200
C  -9.82200 43.68000 41.10100
C  -10.54000 42.50900 41.59600
C  -7.35400 43.95900 39.93700
C  -10.42100 45.08600 41.01400
O  -9.73000 46.01000 40.64500
C  -11.82600 45.50700 41.45100
N  -12.33100 40.01600 42.18800
C  -12.67100 41.28400 42.31600
C  -14.12600 41.45700 42.86700
C  -14.56300 39.95700 42.92200
C  -13.32800 39.20900 42.41800
C  -14.06100 42.24300 44.23800
C  -15.81500 39.61800 42.09000
C  -17.22900 39.46000 42.80400
N  -11.01900 37.52100 41.69700
C  -12.22000 36.99700 42.05200
C  -12.36000 35.56800 41.92700
C  -11.03500 35.20800 41.62200
C  -10.26200 36.42500 41.46000
C  -13.50000 34.71600 42.42500
C  -10.07500 34.09800 41.42200
O  -10.17900 32.87900 41.59800
C  -8.72800 34.82300 41.04100
C  -7.71200 34.31400 41.98600
O  -7.62300 34.61000 43.17200
O  -6.80500 33.60400 41.27100
C  -5.60100 33.18500 42.00000
H  -6.50000 41.37200 40.13200
H  -12.39800 43.33800 42.31100
H  -14.23200 37.37200 42.70100
H  -5.91100 36.62600 40.86200
H  -5.95000 38.96500 39.13500
H  -4.79800 39.70900 41.56600
H  -3.87200 39.00800 40.07200
H  -4.30300 38.01200 41.41700
H  -6.80600 37.19600 37.94200
H  -7.27000 35.77100 38.82400
H  -5.19700 34.74200 38.46000
H  -4.48700 36.15300 39.27700
H  -6.88100 43.29400 39.21500
H  -6.68300 44.39500 40.67700
H  -7.74500 44.83100 39.41300
H  -11.87700 45.41500 42.53600
H  -12.58600 44.90600 40.95200
H  -12.17300 46.48300 41.11100
H  -14.71000 42.06300 42.17400
H  -14.73800 39.70000 43.96700
H  -13.01300 42.50000 44.39200
H  -14.35400 41.54300 45.02000
H  -14.70000 43.12200 44.32600
H  -15.62200 38.61900 41.70000
H  -15.82100 40.37700 41.30700
H  -17.88700 40.27600 42.50500
H  -17.19600 39.36200 43.88900
H  -17.71200 38.59700 42.34400
H  -14.18700 34.42800 41.62900
H  -14.14400 35.14000 43.19600
H  -13.02700 33.80700 42.79700
H  -8.50800 34.42500 40.05100
H  -5.81500 33.10100 43.06600
H  -4.76700 33.85000 41.77600
H  -5.26800 32.21200 41.64000

