158

Mg 27.32700 50.13700 27.10000
C  25.10700 50.96200 29.66100
C  29.71100 49.43900 29.52500
C  29.57700 49.53400 24.65100
C  25.11700 51.41700 24.81300
N  27.37400 50.26300 29.28300
C  26.28100 50.42200 30.14200
C  26.63100 50.24900 31.59600
C  28.23900 50.01700 31.48500
C  28.50400 49.95500 29.96000
C  29.05000 50.97300 32.41800
C  25.74000 49.11900 32.29800
C  24.84000 49.53100 33.55300
H  24.72300 48.63500 34.81300
N  29.35500 49.49600 27.07700
C  30.09900 49.17400 28.14600
C  31.39000 48.75900 27.76400
C  31.41200 48.85700 26.36400
C  30.06000 49.38200 25.95300
C  32.45600 48.30800 28.76700
C  32.52600 48.58000 25.30500
O  32.42700 48.71100 24.09200
C  33.85700 47.96900 25.73500
N  27.32700 50.28800 24.99400
C  28.30500 49.89100 24.19700
C  27.80300 49.92700 22.66300
C  26.34900 50.51500 22.78600
C  26.26400 50.78500 24.28900
C  28.62600 50.58800 21.53800
C  25.23600 49.55700 22.32700
C  24.05800 50.21500 21.65000
N  25.44900 50.96800 27.12800
C  24.63500 51.36200 26.11500
C  23.35000 51.76200 26.58200
C  23.46100 51.71300 27.99200
C  24.79200 51.13300 28.27000
C  22.20100 52.20000 25.74200
C  22.80300 51.94500 29.31200
O  21.71600 52.31700 29.60500
C  23.90700 51.42800 30.48900
C  24.14900 52.63800 31.27100
O  24.75400 53.58300 30.75400
O  23.58200 52.66500 32.49400
C  23.47000 53.92400 33.17600
H  30.35400 49.14500 30.35700
H  30.26700 49.23200 23.86000
H  24.30800 51.65500 24.11900
H  26.45200 51.21300 32.07300
H  28.36700 49.01900 31.90200
H  29.92100 51.37800 31.90300
H  29.58000 50.63800 33.31000
H  28.47400 51.85500 32.69700
H  26.39900 48.36300 32.72600
H  25.19800 48.60400 31.50500
H  23.77100 49.51800 33.34300
H  25.21300 50.51700 33.82800
H  33.47700 48.24600 28.39300
H  32.32000 47.31700 29.20200
H  32.39000 49.04200 29.57000
H  33.74900 46.92800 26.03900
H  34.19300 48.63200 26.53200
H  34.54800 47.91800 24.89300
H  27.72400 48.87700 22.38100
H  26.26700 51.52200 22.37700
H  29.11500 49.91600 20.83400
H  29.37700 51.24400 21.98100
H  27.95800 51.20200 20.93500
H  24.90700 48.94200 23.16400
H  25.68800 49.00100 21.50500
H  24.25700 51.27100 21.46800
H  23.09500 50.14700 22.15500
H  24.07100 49.74300 20.66800
H  22.58200 52.96600 25.06600
H  21.44600 52.59100 26.42300
H  21.74900 51.36200 25.21000
H  23.56100 50.65700 31.17700
H  22.39100 54.03800 33.28600
H  23.72000 54.83100 32.62700
H  23.91900 53.88500 34.16900
Mg -11.78400 38.26900 41.40900
C  -9.32600 35.75800 41.06300
C  -9.50700 40.55500 40.61900
C  -14.35800 40.49400 41.37600
C  -14.11300 35.70900 42.08800
N  -9.75000 38.14500 40.69100
C  -8.90800 37.07900 40.69300
C  -7.56000 37.40900 40.05900
C  -7.49600 38.97500 40.31600
C  -8.96800 39.23800 40.62700
C  -6.53700 39.24200 41.47400
C  -7.43000 36.95500 38.58100
C  -6.29500 35.91500 38.33100
H  -5.34600 36.49100 37.26300
N  -11.87500 40.24100 41.10100
C  -10.81500 41.03000 40.79500
C  -11.21200 42.34100 40.59900
C  -12.62400 42.36900 40.83500
C  -13.05400 40.96400 41.08900
C  -10.42100 43.44900 40.03500
C  -13.53900 43.56100 40.62400
O  -12.94600 44.59400 40.55700
C  -15.00300 43.48200 40.45500
N  -13.92900 38.03100 41.48400
C  -14.74700 39.13800 41.49900
C  -16.18300 38.73000 41.85200
C  -16.09200 37.16800 42.00600
C  -14.59600 36.96900 41.84000
C  -16.64700 39.48800 43.10100
C  -17.00900 36.35800 41.08600
C  -17.93200 35.34100 41.75300
N  -11.78800 36.13900 41.51200
C  -12.78700 35.28800 41.85100
C  -12.22900 33.94500 41.99400
C  -10.89400 34.10900 41.65800
C  -10.66200 35.44600 41.44500
C  -12.95600 32.74700 42.51400
C  -9.67200 33.37400 41.48000
O  -9.45200 32.19100 41.49400
C  -8.47700 34.48400 41.17300
C  -7.61600 34.53500 42.45500
O  -7.78000 35.28000 43.46700
O  -6.56900 33.63600 42.26200
C  -5.68400 33.54800 43.35100
H  -8.63100 41.16800 40.39500
H  -15.21800 41.15800 41.49200
H  -14.81000 34.92600 42.39100
H  -6.88800 36.80900 40.67300
H  -7.24200 39.63200 39.48400
H  -5.98300 40.16500 41.30500
H  -5.82000 38.47200 41.76100
H  -7.23200 39.37400 42.30300
H  -7.26400 37.87400 38.02000
H  -8.38200 36.55500 38.23400
H  -6.74800 35.03400 37.87700
H  -5.83400 35.52300 39.23800
H  -9.39400 43.17800 39.79000
H  -10.41100 44.24200 40.78200
H  -10.89500 43.65300 39.07400
H  -15.34700 44.38600 39.95200
H  -15.59300 43.55300 41.36900
H  -15.20600 42.58600 39.86900
H  -16.77200 39.01800 40.98100
H  -16.35800 37.00400 43.05000
H  -17.53300 39.99000 42.71300
H  -15.92500 40.22600 43.45300
H  -16.86600 38.85200 43.95900
H  -16.38700 35.83200 40.36100
H  -17.66800 36.99000 40.49100
H  -18.86800 35.23000 41.20500
H  -18.04300 35.36000 42.83700
H  -17.55200 34.34200 41.53900
H  -13.22400 32.20000 41.61000
H  -13.85800 33.00800 43.06800
H  -12.30300 32.12000 43.12000
H  -7.84400 34.10300 40.37200
H  -5.98900 33.99400 44.29800
H  -4.74900 34.05900 43.12100
H  -5.42600 32.52600 43.62500

