158

Mg -1.44500 17.64800 27.59600
C  -2.14700 15.30300 30.12300
C  -2.32600 20.11700 29.65300
C  -0.99700 19.80300 25.03400
C  -0.98000 15.01800 25.22800
N  -2.10800 17.60600 29.66900
C  -2.13000 16.60600 30.57800
C  -2.22100 17.16200 32.05800
C  -2.42700 18.71800 31.83600
C  -2.34300 18.84700 30.28300
C  -3.73800 19.35600 32.47300
C  -1.10700 16.57700 33.02900
C  -0.55300 17.44400 34.17900
H  0.16800 16.75700 35.30600
N  -1.56200 19.68400 27.42700
C  -1.95000 20.58200 28.37200
C  -1.76100 22.00300 27.91300
C  -1.35300 21.89500 26.55200
C  -1.25800 20.44000 26.28100
C  -1.88800 23.22300 28.84600
C  -1.01200 23.05300 25.66000
O  -0.54700 22.92700 24.55300
C  -1.33800 24.41200 26.07700
N  -0.87400 17.42800 25.41600
C  -0.82700 18.47700 24.61600
C  -0.70700 18.05700 23.11800
C  -0.57100 16.50100 23.24400
C  -0.79700 16.25100 24.76700
C  -1.98100 18.56000 22.40600
C  0.86800 15.93000 22.80800
C  2.08400 16.39200 23.68400
N  -1.62500 15.62600 27.61000
C  -1.38700 14.72100 26.58700
C  -1.55500 13.40000 27.15900
C  -1.85500 13.54600 28.54100
C  -1.88100 14.95000 28.78400
C  -1.32600 12.17600 26.37800
C  -2.14100 12.82500 29.73800
O  -2.22100 11.61300 29.96100
C  -2.26500 13.97800 30.87500
C  -1.11600 13.68000 31.78800
O  0.04600 14.01200 31.71500
O  -1.60400 12.83900 32.81200
C  -0.67700 12.46200 33.84400
H  -2.50900 20.91000 30.38200
H  -0.83800 20.44600 24.16600
H  -0.87900 14.14800 24.57500
H  -3.16700 16.85200 32.50100
H  -1.49300 19.11700 32.23100
H  -3.43700 20.21500 33.07300
H  -4.22600 18.62400 33.11600
H  -4.40500 19.72500 31.69400
H  -0.19900 16.41200 32.44900
H  -1.54000 15.66700 33.44500
H  -1.23900 18.18700 34.58600
H  0.33000 17.87700 33.71000
H  -0.95700 23.77300 28.71200
H  -1.97000 22.88900 29.88100
H  -2.69100 23.89300 28.53800
H  -2.33100 24.52600 26.51200
H  -1.19700 25.21200 25.35000
H  -0.61400 24.72300 26.82900
H  0.18000 18.54200 22.71100
H  -1.33100 15.98700 22.65700
H  -1.79900 19.20700 21.54800
H  -2.69700 19.06300 23.05700
H  -2.48600 17.77800 21.83800
H  1.04500 16.37900 21.83100
H  0.80700 14.86600 22.57800
H  1.75600 17.07800 24.46400
H  2.75000 17.02700 23.10000
H  2.62500 15.60500 24.20800
H  -2.05700 11.94300 25.60400
H  -1.18900 11.26900 26.96700
H  -0.37700 12.24200 25.84600
H  -3.24000 13.91800 31.35800
H  -0.37500 13.32900 34.43200
H  0.29200 12.12400 33.47700
H  -1.03500 11.60300 34.41100
Mg -1.21600 35.36800 26.80000
C  -2.98300 33.79200 29.39000
C  -0.09600 37.68800 29.12400
C  0.45500 36.86100 24.45800
C  -2.49500 32.96100 24.58500
N  -1.55900 35.68200 28.95900
C  -2.19000 34.88200 29.83400
C  -2.00900 35.26200 31.29700
C  -1.36200 36.68400 31.15800
C  -0.95100 36.67300 29.62700
C  -2.24100 37.83500 31.59500
C  -1.10100 34.19500 31.99200
C  -0.67100 34.58800 33.41300
H  -0.57800 33.64100 34.63300
N  -0.03800 37.13000 26.78900
C  0.26000 37.94100 27.81600
C  1.10700 38.99200 27.30100
C  1.07900 38.91700 25.88900
C  0.47200 37.62700 25.64600
C  1.71600 39.93300 28.23600
C  1.78600 39.85900 24.90300
O  1.98800 39.44800 23.78700
C  2.39300 41.10100 25.35900
N  -1.16600 35.01000 24.81700
C  -0.15700 35.67900 24.07700
C  -0.18600 35.23600 22.62300
C  -1.01300 33.91800 22.73300
C  -1.64800 33.94400 24.11500
C  -0.81700 36.20400 21.65000
C  -0.07000 32.61900 22.54700
C  0.91200 32.23900 23.68300
N  -2.60200 33.66100 26.87200
C  -3.00600 32.84500 25.88200
C  -4.04500 31.98400 26.44000
C  -3.96500 32.26800 27.84400
C  -3.14300 33.33400 28.04800
C  -4.99800 31.05400 25.75400
C  -4.45300 31.85200 29.13600
O  -5.19500 30.92000 29.43500
C  -3.87200 32.85100 30.21300
C  -5.01600 33.61800 30.78400
O  -5.76100 34.40700 30.19500
O  -5.25000 33.17800 32.10600
C  -6.46300 33.66000 32.77700
H  0.30300 38.20600 29.99900
H  1.11300 37.15100 23.63500
H  -2.84100 32.23200 23.84900
H  -2.98500 35.32300 31.77800
H  -0.42200 36.86500 31.67800
H  -1.87200 38.28700 32.51600
H  -3.26000 37.51500 31.81400
H  -2.43800 38.53900 30.78700
H  -0.32000 33.88700 31.29700
H  -1.74300 33.33100 32.16600
H  -1.22100 35.43100 33.83200
H  0.29600 35.05600 33.22300
H  1.54400 39.78500 29.30300
H  1.69800 40.97200 27.90700
H  2.75400 39.76400 27.94900
H  3.12900 41.50300 24.66200
H  3.07800 40.99500 26.20100
H  1.63600 41.87300 25.49600
H  0.86700 35.07000 22.39300
H  -1.75300 33.86300 21.93400
H  -1.81100 35.93300 21.29500
H  -0.10300 36.44600 20.86300
H  -0.96600 37.12700 22.21100
H  0.60100 32.84500 21.71800
H  -0.80600 31.83800 22.36000
H  0.80600 31.15500 23.73400
H  0.66400 32.67100 24.65300
H  1.93000 32.44100 23.35200
H  -4.71400 30.07800 26.14800
H  -4.85100 30.96900 24.67700
H  -5.98200 31.43200 26.03100
H  -3.34300 32.30500 30.99500
H  -6.83700 32.76800 33.28000
H  -7.31600 33.87500 32.13300
H  -6.31900 34.33800 33.61800

