158

Mg 56.42000 24.89700 44.74900
C  53.70000 26.92700 43.57100
C  54.81000 22.23800 43.42500
C  59.16000 23.25700 45.05100
C  58.12500 27.97900 45.47900
N  54.56800 24.64000 43.53300
C  53.58200 25.58000 43.17800
C  52.28000 24.87400 42.93600
C  52.57500 23.43400 43.29500
C  54.10100 23.43500 43.42000
C  51.88700 22.79100 44.57200
C  51.92500 25.00100 41.46000
C  50.58400 24.47500 41.03600
H  50.68000 23.24900 40.10800
N  56.90400 22.98400 44.28600
C  56.14400 21.99300 43.69400
C  56.87200 20.70500 43.69300
C  58.08600 20.92000 44.41400
C  58.15300 22.43700 44.61100
C  56.36000 19.44600 43.03000
C  59.23500 19.98800 44.62100
O  59.08800 18.76300 44.34000
C  60.47700 20.39600 45.20700
N  58.41300 25.57600 45.12000
C  59.34300 24.64100 45.17500
C  60.72000 25.29900 45.50700
C  60.40200 26.85300 45.57900
C  58.88900 26.82900 45.34500
C  61.32400 24.84700 46.81900
C  61.20000 27.71100 44.51100
C  62.42400 28.56100 45.01700
N  55.98100 26.96200 44.69000
C  56.75200 28.05900 45.18100
C  55.87000 29.21300 45.16800
C  54.67800 28.83200 44.54800
C  54.81200 27.47500 44.25600
C  56.27300 30.55400 45.60200
C  53.37900 29.25900 44.07100
O  52.93000 30.38300 44.08700
C  52.62800 28.09300 43.45500
C  52.19500 28.54800 42.09700
O  52.86600 29.16900 41.29900
O  50.90900 28.18500 41.86100
C  50.18500 28.70100 40.64500
H  54.13300 21.45400 43.08000
H  60.16800 22.83600 45.06000
H  58.79200 28.79400 45.76900
H  51.43900 25.31100 43.47400
H  52.31300 22.78500 42.46000
H  51.16700 23.56200 44.84700
H  52.60500 22.62200 45.37500
H  51.47300 21.84200 44.23100
H  52.70500 24.53800 40.85600
H  51.96200 26.03700 41.12300
H  50.01300 25.21200 40.47200
H  49.91400 24.14900 41.83200
H  57.19100 18.78700 42.78100
H  55.86500 19.85900 42.15000
H  55.58700 19.05300 43.69000
H  61.15700 20.82200 44.46800
H  61.01500 19.53300 45.59800
H  60.34100 21.02800 46.08400
H  61.31300 24.98500 44.64800
H  60.52000 27.29700 46.56700
H  62.09200 24.11500 46.57000
H  60.55300 24.41300 47.45500
H  61.94800 25.64700 47.21900
H  60.54500 28.49100 44.12300
H  61.51300 27.06000 43.69500
H  62.36700 29.55600 44.57700
H  63.35000 28.03000 44.79300
H  62.34400 28.57800 46.10400
H  56.11300 30.58400 46.68000
H  55.53300 31.18100 45.10600
H  57.25400 30.89700 45.27200
H  51.68500 27.97500 43.98900
H  50.82400 28.63900 39.76400
H  49.83800 29.73000 40.74000
H  49.34800 28.01200 40.53300
Mg 35.98000 49.18200 25.72400
C  36.10200 47.15400 28.53000
C  34.47000 51.58700 27.61400
C  35.78300 51.00600 22.96500
C  36.79800 46.39100 23.79600
N  35.18500 49.22800 27.86900
C  35.52300 48.46900 28.86800
C  35.18200 49.00900 30.22700
C  34.41600 50.32700 29.89500
C  34.66300 50.42800 28.35700
C  32.98900 50.46600 30.33300
C  36.39900 49.02600 31.10200
C  36.18500 48.72900 32.54000
H  34.79000 48.92700 33.13600
N  35.37900 51.08800 25.39200
C  34.76200 51.92000 26.30400
C  34.57200 53.20200 25.69000
C  35.02200 53.10400 24.31300
C  35.48000 51.70300 24.17100
C  34.03700 54.37000 26.36700
C  35.06700 54.15100 23.27800
O  35.51700 53.87300 22.16500
C  34.62300 55.49000 23.49900
N  36.03900 48.66500 23.66300
C  36.03700 49.64700 22.71800
C  36.11100 49.05100 21.30500
C  36.53500 47.61800 21.62100
C  36.52300 47.53200 23.14000
C  34.81100 49.05900 20.42800
C  37.91600 47.17000 20.90900
C  39.21300 47.87400 21.41400
N  36.33600 47.17200 26.03100
C  36.72200 46.20700 25.22600
C  37.10000 44.99200 25.95500
C  36.91000 45.33300 27.27100
C  36.42300 46.62500 27.25900
C  37.66800 43.68000 25.38100
C  37.03200 44.87600 28.69700
O  37.49900 43.84000 29.16900
C  36.62700 46.07300 29.57800
C  35.50800 45.66600 30.43300
O  34.31700 45.46400 30.09200
O  35.92900 45.32500 31.68300
C  35.00100 44.83000 32.71300
H  33.93600 52.33100 28.20800
H  35.74400 51.52100 22.00200
H  37.12600 45.54900 23.18400
H  34.44600 48.29200 30.59200
H  35.03900 51.12400 30.30000
H  32.81000 51.37100 30.91300
H  32.75000 49.54700 30.86800
H  32.30200 50.50900 29.48700
H  36.82700 50.02400 31.01400
H  37.21400 48.46300 30.64800
H  36.87400 49.47000 32.94400
H  36.53900 47.71700 32.74100
H  33.47400 53.99200 27.22000
H  33.35300 54.99800 25.79600
H  34.91500 54.94300 26.66700
H  35.29300 55.94400 24.22900
H  33.57500 55.44200 23.79400
H  34.74400 56.11400 22.61300
H  36.92500 49.49700 20.73200
H  35.74000 46.92100 21.35600
H  34.59800 48.11800 19.92100
H  34.98400 49.82900 19.67600
H  33.90700 49.30300 20.98500
H  37.93300 47.36600 19.83600
H  38.04600 46.09100 20.99500
H  39.74900 47.05700 21.89600
H  38.99700 48.52900 22.25800
H  39.77900 48.40000 20.64400
H  38.59100 43.27500 25.79700
H  37.84000 43.71400 24.30500
H  36.97900 42.88100 25.65400
H  37.50300 46.34300 30.16900
H  34.59600 43.87300 32.38500
H  34.24300 45.60400 32.83200
H  35.60000 44.74400 33.62000

