158

Mg 48.19600 33.87400 27.35100
C  46.18000 32.77600 30.00600
C  48.60800 36.89100 29.10800
C  49.28200 35.26500 24.55700
C  46.93500 31.12600 25.48000
N  47.64700 34.65200 29.40300
C  46.84100 33.99800 30.33900
C  46.81900 34.72900 31.60700
C  47.28600 36.19300 31.23300
C  47.90500 35.95700 29.81400
C  46.20700 37.30500 31.24800
C  47.88800 34.06500 32.51500
C  47.56700 34.13800 34.06400
H  48.49800 35.03800 34.97900
N  49.09600 35.78800 26.96000
C  49.20100 36.83600 27.84200
C  50.02900 37.80200 27.22800
C  50.20400 37.39200 25.85300
C  49.54600 36.09600 25.72100
C  50.63900 39.02700 27.84200
C  50.91100 38.07000 24.70000
O  50.93400 37.56000 23.56100
C  51.48300 39.47000 24.81600
N  47.95100 33.45800 25.27300
C  48.61600 34.10800 24.30800
C  48.55800 33.35300 22.99100
C  47.72500 32.09200 23.29200
C  47.57200 32.18300 24.80800
C  47.94100 34.24200 21.82800
C  48.42500 30.72700 22.81700
C  49.60400 30.35600 23.62600
N  47.12700 32.16200 27.73000
C  46.75300 31.07200 26.89800
C  46.00500 30.12300 27.54100
C  45.74900 30.81800 28.77200
C  46.42000 32.02500 28.81800
C  45.44500 28.78000 27.05800
C  44.89900 30.76500 29.92400
O  44.10600 29.88000 30.31200
C  45.15000 32.03700 30.76400
C  45.45200 31.70500 32.17400
O  46.40700 31.10100 32.63500
O  44.43400 32.23200 33.02000
C  44.41100 31.70700 34.44300
H  48.93200 37.77400 29.66300
H  49.85700 35.44500 23.64700
H  46.51500 30.30200 24.90000
H  45.83200 34.77100 32.06800
H  48.10100 36.36800 31.93600
H  45.18200 37.00900 31.47100
H  46.15700 37.71700 30.24000
H  46.46400 38.10200 31.94600
H  48.91300 34.41900 32.40900
H  48.14700 33.04900 32.21800
H  47.56700 33.11400 34.43800
H  46.57600 34.55500 34.23900
H  50.18800 39.96400 27.51500
H  51.70100 39.10600 27.61100
H  50.72000 38.88700 28.92000
H  50.81400 40.18200 25.30000
H  51.68600 39.93100 23.84900
H  52.43200 39.41500 25.35000
H  49.54400 33.07700 22.61600
H  46.74500 32.03600 22.81900
H  47.71100 35.23400 22.21600
H  46.97400 33.82500 21.54800
H  48.60600 34.37500 20.97500
H  48.84400 30.81100 21.81400
H  47.82300 29.82500 22.70800
H  50.39800 30.23200 22.89000
H  49.44600 29.40100 24.12700
H  49.87700 31.07300 24.39900
H  45.41000 28.76800 25.96800
H  44.38200 28.84300 27.29000
H  45.92700 27.92300 27.52800
H  44.15000 32.47100 30.74000
H  44.80700 30.69600 34.54000
H  43.44100 31.70700 34.93900
H  44.99300 32.34300 35.11000
Mg -2.33800 34.66800 26.59400
C  -3.91700 32.89500 29.23000
C  -0.90600 36.63600 29.08100
C  -1.31300 36.68500 24.18700
C  -4.20600 32.82500 24.34300
N  -2.69700 34.84600 28.97000
C  -3.16800 33.94900 29.81900
C  -2.75300 34.11500 31.22800
C  -2.06800 35.53800 31.19200
C  -1.85500 35.71100 29.63800
C  -2.95600 36.66400 31.89800
C  -1.93600 32.84300 31.84200
C  -2.64200 32.28200 33.13400
H  -1.80600 32.36000 34.42400
N  -1.14500 36.28000 26.59400
C  -0.67600 37.00900 27.68200
C  0.16200 38.10200 27.17100
C  0.06300 38.17500 25.78200
C  -0.79200 37.02000 25.50800
C  0.86200 39.00100 28.05700
C  0.64100 39.15100 24.76400
O  0.48500 39.07300 23.57300
C  1.46600 40.25000 25.19100
N  -2.88100 34.79900 24.61700
C  -2.26100 35.70200 23.84700
C  -2.69400 35.53200 22.38700
C  -3.35700 34.11000 22.38500
C  -3.50600 33.89000 23.88000
C  -3.59100 36.75800 21.95100
C  -2.76300 33.00200 21.50300
C  -1.43300 32.33000 21.91200
N  -3.78400 33.15100 26.67600
C  -4.36500 32.42000 25.67600
C  -5.03300 31.28600 26.25500
C  -4.86500 31.45700 27.65800
C  -4.17100 32.64100 27.81600
C  -5.71000 30.11900 25.50100
C  -5.21700 30.80600 28.95900
O  -5.83600 29.77600 29.19100
C  -4.64200 31.81100 30.04500
C  -5.75600 32.34900 30.88200
O  -6.44100 33.37300 30.69500
O  -5.79100 31.59400 32.06600
C  -6.92700 31.91700 33.02200
H  -0.21800 37.23300 29.68300
H  -1.00500 37.42000 23.44000
H  -4.66500 32.13600 23.63100
H  -3.58900 34.26200 31.91200
H  -1.13600 35.45300 31.75100
H  -3.38800 37.25800 31.09200
H  -2.36500 37.42800 32.40300
H  -3.77400 36.34700 32.54500
H  -0.94600 33.19200 32.13700
H  -1.80900 32.07100 31.08400
H  -2.71100 31.19800 33.03700
H  -3.62000 32.71800 33.33900
H  0.42000 39.99600 28.11700
H  1.88800 39.13300 27.71500
H  1.04800 38.39800 28.94600
H  2.49700 39.98000 25.42100
H  0.93200 40.75700 25.99400
H  1.52700 40.91900 24.33300
H  -1.71200 35.57200 21.91600
H  -4.36500 34.27300 22.00200
H  -4.54800 36.39500 21.57400
H  -3.07800 37.23700 21.11700
H  -3.79200 37.54100 22.68200
H  -2.54000 33.42200 20.52200
H  -3.52200 32.22900 21.38300
H  -1.11400 32.66600 22.89900
H  -0.68300 32.48500 21.13600
H  -1.64100 31.26000 21.92300
H  -5.21400 29.94700 24.54600
H  -6.75600 30.37800 25.33700
H  -5.66500 29.26700 26.17900
H  -3.88600 31.24500 30.59000
H  -7.79800 32.32100 32.50600
H  -6.61800 32.63200 33.78400
H  -7.28800 30.99600 33.47900

