158

Mg 46.50200 16.16400 27.69100
C  44.62000 15.44700 30.62100
C  48.80500 17.87200 29.72100
C  47.73900 17.55200 24.99300
C  43.93000 14.74100 25.82700
N  46.59500 16.72600 29.95400
C  45.75600 16.33000 30.93500
C  46.26000 16.79400 32.33200
C  47.53600 17.67600 31.93800
C  47.69800 17.38600 30.44400
C  47.43700 19.21000 32.33200
C  46.63500 15.53900 33.22400
C  46.20700 15.62000 34.74300
H  45.73600 17.02600 35.24300
N  48.03900 17.51100 27.39300
C  48.89800 17.92500 28.34700
C  50.01100 18.66100 27.62000
C  49.67700 18.67500 26.23400
C  48.49000 17.84300 26.15200
C  51.25700 19.21800 28.38100
C  50.47100 19.24300 25.07400
O  50.11300 19.14800 23.89200
C  51.85600 19.73500 25.45100
N  45.99400 15.98400 25.61100
C  46.68700 16.72100 24.71700
C  46.01900 16.59100 23.31500
C  44.93600 15.43500 23.62200
C  44.94700 15.32400 25.07100
C  45.45100 17.94800 22.76100
C  45.31600 14.06200 22.96900
C  46.38800 13.08400 23.52800
N  44.76400 15.09300 28.09000
C  43.80100 14.63200 27.21300
C  42.66900 14.16800 27.98000
C  42.96700 14.41800 29.34000
C  44.20400 15.03200 29.36300
C  41.44800 13.47100 27.45500
C  42.49200 14.22600 30.70100
O  41.48000 13.67600 31.12600
C  43.56800 14.94800 31.64900
C  42.88200 16.04600 32.36300
O  42.42000 17.06800 31.85700
O  42.58400 15.63200 33.60700
C  41.52200 16.37700 34.25000
H  49.64700 18.16800 30.35000
H  48.14000 17.89300 24.03600
H  43.02300 14.43100 25.30300
H  45.39000 17.27400 32.77900
H  48.45200 17.42100 32.47000
H  48.34400 19.59000 32.80200
H  46.52800 19.36900 32.91300
H  47.28400 19.75200 31.39900
H  47.70100 15.35200 33.35400
H  46.10700 14.66200 32.85000
H  47.04800 15.33100 35.37500
H  45.43800 14.85700 34.86200
H  51.36200 20.26200 28.08600
H  52.16300 18.74600 28.00100
H  51.13600 19.06400 29.45300
H  51.93500 20.63500 26.06100
H  52.38500 20.06900 24.55900
H  52.48700 18.92400 25.81300
H  46.75400 16.18600 22.61900
H  43.98000 15.76400 23.21400
H  44.91700 17.79800 21.82200
H  46.13600 18.79500 22.79600
H  44.64300 18.02500 23.48900
H  45.57700 14.20000 21.91900
H  44.39800 13.47400 22.95100
H  46.94900 12.66400 22.69400
H  45.87000 12.29100 24.06800
H  47.02800 13.62100 24.22800
H  41.64600 12.45500 27.11400
H  41.13500 14.03400 26.57500
H  40.53900 13.50400 28.05400
H  44.04000 14.29100 32.37900
H  40.84600 15.66300 34.72100
H  40.84100 16.96700 33.63600
H  41.89400 16.98300 35.07500
Mg 27.02400 50.60100 26.40300
C  24.85200 51.32900 29.17000
C  29.21700 49.29500 28.63200
C  29.14400 50.14000 23.87200
C  24.46700 51.71000 24.23200
N  26.94300 50.19200 28.62800
C  25.92400 50.57500 29.53300
C  26.39100 50.26900 30.95500
C  27.87700 49.80900 30.75700
C  27.98800 49.64500 29.22800
C  28.98100 50.73400 31.38900
C  25.35100 49.27300 31.68200
C  24.49500 49.75600 32.86600
H  24.34200 48.74300 33.99700
N  28.92800 49.87400 26.24300
C  29.68700 49.38000 27.31800
C  30.99700 48.96500 26.88300
C  31.07700 49.33500 25.51400
C  29.70300 49.79700 25.13800
C  31.99400 48.13400 27.70200
C  32.20600 49.36100 24.55600
O  31.97900 49.67500 23.38000
C  33.63300 49.02600 25.05400
N  26.84900 50.86300 24.37500
C  27.84600 50.58100 23.57200
C  27.39100 50.81100 22.13100
C  25.83600 51.13100 22.22700
C  25.66800 51.13300 23.67400
C  28.33200 51.87000 21.43500
C  24.93800 50.04000 21.50000
C  23.51700 50.46600 21.09100
N  25.08700 51.35600 26.60500
C  24.20800 51.84000 25.64300
C  23.01700 52.39400 26.22700
C  23.36100 52.30100 27.60200
C  24.55400 51.60000 27.78500
C  21.79400 52.96200 25.60700
C  22.80200 52.62400 28.94000
O  21.86400 53.35200 29.25900
C  23.77300 51.89900 30.00000
C  24.24400 53.01100 30.86400
O  25.15500 53.76500 30.63100
O  23.59700 52.84600 32.05800
C  23.98400 53.94700 33.03000
H  30.06300 49.16800 29.31000
H  29.72200 49.90700 22.97500
H  23.69400 51.94100 23.49700
H  26.37100 51.19100 31.53600
H  27.95500 48.81300 31.19400
H  29.76800 50.08600 31.77600
H  28.51800 51.23700 32.23800
H  29.41000 51.40600 30.64500
H  26.01000 48.47400 32.02200
H  24.79100 48.73800 30.91500
H  23.48300 50.00400 32.54700
H  24.97800 50.65900 33.23800
H  32.73400 48.81200 28.12700
H  32.51200 47.34500 27.15700
H  31.43500 47.64400 28.50000
H  33.62900 47.96100 25.28200
H  33.80000 49.66800 25.91900
H  34.22500 49.28300 24.17500
H  27.54000 49.95300 21.47500
H  25.66200 52.12700 21.81800
H  27.81100 52.78000 21.13900
H  28.81500 51.45600 20.55000
H  29.19900 52.09000 22.05800
H  24.83000 49.28400 22.27700
H  25.52800 49.56500 20.71700
H  23.46600 51.49500 21.44700
H  22.75800 49.85300 21.57600
H  23.28000 50.52800 20.02900
H  21.80000 54.05100 25.55900
H  20.93400 52.63500 26.19200
H  21.72800 52.54700 24.60100
H  23.25500 51.10400 30.53700
H  23.94700 54.99900 32.74900
H  24.94500 53.68100 33.47100
H  23.16400 53.86100 33.74300

