158

Mg 47.67400 24.64000 28.36600
C  48.24300 27.06100 30.81200
C  46.19100 22.64200 30.86500
C  46.95400 22.30800 26.12700
C  49.18400 26.65700 25.93100
N  47.13900 24.88200 30.57500
C  47.51300 25.95800 31.35500
C  47.08300 25.75800 32.81000
C  46.55400 24.22300 32.85500
C  46.53400 23.91400 31.37200
C  47.17500 23.28500 33.83100
C  46.09600 26.67600 33.44500
C  45.99700 26.90200 35.00300
H  46.84600 26.11200 36.00400
N  46.58700 22.77400 28.47500
C  46.13700 22.14700 29.53500
C  45.44300 20.91200 29.12700
C  45.56600 20.83200 27.73800
C  46.39300 21.99300 27.36800
C  44.83600 19.90200 30.08300
C  45.00300 19.87400 26.67600
O  45.12000 19.97400 25.45100
C  44.26800 18.68100 27.24400
N  48.12400 24.42500 26.34500
C  47.67600 23.40200 25.61300
C  48.08400 23.55100 24.14200
C  48.63100 25.03500 23.99000
C  48.65400 25.40000 25.47100
C  49.17100 22.50500 23.72300
C  47.63500 25.94900 23.26500
C  48.19200 27.12000 22.22200
N  48.62600 26.41800 28.33900
C  49.17400 27.10700 27.26500
C  49.57300 28.39900 27.72600
C  49.27700 28.38000 29.06800
C  48.68200 27.16300 29.43600
C  50.26900 29.45800 27.01100
C  49.44900 29.18200 30.23400
O  49.98900 30.26700 30.44800
C  48.67200 28.36600 31.40800
C  49.54400 28.23300 32.58300
O  50.60600 27.60600 32.54500
O  49.17200 29.06600 33.67600
C  50.01100 29.02400 34.90000
H  45.71800 21.96500 31.58000
H  46.80600 21.51000 25.39600
H  49.60300 27.38100 25.22900
H  47.91400 25.89700 33.50100
H  45.51400 24.29800 33.17300
H  47.93500 23.74900 34.46000
H  47.60900 22.45800 33.26900
H  46.49000 22.92800 34.60000
H  45.09800 26.47500 33.05600
H  46.31500 27.68400 33.09400
H  44.98900 26.76400 35.39200
H  46.21500 27.96500 35.09900
H  43.75800 19.95300 29.93400
H  45.08900 20.03000 31.13600
H  45.11000 18.85900 29.92600
H  45.02700 18.18100 27.84500
H  43.83700 18.00500 26.50500
H  43.46900 19.01100 27.90800
H  47.21100 23.38400 23.51100
H  49.62600 25.16800 23.56300
H  48.68000 21.62400 23.30900
H  49.75400 22.39500 24.63700
H  49.78200 23.00700 22.97300
H  47.07300 26.59700 23.93800
H  47.02400 25.33300 22.60500
H  48.05000 28.14600 22.55900
H  47.98800 26.95900 21.16300
H  49.26200 27.03300 22.41200
H  50.27800 30.42500 27.51400
H  49.68300 29.55200 26.09700
H  51.27900 29.06500 26.88900
H  47.78800 28.92900 31.70900
H  49.38900 28.53100 35.64700
H  50.18800 30.04800 35.23000
H  50.92900 28.44400 34.80800
Mg -11.29200 16.89100 41.62100
C  -8.23200 15.32900 40.71900
C  -10.22000 19.64000 39.92900
C  -14.44900 18.10600 41.67600
C  -12.50100 13.74100 42.61900
N  -9.51600 17.35500 40.21800
C  -8.38300 16.55000 40.10200
C  -7.26100 17.26600 39.36900
C  -7.79500 18.76300 39.28300
C  -9.24600 18.63200 39.81700
C  -6.86300 19.80400 39.92900
C  -7.00500 16.48100 38.00000
C  -5.51400 16.27600 37.67900
H  -4.86600 17.10700 36.39600
N  -12.28300 18.62900 40.95000
C  -11.61300 19.65600 40.28700
C  -12.54300 20.78200 40.03500
C  -13.74400 20.35300 40.60100
C  -13.54500 18.96000 41.03600
C  -12.18700 22.08300 39.29600
C  -15.02300 21.23500 40.82300
O  -15.20000 22.31600 40.32000
C  -16.10600 20.72600 41.76700
N  -13.32700 15.99200 41.96000
C  -14.36200 16.82200 42.17300
C  -15.54900 15.92500 42.58200
C  -14.92400 14.54400 43.11600
C  -13.49300 14.74100 42.49500
C  -16.61600 16.47100 43.58000
C  -15.67200 13.22400 42.81200
C  -16.18200 12.53800 44.02000
N  -10.55900 14.94900 41.78000
C  -11.12600 13.79400 42.24200
C  -10.06900 12.82200 42.38000
C  -8.94200 13.41300 41.81600
C  -9.24900 14.70000 41.45700
C  -10.32900 11.39500 43.00100
C  -7.59600 13.14500 41.46100
O  -7.05300 12.03400 41.46700
C  -7.05400 14.39800 40.69600
C  -5.98900 14.94700 41.48000
O  -5.99300 15.30300 42.63700
O  -4.92200 15.07400 40.59600
C  -3.73300 15.58000 41.29700
H  -9.86000 20.57400 39.49400
H  -15.49000 18.43100 41.62400
H  -12.89800 12.85300 43.11500
H  -6.35800 17.29100 39.97800
H  -7.96800 18.97300 38.22800
H  -6.22900 19.43600 40.73600
H  -7.55300 20.47300 40.44400
H  -6.29600 20.42100 39.23200
H  -7.45200 17.04000 37.17900
H  -7.48600 15.50300 37.97100
H  -5.34300 15.22300 37.45600
H  -4.99400 16.60900 38.57800
H  -12.56100 22.07800 38.27200
H  -11.10200 22.17800 39.26000
H  -12.54600 22.90800 39.91100
H  -16.60800 21.59200 42.19700
H  -15.64100 20.24800 42.63000
H  -16.76700 20.02900 41.25100
H  -16.02100 15.86400 41.60100
H  -14.69700 14.69000 44.17200
H  -16.29500 16.13400 44.56600
H  -17.57400 15.99700 43.36700
H  -16.62300 17.56100 43.56900
H  -15.02900 12.58600 42.20600
H  -16.62900 13.41900 42.32900
H  -17.24400 12.29500 44.00500
H  -16.06400 13.05100 44.97400
H  -15.73800 11.56400 44.22300
H  -11.03600 11.65100 43.79000
H  -9.36000 11.07700 43.38400
H  -10.83400 10.81900 42.22500
H  -6.62100 14.06100 39.75300
H  -2.87500 15.74000 40.64400
H  -3.36900 14.80000 41.96600
H  -3.81500 16.46200 41.93200

