158

Mg 48.87200 34.63700 26.67700
C  46.63300 33.29600 29.07700
C  49.36900 37.32800 28.73200
C  50.41700 36.21400 24.09000
C  47.93800 32.02200 24.49600
N  48.12400 35.24900 28.71500
C  47.25100 34.52800 29.51500
C  47.27400 35.07600 31.00300
C  47.84000 36.53900 30.67800
C  48.54700 36.38800 29.35800
C  46.85700 37.81700 30.71200
C  48.40800 34.24800 31.84200
C  48.11700 33.94000 33.30700
H  47.05000 34.81700 34.00900
N  49.84000 36.49200 26.43400
C  49.89900 37.44900 27.39100
C  50.62400 38.53800 26.90000
C  51.01000 38.21800 25.57400
C  50.39900 36.92700 25.34300
C  50.76800 39.86100 27.62500
C  51.79100 39.03100 24.54000
O  52.21800 38.60100 23.46100
C  52.14600 40.42700 24.81200
N  49.12000 34.16600 24.64400
C  49.86500 34.97300 23.78300
C  49.69500 34.46600 22.34300
C  49.24700 32.94600 22.49500
C  48.85600 32.98200 24.01900
C  48.81600 35.35700 21.49100
C  50.37200 31.92800 22.24600
C  49.93200 30.87800 21.18700
N  47.68500 32.95300 26.76400
C  47.32300 31.98500 25.77700
C  46.33300 31.07700 26.24600
C  46.02200 31.60200 27.54900
C  46.92600 32.71500 27.78300
C  45.67900 29.87500 25.60600
C  45.16600 31.38000 28.68600
O  44.22800 30.52400 28.84000
C  45.51800 32.43500 29.76100
C  45.91100 31.89300 31.08600
O  46.94000 31.24900 31.33000
O  44.84600 31.94500 31.94700
C  44.86600 31.29400 33.29100
H  49.40500 38.20100 29.38700
H  50.96200 36.61300 23.23200
H  47.59300 31.24300 23.81400
H  46.32600 35.01900 31.53600
H  48.61400 36.80800 31.39700
H  47.39600 38.61900 31.21700
H  45.95200 37.50000 31.23100
H  46.62800 38.04000 29.67000
H  49.42400 34.64500 31.82100
H  48.40200 33.27800 31.34500
H  49.09500 34.15300 33.73900
H  47.88600 32.87600 33.35000
H  51.84100 40.05000 27.66300
H  50.49700 39.74500 28.67400
H  50.25800 40.66000 27.08700
H  52.28300 40.83200 23.81000
H  53.09000 40.56000 25.34000
H  51.30200 40.94300 25.27100
H  50.72800 34.57400 22.01100
H  48.33100 32.78400 21.92800
H  49.21000 36.37200 21.44200
H  47.86300 35.55900 21.98000
H  48.73000 34.95500 20.48100
H  50.51100 31.29800 23.12500
H  51.29000 32.45400 21.98300
H  50.50400 31.13500 20.29600
H  48.89200 31.05400 20.91100
H  50.08000 29.87500 21.58600
H  44.75600 30.19100 25.11900
H  45.37600 29.32700 26.49800
H  46.30000 29.30600 24.91400
H  44.61600 33.04400 29.81700
H  45.00100 30.21300 33.26100
H  43.99400 31.54100 33.89700
H  45.76300 31.77800 33.67800
Mg 16.86100 52.06500 26.13000
C  18.49200 50.74500 28.91900
C  14.32000 53.01200 28.25900
C  15.09000 53.03500 23.48000
C  19.37800 50.77800 24.06700
N  16.50500 52.03600 28.45500
C  17.32400 51.48800 29.30200
C  16.85100 51.77700 30.78200
C  15.40600 52.18500 30.55300
C  15.35600 52.49600 29.02700
C  14.33300 51.12200 31.00200
C  17.85200 52.75200 31.46900
C  18.17700 52.45100 32.92700
H  17.05000 51.79600 33.80300
N  15.03000 52.91800 25.91100
C  14.10600 53.21400 26.89300
C  12.91500 53.85500 26.30300
C  13.24000 53.97800 24.94800
C  14.54300 53.33300 24.72100
C  11.80400 54.49200 27.11900
C  12.37300 54.53500 23.82900
O  12.68300 54.54500 22.65400
C  11.09500 55.07600 24.17500
N  17.14800 51.88100 24.07500
C  16.31900 52.41800 23.16300
C  16.88000 52.29900 21.74500
C  18.30700 51.74800 21.95200
C  18.33000 51.46000 23.41400
C  15.99200 51.44200 20.78700
C  19.43300 52.70400 21.48900
C  19.50500 54.19200 21.84800
N  18.53300 50.82300 26.32800
C  19.52500 50.50500 25.43600
C  20.59800 49.74600 26.09900
C  20.18900 49.80200 27.51500
C  18.94400 50.53900 27.57800
C  21.88200 49.20100 25.50600
C  20.57000 49.44300 28.85500
O  21.51500 48.78600 29.23100
C  19.49700 50.05200 29.82200
C  18.94500 48.93000 30.54800
O  18.16800 48.11500 30.08300
O  19.29800 49.03800 31.84300
C  18.75800 48.10900 32.82500
H  13.49100 53.24000 28.93200
H  14.59200 53.10800 22.51100
H  20.28800 50.64200 23.48000
H  16.88400 50.80800 31.28000
H  15.10900 53.08800 31.08600
H  13.68400 51.60100 31.73500
H  14.89600 50.26000 31.36000
H  13.68900 50.73400 30.21300
H  17.49900 53.78300 31.48400
H  18.81800 52.65700 30.97200
H  18.37700 53.34700 33.51400
H  19.06200 51.82200 32.82100
H  12.06000 54.45500 28.17800
H  10.88800 53.90700 27.03900
H  11.64500 55.52200 26.79900
H  10.37800 54.39800 24.63800
H  10.53200 55.02900 23.24300
H  11.17900 56.08600 24.57700
H  16.91500 53.34900 21.45400
H  18.41800 50.75000 21.52900
H  16.51400 50.84300 20.04100
H  15.42700 51.97900 20.02400
H  15.32500 50.76600 21.32200
H  19.40900 52.87600 20.41300
H  20.37700 52.20300 21.70400
H  20.22900 54.35200 22.64700
H  18.55000 54.52600 22.25200
H  19.84400 54.72700 20.96100
H  21.94400 49.25800 24.41900
H  22.09400 48.14400 25.66900
H  22.73900 49.66100 25.99700
H  20.03800 50.69500 30.51700
H  19.28800 47.15900 32.76600
H  17.67200 48.02100 32.84400
H  18.96400 48.48900 33.82600

