158

Mg 1.09300 42.06500 26.10600
C  2.84800 41.92800 29.18500
C  -1.86700 41.10600 27.85100
C  -0.52900 41.80800 23.21000
C  4.04500 42.61600 24.49700
N  0.59500 41.57400 28.24200
C  1.45000 41.76500 29.32800
C  0.68800 41.62100 30.71300
C  -0.78300 41.32300 30.27800
C  -0.70900 41.32200 28.72100
C  -1.45200 40.06500 30.98300
C  0.81100 42.89000 31.61900
C  1.24000 42.74300 33.15200
H  0.85100 41.47700 33.83500
N  -0.84600 41.47700 25.56700
C  -1.88600 41.19200 26.42700
C  -3.07600 40.88900 25.66700
C  -2.69100 40.98800 24.26000
C  -1.30700 41.37800 24.26500
C  -4.53800 40.77600 26.21200
C  -3.51300 40.69500 23.00900
O  -3.11200 40.72900 21.89800
C  -4.94900 40.23600 23.14600
N  1.60100 42.29200 24.19600
C  0.81500 42.09400 23.08900
C  1.54500 42.25400 21.76600
C  2.95200 42.73400 22.22100
C  2.88600 42.51600 23.77000
C  1.54800 40.91400 21.01500
C  3.39000 44.13500 21.91900
C  3.59200 44.40200 20.40300
N  3.08800 42.20100 26.63700
C  4.19400 42.47600 25.87000
C  5.42000 42.51300 26.70200
C  4.91000 42.28100 27.95200
C  3.49300 42.06100 27.89000
C  6.72800 42.99200 26.24800
C  5.29800 42.30100 29.29600
O  6.40400 42.40400 29.74100
C  4.01500 42.12700 30.18400
C  4.24800 41.03000 31.27100
O  4.03400 39.87300 31.06200
O  4.65200 41.62700 32.41800
C  5.07300 40.74000 33.48900
H  -2.84900 41.02900 28.32200
H  -0.96100 41.81800 22.20700
H  4.99500 42.75000 23.97500
H  1.15800 40.76100 31.19000
H  -1.51500 42.11300 30.44300
H  -1.88500 39.37700 30.25600
H  -2.26200 40.39700 31.63200
H  -0.94300 39.38300 31.66400
H  -0.14000 43.42300 31.61400
H  1.49900 43.58600 31.13900
H  0.82800 43.60100 33.68300
H  2.31700 42.89800 33.21900
H  -5.21700 41.48200 25.73300
H  -4.53000 41.04100 27.27000
H  -4.96500 39.78000 26.09400
H  -5.37100 40.04100 22.16000
H  -5.65700 40.93000 23.59900
H  -4.96200 39.26500 23.64100
H  1.06200 43.05500 21.20600
H  3.80500 42.13200 21.90700
H  2.50900 40.43100 21.19600
H  1.39800 41.07000 19.94600
H  0.79100 40.24400 21.42100
H  4.40500 44.26500 22.29500
H  2.61500 44.84600 22.20500
H  2.82600 45.12400 20.11900
H  3.55300 43.45300 19.86800
H  4.59600 44.80100 20.25600
H  6.71000 43.22400 25.18300
H  7.57100 42.32700 26.43700
H  6.81500 43.98800 26.68400
H  3.87200 43.04900 30.74700
H  4.37000 39.95100 33.75900
H  5.25600 41.37100 34.35800
H  6.02400 40.25300 33.27400
Mg -5.73900 24.91100 25.37500
C  -4.07300 26.13200 28.17600
C  -7.28900 22.57400 27.40900
C  -7.14300 23.43800 22.62700
C  -3.67900 26.90800 23.32200
N  -5.42800 24.31700 27.57600
C  -4.94100 25.09700 28.49600
C  -5.64300 24.80500 29.85600
C  -6.33500 23.44700 29.59300
C  -6.33600 23.45100 28.03600
C  -5.58900 22.17600 30.10300
C  -6.49100 25.95300 30.34500
C  -6.31000 26.36400 31.83500
H  -5.70400 25.40700 32.88400
N  -7.08300 23.21500 25.10200
C  -7.65300 22.50400 26.06200
C  -8.63100 21.61000 25.46700
C  -8.64400 21.86000 24.02200
C  -7.61400 22.89500 23.82500
C  -9.42000 20.64100 26.28900
C  -9.60100 21.32800 22.97600
O  -9.60500 21.72800 21.79400
C  -10.70800 20.33100 23.41700
N  -5.47600 25.15200 23.31200
C  -6.15600 24.39700 22.40800
C  -5.81200 24.83500 20.94600
C  -4.76000 26.02300 21.08800
C  -4.66000 26.08600 22.67200
C  -5.32700 23.65100 19.96800
C  -5.11100 27.37000 20.50600
C  -4.39300 27.78000 19.21700
N  -4.12700 26.18800 25.62300
C  -3.53200 27.01800 24.74500
C  -2.66800 27.93600 25.43900
C  -2.93000 27.70800 26.78200
C  -3.73700 26.58300 26.84600
C  -1.80400 28.95900 24.80800
C  -2.57000 28.07700 28.09900
O  -1.78100 29.00700 28.46700
C  -3.34200 27.13900 29.14100
C  -2.27900 26.60800 30.15000
O  -1.17700 26.15700 29.93400
O  -2.79600 26.95200 31.34600
C  -1.94000 26.90700 32.46100
H  -7.88300 21.90800 28.03700
H  -7.57400 22.94500 21.75300
H  -3.11600 27.59300 22.68400
H  -4.91400 24.60700 30.64200
H  -7.35900 23.43700 29.96500
H  -6.19400 21.32600 30.41800
H  -4.91300 22.41500 30.92500
H  -4.85800 21.79700 29.39000
H  -7.56700 25.78300 30.30500
H  -6.28000 26.77000 29.65500
H  -7.28400 26.69900 32.19200
H  -5.71400 27.27600 31.81100
H  -9.07200 20.41100 27.29600
H  -9.50600 19.64100 25.86300
H  -10.48500 20.83600 26.41600
H  -11.28400 20.82000 24.20200
H  -10.25100 19.43800 23.84200
H  -11.25900 20.01800 22.52900
H  -6.70600 25.23500 20.46800
H  -3.82400 25.57900 20.74800
H  -5.72600 23.88800 18.98300
H  -5.52800 22.62900 20.29200
H  -4.23900 23.63900 20.04100
H  -5.07300 28.14800 21.26800
H  -6.12100 27.33500 20.09900
H  -3.34200 27.49200 19.19700
H  -4.49700 28.86200 19.12800
H  -4.96400 27.31000 18.41700
H  -2.47800 29.59300 24.23300
H  -1.06700 28.51900 24.13600
H  -1.35400 29.55500 25.60300
H  -4.06100 27.89800 29.44700
H  -1.68900 25.91300 32.83200
H  -2.33000 27.42800 33.33500
H  -0.91500 27.26900 32.37600

