158

Mg 6.17600 53.84000 40.58200
C  5.76700 50.48100 40.37200
C  9.58800 53.24300 40.02100
C  6.63100 57.09400 40.30700
C  2.82600 54.31100 41.27900
N  7.45000 51.99000 39.90200
C  7.05500 50.74600 39.91300
C  8.21400 49.81700 39.71700
C  9.51800 50.68700 39.98500
C  8.80800 52.06900 39.95500
C  10.39700 50.39400 41.22800
C  8.09200 49.14800 38.33500
C  7.83300 50.04800 37.10100
H  6.61100 49.66800 36.27100
N  7.84100 55.01400 40.20700
C  9.16600 54.61500 39.97300
C  10.04200 55.68700 39.83200
C  9.22000 56.87400 40.01200
C  7.82600 56.38200 40.13100
C  11.48200 55.51700 39.47000
C  9.67400 58.31300 40.09500
O  10.81800 58.56100 39.75900
C  8.83800 59.47100 40.25200
N  4.81500 55.46100 40.48900
C  5.31500 56.71400 40.61100
C  4.20000 57.74200 40.97600
C  2.92700 56.83300 40.94600
C  3.59200 55.46300 40.94300
C  4.35100 58.69000 42.11700
C  1.92000 57.02500 39.75000
C  0.55800 56.47000 39.91400
N  4.54200 52.66000 40.61900
C  3.30300 52.95500 41.09600
C  2.54000 51.75700 41.34000
C  3.47000 50.78700 41.07500
C  4.69300 51.37600 40.58700
C  1.13200 51.53500 41.83600
C  3.68900 49.34300 41.05300
O  2.91400 48.42100 41.41000
C  5.02400 49.10700 40.43000
C  4.67100 48.37300 39.14500
O  4.17200 48.88100 38.13500
O  4.91500 47.01200 39.24900
C  4.44900 46.24700 38.12500
H  10.66000 53.03900 39.98000
H  6.73500 58.18100 40.32800
H  1.75200 54.39900 41.45900
H  7.96400 49.12300 40.51900
H  10.16500 50.62900 39.11000
H  10.49400 51.33700 41.76600
H  11.34000 49.92600 40.94500
H  9.77100 49.73900 41.83400
H  7.34500 48.35700 38.28000
H  9.03500 48.68100 38.05000
H  8.66500 49.97700 36.40200
H  7.83500 51.08900 37.42600
H  11.62100 55.45400 38.39100
H  11.91500 54.68500 40.02500
H  12.05500 56.39300 39.77500
H  8.06800 59.71400 39.52000
H  9.60500 60.24100 40.32600
H  8.30400 59.47700 41.20200
H  4.20600 58.42300 40.12500
H  2.35000 56.77100 41.86900
H  3.55100 58.59200 42.85100
H  4.31600 59.66000 41.62100
H  5.27100 58.50100 42.67100
H  2.35600 56.44400 38.93800
H  1.94400 58.06700 39.43000
H  -0.18900 57.16300 39.52700
H  0.23100 56.32300 40.94400
H  0.53100 55.54000 39.34500
H  0.41300 51.87100 41.08900
H  0.81100 52.02400 42.75600
H  0.99600 50.47000 42.02500
H  5.58600 48.42600 41.06900
H  5.00000 45.30800 38.19200
H  4.55700 46.73800 37.15800
H  3.38800 46.02800 38.24300
Mg -11.03000 39.79000 41.49000
C  -10.39900 36.54800 40.55900
C  -7.97400 40.85400 40.33000
C  -12.19900 42.90500 41.28200
C  -14.40300 38.64000 42.38100
N  -9.38800 38.78900 40.50800
C  -9.38400 37.45600 40.19000
C  -8.03400 37.08200 39.49800
C  -7.31700 38.49000 39.40300
C  -8.19100 39.43800 40.18300
C  -5.77200 38.54100 39.87700
C  -8.27200 36.27700 38.13200
C  -7.44000 36.61500 36.89100
H  -6.78400 35.57100 36.08600
N  -10.15500 41.65900 41.04800
C  -8.90300 41.87400 40.61600
C  -8.71600 43.28600 40.34500
C  -9.90800 43.92800 40.70600
C  -10.85200 42.84300 40.96800
C  -7.39000 43.98300 40.03600
C  -10.11500 45.51800 40.76800
O  -9.25500 46.29900 40.36900
C  -11.32500 46.19300 41.50500
N  -12.95900 40.57600 41.74400
C  -13.15200 41.94700 41.57300
C  -14.56400 42.41600 41.91800
C  -15.15400 41.06100 42.45500
C  -14.13700 40.01300 42.16600
C  -14.68900 43.55100 42.94900
C  -16.53300 40.57700 41.81200
C  -17.64200 40.18200 42.88500
N  -12.16700 37.97100 41.65600
C  -13.44200 37.67500 42.08000
C  -13.58100 36.21300 42.07700
C  -12.44600 35.73600 41.46800
C  -11.62700 36.85100 41.23300
C  -14.86500 35.45000 42.37900
C  -11.71500 34.60200 41.02400
O  -11.99600 33.43600 41.19800
C  -10.45800 35.06800 40.28900
C  -9.27400 34.29800 40.81700
O  -8.61700 34.49800 41.85600
O  -9.00100 33.27900 39.89700
C  -8.00800 32.31000 40.34300
H  -7.01100 41.15400 39.91100
H  -12.70700 43.85800 41.11700
H  -15.28700 38.22500 42.86900
H  -7.50400 36.36500 40.12500
H  -7.34300 38.78400 38.35400
H  -5.49200 37.51900 40.13300
H  -5.72400 39.08600 40.82000
H  -5.15300 39.02800 39.12400
H  -9.29700 36.47700 37.82200
H  -8.15700 35.23200 38.41900
H  -6.60700 37.23400 37.22500
H  -8.14400 37.17100 36.27200
H  -7.14600 43.94800 38.97500
H  -6.56700 43.53700 40.59400
H  -7.33200 45.02700 40.34400
H  -11.57900 45.78600 42.48300
H  -12.20000 46.10400 40.86100
H  -11.03900 47.24100 41.41500
H  -15.02900 42.77900 41.00100
H  -15.26500 41.10500 43.53800
H  -15.24900 44.39600 42.54800
H  -13.72700 43.93800 43.28600
H  -15.21400 43.16200 43.82100
H  -16.37500 39.69800 41.18800
H  -17.01800 41.30900 41.16500
H  -18.53800 40.71100 42.55900
H  -17.29900 40.50300 43.86900
H  -17.89800 39.12600 42.79000
H  -15.69700 36.05000 42.01100
H  -14.93000 35.29900 43.45700
H  -15.00600 34.50300 41.85900
H  -10.68900 34.98200 39.22800
H  -7.67100 31.64500 39.54700
H  -8.48400 31.88300 41.22600
H  -7.16400 32.95800 40.57600

