158

Mg 17.16400 51.52900 25.74100
C  18.90800 50.60300 28.49000
C  14.57100 52.66800 27.80600
C  15.29700 51.93600 23.03500
C  19.74900 50.56600 23.71000
N  16.82400 51.68000 27.95900
C  17.70000 51.25300 28.91400
C  17.21700 51.50500 30.28900
C  15.80200 52.14200 30.06600
C  15.67900 52.18200 28.50900
C  14.60900 51.39600 30.74600
C  18.14700 52.30700 31.21800
C  18.23200 51.73000 32.61100
H  17.08000 50.90000 33.20200
N  15.27100 52.28600 25.39100
C  14.35500 52.73600 26.37900
C  13.08200 53.08600 25.74800
C  13.30900 52.96600 24.32200
C  14.62200 52.35600 24.14500
C  11.86300 53.60300 26.53000
C  12.43700 53.39700 23.19400
O  12.77900 53.34000 22.01400
C  11.04500 53.87300 23.47200
N  17.52400 51.46300 23.64800
C  16.56800 51.46300 22.79600
C  16.97800 51.09600 21.36600
C  18.50700 50.88800 21.53200
C  18.64200 51.03900 23.05900
C  16.03400 50.05400 20.72900
C  19.56100 51.92800 20.89500
C  20.80500 51.15800 20.26000
N  18.90000 50.70800 26.00800
C  19.89100 50.40100 25.10200
C  20.98000 49.76700 25.80200
C  20.65300 49.84200 27.10900
C  19.42700 50.48800 27.24400
C  22.05900 48.97000 25.17100
C  20.94800 49.33800 28.39100
O  21.98000 48.75400 28.76700
C  19.79900 49.79400 29.42200
C  19.14100 48.62800 30.04400
O  18.18000 48.00600 29.55900
O  19.79600 48.24500 31.21700
C  19.15300 47.22100 32.11300
H  13.79400 53.04200 28.47600
H  14.70200 52.03900 22.12500
H  20.61500 50.19700 23.15600
H  17.13100 50.50700 30.71700
H  15.70900 53.13100 30.51600
H  13.95000 51.12800 29.91900
H  14.06800 52.08000 31.40000
H  15.03600 50.58600 31.33700
H  17.78500 53.33500 31.20700
H  19.14200 52.28300 30.77300
H  18.34800 52.60000 33.25700
H  19.15600 51.15900 32.70000
H  11.54300 54.61700 26.28900
H  12.08600 53.63700 27.59600
H  11.11600 52.82900 26.35100
H  10.59600 53.96900 22.48400
H  10.96700 54.74600 24.12000
H  10.53900 53.09000 24.03600
H  16.82900 52.02600 20.81700
H  18.70300 49.85900 21.23100
H  15.41600 49.62800 21.52000
H  16.59800 49.24000 20.27400
H  15.38800 50.44600 19.94300
H  19.93500 52.62300 21.64700
H  19.09400 52.57100 20.15000
H  21.69800 51.14400 20.88400
H  21.06900 51.58400 19.29200
H  20.61600 50.14400 19.90800
H  22.35000 49.47900 24.25200
H  21.79200 47.91600 25.10800
H  22.86900 49.03300 25.89700
H  20.12400 50.27800 30.34300
H  18.65600 47.75700 32.92100
H  19.93300 46.61600 32.57700
H  18.51600 46.48200 31.62800
Mg -12.07200 38.89800 42.54200
C  -10.61400 35.85700 41.57800
C  -9.51500 40.49000 40.75700
C  -13.58500 41.80000 43.04700
C  -14.68200 37.09400 44.02600
N  -10.30100 38.22800 41.21300
C  -9.89900 36.92100 41.05900
C  -8.52200 36.86400 40.28200
C  -8.29400 38.42400 40.02400
C  -9.38100 39.11300 40.83300
C  -6.82400 38.84200 40.19800
C  -8.52900 36.07300 38.96500
C  -7.56500 34.82400 38.95200
H  -6.55200 34.86700 37.84300
N  -11.54600 40.90400 42.06600
C  -10.49100 41.34300 41.34900
C  -10.49600 42.77300 41.36300
C  -11.76200 43.20800 41.92200
C  -12.38400 41.95000 42.33000
C  -9.37500 43.63400 40.81100
C  -12.27400 44.63000 42.02400
O  -11.72500 45.51300 41.38100
C  -13.63500 45.08300 42.67100
N  -13.99900 39.36900 43.22200
C  -14.33900 40.70100 43.44500
C  -15.70900 40.77600 44.22400
C  -16.07000 39.27500 44.41300
C  -14.81900 38.51200 43.91900
C  -15.69900 41.61300 45.47900
C  -17.40400 38.73400 43.77000
C  -18.41800 38.03500 44.66200
N  -12.56200 36.88600 42.80900
C  -13.66300 36.29000 43.44900
C  -13.53300 34.81200 43.45600
C  -12.32700 34.67500 42.68900
C  -11.83400 35.89500 42.34000
C  -14.53600 33.77700 43.98600
C  -11.41000 33.61000 42.19000
O  -11.38100 32.41300 42.35200
C  -10.27000 34.38100 41.43800
C  -9.05500 34.01300 42.11900
O  -8.61500 34.59400 43.10000
O  -8.52900 32.95400 41.44000
C  -7.21600 32.56400 41.98300
H  -8.64500 40.99500 40.33300
H  -14.20600 42.67500 43.24800
H  -15.46300 36.49900 44.50500
H  -7.76800 36.45100 40.95200
H  -8.45500 38.77300 39.00400
H  -6.37300 39.08900 39.23700
H  -6.26800 37.95300 40.49600
H  -6.74600 39.72900 40.82700
H  -8.27400 36.70400 38.11300
H  -9.55000 35.74500 38.77300
H  -8.17700 33.95300 38.71700
H  -7.02900 34.73500 39.89700
H  -8.35700 43.36800 41.09500
H  -9.50800 44.54100 41.40100
H  -9.46100 43.87900 39.75200
H  -13.68300 44.59300 43.64400
H  -14.53000 44.71700 42.16700
H  -13.77200 46.16300 42.71400
H  -16.40800 41.16900 43.48600
H  -16.03600 39.02700 45.47400
H  -16.71000 41.99300 45.62700
H  -15.09800 42.49500 45.25900
H  -15.35600 41.10800 46.38200
H  -17.31400 37.97700 42.99000
H  -17.95800 39.58900 43.38300
H  -18.82100 37.15100 44.16900
H  -19.33300 38.60800 44.81200
H  -18.07000 37.70700 45.64100
H  -15.49100 33.76600 43.46200
H  -14.65000 33.83400 45.06900
H  -14.11100 32.80400 43.73800
H  -10.22800 33.98600 40.42300
H  -6.59500 33.39200 42.32500
H  -6.54800 32.02500 41.31100
H  -7.36300 31.88400 42.82300

