158

Mg 46.45400 25.97400 28.19600
C  47.13600 28.09100 30.85300
C  45.58000 23.50100 30.62000
C  46.02400 23.88300 25.70900
C  48.02800 28.15800 26.09000
N  46.28100 25.87100 30.50000
C  46.57600 26.91700 31.33200
C  46.30300 26.54600 32.77800
C  46.06500 25.03100 32.67400
C  45.99500 24.70600 31.20500
C  47.11100 24.15100 33.41700
C  45.13800 27.44200 33.38100
C  44.84600 27.12700 34.80500
H  44.90300 28.24400 35.80900
N  45.86500 23.97300 28.13500
C  45.58400 23.16500 29.22200
C  45.35000 21.84600 28.65000
C  45.47500 21.89900 27.21400
C  45.75600 23.30000 26.97500
C  45.12200 20.60700 29.58100
C  45.44100 20.82700 26.18900
O  45.76400 20.99200 25.00400
C  45.01600 19.50200 26.61900
N  47.00200 25.99400 26.23200
C  46.54600 25.05300 25.35500
C  46.60800 25.50100 23.86100
C  47.27000 26.95500 23.97100
C  47.37800 27.06800 25.53700
C  47.32500 24.57900 22.86900
C  46.48800 28.12100 23.27700
C  47.40800 29.07800 22.39100
N  47.34500 27.79900 28.33700
C  48.05900 28.56800 27.42000
C  48.56200 29.72800 28.03400
C  48.22900 29.65700 29.37800
C  47.54100 28.40400 29.53500
C  49.42000 30.75700 27.35000
C  48.35500 30.27200 30.67800
O  48.85200 31.31300 31.09500
C  47.69500 29.20700 31.73700
C  48.81300 28.68600 32.64000
O  49.67600 27.93400 32.28100
O  48.80400 29.39500 33.79000
C  49.95400 29.13400 34.67000
H  45.13500 22.75700 31.28400
H  45.97200 23.31500 24.77800
H  48.33600 28.85400 25.30700
H  47.18400 26.78300 33.37500
H  45.06900 24.95100 33.10900
H  47.75800 24.68300 34.11500
H  47.71000 23.65300 32.65400
H  46.56900 23.40300 33.99500
H  44.21300 27.15900 32.87800
H  45.42300 28.48900 33.27900
H  45.65100 26.47400 35.14300
H  43.91300 26.56300 34.81000
H  44.20400 20.11000 29.26700
H  44.91800 20.77600 30.63800
H  45.94100 19.89800 29.46200
H  45.83300 19.09100 27.21100
H  45.00100 18.78700 25.79700
H  44.05300 19.56200 27.12600
H  45.61600 25.64800 23.43400
H  48.26000 26.83800 23.53200
H  46.51600 23.91500 22.56600
H  48.13300 24.06600 23.39000
H  47.75800 25.10600 22.01900
H  46.12300 28.69600 24.12800
H  45.65400 27.61000 22.79700
H  47.21400 29.03000 21.32000
H  48.45700 28.78500 22.43800
H  47.33400 30.08800 22.79400
H  49.71100 30.61400 26.31000
H  50.36100 30.92600 27.87200
H  48.81900 31.65700 27.48400
H  47.05200 29.92400 32.24700
H  50.31100 28.10500 34.62700
H  49.67400 29.48500 35.66300
H  50.73600 29.86500 34.46300
Mg -12.52300 16.15000 41.30000
C  -9.57400 14.35400 40.75500
C  -10.75400 18.97100 39.85700
C  -15.34600 17.78300 41.16800
C  -14.18300 13.29700 42.09600
N  -10.32600 16.61500 40.51900
C  -9.37700 15.67800 40.33100
C  -8.10400 16.24800 39.69700
C  -8.42800 17.82300 39.65600
C  -9.95800 17.81000 40.03300
C  -7.43500 18.68500 40.59300
C  -7.70000 15.59700 38.30700
C  -6.23600 15.11800 38.24300
H  -5.41500 15.78600 37.21500
N  -12.93100 18.15600 40.66700
C  -12.14100 19.13100 40.19800
C  -12.89200 20.29600 39.99400
C  -14.29600 19.93200 40.23100
C  -14.23800 18.59600 40.73400
C  -12.32800 21.64500 39.51100
C  -15.47100 20.85000 39.96500
O  -15.31300 22.08900 39.82900
C  -16.87800 20.37400 39.83500
N  -14.63600 15.51000 41.24100
C  -15.57900 16.44800 41.51300
C  -16.92400 15.90000 41.95700
C  -16.42800 14.44800 42.39500
C  -14.95800 14.43200 41.92800
C  -17.75000 16.82700 42.97000
C  -17.35200 13.42600 41.75200
C  -17.63900 12.24800 42.65300
N  -11.99300 14.17000 41.58500
C  -12.77300 13.08400 41.88700
C  -11.96700 11.89900 41.83800
C  -10.70300 12.33400 41.48100
C  -10.75800 13.72800 41.26800
C  -12.42500 10.56100 42.07700
C  -9.33700 11.94300 41.16700
O  -8.81000 10.84900 41.28600
C  -8.53500 13.18000 40.74200
C  -7.43700 13.33600 41.78600
O  -7.61100 13.80400 42.92800
O  -6.18900 13.14200 41.19600
C  -4.95000 13.35000 41.95000
H  -10.19700 19.83600 39.48900
H  -16.19800 18.46300 41.22000
H  -14.65200 12.36700 42.42200
H  -7.35800 15.88300 40.40300
H  -8.30800 18.28300 38.67500
H  -6.68000 18.01200 40.99700
H  -7.96500 19.26500 41.34900
H  -6.89500 19.29100 39.86500
H  -7.96400 16.33300 37.54800
H  -8.31400 14.73200 38.05400
H  -6.26700 14.02900 38.24400
H  -5.68100 15.27900 39.16700
H  -12.49800 21.80800 38.44700
H  -11.25100 21.67700 39.67900
H  -12.90100 22.38700 40.06700
H  -16.80400 19.40900 39.33300
H  -17.36500 21.02600 39.10900
H  -17.39200 20.34100 40.79500
H  -17.47000 15.72600 41.03000
H  -16.35400 14.33600 43.47600
H  -17.72000 16.33000 43.93900
H  -18.72000 16.95300 42.48900
H  -17.25000 17.79500 43.00000
H  -16.93100 13.07700 40.80900
H  -18.35800 13.73900 41.47500
H  -18.61600 11.81800 42.43400
H  -17.69900 12.61500 43.67700
H  -16.89200 11.46800 42.50400
H  -11.58500 9.87300 41.98000
H  -13.23600 10.24900 41.42000
H  -12.80100 10.51600 43.09900
H  -8.07400 12.94500 39.78300
H  -4.04800 13.03000 41.42900
H  -4.97600 12.68800 42.81500
H  -4.86700 14.33400 42.41200

