158

Mg 6.19900 53.55200 39.35000
C  5.91600 50.06800 38.98800
C  9.55700 53.28100 38.57300
C  6.38100 56.98100 39.32100
C  2.76900 53.64900 39.85000
N  7.58000 51.81900 38.66100
C  7.21600 50.52500 38.58100
C  8.46000 49.73200 38.23900
C  9.62800 50.73700 38.41900
C  8.89400 52.03100 38.57600
C  10.47000 50.50500 39.71200
C  8.47500 49.07900 36.79800
C  8.39000 50.09100 35.65100
H  7.01800 50.16400 34.95700
N  7.71400 54.92500 38.98000
C  9.02500 54.56600 38.71700
C  9.84400 55.77400 38.54000
C  8.96400 56.86000 38.79400
C  7.62100 56.30200 39.07600
C  11.32800 55.78500 38.04900
C  9.32500 58.27000 38.81100
O  10.52000 58.60100 38.68300
C  8.46500 59.46600 39.05600
N  4.74200 55.14300 39.47400
C  5.07300 56.45400 39.54300
C  3.79500 57.33200 39.62300
C  2.65300 56.26000 39.57700
C  3.42600 54.91800 39.73200
C  3.83900 58.28200 40.83600
C  1.78000 56.20000 38.25700
C  0.22300 55.84600 38.46400
N  4.62300 52.16200 39.50200
C  3.31800 52.38900 39.82700
C  2.66300 51.12400 40.03400
C  3.63600 50.16200 39.74700
C  4.75800 50.86600 39.44200
C  1.15900 50.90500 40.37800
C  3.91800 48.75800 39.57400
O  3.13900 47.81400 39.78300
C  5.43200 48.60000 39.13500
C  5.41400 47.87100 37.82700
O  5.11400 48.42700 36.74200
O  5.78300 46.51800 37.86400
C  5.47500 45.73400 36.66100
H  10.61200 53.13900 38.32900
H  6.34800 58.07000 39.25600
H  1.69100 53.65900 40.02200
H  8.52800 48.88000 38.91600
H  10.36000 50.86900 37.62300
H  11.47600 50.17800 39.44700
H  9.92000 49.77200 40.30100
H  10.53600 51.46800 40.21800
H  7.70900 48.30400 36.78600
H  9.45100 48.59600 36.76600
H  9.07700 49.74300 34.88000
H  8.64400 51.11000 35.94400
H  11.35200 56.45100 37.18600
H  11.65700 54.78300 37.77400
H  12.06400 56.08100 38.79600
H  9.11700 60.33600 38.98000
H  8.19700 59.54900 40.10900
H  7.55700 59.46800 38.45200
H  3.75600 57.91600 38.70400
H  1.92400 56.33900 40.38400
H  3.01300 58.26400 41.54700
H  3.76000 59.29300 40.43600
H  4.78300 58.26900 41.38100
H  2.24800 55.49200 37.57300
H  1.71100 57.16600 37.75500
H  0.13100 54.96600 37.82600
H  -0.50700 56.47700 37.95700
H  -0.15900 55.65300 39.46700
H  0.64200 50.85000 39.42000
H  0.76700 51.64400 41.07700
H  0.98700 49.90100 40.76800
H  5.97200 47.92900 39.80300
H  6.08100 46.07300 35.82100
H  4.43500 45.94300 36.40900
H  5.60600 44.68900 36.93900
Mg 16.87000 51.86300 25.08700
C  18.61700 50.50100 27.80000
C  14.28900 52.72800 27.14100
C  15.15800 52.84300 22.31400
C  19.35600 50.42000 22.95100
N  16.54900 51.62500 27.20400
C  17.44800 51.13900 28.14900
C  16.90700 51.49000 29.60500
C  15.43100 51.92100 29.35000
C  15.43300 52.17100 27.82000
C  14.34900 50.87100 29.63600
C  17.73400 52.60500 30.27900
C  17.42800 52.85400 31.83200
H  16.41000 52.06400 32.52700
N  14.89500 52.69900 24.77200
C  14.04800 53.00300 25.78600
C  12.91200 53.65700 25.22100
C  13.05800 53.64600 23.74900
C  14.48300 53.08400 23.53800
C  11.70500 54.10100 26.08300
C  12.15200 54.22000 22.70700
O  12.34700 54.21700 21.48300
C  10.79600 54.86100 23.21000
N  17.18800 51.65400 22.97900
C  16.35500 52.25400 22.07100
C  16.86900 52.19800 20.57900
C  18.27400 51.33400 20.82400
C  18.32800 51.11800 22.32500
C  15.92200 51.36900 19.67800
C  19.63200 51.97400 20.38500
C  19.73400 52.30600 18.92500
N  18.65400 50.75400 25.28200
C  19.48400 50.20800 24.34000
C  20.58300 49.55400 25.00900
C  20.24300 49.60100 26.35200
C  19.02500 50.32700 26.44200
C  21.82800 48.91600 24.38900
C  20.64600 49.27500 27.64900
O  21.59300 48.60800 28.03700
C  19.71900 49.96400 28.63800
C  19.28500 48.97100 29.62700
O  18.38900 48.16000 29.55800
O  20.00100 49.24700 30.78500
C  19.65600 48.60700 32.06000
H  13.44600 53.01300 27.77300
H  14.72200 53.34300 21.44700
H  20.19200 49.99900 22.38900
H  16.98800 50.57100 30.18600
H  15.23500 52.84200 29.90000
H  13.35700 51.27200 29.84200
H  14.60300 50.21000 30.46500
H  14.24800 50.19900 28.78400
H  17.59000 53.51800 29.70100
H  18.78400 52.31800 30.22500
H  17.24400 53.92400 31.93200
H  18.39600 52.55500 32.23300
H  11.39400 55.14200 25.99600
H  11.99500 54.03700 27.13200
H  10.84700 53.43700 25.97100
H  10.27200 54.20100 23.90100
H  10.29400 54.98300 22.25000
H  10.94300 55.79700 23.74800
H  17.07300 53.16800 20.12700
H  18.18500 50.38300 20.29800
H  15.92300 50.33400 20.02100
H  16.28300 51.37300 18.64900
H  14.90100 51.74100 19.76300
H  20.48000 51.31700 20.58100
H  19.68700 52.96400 20.83700
H  20.00400 53.35600 18.80700
H  18.87700 52.00900 18.32100
H  20.58900 51.71400 18.60100
H  22.62900 49.64700 24.27700
H  21.66300 48.46000 23.41300
H  22.17600 48.11300 25.03800
H  20.23800 50.83100 29.04700
H  19.75800 47.53200 31.91500
H  18.65800 48.84000 32.43300
H  20.31400 48.76400 32.91500

