158

Mg 24.36900 -6.98700 46.60800
C  26.68400 -4.76900 45.35200
C  21.90100 -5.12400 45.15800
C  22.46500 -9.68400 46.72500
C  27.03400 -8.80400 47.99500
N  24.41600 -5.40800 45.00500
C  25.43000 -4.51800 44.85100
C  25.02900 -3.31400 44.05100
C  23.50400 -3.26400 44.39000
C  23.25600 -4.65400 44.95700
C  23.12700 -2.08400 45.33100
C  25.27600 -3.52100 42.47300
C  25.72300 -2.21200 41.67100
H  24.68300 -1.93800 40.61300
N  22.38400 -7.27700 46.19700
C  21.52700 -6.46900 45.53500
C  20.22900 -7.11300 45.37800
C  20.37200 -8.43000 45.86100
C  21.79800 -8.50600 46.28600
C  19.04300 -6.37400 44.71200
C  19.31200 -9.48200 45.68900
O  18.25700 -9.18500 45.19200
C  19.48300 -10.96700 46.06200
N  24.62900 -8.97800 47.39100
C  23.73100 -9.85500 47.30000
C  24.17900 -11.20600 47.72000
C  25.67400 -10.94700 48.15800
C  25.81200 -9.52100 47.84300
C  23.22200 -11.82700 48.79300
C  26.70500 -11.85900 47.34500
C  28.13900 -12.05100 47.95500
N  26.42100 -6.83200 46.76500
C  27.35000 -7.59400 47.45000
C  28.63900 -6.96000 47.42800
C  28.41400 -5.78200 46.63300
C  27.10800 -5.81900 46.18400
C  29.90100 -7.42400 48.08100
C  29.04200 -4.60800 46.13300
O  30.18200 -4.13000 46.19600
C  28.00800 -4.00400 45.12600
C  27.97900 -2.53300 45.37600
O  28.65400 -1.69700 44.75900
O  27.14200 -2.25800 46.42200
C  27.16400 -0.79200 46.68700
H  21.02900 -4.53900 44.85700
H  21.83100 -10.57200 46.69600
H  27.87200 -9.43200 48.30700
H  25.56100 -2.49300 44.53000
H  22.94300 -3.07800 43.47400
H  22.46400 -1.40000 44.80200
H  24.04300 -1.52500 45.52500
H  22.72200 -2.51300 46.24700
H  24.47600 -4.01300 41.92000
H  26.07600 -4.24200 42.30800
H  26.63900 -2.51400 41.16300
H  25.99300 -1.30800 42.21700
H  18.63800 -6.86100 43.82500
H  19.24900 -5.33100 44.46900
H  18.26300 -6.29000 45.46800
H  19.62500 -11.12900 47.13000
H  20.27800 -11.46900 45.51000
H  18.60200 -11.45500 45.64400
H  24.15900 -11.77400 46.79000
H  25.92100 -11.00100 49.21800
H  22.84600 -12.76100 48.37600
H  22.40400 -11.15300 49.04800
H  23.73300 -12.22400 49.67000
H  26.84400 -11.46000 46.34000
H  26.21500 -12.82700 47.25100
H  28.51200 -13.04100 48.21600
H  28.22300 -11.52500 48.90500
H  28.89100 -11.63100 47.28700
H  29.81500 -8.26400 48.77000
H  30.19100 -6.49700 48.57400
H  30.52400 -7.56700 47.19800
H  28.23100 -4.20700 44.07800
H  28.13300 -0.51500 47.10100
H  26.50700 -0.50200 47.50700
H  26.90400 -0.28600 45.75700
Mg 44.01800 2.91800 47.66100
C  42.06000 5.71500 47.01900
C  41.00600 1.01600 47.31200
C  45.79900 0.15700 47.76200
C  46.87900 4.91700 47.24100
N  41.83200 3.33000 47.09800
C  41.29400 4.59200 46.98100
C  39.79500 4.50000 46.68300
C  39.48700 3.02600 47.06600
C  40.84700 2.38200 47.12900
C  38.69200 2.74400 48.40100
C  39.44800 4.83900 45.22400
C  38.00300 4.93400 44.91400
H  37.59500 5.76800 43.64000
N  43.49300 0.83400 47.54100
C  42.21400 0.26700 47.42800
C  42.35900 -1.16200 47.43400
C  43.77600 -1.43800 47.42700
C  44.43200 -0.09700 47.60800
C  41.15600 -2.13400 47.28600
C  44.34200 -2.85900 47.34100
O  43.62700 -3.84400 47.42200
C  45.80100 -3.04100 47.16300
N  46.06200 2.62900 47.74100
C  46.53800 1.38200 47.82400
C  48.11500 1.40300 47.69600
C  48.51000 2.91300 47.47000
C  47.02000 3.56100 47.42600
C  48.93400 0.68700 48.80200
C  49.24600 3.07700 46.12300
C  50.25900 4.22700 46.06800
N  44.47400 4.92000 47.22100
C  45.65200 5.61300 47.20700
C  45.34700 7.04400 47.09000
C  43.98000 7.11700 47.10900
C  43.47900 5.83500 47.12000
C  46.36600 8.18800 47.10600
C  42.87400 8.02300 47.02800
O  42.81600 9.22700 46.97900
C  41.57700 7.14800 46.98100
C  40.79100 7.44500 48.21000
O  41.19100 7.46200 49.34100
O  39.43700 7.57100 47.85400
C  38.52600 7.78100 48.94300
H  40.02600 0.53600 47.28500
H  46.51600 -0.66500 47.82200
H  47.74600 5.57800 47.17700
H  39.30800 5.14400 47.41400
H  38.96600 2.43700 46.31200
H  37.88000 2.08800 48.08800
H  38.53600 3.57700 49.08700
H  39.33000 2.09900 49.00500
H  39.75400 4.10000 44.48300
H  39.93900 5.76800 44.93400
H  37.52300 5.35800 45.79600
H  37.59600 3.92700 44.82400
H  41.34100 -2.41600 46.24900
H  40.16900 -1.67200 47.25600
H  41.01800 -3.02000 47.90600
H  46.05900 -2.38200 46.33400
H  45.98200 -4.06600 46.83900
H  46.21200 -2.73700 48.12600
H  48.33800 0.83400 46.79300
H  49.07900 3.37000 48.27900
H  49.32800 -0.23900 48.38200
H  48.30000 0.56800 49.68000
H  49.82500 1.27000 49.03500
H  48.45300 3.22300 45.39000
H  49.73200 2.16800 45.76800
H  51.18600 3.72000 45.79800
H  50.32400 4.81900 46.98100
H  50.02100 4.90100 45.24500
H  46.22000 8.97700 46.36900
H  47.30400 7.65100 46.96300
H  46.44100 8.50600 48.14600
H  41.03900 7.44900 46.08200
H  38.18200 8.81200 48.86000
H  38.86300 7.60600 49.96500
H  37.69400 7.09100 48.80500

