158

Mg 25.69500 1.88900 28.70300
C  27.58700 1.45500 31.81700
C  22.92700 2.31400 30.60600
C  23.93800 1.88000 25.98300
C  28.66300 0.90700 26.97400
N  25.28000 1.85300 31.00200
C  26.20600 1.76700 32.10900
C  25.50900 2.01600 33.46400
C  23.97800 2.06300 33.01600
C  24.06300 2.09800 31.47800
C  22.83200 1.11000 33.61200
C  26.02100 3.30600 34.23700
C  26.84500 3.11100 35.53000
H  26.51300 3.84900 36.81800
N  23.66900 2.18000 28.30600
C  22.68300 2.37900 29.19900
C  21.45700 2.58200 28.47800
C  21.70300 2.52500 27.12000
C  23.16900 2.29800 27.04700
C  20.21400 2.87300 29.22200
C  20.81900 2.75000 25.97400
O  21.24300 2.88700 24.84700
C  19.32000 2.93400 26.18800
N  26.19100 1.36200 26.80100
C  25.22700 1.34100 25.82400
C  25.90800 1.16700 24.39400
C  27.35300 0.75400 24.77500
C  27.46800 0.99600 26.21900
C  25.16000 0.17300 23.39700
C  28.42100 1.27100 23.81500
C  29.07300 2.63600 24.08300
N  27.72200 1.43000 29.12300
C  28.81400 1.05000 28.34500
C  29.90200 0.72100 29.15900
C  29.52500 0.92800 30.51500
C  28.15600 1.30400 30.47200
C  31.05600 -0.04400 28.74100
C  29.96200 0.81400 31.86800
O  31.04000 0.35400 32.25600
C  28.74100 1.26700 32.79400
C  28.55500 0.16400 33.80900
O  28.27000 -0.94700 33.44000
O  28.81700 0.64100 35.12100
C  28.50400 -0.35400 36.14700
H  22.09400 2.57600 31.26200
H  23.30500 1.94300 25.09500
H  29.61600 0.64000 26.51300
H  25.61600 1.10100 34.04700
H  23.59700 3.04400 33.30000
H  23.16800 0.60900 34.51900
H  22.79800 0.34800 32.83400
H  21.85300 1.55700 33.78400
H  25.24400 4.03100 34.47900
H  26.76000 3.84100 33.64200
H  27.87000 3.43400 35.35000
H  26.86500 2.05300 35.79400
H  19.80000 1.96300 29.65700
H  19.38900 3.33900 28.68200
H  20.46500 3.67700 29.91500
H  18.88900 2.16900 26.83500
H  18.82300 2.99100 25.22000
H  19.25600 3.93700 26.61100
H  25.97800 2.15400 23.93700
H  27.48000 -0.32800 24.81000
H  24.22900 -0.25300 23.77100
H  25.69300 -0.73100 23.10400
H  24.99900 0.61500 22.41400
H  28.12500 1.23800 22.76600
H  29.28900 0.63200 23.97800
H  30.15100 2.66100 24.24200
H  28.58400 3.08900 24.94600
H  28.87000 3.30600 23.24800
H  31.54100 -0.39100 29.65300
H  31.77500 0.53600 28.16400
H  30.72300 -0.81000 28.04000
H  28.99600 2.21000 33.27800
H  27.45200 -0.55300 36.34800
H  28.99800 -0.07900 37.07800
H  28.84000 -1.34000 35.82600
Mg 28.24300 56.46900 40.40200
C  25.85900 53.85900 39.53200
C  30.79400 54.38000 39.32300
C  30.28900 59.03500 40.41800
C  25.54300 58.73000 40.41800
N  28.27300 54.42500 39.25600
C  27.22300 53.52100 39.17600
C  27.67600 52.17600 38.59800
C  29.24600 52.28900 38.91400
C  29.50400 53.79400 39.18400
C  29.73800 51.39700 40.18600
C  27.32100 52.01100 37.15000
C  26.72400 53.20500 36.35500
H  26.93100 53.19900 34.87800
N  30.29300 56.61600 40.19100
C  31.12300 55.67100 39.70100
C  32.47900 56.16600 39.77300
C  32.37200 57.48900 40.24100
C  30.96300 57.76900 40.36800
C  33.66600 55.38500 39.38900
C  33.45200 58.50900 40.53600
O  34.59200 58.17200 40.26700
C  33.34300 59.80600 41.18000
N  27.95200 58.60900 40.42800
C  28.94200 59.47300 40.42300
C  28.49400 60.91100 40.61300
C  26.95600 60.81300 40.54100
C  26.78000 59.31000 40.47700
C  29.14400 61.66600 41.92400
C  26.42500 61.55000 39.22300
C  26.28800 63.04300 39.29600
N  26.25200 56.30200 40.27400
C  25.25600 57.32300 40.32000
C  23.93500 56.71300 40.27300
C  24.17100 55.35800 40.08800
C  25.56100 55.14500 40.04600
C  22.65500 57.45500 40.46200
C  23.48700 54.07100 40.09100
O  22.36700 53.72300 40.36200
C  24.58300 53.07400 39.61900
C  24.67300 52.01400 40.67000
O  24.02700 50.95500 40.67400
O  25.37100 52.49700 41.82200
C  25.63400 51.44700 42.85600
H  31.65300 53.70700 39.28400
H  30.88400 59.94200 40.28800
H  24.70400 59.42900 40.42300
H  27.21400 51.34100 39.12400
H  29.81600 52.01700 38.02600
H  30.04000 51.99000 41.05000
H  30.64600 50.84800 39.93500
H  28.97700 50.74500 40.61300
H  26.59900 51.19700 37.08100
H  28.21900 51.73200 36.59800
H  26.88600 54.17100 36.83300
H  25.64800 53.13900 36.51400
H  33.49500 54.66900 38.58600
H  34.02700 54.75400 40.20100
H  34.43500 56.10000 39.09800
H  32.42800 59.76800 41.77300
H  33.18100 60.53200 40.38300
H  34.23200 60.09500 41.74000
H  28.94600 61.47200 39.79500
H  26.44500 61.27200 41.38700
H  29.87600 62.43300 41.67000
H  29.69600 60.95300 42.53600
H  28.45500 62.05000 42.67700
H  25.47100 61.11000 38.93100
H  27.14500 61.34300 38.43200
H  26.86800 63.40200 40.14600
H  25.23500 63.31000 39.38200
H  26.77800 63.39400 38.38800
H  22.51700 57.73800 39.41800
H  22.58800 58.32800 41.11100
H  21.84800 56.78400 40.75700
H  24.18600 52.58400 38.73000
H  24.80800 50.73800 42.90600
H  25.65800 51.97600 43.80900
H  26.62000 50.99100 42.76900

