158

Mg 53.47500 23.82300 44.55500
C  50.81500 25.68500 43.69900
C  51.99000 21.00900 43.73500
C  56.50500 22.25800 44.89300
C  55.05700 26.87900 45.58800
N  51.60100 23.43200 43.62200
C  50.59800 24.31600 43.39800
C  49.36200 23.59100 42.93600
C  49.53500 22.15700 43.59400
C  51.11400 22.17300 43.68800
C  48.93100 21.85700 44.93900
C  49.41300 23.61900 41.35200
C  48.09400 23.93900 40.61900
H  47.37800 22.68700 40.09000
N  54.17500 21.88500 44.16700
C  53.39400 20.86100 43.74800
C  54.12500 19.67200 43.57200
C  55.44000 20.03900 43.97300
C  55.42500 21.43200 44.41700
C  53.52600 18.29500 43.17300
C  56.67900 19.09900 43.94500
O  56.54700 17.97600 43.58900
C  58.03100 19.54800 44.26400
N  55.57700 24.52900 44.94900
C  56.56500 23.60100 45.17600
C  57.91700 24.30200 45.64400
C  57.45000 25.78300 45.90000
C  55.92200 25.74200 45.46000
C  58.61200 23.66100 46.82600
C  58.27900 26.85500 45.19600
C  58.36600 28.27300 45.90400
N  53.11300 25.88500 44.58800
C  53.71300 26.95300 45.16100
C  52.83300 28.09300 45.26300
C  51.67300 27.65700 44.68500
C  51.91700 26.31800 44.27800
C  53.03300 29.41300 45.94800
C  50.31000 27.92900 44.35100
O  49.64400 28.92700 44.59300
C  49.68400 26.69400 43.68000
C  49.14500 27.07300 42.35400
O  49.81800 27.43200 41.40400
O  47.78800 27.18500 42.39500
C  47.26400 27.93200 41.24500
H  51.44300 20.06500 43.72300
H  57.45300 21.73300 45.02600
H  55.46600 27.79700 46.01600
H  48.51600 24.20600 43.24200
H  49.14000 21.43900 42.87600
H  49.65700 21.56100 45.69600
H  48.13000 21.11900 44.90200
H  48.43000 22.71700 45.38300
H  49.79500 22.62900 41.10100
H  50.14400 24.29000 40.90100
H  48.30600 24.58300 39.76500
H  47.54900 24.45900 41.40700
H  53.80800 18.05100 42.14900
H  52.44600 18.43500 43.22300
H  53.82500 17.48000 43.83300
H  58.38100 20.26900 43.52500
H  58.64800 18.65200 44.19100
H  58.13300 19.93200 45.27900
H  58.66500 24.43600 44.86200
H  57.35600 26.04700 46.95300
H  59.68600 23.79000 46.69300
H  58.58900 22.58400 46.99200
H  58.47500 24.18800 47.77000
H  57.96700 27.03900 44.16800
H  59.30600 26.49100 45.18400
H  59.27300 28.78500 45.58300
H  58.35700 28.20100 46.99100
H  57.48100 28.82600 45.59000
H  52.45800 29.40500 46.87400
H  52.77000 30.22100 45.26500
H  54.10600 29.53700 46.09900
H  48.86000 26.54800 44.37800
H  47.39200 27.25300 40.40200
H  47.78800 28.85400 40.99600
H  46.18100 28.05500 41.26300
Mg 7.14700 54.12600 41.58900
C  6.78300 50.54900 41.76900
C  10.37700 53.51100 40.67200
C  7.28500 57.24300 40.89000
C  3.70100 54.26300 42.39600
N  8.34600 52.28900 41.14100
C  8.02000 50.95600 41.23700
C  9.13100 49.94900 40.82300
C  10.32300 50.94100 40.86900
C  9.63600 52.34200 40.91000
C  11.42200 50.79800 42.00000
C  8.92000 49.35000 39.44200
C  8.38400 50.30800 38.41000
H  8.20800 49.68200 36.98600
N  8.65700 55.28900 40.91200
C  10.00200 54.86600 40.64100
C  10.75200 56.04500 40.43800
C  9.86700 57.13900 40.35800
C  8.52400 56.59500 40.68300
C  12.13000 55.99200 40.09100
C  10.19200 58.59900 39.98400
O  11.28600 58.98500 39.62100
C  9.16800 59.67200 39.92900
N  5.52300 55.49900 41.28700
C  5.96500 56.81600 41.16400
C  4.81000 57.83600 41.57600
C  3.64200 56.78700 41.88300
C  4.33300 55.44700 41.88800
C  5.26800 58.84500 42.62300
C  2.42800 56.81100 40.95500
C  1.04700 57.04900 41.60700
N  5.52300 52.72600 41.99200
C  4.22700 52.99200 42.41800
C  3.64000 51.76400 42.95600
C  4.64900 50.73500 42.65600
C  5.72600 51.39800 42.06500
C  2.33100 51.54700 43.65600
C  4.98400 49.33100 42.81800
O  4.39000 48.44200 43.39000
C  6.31300 49.12000 42.06100
C  5.93800 48.27900 40.86700
O  5.38000 48.68600 39.84000
O  6.16500 46.97500 41.13800
C  5.68900 46.04500 40.11900
H  11.43100 53.40600 40.40700
H  7.32400 58.33300 40.92200
H  2.64600 54.39000 42.64800
H  9.25300 49.23100 41.63400
H  10.65200 50.99200 39.83100
H  12.37700 51.10000 41.57000
H  11.37500 49.85500 42.54500
H  11.16000 51.60400 42.68500
H  8.30100 48.46700 39.59800
H  9.89900 49.01300 39.10000
H  9.08400 51.13800 38.30900
H  7.40800 50.75700 38.59100
H  12.34000 55.25700 39.31400
H  12.69400 55.77400 40.99800
H  12.38500 56.97700 39.70000
H  8.94100 59.91100 40.96800
H  8.27300 59.44800 39.34900
H  9.49600 60.59600 39.45200
H  4.42500 58.46600 40.77500
H  3.28700 57.09500 42.86600
H  6.27800 58.68400 42.99900
H  4.50200 58.98000 43.38700
H  5.38100 59.80300 42.11600
H  2.42600 55.87700 40.39300
H  2.62100 57.53500 40.16300
H  0.50300 57.78300 41.01300
H  1.16700 57.39200 42.63500
H  0.43600 56.16100 41.77000
H  1.63600 50.96100 43.05400
H  1.75100 52.42700 43.93300
H  2.39600 50.87300 44.50900
H  7.02700 48.58900 42.69000
H  6.41700 45.99800 39.31000
H  4.72700 46.31400 39.68200
H  5.56000 45.00900 40.43200

