158

Mg 26.12000 1.56100 29.22900
C  28.04900 1.22200 32.14400
C  23.42800 2.25000 31.30300
C  24.21600 1.40100 26.64100
C  28.84700 0.27800 27.39000
N  25.86700 1.77700 31.51900
C  26.74600 1.53200 32.47400
C  26.24200 1.95800 33.85000
C  24.71600 2.19800 33.63100
C  24.64300 2.00600 32.02800
C  23.78700 1.25300 34.55200
C  26.88800 3.20500 34.39600
C  27.19400 3.07100 35.91900
H  26.77200 4.16400 36.97400
N  24.11800 1.87600 28.98900
C  23.16100 2.21000 29.92800
C  21.83000 2.32200 29.33900
C  22.01800 2.00200 27.99400
C  23.49800 1.80900 27.82500
C  20.48000 2.63800 30.04600
C  21.05800 1.98000 26.85500
O  21.36000 1.76900 25.69600
C  19.66100 2.39000 27.14700
N  26.51500 0.85800 27.27600
C  25.50300 0.93900 26.40200
C  25.99100 0.74100 24.95300
C  27.55200 0.66000 25.16700
C  27.64800 0.55300 26.65500
C  25.25500 -0.37100 24.11700
C  28.40000 1.89700 24.68100
C  29.58500 1.48800 23.74300
N  28.09400 0.80900 29.60500
C  29.11900 0.42300 28.77100
C  30.34700 0.29600 29.53300
C  30.02700 0.54400 30.89700
C  28.59500 0.84700 30.89300
C  31.60000 -0.14300 28.84500
C  30.49000 0.58400 32.24700
O  31.56200 0.41400 32.81700
C  29.26800 1.00900 33.08600
C  28.94000 -0.07600 34.16300
O  28.36800 -1.07500 33.94500
O  29.28500 0.35600 35.43900
C  29.15000 -0.58900 36.47200
H  22.52900 2.35800 31.91400
H  23.64500 1.42900 25.71000
H  29.68400 0.05900 26.72400
H  26.19300 1.18000 34.61200
H  24.41400 3.22200 33.85500
H  22.83300 1.02600 34.07600
H  23.70600 1.79100 35.49600
H  24.14700 0.24700 34.77200
H  26.33400 4.12400 34.20700
H  27.86100 3.45800 33.97500
H  28.28400 3.09600 35.90700
H  26.76200 2.12000 36.23000
H  20.60400 2.95100 31.08300
H  19.77400 1.81100 30.10700
H  19.95100 3.37200 29.43800
H  19.25700 1.77500 27.95100
H  19.07800 2.20200 26.24600
H  19.50500 3.46700 27.20900
H  25.69200 1.66500 24.46000
H  28.00300 -0.28000 24.84800
H  24.80400 0.04100 23.21400
H  24.42500 -0.76900 24.70100
H  25.95100 -1.15400 23.81600
H  28.81000 2.42300 25.54300
H  27.80800 2.60100 24.09600
H  30.58100 1.60800 24.16900
H  29.52800 2.04600 22.80800
H  29.48600 0.45800 23.40200
H  32.17800 0.63900 28.35200
H  31.41300 -0.85800 28.04400
H  32.23300 -0.72200 29.51700
H  29.51600 1.88400 33.68600
H  30.12000 -0.65300 36.96500
H  28.87600 -1.62000 36.24900
H  28.42700 -0.38000 37.26100
Mg 48.22500 25.00100 28.17200
C  49.23300 27.13900 30.79900
C  47.54300 22.66000 30.69200
C  47.61100 22.74200 25.78000
C  49.58300 27.11300 25.80200
N  48.39900 24.90100 30.53800
C  48.77100 25.92300 31.36200
C  48.42500 25.59300 32.81700
C  48.02700 24.11400 32.71300
C  48.05800 23.86200 31.20900
C  48.93300 23.08200 33.40200
C  47.28300 26.58400 33.37400
C  46.56400 26.05200 34.63400
H  46.46900 26.91600 35.89500
N  47.50000 23.04900 28.20200
C  47.30900 22.25200 29.34700
C  46.82200 20.99300 28.89100
C  46.79600 20.98200 27.50600
C  47.36500 22.30400 27.07900
C  46.51800 19.86500 29.89100
C  46.31100 19.85400 26.55200
O  46.57700 19.90000 25.34900
C  45.68500 18.62900 27.14700
N  48.74100 24.79400 26.05600
C  48.13300 23.89700 25.25200
C  48.33000 24.23800 23.75100
C  48.66200 25.74700 23.87800
C  48.97900 25.90600 25.33800
C  49.43000 23.34900 23.12500
C  47.51800 26.69200 23.44600
C  47.78000 27.83200 22.48300
N  49.28500 26.71900 28.22600
C  49.86400 27.45400 27.18000
C  50.55200 28.63100 27.73000
C  50.17500 28.57700 29.21400
C  49.47600 27.43300 29.43100
C  51.30500 29.69800 27.06200
C  50.40700 29.35000 30.47700
O  51.02100 30.33000 30.73200
C  49.52200 28.47000 31.54400
C  50.30800 28.22300 32.76000
O  51.28300 27.52500 32.74900
O  49.87500 28.97500 33.80300
C  50.66000 28.96500 35.06900
H  47.21300 21.96400 31.46600
H  47.20600 21.99700 25.09100
H  49.91200 27.87400 25.09100
H  49.26800 25.68800 33.50100
H  46.98700 23.99400 33.01700
H  49.39700 23.55900 34.26500
H  49.66500 22.62600 32.73500
H  48.24300 22.32300 33.77000
H  46.52000 26.52700 32.59800
H  47.71500 27.58100 33.46300
H  47.10400 25.18500 35.01300
H  45.54700 25.71300 34.43800
H  45.44100 19.77100 30.03200
H  46.92900 20.01500 30.88900
H  46.84100 18.92200 29.44900
H  46.38100 18.07000 27.77300
H  45.30600 17.91700 26.41400
H  44.86300 19.13800 27.65000
H  47.43100 24.02900 23.17000
H  49.55600 26.03600 23.32400
H  50.28100 23.93400 22.77500
H  49.09600 22.85200 22.21400
H  49.77300 22.57300 23.80900
H  47.04100 27.08600 24.34300
H  46.70000 26.07400 23.07600
H  47.91000 28.75400 23.05100
H  46.91700 27.98900 21.83600
H  48.59800 27.62000 21.79500
H  51.34300 29.37300 26.02200
H  52.34200 29.76500 27.39200
H  50.75800 30.64000 27.06900
H  48.62100 29.06300 31.69700
H  51.71200 28.72100 34.92000
H  50.32000 28.24600 35.81500
H  50.43900 29.94600 35.48900

