158

Mg 9.71000 47.97200 25.46200
C  7.58200 48.10000 28.09700
C  12.32100 49.09700 27.46400
C  11.66900 47.73500 22.89600
C  6.88300 47.78500 23.31500
N  9.90600 48.44800 27.54500
C  8.93400 48.40600 28.46500
C  9.54200 48.61000 29.88900
C  10.78900 49.39600 29.51600
C  11.07000 48.90300 28.08700
C  10.68900 50.90000 29.74300
C  9.54800 47.28400 30.72600
C  10.68300 47.08600 31.61000
H  10.41000 46.10600 32.88100
N  11.70300 48.41200 25.21100
C  12.64300 48.78600 26.15000
C  13.93600 48.82700 25.55100
C  13.78200 48.26900 24.24800
C  12.36100 48.14100 24.03100
C  15.15300 49.32900 26.26900
C  14.83700 47.91700 23.23100
O  14.61600 47.29500 22.20800
C  16.26600 48.03700 23.58700
N  9.28400 48.06900 23.31600
C  10.34100 47.75500 22.54500
C  9.89700 47.61600 21.07300
C  8.37700 47.28300 21.31100
C  8.14900 47.76300 22.69300
C  10.25800 48.91500 20.21400
C  7.85200 45.79600 21.11600
C  8.09400 44.74800 22.19900
N  7.63600 47.87200 25.63100
C  6.61500 47.76400 24.69100
C  5.30800 47.65800 25.35300
C  5.66600 47.71300 26.71100
C  7.06200 47.96800 26.80100
C  3.96700 47.39900 24.80900
C  5.18700 47.54800 28.06200
O  4.08500 47.28500 28.53100
C  6.40800 47.88000 28.96600
C  6.56400 46.73000 29.92400
O  6.87500 45.63200 29.62500
O  5.92500 47.09600 31.04400
C  5.34300 46.07700 31.90400
H  13.12200 49.48100 28.10000
H  12.24800 47.51900 21.99600
H  6.04600 47.66100 22.62400
H  8.93500 49.35800 30.39900
H  11.69500 49.14900 30.07000
H  11.27700 51.45200 29.01000
H  11.09200 51.11900 30.73200
H  9.68100 51.25100 29.52300
H  9.49900 46.42000 30.06200
H  8.69400 47.32900 31.40100
H  11.13700 48.05200 31.83100
H  11.53000 46.69800 31.04300
H  16.03300 48.69300 26.17100
H  14.94700 49.62100 27.29800
H  15.55100 50.23000 25.80300
H  16.90100 47.82300 22.72700
H  16.56100 47.35500 24.38400
H  16.43000 49.07600 23.87200
H  10.44800 46.76600 20.67200
H  7.73000 47.88900 20.67800
H  10.46200 49.72900 20.91000
H  9.45600 49.20900 19.53700
H  11.16000 48.71900 19.63300
H  8.34500 45.48200 20.19600
H  6.79400 45.83600 20.85800
H  9.12800 45.00500 22.43000
H  8.02500 43.78400 21.69600
H  7.42700 44.90100 23.04700
H  3.68900 48.05400 23.98300
H  3.24900 47.57800 25.60900
H  3.88900 46.38600 24.41300
H  6.11200 48.72700 29.58500
H  4.44100 46.55300 32.28900
H  6.05600 45.89700 32.71000
H  5.12200 45.04800 31.62000
Mg -2.09200 34.31700 26.63000
C  -3.98800 32.50800 28.88500
C  -0.94000 36.25300 29.26000
C  -0.56500 36.41700 24.42400
C  -3.57300 32.56600 23.98200
N  -2.61600 34.52200 28.73900
C  -3.25800 33.55300 29.45600
C  -3.12100 33.84000 30.97800
C  -2.36800 35.18600 31.04800
C  -1.95400 35.37700 29.58100
C  -3.16900 36.40700 31.46800
C  -2.21800 32.69900 31.61000
C  -2.93800 31.68700 32.65100
H  -2.45400 31.80900 34.17300
N  -0.89900 36.11000 26.83400
C  -0.39700 36.63200 28.03300
C  0.37700 37.76500 27.67500
C  0.31100 38.04100 26.28900
C  -0.40300 36.81600 25.77600
C  0.97600 38.69600 28.60400
C  0.90400 39.14500 25.42400
O  0.59500 39.22900 24.21900
C  1.81900 40.26500 25.95900
N  -2.29400 34.61100 24.41700
C  -1.37800 35.44500 23.80000
C  -1.49800 35.18700 22.26400
C  -2.36300 33.86800 22.16500
C  -2.75600 33.62300 23.59000
C  -2.02000 36.48800 21.49700
C  -1.69000 32.65000 21.61100
C  -0.51200 32.12300 22.40300
N  -3.50200 32.88700 26.42500
C  -3.95600 32.20600 25.28800
C  -4.77600 31.11800 25.67100
C  -4.84000 31.23800 27.08100
C  -4.03800 32.28300 27.48200
C  -5.45000 30.09000 24.82600
C  -5.42400 30.65900 28.26500
O  -6.30400 29.75100 28.46800
C  -4.72000 31.38100 29.50800
C  -5.86400 31.75700 30.47000
O  -6.41600 32.85700 30.47400
O  -5.91400 30.91100 31.48400
C  -6.97700 31.10700 32.48900
H  -0.47800 36.79000 30.09100
H  -0.01700 37.00100 23.68200
H  -4.04600 32.01500 23.16700
H  -4.11800 33.85300 31.41900
H  -1.55000 35.11600 31.76500
H  -3.03300 36.62900 32.52600
H  -4.19000 36.45200 31.08800
H  -2.61100 37.20800 30.98300
H  -1.39500 33.13800 32.17500
H  -1.75000 32.12500 30.81000
H  -2.87600 30.65100 32.31700
H  -4.00600 31.89900 32.61800
H  2.05300 38.79900 28.47200
H  0.90600 38.28600 29.61200
H  0.28000 39.52900 28.50500
H  1.07800 40.93500 26.39600
H  2.32700 40.75700 25.13000
H  2.58200 39.94700 26.66900
H  -0.58600 35.10000 21.67400
H  -3.20300 33.93900 21.47400
H  -1.25900 37.11500 21.03300
H  -2.45400 37.08400 22.29900
H  -2.76200 36.21500 20.74600
H  -1.21100 32.92200 20.67000
H  -2.46100 31.89400 21.46500
H  0.35600 31.93000 21.77200
H  -0.80400 31.17800 22.86000
H  -0.07500 32.75900 23.17300
H  -4.71400 29.75100 24.09700
H  -6.25300 30.49300 24.20900
H  -5.83200 29.28500 25.45400
H  -4.09800 30.68700 30.07300
H  -7.78000 31.74000 32.11100
H  -6.46400 31.62900 33.29700
H  -7.30400 30.10400 32.76100

