158

Mg 24.23600 -5.83700 46.16600
C  26.21900 -3.18600 44.86500
C  21.75200 -4.93700 44.12600
C  22.77600 -8.80000 47.00200
C  27.13600 -6.72600 48.05400
N  24.11200 -4.21700 44.68900
C  24.97200 -3.23500 44.39800
C  24.23800 -2.18700 43.47100
C  22.71700 -2.62000 43.53200
C  22.87800 -4.03800 44.11300
C  21.71900 -1.72200 44.30600
C  24.79900 -2.18200 41.96500
C  25.28800 -0.80700 41.41200
H  25.10900 -0.61700 39.94600
N  22.49300 -6.76000 45.52900
C  21.61100 -6.20100 44.75700
C  20.40500 -7.12700 44.60900
C  20.72600 -8.23900 45.44600
C  22.06500 -7.97700 46.07100
C  19.19200 -6.92600 43.76600
C  19.91100 -9.45600 45.83500
O  18.80000 -9.47800 45.30700
C  20.31100 -10.53900 46.86600
N  24.82200 -7.52500 47.36500
C  24.09000 -8.64700 47.52700
C  24.74600 -9.65200 48.49400
C  26.19400 -9.06000 48.75800
C  26.04600 -7.62800 48.08400
C  23.91500 -10.19600 49.67300
C  27.35900 -9.90200 48.10600
C  28.68300 -9.69100 48.89800
N  26.27200 -5.13600 46.42600
C  27.30800 -5.55400 47.24200
C  28.44400 -4.65700 47.12600
C  28.03900 -3.70500 46.21800
C  26.73500 -4.04400 45.82200
C  29.74700 -4.76100 48.04500
C  28.46700 -2.46900 45.59400
O  29.46700 -1.79400 45.70800
C  27.31300 -2.14300 44.67800
C  26.75400 -0.75400 44.91700
O  26.03300 -0.44100 45.83300
O  27.33300 0.09200 44.04400
C  27.18200 1.53400 44.29600
H  20.83900 -4.72700 43.56500
H  22.49200 -9.78300 47.38400
H  27.97200 -7.08900 48.65600
H  24.20900 -1.22800 43.98800
H  22.28700 -2.69400 42.53300
H  20.92000 -1.35200 43.66400
H  22.14600 -0.85100 44.80400
H  21.27300 -2.33600 45.08900
H  24.08700 -2.57900 41.24100
H  25.67700 -2.82600 41.93600
H  26.36000 -0.73900 41.60100
H  24.67200 -0.02400 41.85400
H  18.37300 -6.45800 44.31100
H  18.75800 -7.83300 43.34600
H  19.44600 -6.14000 43.05500
H  19.44800 -11.14500 47.14300
H  20.43300 -9.92700 47.76000
H  21.22700 -11.03500 46.54200
H  24.83400 -10.48600 47.79700
H  26.39500 -8.87400 49.81300
H  22.87700 -9.86300 49.68600
H  24.38600 -9.86500 50.59800
H  23.91200 -11.28400 49.61300
H  27.46000 -9.48500 47.10300
H  27.03900 -10.94000 48.02400
H  29.10900 -10.69300 48.95600
H  28.48000 -9.31800 49.90200
H  29.36300 -9.14500 48.24400
H  30.12700 -3.76800 48.28500
H  30.57900 -5.31900 47.61400
H  29.44800 -5.22100 48.98700
H  27.72500 -2.04400 43.67300
H  26.14000 1.80900 44.13300
H  27.90700 2.01400 43.63900
H  27.41800 1.74200 45.33900
Mg 46.65000 16.66200 28.23900
C  44.76000 16.62800 31.06700
C  48.99100 18.78100 29.86900
C  48.10100 17.37800 25.26400
C  44.03400 15.17200 26.54700
N  46.77900 17.73400 30.19000
C  45.97400 17.30800 31.25200
C  46.55800 17.74600 32.61900
C  47.65100 18.79400 32.12400
C  47.88500 18.42000 30.69500
C  47.34800 20.30300 32.31700
C  47.06700 16.50500 33.38100
C  47.13200 16.56500 34.91200
H  47.16600 17.91000 35.62200
N  48.38200 17.72000 27.69000
C  49.18600 18.48000 28.51200
C  50.33300 18.88300 27.74200
C  49.95700 18.72100 26.39500
C  48.80600 17.87100 26.40400
C  51.62000 19.46800 28.35100
C  50.63200 19.19100 25.12300
O  50.24700 18.95100 23.98200
C  51.78900 20.15700 25.26800
N  46.28500 16.04500 26.17700
C  46.99600 16.51400 25.16400
C  46.29400 16.28000 23.81400
C  45.14100 15.28100 24.29600
C  45.14300 15.52300 25.80200
C  45.89800 17.46900 22.95800
C  45.40400 13.86600 23.83400
C  44.80900 13.40000 22.51400
N  44.78600 15.92300 28.67100
C  43.86000 15.27000 27.94500
C  42.65400 14.93400 28.75100
C  42.93800 15.47900 30.01800
C  44.25000 16.06800 29.90400
C  41.57100 14.08400 28.27400
C  42.49200 15.62100 31.33200
O  41.44100 15.21400 31.79200
C  43.68200 16.29600 32.14200
C  43.11300 17.55400 32.73500
O  42.95000 18.62000 32.19800
O  42.64000 17.16500 33.96900
C  41.55900 17.94900 34.52400
H  49.84200 19.32200 30.28900
H  48.33600 17.60000 24.22100
H  43.20400 14.81100 25.93600
H  45.70500 18.11200 33.19000
H  48.56100 18.77400 32.72300
H  46.34100 20.40900 32.72100
H  47.42100 20.93300 31.43000
H  47.99500 20.67200 33.11300
H  48.05400 16.37200 32.93700
H  46.52200 15.63000 33.02700
H  48.00700 15.96600 35.16500
H  46.35100 16.01200 35.43500
H  52.42000 18.74000 28.21700
H  51.52600 19.73100 29.40400
H  51.75100 20.43500 27.86500
H  51.44100 21.14400 25.57100
H  52.26900 20.22600 24.29200
H  52.52900 19.80900 25.99000
H  46.94600 15.62100 23.24000
H  44.17500 15.56700 23.87900
H  46.50200 18.36300 23.11000
H  44.88700 17.72200 23.28000
H  45.99600 17.23100 21.89900
H  44.93000 13.26800 24.61200
H  46.45700 13.58600 23.86500
H  45.69400 13.29600 21.88600
H  44.06000 14.02400 22.02700
H  44.42600 12.40400 22.73500
H  40.65600 14.66300 28.15100
H  41.37300 13.27000 28.97200
H  41.89000 13.74800 27.28700
H  43.94000 15.51800 32.86100
H  40.85000 18.21900 33.74200
H  41.98800 18.87600 34.90600
H  41.09100 17.48800 35.39400

