158

Mg 7.34700 1.62300 27.49600
C  8.75800 0.16300 30.59600
C  5.51200 3.54300 29.56100
C  5.72700 2.42100 24.91400
C  9.08300 -1.02500 25.90800
N  7.25600 1.77400 29.83500
C  7.92600 1.24800 30.86500
C  7.58600 1.86400 32.22900
C  6.47400 2.88000 31.79600
C  6.35700 2.72900 30.30800
C  5.11100 2.65500 32.45700
C  8.82100 2.60000 32.94300
C  8.48900 3.03400 34.42100
H  9.45300 2.54800 35.50200
N  5.89500 2.96800 27.20400
C  5.23200 3.67000 28.18100
C  4.24700 4.53700 27.51000
C  4.34800 4.26500 26.12700
C  5.29200 3.13900 26.02000
C  3.31200 5.58100 28.21500
C  3.57700 4.86600 24.99200
O  3.73200 4.45300 23.82400
C  2.57200 5.93100 25.28100
N  7.17600 0.62200 25.70700
C  6.57800 1.35700 24.72800
C  6.94100 0.65200 23.37400
C  8.09200 -0.31700 23.69200
C  8.20200 -0.21200 25.19500
C  5.74900 -0.10600 22.76600
C  9.48100 -0.05100 23.02900
C  10.43000 0.99500 23.71000
N  8.70700 -0.10100 28.01500
C  9.28800 -1.05800 27.25400
C  10.09300 -1.96900 28.10200
C  9.90700 -1.47700 29.43800
C  9.00600 -0.39500 29.27400
C  10.92900 -3.13600 27.53800
C  10.29000 -1.65100 30.80600
O  11.07800 -2.43100 31.32100
C  9.54700 -0.59100 31.58500
C  8.77100 -1.25700 32.69300
O  7.68700 -1.87200 32.63000
O  9.44500 -1.08900 33.91300
C  9.13800 -1.75900 35.15000
H  4.89800 4.23100 30.14600
H  5.21900 2.75900 24.00900
H  9.46600 -1.80100 25.24200
H  7.16500 1.07300 32.84900
H  6.81600 3.90900 31.90300
H  5.38200 2.20100 33.41000
H  4.51300 2.00600 31.81600
H  4.44600 3.51600 32.52700
H  9.02000 3.46600 32.31200
H  9.76700 2.06300 32.87400
H  7.47400 2.64400 34.48400
H  8.39800 4.12000 34.38000
H  3.66800 5.60500 29.24500
H  2.27100 5.25900 28.22900
H  3.63100 6.55900 27.85500
H  3.06700 6.78800 25.73800
H  1.82500 5.47800 25.93200
H  2.15600 6.19800 24.30900
H  7.32200 1.36000 22.63800
H  7.75100 -1.30000 23.36800
H  4.93800 -0.09300 23.49400
H  5.93100 -1.10900 22.38000
H  5.40800 0.40900 21.86700
H  9.34400 0.27300 21.99800
H  9.98000 -1.01600 22.93700
H  9.90500 1.50700 24.51600
H  10.70900 1.79800 23.02800
H  11.37000 0.50600 23.96900
H  11.27200 -2.93500 26.52400
H  10.49900 -4.13700 27.54200
H  11.81600 -3.16000 28.17000
H  10.29400 -0.01800 32.13300
H  8.43600 -2.56200 34.92400
H  8.70700 -1.03600 35.84300
H  10.00800 -2.14400 35.68200
Mg -11.04600 38.55500 41.49500
C  -9.04500 35.67400 40.91900
C  -8.50500 40.31900 39.57000
C  -13.21300 41.07900 40.93500
C  -13.63400 36.45500 42.44000
N  -9.06800 38.07900 40.38800
C  -8.50300 36.82600 40.23100
C  -7.17500 36.87200 39.53800
C  -6.91900 38.41400 39.32500
C  -8.15900 39.03100 39.93200
C  -5.64500 38.99200 39.99700
C  -7.16200 36.04000 38.21900
C  -5.89600 35.08000 38.17300
H  -4.78300 35.52800 37.14100
N  -10.82600 40.51400 40.56800
C  -9.75300 40.96800 39.83100
C  -10.04800 42.34000 39.46200
C  -11.31100 42.70200 40.03800
C  -11.85300 41.39800 40.57900
C  -9.08000 43.19500 38.69000
C  -12.04900 44.03200 39.96700
O  -11.54300 45.02700 39.43300
C  -13.43100 44.29800 40.81200
N  -13.03500 38.76400 41.60400
C  -13.70300 39.93700 41.49200
C  -15.22100 39.88400 41.86100
C  -15.43900 38.40400 42.21600
C  -13.93100 37.83800 42.12600
C  -15.57800 40.95900 42.97500
C  -16.54600 37.53500 41.50400
C  -17.40700 36.59800 42.45700
N  -11.26700 36.48000 42.00900
C  -12.36100 35.85900 42.41100
C  -12.02500 34.43000 42.61400
C  -10.66000 34.36800 42.07500
C  -10.30200 35.58900 41.59600
C  -12.86800 33.43400 43.28900
C  -9.45800 33.48600 41.79600
O  -9.18900 32.37200 42.17300
C  -8.57800 34.25800 40.82500
C  -7.14400 33.97300 41.18800
O  -6.57300 32.93600 40.89300
O  -6.66400 34.95200 41.99100
C  -5.27900 34.92800 42.48300
H  -7.75200 40.75300 38.90900
H  -13.91000 41.90000 40.75800
H  -14.53300 35.84000 42.52200
H  -6.41100 36.45500 40.19400
H  -7.02300 38.72800 38.28600
H  -5.91200 39.18400 41.03600
H  -5.33700 39.85400 39.40600
H  -4.76200 38.35400 39.96600
H  -6.95900 36.69700 37.37300
H  -8.07600 35.46000 38.08600
H  -6.26800 34.12400 37.80600
H  -5.42600 35.00300 39.15400
H  -9.52200 44.13700 38.36600
H  -8.88300 42.64000 37.77200
H  -8.28100 43.55700 39.33600
H  -13.31700 43.85800 41.80300
H  -14.21700 43.87600 40.18500
H  -13.54500 45.38000 40.87800
H  -15.87700 40.13900 41.02900
H  -15.70100 38.42400 43.27300
H  -14.67800 41.12100 43.56800
H  -16.36400 40.64100 43.65900
H  -15.96300 41.77100 42.35700
H  -15.99200 36.89300 40.82000
H  -17.16700 38.19100 40.89400
H  -17.62500 37.07000 43.41500
H  -16.89500 35.64000 42.54500
H  -18.28700 36.45500 41.83000
H  -13.88300 33.82900 43.33700
H  -12.48200 33.24500 44.29000
H  -12.68900 32.54900 42.67900
H  -8.64000 33.96900 39.77600
H  -5.15400 35.43100 43.44200
H  -4.52100 35.24500 41.76700
H  -5.08400 33.87300 42.67800

