158

Mg 47.24900 14.49800 27.65700
C  45.39800 14.73800 30.70900
C  49.46900 16.74000 28.92300
C  48.61100 14.81300 24.60100
C  44.49800 12.88000 26.41200
N  47.43500 15.59800 29.64700
C  46.54800 15.48800 30.65300
C  47.13400 16.28000 31.87500
C  48.19600 17.23000 31.16200
C  48.43200 16.52500 29.83300
C  47.80500 18.69400 30.90700
C  47.75600 15.23600 32.92900
C  47.03500 15.18200 34.31200
H  48.01300 15.11900 35.49700
N  48.98500 15.42800 26.94800
C  49.80300 16.23900 27.63000
C  50.89000 16.67500 26.79400
C  50.59400 16.17300 25.50600
C  49.37800 15.41900 25.60000
C  51.99600 17.59600 27.19300
C  51.29500 16.37300 24.18800
O  51.04300 15.74700 23.14900
C  52.36200 17.45900 24.07600
N  46.60800 14.00000 25.80400
C  47.36300 14.16800 24.68900
C  46.68000 13.51300 23.48400
C  45.54900 12.64200 24.15600
C  45.59300 13.18900 25.60000
C  46.18300 14.61700 22.43800
C  45.72500 11.10200 23.97500
C  46.97100 10.43400 24.68600
N  45.37200 13.81200 28.36900
C  44.27600 13.24100 27.72800
C  43.27700 12.90200 28.64700
C  43.65900 13.38700 29.88200
C  44.90100 14.00900 29.62200
C  41.97600 12.22000 28.35600
C  43.35600 13.58900 31.29200
O  42.33100 13.31100 31.94800
C  44.49700 14.48800 31.89200
C  43.89800 15.62500 32.57500
O  43.55500 16.71200 32.07300
O  43.66000 15.34900 33.93800
C  43.00000 16.37100 34.63000
H  50.06300 17.56500 29.32300
H  48.94700 14.88300 23.56400
H  43.70000 12.26600 25.99000
H  46.34300 16.84200 32.37000
H  49.05000 17.41800 31.81400
H  46.72300 18.71000 31.03800
H  47.82200 18.97100 29.85300
H  48.39600 19.38900 31.50400
H  48.79100 15.50100 33.14500
H  47.75200 14.22600 32.51800
H  46.55600 14.21000 34.42900
H  46.29200 15.96300 34.47500
H  52.11500 17.50700 28.27300
H  51.68100 18.59800 26.90300
H  52.98600 17.44400 26.76200
H  53.28900 17.33600 24.63600
H  51.92800 18.41600 24.36600
H  52.69900 17.52700 23.04200
H  47.39500 12.89800 22.93700
H  44.62400 12.93500 23.65900
H  45.44300 15.25800 22.91800
H  45.84600 14.07700 21.55300
H  46.99600 15.27600 22.13000
H  45.82000 10.97500 22.89600
H  44.80800 10.61000 24.30100
H  46.53600 9.81500 25.47100
H  47.57600 11.23100 25.12000
H  47.43700 9.72900 23.99800
H  41.59700 12.09100 29.37000
H  41.94700 11.21500 27.93600
H  41.36600 12.86400 27.72100
H  45.00400 13.82600 32.59500
H  43.51400 16.37800 35.59100
H  42.02500 16.04400 34.99000
H  43.00400 17.39700 34.26100
Mg -9.47200 18.40300 42.65700
C  -6.02000 17.40400 42.43000
C  -8.56500 21.47300 41.89200
C  -12.76000 18.96500 42.25600
C  -10.19400 14.92300 42.82900
N  -7.45500 19.27500 42.17700
C  -6.20900 18.74200 42.12300
C  -5.13000 19.82800 41.84900
C  -6.01200 21.12300 41.88400
C  -7.46400 20.59900 42.00200
C  -5.60700 22.19800 42.89400
C  -4.32200 19.47000 40.54800
C  -5.15400 19.20500 39.28200
H  -4.79100 19.86900 38.02300
N  -10.51800 20.06900 42.16500
C  -9.97200 21.25000 41.78500
C  -10.97800 22.24300 41.47300
C  -12.18200 21.53000 41.60100
C  -11.89500 20.12500 42.05200
C  -10.70000 23.71100 41.22600
C  -13.52200 22.14500 41.27200
O  -13.64000 23.32700 40.98300
C  -14.80100 21.32100 41.22400
N  -11.16500 17.05800 42.26200
C  -12.36700 17.60100 42.45700
C  -13.51100 16.49500 42.69500
C  -12.72400 15.16800 42.59100
C  -11.26300 15.73500 42.51500
C  -14.27600 16.74900 44.04600
C  -13.15400 14.22000 41.39900
C  -13.55700 12.72900 41.80500
N  -8.35400 16.49600 42.62300
C  -8.81000 15.16400 42.74400
C  -7.71200 14.22400 42.83800
C  -6.51400 15.01900 42.76000
C  -7.00700 16.40800 42.61300
C  -7.77300 12.75700 43.13700
C  -5.09500 15.02600 42.79400
O  -4.25900 14.11800 42.90800
C  -4.71000 16.55300 42.55200
C  -3.83400 16.91700 43.64500
O  -2.62800 16.78300 43.60300
O  -4.52600 17.44100 44.70900
C  -3.70900 17.94800 45.79100
H  -8.33200 22.53900 41.83100
H  -13.81400 19.25200 42.23800
H  -10.35800 13.86200 43.03000
H  -4.47400 19.88100 42.71800
H  -5.82800 21.60500 40.92400
H  -5.29900 23.10900 42.37900
H  -4.78800 21.89200 43.54400
H  -6.43400 22.39500 43.57600
H  -3.63900 18.62800 40.65600
H  -3.71100 20.32300 40.25300
H  -6.21300 19.43500 39.39800
H  -5.08900 18.13500 39.08200
H  -11.22400 24.43400 41.85200
H  -10.96300 23.86500 40.18000
H  -9.67500 24.02400 41.42500
H  -15.06400 21.08400 42.25400
H  -14.62400 20.43300 40.61800
H  -15.59900 21.89300 40.74900
H  -14.25000 16.52600 41.89400
H  -12.89300 14.64100 43.53000
H  -13.90700 17.65800 44.52100
H  -14.06500 15.98600 44.79500
H  -15.32100 17.01800 43.89400
H  -12.27000 14.13100 40.76800
H  -13.96400 14.67700 40.83000
H  -13.44400 12.46100 42.85500
H  -12.92800 12.07000 41.20500
H  -14.57600 12.49800 41.49500
H  -8.82000 12.47900 43.01800
H  -7.24200 12.40500 44.02200
H  -7.34100 12.18800 42.31500
H  -4.10700 16.67400 41.65200
H  -2.98900 18.73000 45.55100
H  -3.36400 17.07400 46.34300
H  -4.38300 18.58600 46.36300

