158

Mg 53.85100 24.83000 44.89400
C  51.02100 26.92000 44.07700
C  51.95800 22.05300 43.48600
C  56.54900 22.89700 44.78400
C  55.62800 27.68700 45.61200
N  51.96000 24.62700 43.71600
C  50.96300 25.60400 43.64000
C  49.71400 24.98100 42.96300
C  49.94700 23.53900 43.29700
C  51.41800 23.34600 43.48200
C  49.10400 22.77900 44.33900
C  49.38000 25.28200 41.52800
C  50.25000 24.78100 40.38500
H  50.88500 25.69900 39.33300
N  54.22200 22.72700 44.25900
C  53.29300 21.81100 43.79000
C  53.93700 20.48400 43.78900
C  55.28200 20.64500 44.19300
C  55.42700 22.12800 44.45300
C  53.27100 19.15000 43.53900
C  56.34900 19.50200 44.23300
O  56.06300 18.29500 43.98800
C  57.68500 19.81400 44.84500
N  55.82100 25.33800 44.89500
C  56.76000 24.33000 45.06200
C  58.14300 24.84800 45.37900
C  57.84900 26.39900 45.59800
C  56.34000 26.56300 45.28900
C  59.00000 24.08600 46.46200
C  58.69700 27.39900 44.80100
C  59.28500 28.53400 45.58700
N  53.38800 26.84300 45.08800
C  54.25800 27.91500 45.37100
C  53.46100 29.16300 45.51400
C  52.11800 28.81800 45.08500
C  52.18600 27.36900 44.76800
C  53.97900 30.51700 46.04000
C  50.77200 29.29700 44.82000
O  50.33100 30.41900 44.77300
C  50.02600 28.15300 44.12200
C  49.65200 28.68200 42.79400
O  50.38000 28.73200 41.78100
O  48.38400 29.27800 42.76800
C  47.92600 29.68200 41.44000
H  51.37400 21.16200 43.24600
H  57.56300 22.49300 44.76200
H  56.19900 28.48200 46.09500
H  48.89400 25.35900 43.57400
H  49.78600 22.98000 42.37600
H  49.75700 22.12800 44.92100
H  48.42600 22.11800 43.79900
H  48.60800 23.54300 44.93600
H  49.21000 26.34800 41.37800
H  48.35400 24.94600 41.37300
H  49.67200 24.07300 39.79200
H  51.12300 24.28300 40.80600
H  53.59700 18.67500 42.61300
H  52.19800 19.21000 43.35700
H  53.46700 18.36500 44.27000
H  57.51100 20.42500 45.73100
H  58.37400 20.33500 44.18000
H  58.16200 18.88700 45.16300
H  58.59800 24.73000 44.39500
H  57.96900 26.64100 46.65400
H  58.52500 23.16700 46.80500
H  59.19600 24.71900 47.32800
H  59.95900 23.70900 46.10600
H  58.08000 27.78200 43.98900
H  59.58300 26.88500 44.42900
H  60.34900 28.31900 45.68100
H  58.73900 28.72300 46.51100
H  59.26400 29.40600 44.93400
H  53.19800 31.10800 46.51900
H  54.45600 31.09700 45.25100
H  54.72700 30.38600 46.82200
H  49.10400 27.89000 44.64000
H  47.07700 30.36500 41.46500
H  47.55200 28.86300 40.82600
H  48.74000 30.19300 40.92600
Mg 9.44400 48.22000 25.80300
C  7.02500 48.49400 28.50100
C  11.76800 49.54600 27.97700
C  11.70200 47.76800 23.33400
C  6.80000 47.60300 23.61100
N  9.36700 48.87300 27.96600
C  8.36800 48.72000 28.89400
C  8.87700 48.96700 30.32400
C  10.29400 49.71200 30.00600
C  10.51500 49.34100 28.56900
C  10.36400 51.21400 30.25300
C  9.04900 47.68500 31.19200
C  8.70300 47.89600 32.66000
H  8.66300 46.65900 33.48200
N  11.44800 48.53800 25.67700
C  12.25800 49.08700 26.68600
C  13.58600 49.11300 26.21000
C  13.56000 48.65100 24.84900
C  12.21200 48.22700 24.54000
C  14.82200 49.53100 27.12900
C  14.75000 48.56500 23.94800
O  14.65400 48.23100 22.80200
C  16.17000 49.07600 24.31200
N  9.22500 47.85000 23.77300
C  10.38500 47.63300 22.98900
C  9.91000 47.23800 21.61900
C  8.33200 47.23000 21.59400
C  8.07900 47.55600 23.08500
C  10.42900 48.18400 20.50400
C  7.67600 45.92100 21.17800
C  7.49000 45.95200 19.64600
N  7.34300 48.06900 25.89700
C  6.44200 47.84600 24.91800
C  5.08400 47.83900 25.49100
C  5.26800 48.07300 26.86600
C  6.68400 48.23700 27.10200
C  3.72500 47.68200 24.75100
C  4.60300 48.06200 28.17300
O  3.40100 47.86300 28.44200
C  5.68700 48.49100 29.18400
C  5.52400 47.63800 30.36200
O  5.73200 46.39900 30.47600
O  4.83600 48.41000 31.33300
C  4.45400 47.57600 32.48500
H  12.55800 49.80800 28.68400
H  12.47300 47.41800 22.64400
H  5.96900 47.33800 22.95500
H  8.11500 49.61800 30.75200
H  11.14500 49.29300 30.54300
H  10.54800 51.74000 29.31700
H  11.11500 51.39300 31.02300
H  9.36300 51.51400 30.56200
H  10.09800 47.41600 31.07100
H  8.42800 46.93200 30.70800
H  7.65100 48.17800 32.63700
H  9.35600 48.64800 33.10600
H  15.55000 48.71900 27.12300
H  14.50300 49.51000 28.17100
H  15.42800 50.38900 26.84000
H  16.18800 50.08400 24.72700
H  16.68600 49.08100 23.35300
H  16.65000 48.37600 24.99600
H  10.39700 46.27400 21.47100
H  7.90800 48.09500 21.08300
H  10.91300 47.44000 19.87100
H  11.21400 48.85700 20.84900
H  9.72900 48.82600 19.96800
H  6.77400 45.80400 21.77900
H  8.42500 45.15500 21.37900
H  6.44300 45.80200 19.38500
H  7.98000 45.11700 19.14400
H  7.71200 46.90900 19.17400
H  3.05100 48.33300 25.30800
H  3.40300 46.65900 24.55800
H  3.81200 48.10300 23.75000
H  5.41600 49.51000 29.46200
H  5.21800 47.63800 33.26000
H  4.25600 46.56700 32.12300
H  3.57200 48.01100 32.95300

