158

Mg 25.21700 1.22800 30.22800
C  27.40500 1.33100 32.90200
C  22.59100 1.49200 32.54600
C  23.15500 1.21800 27.72500
C  27.93500 0.91100 28.06000
N  25.07800 1.36400 32.50000
C  26.07800 1.42800 33.37400
C  25.66300 1.67600 34.82300
C  24.12100 1.52500 34.71200
C  23.89100 1.45800 33.15100
C  23.51600 0.38800 35.64700
C  26.20100 3.07500 35.36600
C  26.86200 2.99700 36.75500
H  26.52400 4.00300 37.84300
N  23.17000 1.20200 30.14200
C  22.28900 1.33700 31.18500
C  20.94200 1.17800 30.66700
C  21.05600 1.19100 29.21300
C  22.53700 1.14900 28.98300
C  19.75000 1.15700 31.52800
C  19.95500 1.25400 28.27100
O  20.21100 1.11200 27.08400
C  18.51600 1.58100 28.68400
N  25.54200 1.05500 28.11000
C  24.46700 1.17700 27.28200
C  24.92100 1.06800 25.80500
C  26.48900 1.03000 25.97800
C  26.71200 1.03300 27.43900
C  24.33700 -0.08500 24.90900
C  27.21000 2.19800 25.13900
C  26.79100 3.64500 25.52700
N  27.19800 0.98500 30.40500
C  28.16400 0.91800 29.44200
C  29.44300 0.72300 30.14800
C  29.21900 0.91500 31.46500
C  27.82400 1.05200 31.56900
C  30.74100 0.45600 29.39200
C  29.86000 0.94500 32.77300
O  31.02400 0.82200 33.21900
C  28.70100 1.31500 33.71300
C  28.63200 0.41700 34.90500
O  28.06700 -0.67300 34.87800
O  29.12100 1.05600 35.98500
C  29.07000 0.31300 37.24400
H  21.73000 1.64200 33.20000
H  22.45600 1.39200 26.90400
H  28.89800 0.79800 27.55700
H  26.08800 0.81200 35.33300
H  23.71900 2.49700 34.99800
H  24.33000 -0.12200 36.16100
H  23.00800 -0.38400 35.07000
H  22.74500 0.91100 36.21200
H  25.51700 3.92400 35.38700
H  27.01700 3.33700 34.69400
H  27.94500 2.89000 36.69200
H  26.55500 2.04400 37.18500
H  18.76200 0.85900 31.17700
H  19.78800 2.05900 32.13800
H  19.99000 0.42500 32.30000
H  18.56600 2.46400 29.32100
H  17.99900 0.84300 29.29800
H  17.89800 1.81300 27.81600
H  24.79100 2.00800 25.26700
H  26.82600 0.15700 25.41800
H  23.46800 -0.54400 25.37900
H  25.02000 -0.92700 24.79500
H  24.06700 0.40300 23.97200
H  26.99700 2.02600 24.08400
H  28.29300 2.07600 25.16400
H  26.09900 3.72100 26.36600
H  26.23700 3.99700 24.65600
H  27.61200 4.35500 25.62900
H  30.72700 1.16300 28.56300
H  30.86600 -0.56700 29.03500
H  31.50900 0.77100 30.09900
H  29.04800 2.22600 34.20000
H  29.95800 -0.31900 37.21200
H  28.13700 -0.25100 37.25800
H  29.06500 0.95200 38.12700
Mg -11.65500 37.46300 41.77400
C  -9.24000 35.07900 40.71500
C  -9.69200 39.82000 40.20300
C  -14.15500 39.50300 42.10900
C  -13.58000 34.74100 42.83500
N  -9.64700 37.41400 40.49100
C  -8.92000 36.36900 40.25800
C  -7.64700 36.74400 39.50900
C  -7.59800 38.27300 39.56700
C  -8.99800 38.55200 40.19700
C  -6.37300 38.88600 40.35000
C  -7.39800 36.11700 38.10600
C  -5.96200 35.75800 37.62800
H  -5.25100 36.73700 36.67000
N  -11.90600 39.44300 41.28300
C  -10.99800 40.24200 40.66800
C  -11.58800 41.54200 40.51600
C  -12.86200 41.52500 41.13100
C  -13.01000 40.11500 41.56300
C  -10.95800 42.69100 39.87400
C  -13.73500 42.67800 41.41900
O  -13.42900 43.77300 40.88400
C  -14.95500 42.74100 42.29800
N  -13.63900 37.14500 42.30700
C  -14.43100 38.20200 42.53800
C  -15.82400 37.77200 42.92000
C  -15.71600 36.18500 43.08800
C  -14.19400 35.99700 42.66900
C  -16.39200 38.44000 44.16000
C  -16.65800 35.35200 42.11000
C  -18.06300 35.18800 42.72700
N  -11.43700 35.37400 41.88700
C  -12.31400 34.38000 42.42900
C  -11.67500 33.07600 42.38700
C  -10.46300 33.28700 41.68900
C  -10.38000 34.65000 41.37100
C  -12.13500 31.88200 42.98600
C  -9.21200 32.67000 41.22000
O  -8.82900 31.51700 41.33200
C  -8.33900 33.81300 40.71000
C  -7.01000 33.90600 41.49800
O  -5.97600 33.28800 41.21800
O  -7.04400 34.86600 42.51300
C  -5.75700 35.23400 43.16300
H  -9.13000 40.66700 39.80300
H  -15.02900 40.15300 42.19700
H  -14.22000 33.94100 43.21100
H  -6.86200 36.47900 40.21700
H  -7.48600 38.73300 38.58500
H  -5.56000 39.08400 39.65100
H  -6.02400 38.32500 41.21700
H  -6.76600 39.83600 40.71300
H  -7.74200 36.67900 37.23700
H  -7.90700 35.15600 38.03900
H  -5.92400 34.76300 37.18500
H  -5.30600 35.68300 38.49500
H  -9.98300 42.44500 39.45400
H  -10.80200 43.46300 40.62700
H  -11.60800 43.06000 39.08000
H  -14.89500 42.11400 43.18700
H  -15.78600 42.39400 41.68400
H  -15.20400 43.77400 42.54100
H  -16.51900 38.09800 42.14600
H  -15.85500 35.90500 44.13200
H  -16.86900 39.40000 43.96300
H  -15.50300 38.55100 44.78100
H  -17.15700 37.89400 44.71200
H  -16.35900 34.34200 41.82800
H  -16.69300 35.89400 41.16500
H  -18.12500 35.74800 43.66000
H  -18.27300 34.15000 42.98400
H  -18.79400 35.48500 41.97500
H  -12.25300 32.06100 44.05500
H  -11.58000 30.95400 42.84700
H  -13.10200 31.68300 42.52300
H  -8.00600 33.65900 39.68400
H  -5.00000 35.56300 42.45000
H  -5.44800 34.34500 43.71300
H  -5.89100 36.02600 43.89900

