158

Mg 16.29800 -1.70700 27.74300
C  15.46500 0.48700 30.40300
C  18.26200 -3.44600 29.97000
C  17.66200 -3.37500 25.15000
C  14.36400 0.40200 25.59600
N  16.83400 -1.44500 29.96100
C  16.30600 -0.52700 30.84400
C  16.69100 -0.89700 32.34300
C  17.82500 -2.06700 32.14900
C  17.62500 -2.38400 30.59000
C  19.30200 -1.67600 32.42300
C  15.40000 -1.32200 33.19100
C  15.25600 -0.77500 34.58900
H  16.45700 -0.31600 35.42300
N  17.63300 -3.31200 27.62500
C  18.29300 -3.89200 28.66500
C  19.06500 -4.96100 28.16300
C  18.87800 -4.97600 26.67300
C  18.05100 -3.83100 26.43600
C  20.04600 -5.60900 28.94400
C  19.51400 -5.93800 25.65200
O  19.23100 -5.83700 24.46500
C  20.38900 -7.06900 26.15800
N  16.26900 -1.37000 25.68800
C  16.79100 -2.33300 24.85000
C  16.46400 -1.99100 23.39800
C  15.39200 -0.87400 23.56700
C  15.25800 -0.58000 25.05400
C  17.77500 -1.54200 22.61600
C  14.05300 -1.13500 22.79100
C  14.06500 -0.43300 21.43300
N  15.09900 -0.05200 27.89100
C  14.35300 0.71100 26.96000
C  13.57400 1.70400 27.59900
C  14.02900 1.66600 28.91700
C  14.94100 0.60900 29.04500
C  12.67700 2.64700 26.84000
C  13.85500 2.36100 30.18300
O  13.17300 3.32000 30.50300
C  14.64100 1.51500 31.28100
C  15.51500 2.46500 32.18800
O  16.67600 2.76800 31.99300
O  14.81100 2.94700 33.17300
C  15.45300 3.97500 34.01500
H  18.78400 -4.01000 30.74600
H  18.17700 -3.70200 24.24400
H  13.84400 1.07000 24.90500
H  17.06300 -0.07900 32.96100
H  17.58400 -2.98700 32.68100
H  19.68800 -2.32400 33.21000
H  19.16000 -0.66300 32.79700
H  19.92800 -1.68300 31.53000
H  15.24400 -2.39800 33.26800
H  14.59900 -0.82000 32.64800
H  14.75600 -1.47200 35.26200
H  14.52600 0.02500 34.46200
H  20.00300 -5.41700 30.01700
H  21.01700 -5.33700 28.53000
H  19.82500 -6.67200 28.85700
H  20.60800 -7.65500 25.26600
H  19.72500 -7.66900 26.77900
H  21.29900 -6.78300 26.68500
H  16.16600 -2.94500 22.96500
H  15.97300 -0.00600 23.25400
H  18.69400 -1.77600 23.15300
H  17.81800 -0.50100 22.29400
H  17.86300 -2.11700 21.69400
H  13.25400 -0.74900 23.42400
H  14.04700 -2.20200 22.56900
H  13.09400 0.04700 21.30300
H  14.06300 -1.19100 20.65000
H  14.86200 0.30700 21.36100
H  12.41800 3.51400 27.44700
H  11.86500 2.14600 26.31300
H  13.15600 3.06700 25.95600
H  13.95100 0.91700 31.87600
H  15.61000 4.88100 33.42900
H  16.36500 3.57400 34.45700
H  14.83400 4.19400 34.88500
Mg 41.94600 41.86100 27.59100
C  40.83000 44.30900 29.89100
C  42.80000 39.83800 30.17700
C  43.24100 39.74400 25.35100
C  41.39300 44.28200 25.03300
N  41.69100 42.01800 29.76500
C  41.18800 43.12200 30.53000
C  41.21700 42.75800 32.05900
C  42.07200 41.38600 32.06600
C  42.31000 41.07200 30.62100
C  43.34500 41.54500 32.98300
C  39.79000 42.63900 32.73900
C  39.84100 43.17900 34.15900
H  39.39200 42.17500 35.24700
N  42.88600 40.08700 27.67500
C  43.09600 39.32500 28.84800
C  43.43500 37.93800 28.50900
C  43.55400 37.89900 27.10900
C  43.25300 39.28200 26.60700
C  43.69000 36.88700 29.54900
C  43.82300 36.70100 26.19900
O  43.91900 36.77700 24.97000
C  44.14400 35.33300 26.73500
N  42.27000 42.08400 25.54400
C  42.80800 41.04900 24.83200
C  42.80000 41.25500 23.30300
C  41.93200 42.57100 23.24800
C  41.96000 43.06000 24.68900
C  44.23000 41.36400 22.67400
C  40.48700 42.48400 22.62800
C  39.46000 41.82400 23.59400
N  41.37500 43.95100 27.48000
C  41.06000 44.73800 26.34400
C  40.43500 45.93300 26.78200
C  40.33600 45.82300 28.14900
C  40.96700 44.65600 28.53500
C  40.08200 47.18900 25.99100
C  39.87400 46.45700 29.30700
O  39.23800 47.53100 29.42800
C  40.22100 45.48800 30.51700
C  41.15600 46.16700 31.44900
O  42.36100 46.27200 31.31400
O  40.59000 46.51500 32.68200
C  41.53500 46.99200 33.77000
H  42.97500 39.19700 31.04400
H  43.31900 38.99100 24.56400
H  41.04200 45.01000 24.29900
H  41.71400 43.65300 32.43200
H  41.48900 40.58600 32.52200
H  44.08600 40.78700 32.72900
H  43.03400 41.33600 34.00700
H  43.80700 42.53200 32.96600
H  39.37900 41.62900 32.72400
H  38.93300 43.04300 32.20000
H  39.27400 44.11000 34.17800
H  40.85800 43.40500 34.48200
H  43.20000 35.95400 29.27000
H  43.37200 37.23800 30.53000
H  44.75800 36.67500 29.58500
H  45.05400 35.33800 27.33500
H  44.20700 34.59700 25.93400
H  43.21300 35.07700 27.24100
H  42.26400 40.42100 22.85000
H  42.38200 43.33700 22.61700
H  44.85200 41.93300 23.36500
H  44.15500 41.84400 21.69800
H  44.57200 40.34700 22.48400
H  40.55700 41.96200 21.67300
H  40.21700 43.50700 22.36900
H  39.75000 41.83300 24.64400
H  39.29300 40.80300 23.25200
H  38.50100 42.32600 23.46500
H  39.27400 47.05700 25.27100
H  40.92900 47.31200 25.31600
H  40.00100 48.04200 26.66500
H  39.40300 45.11900 31.13500
H  41.13100 47.62000 34.56400
H  42.41000 47.54400 33.42700
H  41.81200 46.13200 34.38000

