158

Mg 40.45000 9.42800 29.18200
C  42.25500 10.59200 31.81400
C  38.19600 7.91100 31.40800
C  38.76500 8.18300 26.56600
C  43.04100 10.51400 26.99500
N  40.26000 9.26100 31.30600
C  41.04300 9.88700 32.20100
C  40.50200 9.82100 33.69000
C  39.35700 8.75200 33.46400
C  39.26900 8.58300 31.94200
C  39.40700 7.44400 34.22900
C  40.14400 11.21200 34.24000
C  40.06800 11.32600 35.76100
H  40.91700 12.38400 36.42900
N  38.70500 8.15100 29.00700
C  37.93200 7.66900 30.03800
C  36.79100 6.96200 29.45600
C  36.83300 7.28600 28.05000
C  38.16300 7.90400 27.84200
C  35.79400 6.20600 30.27500
C  35.84400 7.07100 26.89700
O  36.03100 7.54700 25.79000
C  34.57100 6.33500 27.22200
N  40.88700 9.20900 27.08900
C  39.98300 8.70700 26.22500
C  40.44800 8.88600 24.83300
C  41.81800 9.58100 24.92400
C  41.96600 9.81100 26.44200
C  40.55100 7.52600 24.09400
C  41.90200 10.83900 24.07800
C  40.94200 12.01300 24.52700
N  42.31700 10.37900 29.31800
C  43.21700 10.77500 28.35900
C  44.34300 11.46100 29.00900
C  44.01000 11.39200 30.40400
C  42.75800 10.78800 30.50300
C  45.66300 12.06800 28.51100
C  44.43300 11.68100 31.77700
O  45.41300 12.20200 32.22600
C  43.30300 11.23800 32.78200
C  43.78000 10.31300 33.80000
O  44.37400 9.23900 33.59500
O  43.54700 10.71800 35.09500
C  44.03600 9.85800 36.23800
H  37.47900 7.57200 32.15900
H  38.20600 8.02100 25.64200
H  43.83900 10.76200 26.29200
H  41.17800 9.36600 34.41400
H  38.41100 9.21300 33.74900
H  38.54800 7.42700 34.89900
H  40.35400 7.31300 34.75200
H  39.43300 6.57300 33.57500
H  39.17400 11.38000 33.77400
H  40.83800 11.93500 33.81100
H  40.17400 10.30300 36.12100
H  39.02900 11.60600 35.93500
H  34.82400 6.70000 30.22500
H  36.07800 6.06100 31.31700
H  35.84600 5.32200 29.63900
H  34.11500 7.01400 27.94300
H  34.74300 5.30800 27.54300
H  33.99000 6.48100 26.31100
H  39.73200 9.52700 24.31900
H  42.56900 8.86500 24.58800
H  41.58900 7.47200 23.76500
H  39.85100 7.38700 23.27000
H  40.27800 6.70600 24.75900
H  41.53800 10.52700 23.09900
H  42.92600 11.20500 24.15800
H  40.55900 11.94000 25.54500
H  40.09600 12.09200 23.84400
H  41.49400 12.95100 24.48000
H  46.13900 12.49500 29.39300
H  45.52100 12.76000 27.68100
H  46.31800 11.31900 28.06500
H  43.01400 12.13700 33.32700
H  45.05500 9.53200 36.03100
H  43.32900 9.06000 36.46200
H  44.06000 10.44900 37.15300
Mg 42.39700 41.69400 26.14000
C  41.79000 44.03300 28.62000
C  43.59100 39.51500 28.54700
C  43.24600 39.62800 23.55400
C  41.55900 44.12700 23.70100
N  42.44600 41.72100 28.35800
C  42.26700 42.80200 29.18200
C  42.34900 42.41900 30.67500
C  43.28200 41.16700 30.57500
C  43.01100 40.72800 29.06400
C  44.74100 41.25700 30.99500
C  40.99500 42.27300 31.48000
C  40.60000 43.34700 32.48400
H  41.50300 43.61800 33.71600
N  43.24500 39.81200 26.13000
C  43.66100 39.10100 27.18000
C  44.10200 37.82500 26.66800
C  43.97600 37.79600 25.26500
C  43.43200 39.12100 24.86300
C  44.63100 36.74000 27.58400
C  44.33500 36.69400 24.27600
O  44.07000 36.74000 23.04900
C  45.03900 35.39700 24.70600
N  42.25900 41.77700 24.01800
C  42.70000 40.84200 23.16800
C  42.67000 41.30700 21.70500
C  41.78500 42.54000 21.80400
C  41.82100 42.83900 23.32600
C  44.06700 41.54900 21.05300
C  40.29500 42.34400 21.46800
C  39.60200 41.16500 22.09500
N  41.78300 43.60800 26.15400
C  41.60100 44.49800 25.05700
C  41.30700 45.82000 25.59500
C  41.28400 45.59900 27.00900
C  41.64700 44.27200 27.28200
C  41.04000 47.10100 24.85700
C  41.06500 46.31600 28.27700
O  40.67600 47.46300 28.49600
C  41.32900 45.32300 29.40100
C  42.36100 45.87800 30.34500
O  43.52300 45.53400 30.39700
O  41.81500 46.92600 31.08600
C  42.79800 47.50900 32.02200
H  43.92600 38.77100 29.27200
H  43.55700 39.05200 22.68000
H  41.20200 44.89300 23.01000
H  42.93900 43.17400 31.19400
H  42.94700 40.32600 31.18200
H  45.03800 42.28200 31.21600
H  45.31700 40.74500 30.22400
H  44.89700 40.66300 31.89500
H  40.76000 41.32100 31.95500
H  40.32800 42.32900 30.61900
H  39.57700 43.11900 32.78400
H  40.63200 44.32400 32.00200
H  45.72000 36.70700 27.58200
H  44.28300 35.78800 27.18300
H  44.43900 36.86400 28.64900
H  45.26800 34.91200 23.75600
H  44.43800 34.65400 25.23000
H  45.93200 35.80500 25.17900
H  42.07100 40.49900 21.28800
H  42.23500 43.40000 21.31000
H  44.30200 42.49600 20.56800
H  44.12700 40.75400 20.31000
H  44.87900 41.24600 21.71500
H  40.20000 42.26600 20.38500
H  39.70600 43.23300 21.69600
H  38.65600 41.51100 22.51300
H  40.17200 40.68100 22.88800
H  39.37100 40.44300 21.31200
H  41.44900 47.13700 23.84700
H  41.37900 47.96600 25.42700
H  39.95200 47.16200 24.84000
H  40.37400 45.20300 29.91300
H  43.22600 46.77300 32.70200
H  42.11400 48.11000 32.62100
H  43.58700 48.02100 31.47100

