158

Mg 48.43200 35.35700 27.54200
C  46.43000 33.60100 29.90500
C  48.36300 38.03400 29.49400
C  49.94800 37.02600 25.01900
C  47.97700 32.57400 25.42800
N  47.66300 35.65700 29.59500
C  46.93600 34.83100 30.36800
C  46.90600 35.41700 31.78100
C  47.00500 36.93400 31.49000
C  47.70800 36.89700 30.10500
C  45.67900 37.73900 31.47400
C  48.00100 34.68700 32.69800
C  49.07200 35.52500 33.30300
H  48.82000 36.18400 34.71000
N  49.05400 37.29200 27.29000
C  49.01000 38.27900 28.22300
C  49.71500 39.41400 27.78000
C  50.20800 39.12000 26.45900
C  49.65500 37.78300 26.15300
C  49.92600 40.62800 28.70200
C  51.05500 39.89700 25.52000
O  51.22000 39.59500 24.32300
C  51.57400 41.24000 25.84200
N  48.72500 34.94000 25.54800
C  49.35100 35.82300 24.68700
C  49.54800 35.27200 23.33200
C  48.92800 33.83400 23.39800
C  48.59900 33.73200 24.87600
C  48.82500 36.14300 22.26500
C  49.91800 32.61700 22.99300
C  49.41100 31.67500 21.90700
N  47.50000 33.43700 27.57600
C  47.44100 32.42000 26.66700
C  46.66700 31.28600 27.19100
C  46.14100 31.79900 28.45300
C  46.77500 33.07600 28.61200
C  46.30300 29.96700 26.51400
C  45.38400 31.42700 29.58400
O  44.73000 30.42400 29.77200
C  45.37500 32.67400 30.45800
C  45.52400 32.27500 31.86600
O  46.57400 31.81300 32.39600
O  44.47700 32.79600 32.54500
C  44.59800 32.82700 34.01700
H  48.40800 38.86800 30.19700
H  50.51700 37.48600 24.20800
H  47.86000 31.69600 24.78900
H  45.99900 35.03400 32.25000
H  47.65300 37.40900 32.22700
H  45.78100 38.36300 30.58600
H  45.61600 38.50400 32.24800
H  44.75800 37.15600 31.45400
H  48.53400 33.91100 32.14700
H  47.48200 34.27300 33.56200
H  49.42300 36.34600 32.67700
H  49.95700 34.89200 33.23800
H  49.23800 41.41300 28.39000
H  50.91200 41.03300 28.47300
H  49.90400 40.47000 29.78000
H  52.09900 41.32000 26.79400
H  50.84700 42.04300 25.72200
H  52.31300 41.54200 25.10000
H  50.61400 35.12300 23.16300
H  47.96900 33.80100 22.88200
H  48.18400 36.93700 22.64700
H  48.11000 35.60800 21.64000
H  49.64900 36.56500 21.68900
H  50.19100 32.00200 23.85100
H  50.83000 33.02500 22.55700
H  49.90000 31.85900 20.95000
H  48.33000 31.77000 21.80500
H  49.62900 30.65200 22.21600
H  46.87800 29.17500 26.99200
H  46.54300 29.94400 25.45100
H  45.25500 29.85100 26.79000
H  44.43100 33.17600 30.24700
H  43.67300 32.50800 34.49800
H  44.90900 33.81900 34.34400
H  45.28300 32.12500 34.49300
Mg 26.81900 50.30200 26.65700
C  24.70600 51.68400 29.17500
C  29.16500 49.76200 29.12000
C  29.03100 49.36200 24.27900
C  24.64500 51.61500 24.13300
N  26.82400 50.65200 28.94100
C  25.86500 51.16500 29.70800
C  26.20400 50.91900 31.13700
C  27.75800 50.46000 31.12500
C  27.95000 50.28800 29.67600
C  28.80500 51.36600 31.78800
C  25.31000 49.74100 31.83200
C  24.45200 50.18500 33.08200
H  24.56400 49.27800 34.29900
N  28.75200 49.60700 26.76600
C  29.65000 49.42800 27.83300
C  30.90600 48.91200 27.40800
C  30.84900 48.88200 26.03200
C  29.49600 49.23700 25.64600
C  32.00700 48.54400 28.39800
C  31.98500 48.57300 24.98300
O  31.85900 48.69000 23.77400
C  33.27300 48.14900 25.48700
N  26.70500 50.24400 24.48600
C  27.78200 49.74700 23.73800
C  27.37300 49.71700 22.26000
C  25.98800 50.51600 22.22500
C  25.73700 50.85800 23.71100
C  28.57300 50.25400 21.30400
C  24.80300 49.76900 21.57700
C  23.78800 50.67100 20.82100
N  25.07300 51.35200 26.65500
C  24.26100 51.80000 25.55600
C  23.03000 52.39700 26.08300
C  23.17400 52.32500 27.50300
C  24.47100 51.75700 27.78100
C  21.91000 52.98100 25.20000
C  22.57000 52.74300 28.72600
O  21.52600 53.34800 28.98000
C  23.44400 52.21400 29.87900
C  23.76100 53.27500 30.84900
O  24.60500 54.13800 30.74400
O  22.92300 53.14300 31.92800
C  23.27900 53.93700 33.15700
H  29.94400 49.43100 29.81100
H  29.68800 48.97200 23.49900
H  24.02500 52.06800 23.35700
H  26.14900 51.85800 31.68700
H  27.94200 49.50300 31.61400
H  29.37400 50.89900 32.59200
H  28.23000 52.16200 32.26100
H  29.45300 51.85500 31.06100
H  25.96600 48.97000 32.23700
H  24.65900 49.26500 31.09900
H  23.39100 50.29300 32.85900
H  24.78800 51.15700 33.44100
H  31.76900 48.82000 29.42500
H  32.95400 49.08200 28.35700
H  32.17300 47.46700 28.35400
H  33.94100 48.15700 24.62600
H  33.20200 47.14100 25.89500
H  33.70700 48.74700 26.28800
H  27.24100 48.65000 22.08200
H  26.08800 51.46700 21.70200
H  29.41100 50.56600 21.92700
H  28.22400 51.13700 20.76900
H  28.80600 49.42300 20.63700
H  24.23000 49.23600 22.33500
H  25.29200 48.99200 20.98900
H  23.68400 50.33100 19.79100
H  24.19400 51.68200 20.78200
H  22.81600 50.73200 21.31200
H  22.41100 53.71400 24.56800
H  21.12300 53.46600 25.77700
H  21.37500 52.23100 24.61700
H  22.99000 51.41900 30.47100
H  23.72400 53.32600 33.94200
H  22.36100 54.35800 33.56700
H  23.91900 54.77800 32.89000

