158

Mg -2.03100 16.22900 26.06700
C  -2.48000 14.24400 28.84300
C  -2.76500 19.02100 27.97700
C  -1.60500 18.26900 23.29800
C  -1.89700 13.49500 23.99500
N  -2.48800 16.55700 28.08200
C  -2.67500 15.62000 29.08500
C  -2.96500 16.22200 30.52100
C  -3.34500 17.67100 30.06000
C  -2.77400 17.76300 28.64300
C  -4.91900 17.86700 30.00000
C  -1.78300 16.15400 31.54000
C  -2.08500 15.27400 32.80000
H  -2.74400 15.98600 33.92200
N  -2.10500 18.32900 25.72000
C  -2.45100 19.28700 26.71700
C  -2.24400 20.62700 26.07600
C  -2.00900 20.39900 24.71100
C  -1.85600 18.93200 24.55000
C  -2.38800 21.91100 26.87300
C  -1.91500 21.38000 23.58000
O  -1.86800 21.05300 22.38800
C  -1.79000 22.87700 23.96500
N  -2.11500 15.95200 23.87200
C  -1.72200 16.95100 22.98400
C  -1.49900 16.33000 21.60100
C  -1.34800 14.78100 21.94000
C  -1.72800 14.73900 23.33800
C  -2.65000 16.59600 20.58900
C  0.13900 14.28600 21.70600
C  1.21700 14.99600 22.46500
N  -2.19900 14.25400 26.30500
C  -2.10200 13.23200 25.38300
C  -2.23700 12.05100 26.08200
C  -2.26400 12.33000 27.47400
C  -2.28000 13.70600 27.56000
C  -2.07600 10.68800 25.34700
C  -2.39100 11.77600 28.78400
O  -2.46700 10.62600 29.15400
C  -2.44200 12.99500 29.77800
C  -1.29000 12.94400 30.77900
O  -0.20500 13.48300 30.52800
O  -1.55700 12.17200 31.85600
C  -0.55500 11.83900 32.76400
H  -3.07300 19.85800 28.60800
H  -1.52900 18.86300 22.38400
H  -1.76200 12.66200 23.30200
H  -3.72500 15.62100 31.02100
H  -2.84600 18.43000 30.66200
H  -5.51400 17.01100 30.31800
H  -5.18900 18.21000 29.00100
H  -5.13900 18.74700 30.60400
H  -1.56800 17.17300 31.85900
H  -0.83100 15.89800 31.07400
H  -1.12400 14.86900 33.11700
H  -2.77500 14.47800 32.52100
H  -2.40000 21.75700 27.95200
H  -3.29600 22.50100 26.75300
H  -1.55900 22.58100 26.64700
H  -1.86200 23.60600 23.15800
H  -0.90500 23.08600 24.56600
H  -2.57000 23.19600 24.65600
H  -0.60900 16.83100 21.21900
H  -1.99300 14.29400 21.20700
H  -2.18900 16.99100 19.68400
H  -3.40000 17.20400 21.09400
H  -3.14300 15.71700 20.17400
H  0.37600 14.41400 20.64900
H  0.29600 13.24900 22.00100
H  1.90400 14.25500 22.87400
H  0.76800 15.62300 23.23500
H  1.71200 15.68600 21.78200
H  -1.57000 10.79900 24.38900
H  -3.03500 10.17500 25.27400
H  -1.49900 10.10800 26.06700
H  -3.41500 12.91500 30.26300
H  0.18700 11.29100 32.18400
H  -1.02000 11.16900 33.48800
H  -0.12800 12.67100 33.32500
Mg 6.74700 56.51400 41.83000
C  5.94100 53.10000 41.35500
C  9.79800 55.94700 40.29400
C  7.20200 59.84600 41.60300
C  3.39600 56.94400 42.87200
N  7.72900 54.74500 40.91800
C  7.16700 53.46600 40.74700
C  8.11900 52.48800 40.02600
C  9.43800 53.38600 40.09600
C  8.97500 54.81300 40.43200
C  10.50500 52.91900 41.11300
C  7.67700 52.14200 38.58900
C  8.24400 50.78700 38.12000
H  7.51900 50.11900 36.94400
N  8.28000 57.71700 41.13300
C  9.45100 57.28800 40.54100
C  10.28500 58.44800 40.27700
C  9.59800 59.56400 40.70000
C  8.33200 59.06700 41.20000
C  11.67000 58.36600 39.68800
C  10.12600 61.03500 40.62800
O  11.28400 61.22600 40.17300
C  9.40600 62.21900 41.17800
N  5.36900 58.16200 41.94200
C  5.91100 59.47300 42.02600
C  4.77500 60.47000 42.23900
C  3.74500 59.53500 42.92800
C  4.15700 58.09000 42.52700
C  5.11800 61.86500 42.85300
C  2.26400 59.79100 42.52700
C  1.33400 60.08200 43.73000
N  5.03900 55.30500 42.08000
C  3.78800 55.61900 42.66500
C  3.12600 54.34500 43.06000
C  3.91600 53.34900 42.54300
C  5.10500 53.95800 41.97000
C  1.76200 54.25000 43.61800
C  4.02900 51.91100 42.37500
O  3.24400 51.05700 42.70400
C  5.37700 51.67000 41.57600
C  4.89700 51.01200 40.36600
O  4.10100 51.43100 39.58200
O  5.33900 49.74500 40.34900
C  4.75300 48.82900 39.43600
H  10.73700 55.71100 39.78900
H  7.21000 60.91900 41.40100
H  2.48100 57.17800 43.41900
H  8.22400 51.64100 40.70400
H  10.02800 53.30800 39.18300
H  11.48900 52.83900 40.65000
H  10.24700 51.90300 41.41000
H  10.53000 53.46300 42.05700
H  8.03400 52.96400 37.96800
H  6.59800 52.10000 38.43500
H  8.00400 50.13000 38.95600
H  9.33000 50.88000 38.09000
H  11.90500 57.41700 39.20700
H  12.44900 58.55300 40.42700
H  11.82300 59.02300 38.83100
H  9.13000 61.98900 42.20800
H  8.53400 62.47300 40.57700
H  10.03600 63.10200 41.07300
H  4.39800 60.67500 41.23700
H  3.98400 59.79100 43.96000
H  4.26700 62.28700 43.38800
H  5.42000 62.49700 42.01800
H  6.00200 61.58100 43.42300
H  2.02500 58.95400 41.87200
H  2.19900 60.68400 41.90400
H  0.93400 61.09100 43.82600
H  1.91800 60.03000 44.64900
H  0.49000 59.39500 43.79300
H  1.14800 53.55300 43.04800
H  1.29600 55.23200 43.54500
H  1.89400 53.92100 44.64900
H  6.04200 51.10300 42.22700
H  5.13400 49.08200 38.44700
H  3.67200 48.95900 39.37700
H  5.06400 47.81700 39.69700

