158

Mg 55.12500 25.23100 44.15200
C  52.35000 27.54400 43.55600
C  53.21600 22.86700 42.46700
C  57.83200 23.60300 43.62000
C  56.91000 28.11500 45.02900
N  53.16000 25.32400 42.97300
C  52.16800 26.32000 42.94000
C  50.85300 25.83000 42.28600
C  51.11100 24.27000 42.47100
C  52.60000 24.10800 42.62300
C  50.30400 23.47000 43.51700
C  50.57900 26.48300 40.83700
C  50.77900 25.64600 39.60900
H  52.20400 25.29700 39.21800
N  55.45800 23.37700 43.34800
C  54.58700 22.53300 42.64700
C  55.29100 21.31100 42.45500
C  56.66900 21.54600 42.80000
C  56.75800 22.91500 43.23600
C  54.57700 20.12200 41.84400
C  57.68500 20.49000 42.71700
O  57.46000 19.35600 42.17000
C  59.12600 20.59400 43.21900
N  57.10000 25.82200 44.17300
C  58.04600 24.89500 44.04300
C  59.46100 25.53300 44.13400
C  59.16900 26.99900 44.56700
C  57.64100 26.99300 44.63400
C  60.37200 24.71100 45.11800
C  59.62900 28.11400 43.53000
C  58.65900 28.64400 42.43100
N  54.67800 27.42600 44.56400
C  55.51200 28.41800 44.97400
C  54.72700 29.58000 45.10000
C  53.44500 29.27200 44.60800
C  53.53800 27.95800 44.18700
C  55.12900 30.92700 45.60800
C  52.11900 29.83300 44.40600
O  51.58700 30.89400 44.71400
C  51.40100 28.77300 43.64400
C  51.13500 29.35900 42.37700
O  51.98800 29.70600 41.58800
O  49.76200 29.51700 42.16300
C  49.26500 30.26700 40.98500
H  52.59600 22.05200 42.08800
H  58.77100 23.05300 43.52000
H  57.64300 28.86700 45.32700
H  50.15800 26.18500 43.04700
H  50.82700 23.70400 41.58400
H  49.73900 24.24000 44.04300
H  50.89400 22.88200 44.22000
H  49.52700 22.81100 43.13200
H  51.36200 27.24100 40.83700
H  49.56200 26.87200 40.78300
H  50.43200 26.18900 38.72900
H  50.15200 24.75400 39.59500
H  55.21700 19.41700 41.31200
H  53.70100 20.36100 41.24100
H  54.04000 19.62500 42.65200
H  59.41000 19.58100 43.50300
H  59.01000 21.10800 44.17300
H  59.77700 21.03000 42.46000
H  60.00800 25.60700 43.19400
H  59.52500 27.27000 45.56100
H  61.17800 25.35400 45.47100
H  60.98500 23.91000 44.70300
H  59.80200 24.20600 45.89800
H  60.46300 27.76000 42.92400
H  59.90500 28.94500 44.18000
H  58.06900 27.79200 42.09300
H  59.25400 28.91500 41.56000
H  58.04400 29.42400 42.88000
H  54.26400 31.20600 46.21000
H  55.13800 31.65000 44.79300
H  56.03600 30.92900 46.21400
H  50.45300 28.56200 44.13900
H  49.43100 29.57200 40.16200
H  49.78600 31.20500 40.79500
H  48.29900 30.77300 40.97200
Mg -12.18400 38.72000 41.36700
C  -9.86600 36.08900 40.58200
C  -9.89700 40.94800 39.69200
C  -14.47700 41.17300 41.29800
C  -14.51500 36.47500 42.18800
N  -10.09900 38.45700 40.14600
C  -9.38500 37.31600 40.04300
C  -8.12300 37.51700 39.17500
C  -8.08600 39.08900 39.00800
C  -9.45600 39.58500 39.66300
C  -6.79600 39.80600 39.55100
C  -8.15400 36.80100 37.78400
C  -7.00600 35.89200 37.42300
H  -5.90600 36.51000 36.56400
N  -12.12900 40.84700 40.79800
C  -11.04900 41.51300 40.24700
C  -11.44100 42.89100 40.02000
C  -12.79700 43.01500 40.38600
C  -13.22900 41.66200 40.85000
C  -10.54300 43.92800 39.33100
C  -13.63800 44.29600 40.36500
O  -13.05400 45.28500 40.00700
C  -15.09900 44.41400 40.76000
N  -14.12700 38.80000 41.65300
C  -14.83700 39.91400 41.73300
C  -16.23100 39.67600 42.26000
C  -16.30100 38.15100 42.28100
C  -14.90300 37.77800 42.08000
C  -16.48600 40.51300 43.48800
C  -17.30100 37.46900 41.34300
C  -18.15100 36.29700 41.94700
N  -12.16000 36.74100 41.54100
C  -13.21800 35.92100 41.92700
C  -12.75700 34.61400 42.15100
C  -11.45400 34.66900 41.55800
C  -11.14100 35.99200 41.20700
C  -13.47700 33.48700 42.81100
C  -10.30700 33.82500 41.26800
O  -10.11700 32.61200 41.53200
C  -9.28900 34.72400 40.65600
C  -7.98600 34.47800 41.42300
O  -7.27000 33.52900 41.27200
O  -7.77100 35.45100 42.37100
C  -6.73100 35.09000 43.26100
H  -9.24700 41.58400 39.08700
H  -15.33300 41.85000 41.30700
H  -15.34000 35.79200 42.40100
H  -7.29600 37.16500 39.79200
H  -8.17500 39.38300 37.96300
H  -6.23600 39.12700 40.19300
H  -6.92700 40.72000 40.13100
H  -6.09800 40.11200 38.77100
H  -8.42000 37.44500 36.94500
H  -8.98900 36.11900 37.93800
H  -7.22800 34.97300 36.88100
H  -6.51400 35.65100 38.36500
H  -11.07900 44.65900 38.72500
H  -9.81100 43.39200 38.72700
H  -9.87100 44.29200 40.10900
H  -15.41300 45.45300 40.65400
H  -15.27900 44.26100 41.82400
H  -15.84900 43.80900 40.25000
H  -16.92700 39.93900 41.46400
H  -16.62200 37.90500 43.29300
H  -15.62400 41.16600 43.62800
H  -16.60100 39.95600 44.41700
H  -17.35600 41.13400 43.27300
H  -16.65900 37.13700 40.52800
H  -17.92000 38.23400 40.87500
H  -19.13200 36.27800 41.47200
H  -18.28000 36.45900 43.01700
H  -17.65700 35.34000 41.78300
H  -12.71700 32.84300 43.25400
H  -14.14000 33.07400 42.05100
H  -13.94700 33.98100 43.66100
H  -9.10500 34.46200 39.61400
H  -5.81200 34.91300 42.70100
H  -6.91400 34.17400 43.82200
H  -6.65400 35.90100 43.98500

