158

Mg 24.37000 -4.79500 45.40900
C  26.35100 -2.70700 43.60300
C  21.73400 -4.12600 43.35600
C  22.89400 -7.65000 46.52700
C  27.30900 -5.84400 47.17600
N  24.16200 -3.64800 43.55000
C  25.05800 -2.78100 43.03900
C  24.42800 -1.96200 41.86400
C  22.93400 -2.31500 42.01600
C  22.91300 -3.39100 43.10800
C  22.04200 -1.14100 42.43400
C  25.10100 -2.29100 40.47900
C  25.72400 -1.12100 39.65300
H  25.34400 -0.82700 38.18400
N  22.65000 -5.72100 45.02200
C  21.65100 -5.26700 44.14400
C  20.54300 -6.16200 44.15000
C  20.78100 -7.10300 45.16500
C  22.17200 -6.83000 45.60800
C  19.43800 -6.03900 43.11800
C  19.76300 -8.13200 45.56200
O  18.59200 -8.19600 45.11700
C  20.11000 -9.08000 46.62700
N  24.96200 -6.52100 46.78600
C  24.19200 -7.57600 47.00900
C  24.99200 -8.72000 47.81400
C  26.36400 -8.02300 48.12500
C  26.27700 -6.75500 47.24500
C  24.17400 -9.16500 49.11400
C  27.68200 -8.83400 47.93800
C  28.69800 -8.69200 49.06600
N  26.42800 -4.32700 45.54900
C  27.46900 -4.72700 46.35700
C  28.64700 -3.89200 46.15900
C  28.19700 -3.08600 45.01300
C  26.87600 -3.41500 44.68900
C  29.91200 -3.88800 47.03300
C  28.69400 -2.06600 44.10100
O  29.72300 -1.44300 44.07700
C  27.45100 -1.72000 43.14900
C  27.02200 -0.34700 43.36600
O  26.37400 0.12000 44.29100
O  27.50200 0.49500 42.37200
C  27.32100 1.96800 42.54200
H  20.78800 -3.94500 42.84000
H  22.54700 -8.64500 46.81200
H  28.19000 -6.11000 47.76500
H  24.67500 -0.97400 42.25300
H  22.52700 -2.76800 41.11200
H  22.49400 -0.20500 42.10400
H  21.85300 -1.22100 43.50400
H  21.09300 -1.29400 41.91900
H  24.35800 -2.78300 39.85100
H  25.84400 -3.06700 40.65800
H  26.76400 -1.41600 39.51400
H  25.56800 -0.19400 40.20400
H  19.81400 -5.69600 42.15400
H  18.66000 -5.35200 43.44900
H  18.91400 -6.98200 42.96000
H  19.22300 -9.59400 46.99800
H  20.62400 -8.56700 47.44000
H  20.75100 -9.84700 46.19100
H  25.18100 -9.64300 47.26600
H  26.28000 -7.70600 49.16500
H  23.13300 -8.92400 48.89600
H  24.43800 -8.53200 49.96100
H  24.32500 -10.21600 49.36100
H  28.17000 -8.45200 47.04200
H  27.49900 -9.89900 47.79600
H  29.45200 -8.00900 48.67500
H  29.19900 -9.63900 49.26500
H  28.26900 -8.43800 50.03500
H  30.49900 -4.71700 46.63900
H  29.69300 -4.28500 48.02500
H  30.38200 -2.90500 47.03000
H  27.55800 -1.91100 42.08100
H  27.42500 2.29100 43.57800
H  26.35700 2.27000 42.13100
H  28.16500 2.37300 41.98300
Mg 42.87000 41.93800 26.36800
C  42.04800 44.28500 28.82100
C  44.15500 39.93900 28.75400
C  44.09700 39.84400 23.98600
C  42.47900 44.39800 23.96600
N  43.13300 42.21900 28.61900
C  42.60600 43.15000 29.43400
C  42.61500 42.68600 30.87900
C  43.45200 41.35600 30.81200
C  43.64100 41.20900 29.28900
C  44.84000 41.42400 31.49600
C  41.24200 42.61700 31.65200
C  41.42900 41.81000 32.97200
H  40.59700 42.12800 34.15100
N  43.92500 40.16500 26.41400
C  44.36000 39.53500 27.47800
C  44.99600 38.31000 27.07900
C  44.80500 38.14200 25.67600
C  44.23100 39.41400 25.26800
C  45.58700 37.32200 28.09100
C  45.11200 36.97300 24.77400
O  45.01400 37.07900 23.54600
C  45.62500 35.68100 25.30800
N  43.12900 42.05700 24.31400
C  43.62900 41.07600 23.52400
C  43.62700 41.48900 22.05400
C  42.96700 42.82600 22.11100
C  42.79800 43.11300 23.52000
C  45.00400 41.35700 21.34300
C  41.66200 42.89300 21.31800
C  40.37600 42.32700 22.04100
N  42.21200 43.85500 26.32200
C  42.11700 44.73500 25.24900
C  41.55000 45.98200 25.75900
C  41.45500 45.78700 27.16200
C  41.93600 44.55800 27.43800
C  41.28500 47.20400 24.84600
C  41.02000 46.35200 28.44800
O  40.51100 47.41700 28.67300
C  41.40600 45.47400 29.55700
C  42.32400 46.21900 30.34800
O  43.50000 46.54600 30.05400
O  41.82400 46.18700 31.63800
C  42.77800 46.16900 32.77600
H  44.36300 39.14500 29.47300
H  44.39100 39.20900 23.14800
H  42.13800 45.09400 23.19600
H  43.12600 43.49800 31.39500
H  43.02600 40.41900 31.17000
H  45.58800 41.10800 30.76900
H  44.85100 40.79800 32.38900
H  45.05200 42.38600 31.96200
H  40.52600 42.11000 31.00400
H  40.96600 43.62400 31.96200
H  42.40800 41.90900 33.44200
H  41.27200 40.74700 32.79000
H  45.02900 36.39300 28.21100
H  45.79700 37.73600 29.07800
H  46.50900 36.95300 27.64300
H  45.77700 35.02400 24.45100
H  44.95700 35.41900 26.12800
H  46.62900 35.97700 25.61200
H  42.96700 40.79400 21.53500
H  43.60500 43.57100 21.63600
H  45.08900 40.60000 20.56300
H  45.80900 41.26400 22.07200
H  45.21500 42.27900 20.80100
H  41.79600 42.37800 20.36700
H  41.50300 43.93600 21.04500
H  40.49700 41.70100 22.92500
H  39.88600 41.56100 21.43900
H  39.67000 43.11500 22.30500
H  41.32200 48.10500 25.45900
H  40.37100 47.02100 24.28100
H  42.08300 47.08100 24.11400
H  40.50500 45.24000 30.12600
H  43.75000 45.79300 32.45800
H  42.51600 45.45000 33.55200
H  42.80600 47.11500 33.31800

