158

Mg 49.78800 45.81600 42.80600
C  46.35600 45.89100 42.45100
C  49.73800 42.29800 42.15700
C  53.14400 45.87200 42.16500
C  49.77000 49.38400 42.90400
N  48.20900 44.32000 42.27100
C  46.87500 44.60800 42.17000
C  46.06700 43.34400 41.84200
C  47.14400 42.26100 41.96400
C  48.49100 42.96600 42.09900
C  46.85500 41.14400 42.97800
C  45.34900 43.36000 40.51200
C  46.18900 43.81900 39.26400
H  45.99700 43.04400 37.98200
N  51.24300 44.28500 42.46200
C  51.02000 42.89200 42.30700
C  52.28000 42.25200 42.38800
C  53.30600 43.22100 42.21700
C  52.59300 44.54800 42.23200
C  52.30800 40.74200 42.36500
C  54.80000 42.88200 41.90200
O  55.14400 41.71600 41.86500
C  55.77500 43.98400 41.85000
N  51.20500 47.41900 42.41800
C  52.49400 47.15500 42.29000
C  53.40600 48.43000 42.27500
C  52.31400 49.52200 42.42100
C  51.00900 48.73400 42.59900
C  54.54300 48.38400 43.30700
C  52.17000 50.50600 41.20000
C  52.05000 52.02500 41.36200
N  48.34800 47.30900 42.79100
C  48.51900 48.71100 42.94900
C  47.14400 49.25200 43.13000
C  46.30800 48.17700 42.83000
C  47.06300 47.07500 42.70100
C  46.70900 50.61100 43.58200
C  44.92300 47.76800 42.53100
O  43.91200 48.45700 42.52600
C  44.97100 46.27300 42.17900
C  43.99800 45.56400 43.00100
O  42.98100 45.04500 42.57500
O  44.33000 45.51100 44.32600
C  43.32000 44.82000 45.20300
H  49.70700 41.21000 42.06000
H  54.22200 45.85400 41.99200
H  49.67100 50.47100 42.94400
H  45.32300 43.20200 42.62600
H  47.12200 41.78300 40.98500
H  47.66400 41.12700 43.70800
H  46.89800 40.19700 42.44000
H  45.97400 41.32800 43.59300
H  44.50100 44.04000 40.59600
H  44.93200 42.36800 40.33900
H  47.25200 43.86700 39.49900
H  45.90900 44.84700 39.03500
H  53.28700 40.31300 42.58200
H  52.06700 40.26300 41.41600
H  51.59900 40.27200 43.04600
H  55.59100 44.57900 42.74500
H  55.57800 44.51900 40.92100
H  56.76500 43.52900 41.88500
H  53.78200 48.35900 41.25500
H  52.43800 50.10300 43.33400
H  54.62700 49.26700 43.94200
H  55.50900 48.01800 42.96100
H  54.22300 47.55000 43.93100
H  51.27500 50.23700 40.63900
H  53.03200 50.32700 40.55700
H  52.91300 52.59400 41.01500
H  52.02600 52.30200 42.41600
H  51.10000 52.33500 40.92600
H  46.50600 51.17800 42.67300
H  47.46200 51.07700 44.21800
H  45.71600 50.56900 44.02900
H  44.83700 46.20800 41.09900
H  43.27700 45.12900 46.24800
H  43.76900 43.82700 45.16600
H  42.29200 44.80500 44.84200
Mg -10.97100 37.85200 41.42700
C  -8.65400 35.19600 41.27900
C  -8.50500 39.85500 39.96300
C  -13.19600 40.16500 41.12600
C  -13.39900 35.40500 42.40400
N  -8.80100 37.57000 40.60100
C  -8.13200 36.37500 40.71200
C  -7.00100 36.47900 39.70400
C  -6.73800 38.01200 39.67600
C  -8.07500 38.54400 40.15700
C  -5.43000 38.39000 40.47100
C  -7.13000 35.76900 38.40600
C  -6.05700 34.80100 37.86800
H  -5.33800 35.32500 36.56900
N  -10.84100 39.79900 40.80800
C  -9.76200 40.48300 40.22100
C  -10.15600 41.88900 40.04800
C  -11.56200 41.94800 40.28300
C  -11.92900 40.57700 40.77600
C  -9.20400 43.02200 39.65000
C  -12.51500 43.16000 40.12100
O  -11.97200 44.12800 39.69100
C  -14.04100 43.20000 40.18000
N  -13.07800 37.77300 41.81300
C  -13.74900 38.92200 41.60000
C  -15.28000 38.60600 41.62900
C  -15.29000 37.09600 41.97000
C  -13.85900 36.71600 42.08100
C  -16.10200 39.58400 42.54500
C  -16.02100 36.06700 41.13200
C  -17.08100 35.29200 41.90100
N  -11.07700 35.73600 41.82300
C  -12.06800 34.94200 42.35000
C  -11.61400 33.64800 42.56800
C  -10.25900 33.66700 42.10600
C  -9.96500 35.01700 41.73600
C  -12.42200 32.48700 43.12700
C  -9.11400 32.89100 41.93700
O  -8.86000 31.75100 42.21800
C  -8.09500 33.79000 41.20600
C  -6.75700 33.65600 41.83900
O  -5.88000 32.95200 41.36000
O  -6.82100 34.13500 43.15000
C  -5.62200 34.00000 44.00100
H  -7.69000 40.45300 39.54900
H  -13.99700 40.88900 40.95800
H  -14.16000 34.69000 42.72300
H  -6.19900 35.97600 40.24400
H  -6.63100 38.39600 38.66100
H  -4.65600 37.62300 40.47000
H  -5.69900 38.58300 41.51000
H  -5.07800 39.28200 39.95400
H  -7.30900 36.53300 37.65000
H  -8.05600 35.19500 38.41800
H  -6.55100 33.85700 37.63600
H  -5.30100 34.67400 38.64200
H  -8.19600 42.65900 39.45100
H  -9.32900 43.90800 40.27300
H  -9.43700 43.47500 38.68700
H  -14.21700 44.17600 39.72600
H  -14.47100 43.14200 41.18000
H  -14.47700 42.43800 39.53400
H  -15.62000 38.75600 40.60400
H  -15.70000 36.97500 42.97300
H  -16.44200 40.39100 41.89600
H  -15.44800 39.89300 43.36000
H  -16.95900 38.96700 42.81800
H  -15.51500 35.28300 40.56900
H  -16.60100 36.58600 40.36900
H  -18.02200 35.39600 41.36100
H  -17.18400 35.60400 42.94000
H  -16.84600 34.22800 41.89200
H  -13.43400 32.55200 42.72700
H  -12.27800 32.43800 44.20600
H  -11.99300 31.55600 42.75600
H  -8.03600 33.45800 40.16900
H  -5.26800 35.03000 44.03800
H  -4.78800 33.38700 43.65800
H  -5.93100 33.71100 45.00600

