158

Mg 16.45100 -1.84900 27.85600
C  15.28700 0.50900 30.28000
C  18.46000 -3.22900 30.19300
C  17.76300 -3.58100 25.30700
C  14.26900 -0.18200 25.49500
N  16.97400 -1.31000 30.00700
C  16.20800 -0.45500 30.80500
C  16.52400 -0.63100 32.34100
C  17.52900 -1.85000 32.25900
C  17.58100 -2.26600 30.75500
C  18.93100 -1.52800 32.88600
C  15.39900 -0.98400 33.33000
C  15.46600 -0.46700 34.80900
H  16.85000 -0.02200 35.46500
N  17.88500 -3.33400 27.76800
C  18.64500 -3.72500 28.86700
C  19.52900 -4.80400 28.40300
C  19.28700 -4.89300 26.93700
C  18.30900 -3.88600 26.60300
C  20.42100 -5.53000 29.28100
C  19.99000 -5.77000 25.89500
O  19.83200 -5.61100 24.72400
C  21.18400 -6.68000 26.43500
N  15.96600 -1.95600 25.77300
C  16.66900 -2.70900 24.85300
C  16.43100 -2.33600 23.42600
C  15.14400 -1.55600 23.56600
C  15.15000 -1.12100 25.05000
C  17.47900 -1.44100 22.82800
C  13.76400 -2.31400 23.17100
C  12.88200 -3.06900 24.15800
N  14.83000 -0.37600 27.84500
C  14.14000 0.22300 26.80400
C  13.33300 1.34400 27.37900
C  13.72700 1.38900 28.71800
C  14.68900 0.41600 28.95700
C  12.29600 2.26400 26.61400
C  13.50900 2.13200 29.89800
O  12.89200 3.15200 30.11600
C  14.46700 1.58300 30.98900
C  15.25200 2.73200 31.50800
O  16.13400 3.36900 30.94700
O  14.91500 2.97900 32.80000
C  15.79700 3.87700 33.55500
H  19.09700 -3.79900 30.87200
H  18.14300 -4.16900 24.46900
H  13.53700 0.15200 24.75600
H  17.10600 0.25100 32.60900
H  17.22200 -2.74600 32.79900
H  19.66600 -1.85800 32.15200
H  19.15800 -2.21000 33.70500
H  19.00000 -0.48700 33.20100
H  15.25800 -2.05400 33.48700
H  14.50500 -0.63900 32.81200
H  14.95700 -1.10500 35.53200
H  14.84500 0.42800 34.80100
H  20.51100 -6.59600 29.07100
H  20.28600 -5.43100 30.35800
H  21.39200 -5.07300 29.09000
H  21.84900 -6.01700 26.98900
H  21.70200 -7.08400 25.56500
H  20.88800 -7.54200 27.03300
H  16.26700 -3.25400 22.86100
H  15.33200 -0.60700 23.06400
H  18.37400 -1.98100 22.52000
H  17.86000 -0.88100 23.68200
H  17.19600 -0.69500 22.08600
H  14.09600 -3.02500 22.41400
H  13.18600 -1.56600 22.63000
H  13.03700 -2.78700 25.20000
H  13.09100 -4.12400 23.98100
H  11.82100 -2.92300 23.95700
H  11.42900 2.34000 27.26900
H  12.03000 1.92700 25.61200
H  12.72600 3.25200 26.44900
H  13.80100 1.18100 31.75200
H  15.91600 4.83400 33.04700
H  16.73500 3.35700 33.75100
H  15.31200 4.10500 34.50400
Mg 17.14000 51.15000 25.80700
C  18.83200 49.68300 28.59100
C  14.67900 52.06700 27.98800
C  15.41500 52.21400 23.09900
C  19.52100 49.58300 23.68800
N  16.77200 50.79500 28.00100
C  17.62900 50.28400 28.94800
C  17.07400 50.58100 30.34900
C  15.61800 51.00600 30.10800
C  15.70400 51.33500 28.56600
C  14.60000 49.81700 30.38900
C  17.91600 51.57600 31.16100
C  18.42000 51.13000 32.51600
H  17.83300 51.88600 33.72600
N  15.26900 52.02500 25.54200
C  14.41800 52.37500 26.56800
C  13.28500 53.13000 25.97200
C  13.55200 53.21000 24.58800
C  14.77000 52.45500 24.34000
C  12.05900 53.40900 26.65000
C  12.70000 53.94500 23.50300
O  12.92200 53.98100 22.29100
C  11.51200 54.77200 23.93300
N  17.41800 50.79900 23.67500
C  16.58000 51.50200 22.76200
C  17.16400 51.17000 21.37700
C  18.46900 50.31200 21.58600
C  18.49300 50.25600 23.03200
C  16.22400 50.55900 20.42600
C  19.83300 50.80500 20.98400
C  20.12700 50.18300 19.60800
N  18.90200 49.98300 26.06900
C  19.77800 49.42100 25.09600
C  20.87000 48.65400 25.73500
C  20.53000 48.81500 27.10800
C  19.29000 49.50200 27.24100
C  22.04600 47.99300 25.04800
C  20.90600 48.44200 28.51100
O  21.77600 47.63800 28.89100
C  19.81300 49.09500 29.50400
C  19.20500 48.05700 30.37700
O  18.24400 47.30100 30.10700
O  19.83300 48.02500 31.56700
C  19.39200 47.03100 32.53500
H  13.90500 52.49600 28.62800
H  14.86300 52.56200 22.22400
H  20.25300 49.05900 23.06900
H  16.98200 49.59900 30.81200
H  15.31800 51.89200 30.66600
H  14.82100 49.27200 31.30700
H  14.67500 49.18700 29.50400
H  13.54400 50.08300 30.44000
H  17.37100 52.47800 31.43700
H  18.70000 51.98500 30.52300
H  19.47500 51.40200 32.49900
H  18.38500 50.04500 32.60900
H  11.17700 52.92000 26.23600
H  11.91900 54.48800 26.58700
H  12.15700 53.05200 27.67500
H  11.13900 55.33200 23.07600
H  11.88000 55.54200 24.61300
H  10.72100 54.10700 24.27900
H  17.42400 52.14800 20.97200
H  18.34500 49.25500 21.35200
H  16.57600 50.89700 19.45100
H  15.23300 50.91100 20.71300
H  16.27900 49.47900 20.56000
H  20.73800 50.58500 21.55100
H  19.87500 51.88700 20.86200
H  19.35800 49.48000 19.28800
H  21.11700 49.75700 19.45000
H  20.10700 51.03200 18.92500
H  22.57600 48.71200 24.42300
H  21.76600 47.19400 24.36300
H  22.71500 47.67400 25.84700
H  20.06900 49.87500 30.22100
H  19.73800 46.05200 32.20400
H  18.33000 47.08500 32.77500
H  19.89800 47.24200 33.47700

