158

Mg 8.86000 3.33300 27.91200
C  9.91600 1.62100 30.92800
C  7.25800 5.45900 29.76300
C  7.24400 4.28100 25.08300
C  10.23000 0.64000 26.09700
N  8.38700 3.23800 30.04800
C  9.11500 2.77400 31.14300
C  8.90400 3.57400 32.40200
C  7.72500 4.49500 32.00900
C  7.76300 4.40000 30.48100
C  6.34700 4.31200 32.63600
C  10.26900 4.31300 32.86100
C  10.13800 4.85000 34.30300
H  10.99400 4.08500 35.30500
N  7.41600 4.70900 27.50500
C  6.96500 5.59200 28.41800
C  6.15200 6.58000 27.72000
C  6.14500 6.32000 26.28500
C  6.95100 5.06200 26.21400
C  5.44700 7.69000 28.50700
C  5.38900 7.06200 25.19700
O  5.51000 6.68500 24.00500
C  4.67900 8.33100 25.55000
N  8.82900 2.67100 25.88700
C  8.10500 3.22500 24.89400
C  8.46200 2.70500 23.55200
C  9.51700 1.64400 23.88100
C  9.48800 1.59800 25.39000
C  7.21300 2.17600 22.77200
C  10.94700 1.90700 23.33000
C  11.31000 1.08500 22.09300
N  9.97300 1.47500 28.31400
C  10.42700 0.51000 27.45900
C  11.02800 -0.55200 28.29400
C  10.85900 -0.19400 29.63800
C  10.16100 1.05500 29.63100
C  11.78400 -1.69700 27.71300
C  11.16200 -0.47700 31.03800
O  11.83500 -1.31200 31.52300
C  10.63800 0.64800 31.86400
C  9.60700 0.01700 32.75100
O  8.47100 -0.21700 32.37500
O  10.14400 -0.46300 33.85300
C  9.38500 -1.20600 34.82400
H  7.04500 6.37500 30.31800
H  6.69400 4.65700 24.21800
H  10.62600 -0.18200 25.49700
H  8.57300 2.85500 33.15200
H  8.08600 5.50900 32.18100
H  5.67100 3.84900 31.91700
H  6.00800 5.31700 32.88900
H  6.38600 3.74200 33.56400
H  10.40400 5.19000 32.22900
H  11.16600 3.72100 32.68000
H  9.09200 4.98000 34.58100
H  10.57000 5.85000 34.32400
H  5.91000 8.66600 28.35900
H  5.47000 7.57500 29.59000
H  4.36900 7.62900 28.35600
H  3.84100 8.20500 26.23600
H  4.27100 8.83600 24.67500
H  5.41100 9.00700 25.99300
H  8.94200 3.46100 22.93100
H  9.09300 0.65600 23.70200
H  7.10300 1.14200 22.44500
H  7.19300 2.67800 21.80400
H  6.31400 2.57200 23.24300
H  11.75000 1.70900 24.03900
H  10.92200 2.89800 22.87800
H  11.33700 1.60400 21.13500
H  10.52700 0.32700 22.11200
H  12.29200 0.62300 22.19600
H  11.37100 -1.79300 26.70800
H  11.54100 -2.57100 28.31700
H  12.81800 -1.35600 27.66800
H  11.38700 1.01800 32.56500
H  10.16800 -1.82800 35.25800
H  8.63900 -1.77700 34.27100
H  8.94800 -0.47700 35.50700
Mg 53.70300 23.58700 45.20400
C  51.24800 25.71300 43.77200
C  52.07700 20.95500 43.88300
C  56.40300 21.79600 45.48100
C  55.30600 26.52500 46.30400
N  51.93700 23.40200 43.96900
C  51.08300 24.35800 43.55700
C  49.87200 23.76500 42.78000
C  50.00200 22.24900 43.25000
C  51.43400 22.17400 43.67200
C  49.05700 21.87100 44.41600
C  49.99700 23.95100 41.26200
C  48.77700 24.23400 40.36100
H  49.04800 24.49900 38.82600
N  54.17500 21.60400 44.82800
C  53.42200 20.69000 44.22400
C  54.06200 19.35700 44.30600
C  55.32200 19.60300 44.74300
C  55.36500 21.02600 44.95300
C  53.31100 18.06000 44.00800
C  56.39700 18.62200 44.90400
O  56.05800 17.46700 44.65400
C  57.82300 18.95100 45.27000
N  55.55000 24.10700 45.77800
C  56.50400 23.14100 45.89500
C  57.89200 23.80200 46.17000
C  57.48200 25.16100 46.86300
C  56.05000 25.32000 46.27500
C  58.82900 23.00000 47.12000
C  58.42900 26.37500 46.60900
C  58.67800 27.32300 47.69000
N  53.30100 25.67100 45.25200
C  53.96800 26.67600 45.82000
C  53.25000 27.93500 45.68900
C  52.09600 27.57300 44.92200
C  52.26400 26.20400 44.61800
C  53.63500 29.21600 46.33700
C  50.82000 28.03300 44.32900
O  50.23600 29.10000 44.37300
C  50.26800 26.84900 43.57800
C  50.04900 27.22700 42.19400
O  50.88300 27.59100 41.37100
O  48.69500 27.35100 41.95900
C  48.45700 27.80300 40.53000
H  51.46400 20.11800 43.54600
H  57.36000 21.37000 45.79000
H  55.83000 27.40600 46.67900
H  48.99400 24.32400 43.10600
H  49.86000 21.52000 42.45200
H  48.26700 22.62200 44.44200
H  49.53600 21.80000 45.39300
H  48.43000 21.01800 44.15700
H  50.56400 23.06300 40.98200
H  50.67700 24.78600 41.10000
H  48.34900 25.02400 40.97800
H  48.08300 23.39400 40.34500
H  52.30100 18.26700 43.65500
H  53.16700 17.44200 44.89400
H  53.82400 17.49200 43.23200
H  58.23400 19.87500 44.86300
H  58.48300 18.10000 45.09900
H  57.74100 19.10000 46.34700
H  58.43900 23.97300 45.24200
H  57.28100 25.17400 47.93400
H  58.22300 22.19000 47.52700
H  59.28400 23.57300 47.92800
H  59.61700 22.57000 46.50200
H  57.95800 26.95500 45.81500
H  59.39500 26.00300 46.26800
H  59.74200 27.47600 47.86700
H  58.18300 26.97000 48.59500
H  58.15000 28.25600 47.48900
H  52.71900 29.50800 46.85200
H  53.96900 29.99100 45.64700
H  54.41300 29.08900 47.09000
H  49.29400 26.59100 43.99500
H  47.50000 27.41700 40.17800
H  49.13100 27.24200 39.88300
H  48.48800 28.88100 40.37400

