158

Mg 46.53200 24.96300 27.80400
C  47.39500 27.29100 30.30600
C  45.59000 22.82800 30.28000
C  45.94700 22.79200 25.35200
C  47.72000 27.35300 25.47100
N  46.50200 25.03500 30.02300
C  46.89900 26.09400 30.79900
C  46.85000 25.72600 32.34000
C  46.41900 24.24600 32.26600
C  46.13700 24.00000 30.77500
C  47.40300 23.34400 33.07500
C  45.88400 26.67100 33.10300
C  46.44400 27.25900 34.35600
H  45.45600 27.62900 35.45100
N  45.68000 23.08200 27.81600
C  45.39400 22.32300 28.92200
C  44.92200 21.01500 28.50500
C  44.92100 21.08700 27.07900
C  45.60500 22.37400 26.69400
C  44.50200 19.92700 29.49600
C  44.34100 20.08000 26.12800
O  44.55700 20.10700 24.93300
C  43.32000 19.08800 26.57400
N  46.92600 24.98600 25.74500
C  46.65900 23.88400 24.97900
C  46.94500 24.19800 23.48200
C  47.14100 25.69300 23.47700
C  47.21900 26.08800 24.96100
C  48.06600 23.33800 22.81700
C  46.06400 26.55100 22.75700
C  46.46300 27.03200 21.35200
N  47.43300 26.90100 27.81900
C  47.91100 27.73000 26.85100
C  48.48800 28.88500 27.42400
C  48.25700 28.78900 28.78700
C  47.64100 27.58100 28.96200
C  49.25600 29.92500 26.69100
C  48.51400 29.47900 30.09600
O  49.08400 30.51100 30.38400
C  48.05300 28.44900 31.17800
C  49.21900 28.03700 31.92800
O  49.98100 27.17000 31.61700
O  49.23600 28.76300 33.10300
C  50.52000 28.76200 33.87100
H  45.35300 22.12300 31.08000
H  45.80500 22.06500 24.55000
H  48.03000 28.12600 24.76500
H  47.84400 25.80200 32.78200
H  45.42500 24.12200 32.69700
H  48.10900 22.96300 32.33800
H  46.97000 22.47600 33.57300
H  48.04700 23.88100 33.77200
H  45.01200 26.11600 33.45000
H  45.61100 27.53300 32.49500
H  46.86400 28.21500 34.04500
H  47.23900 26.66300 34.80300
H  44.90500 18.96200 29.18900
H  43.43100 19.81600 29.66600
H  44.97900 20.16000 30.44900
H  43.70300 18.50300 27.41100
H  43.06500 18.44600 25.73100
H  42.44700 19.55900 27.02600
H  46.00200 24.08100 22.94800
H  48.13000 25.95400 23.10100
H  48.35500 22.54300 23.50400
H  48.90100 24.01000 22.62200
H  47.81500 22.95800 21.82700
H  45.80800 27.33800 23.46600
H  45.14300 25.97700 22.65700
H  45.72200 26.65600 20.64700
H  47.41900 26.59200 21.06900
H  46.34000 28.11500 21.35200
H  49.90500 30.38700 27.43500
H  48.63400 30.74600 26.33300
H  49.78900 29.47700 25.85200
H  47.32500 28.98400 31.78700
H  50.47800 28.23000 34.82200
H  50.64400 29.81700 34.11500
H  51.41000 28.52800 33.28600
Mg 1.12100 42.30500 26.54400
C  2.57000 42.39500 29.64500
C  -1.71900 41.08500 27.89300
C  0.23100 41.48400 23.47200
C  4.36900 42.96900 25.15500
N  0.55000 41.78100 28.60500
C  1.21200 42.14000 29.74700
C  0.37900 42.01100 30.98000
C  -0.94600 41.30900 30.38100
C  -0.76500 41.38800 28.83600
C  -1.04100 39.75400 30.72500
C  0.05800 43.31600 31.76900
C  0.50800 43.38600 33.22500
H  -0.42700 42.85900 34.32600
N  -0.53800 41.56400 25.78900
C  -1.64900 41.11900 26.49000
C  -2.67100 40.77400 25.52200
C  -2.12600 40.85700 24.22300
C  -0.74700 41.36300 24.46200
C  -4.07000 40.35100 26.00100
C  -2.78800 40.62900 22.91300
O  -2.20700 40.91400 21.86200
C  -4.25400 40.21600 22.80300
N  2.09300 42.45700 24.41000
C  1.51400 41.96300 23.33900
C  2.37700 42.10100 22.05200
C  3.64900 42.67900 22.62300
C  3.39100 42.65400 24.20600
C  2.57400 40.78200 21.19200
C  3.80500 44.13700 22.30500
C  4.40000 44.54300 20.92600
N  3.09100 42.72400 27.20500
C  4.32700 42.87200 26.59600
C  5.36500 43.00100 27.59600
C  4.67800 42.88300 28.83700
C  3.31900 42.70600 28.55300
C  6.84900 43.20000 27.32700
C  4.93800 42.91200 30.13300
O  5.98300 43.07400 30.72700
C  3.58700 42.63000 30.76500
C  3.73900 41.38500 31.61700
O  3.63300 40.25200 31.14400
O  3.90300 41.68900 32.95800
C  3.81900 40.52500 33.86900
H  -2.63800 40.74000 28.37100
H  0.05300 41.15600 22.44600
H  5.35800 43.02700 24.69600
H  0.83700 41.20200 31.54900
H  -1.86500 41.76700 30.74400
H  -1.86400 39.60800 31.42500
H  -0.15900 39.26900 31.14300
H  -1.27000 39.22400 29.80100
H  -0.95500 43.71100 31.69300
H  0.61400 44.05100 31.18800
H  0.81500 44.38400 33.54000
H  1.42000 42.79900 33.11600
H  -4.87200 40.62600 25.31600
H  -4.39300 40.87900 26.89700
H  -4.06800 39.27800 26.19600
H  -4.38700 39.83600 21.79000
H  -5.03400 40.89800 23.14000
H  -4.54800 39.30400 23.32300
H  1.86200 42.84800 21.44800
H  4.50600 42.01300 22.52700
H  3.63300 40.62300 20.98500
H  2.02500 40.93500 20.26300
H  2.13300 39.90900 21.67200
H  4.18900 44.75400 23.11800
H  2.81700 44.59800 22.32600
H  3.62300 44.91100 20.25600
H  4.92800 43.71500 20.45300
H  5.12700 45.32300 21.15100
H  7.29700 42.21400 27.45400
H  7.24400 43.90200 28.06200
H  7.13400 43.58900 26.34900
H  3.29800 43.44500 31.42900
H  4.66900 39.86400 33.70200
H  2.85700 40.04600 33.69000
H  3.83000 40.86100 34.90600

