158

Mg 47.47400 25.30300 28.19900
C  48.64700 27.69700 30.59400
C  46.24600 23.45700 30.79000
C  47.21800 22.77300 26.06500
C  49.57400 26.96500 25.87200
N  47.55000 25.52800 30.40800
C  47.75300 26.71500 31.13000
C  47.33700 26.61900 32.64400
C  46.83600 25.08900 32.74500
C  46.90400 24.65100 31.23200
C  47.76600 24.06400 33.51700
C  46.41300 27.68600 33.28300
C  46.78700 28.09600 34.73900
H  45.81400 28.45500 35.79200
N  46.70000 23.39900 28.38700
C  46.20900 22.80500 29.49900
C  45.64400 21.50300 29.22900
C  45.83800 21.28300 27.80000
C  46.59700 22.48100 27.31900
C  45.14600 20.49600 30.26600
C  45.43100 20.02700 26.93300
O  45.55300 19.96800 25.68000
C  44.61500 19.02900 27.62300
N  48.17900 24.93500 26.26700
C  47.88100 23.88300 25.54200
C  48.41100 23.96400 24.15100
C  48.86200 25.42200 24.00000
C  48.81000 25.79500 25.46500
C  49.49100 22.86900 23.81900
C  48.03000 26.40500 23.10400
C  48.54900 26.44500 21.70500
N  48.83000 27.09300 28.10800
C  49.51600 27.63200 27.10800
C  50.32600 28.76600 27.62500
C  49.99400 28.86600 29.00400
C  49.06900 27.80100 29.25000
C  51.33700 29.58700 26.75300
C  50.21100 29.54900 30.23700
O  50.74800 30.62600 30.42300
C  49.29800 28.87000 31.30800
C  50.18900 28.39100 32.44700
O  50.95700 27.41500 32.43800
O  49.98400 29.20600 33.52900
C  50.71800 28.85000 34.74500
H  45.52300 22.99300 31.46400
H  47.06700 21.92500 25.39400
H  49.98500 27.55100 25.04700
H  48.25100 26.64900 33.23700
H  45.80100 24.99800 33.07500
H  48.50000 24.60000 34.11900
H  48.26900 23.33500 32.88300
H  47.12200 23.57300 34.24700
H  45.38900 27.31300 33.31700
H  46.30400 28.59100 32.68600
H  47.58300 28.84000 34.69700
H  47.22800 27.23500 35.24000
H  44.22700 19.97600 29.99700
H  45.06100 20.92700 31.26300
H  45.86800 19.68100 30.22400
H  45.22700 18.78100 28.49000
H  44.45300 18.14900 27.00200
H  43.69100 19.58900 27.77100
H  47.52300 23.66300 23.59600
H  49.92100 25.38200 23.74100
H  50.41400 23.35700 23.50600
H  49.09200 22.14600 23.10800
H  49.68000 22.27200 24.71100
H  47.86800 27.37900 23.56600
H  47.04000 25.95100 23.14300
H  48.71000 27.51900 21.61100
H  47.74800 26.08300 21.06100
H  49.47700 25.92400 21.47300
H  50.81700 30.23100 26.04300
H  52.06300 28.88000 26.35100
H  51.86700 30.21100 27.47300
H  48.58900 29.59200 31.71300
H  51.72700 28.48200 34.55800
H  50.19900 28.13500 35.38300
H  50.78900 29.75800 35.34400
Mg -11.82200 16.73300 40.71600
C  -8.45600 15.60000 40.48400
C  -10.76000 20.01500 40.05900
C  -14.98000 17.73400 40.44700
C  -12.77300 13.52800 41.36800
N  -9.84900 17.66900 40.24900
C  -8.56600 17.02200 40.16400
C  -7.47600 18.07700 39.91000
C  -8.19800 19.43300 39.67800
C  -9.71700 19.06000 40.03700
C  -7.61100 20.63900 40.43000
C  -6.56700 17.61700 38.58800
C  -5.01400 17.64600 38.84900
H  -4.21700 16.36600 38.79300
N  -12.77400 18.62800 40.35100
C  -12.14800 19.84200 40.21400
C  -13.14400 20.81900 40.17900
C  -14.44900 20.25800 40.40200
C  -14.12000 18.80000 40.37700
C  -12.80700 22.33000 39.87400
C  -15.81400 20.98800 40.68700
O  -15.89400 22.20600 40.57800
C  -16.98000 20.27400 41.40600
N  -13.59300 15.68700 40.52600
C  -14.73200 16.35200 40.53400
C  -15.91100 15.49800 40.98800
C  -15.28700 14.07200 41.09500
C  -13.76600 14.46700 41.06000
C  -16.60500 16.12700 42.23900
C  -15.74700 13.14600 39.87400
C  -16.47800 11.85700 40.31900
N  -10.85100 14.85600 40.96600
C  -11.33800 13.65400 41.27800
C  -10.26000 12.68500 41.49700
C  -9.15100 13.39200 41.17200
C  -9.56500 14.71900 40.81700
C  -10.26600 11.22600 41.85100
C  -7.70900 13.38000 41.10100
O  -6.97200 12.39800 41.25200
C  -7.19000 14.74700 40.62300
C  -6.19700 15.18300 41.62200
O  -6.41400 15.71000 42.66900
O  -4.99000 14.53400 41.36400
C  -3.87100 14.60900 42.38500
H  -10.55600 21.07400 39.89200
H  -16.04100 17.99100 40.47800
H  -13.08100 12.50400 41.58700
H  -6.92400 17.98000 40.84500
H  -8.31900 19.50700 38.59700
H  -6.76800 20.19700 40.96000
H  -8.37000 21.06500 41.08600
H  -7.29900 21.44300 39.76300
H  -6.75300 18.29200 37.75400
H  -6.86600 16.59700 38.34600
H  -4.81100 18.01100 39.85500
H  -4.56200 18.31400 38.11500
H  -13.68000 22.94500 39.65800
H  -12.08400 22.42700 39.06300
H  -12.26300 22.75800 40.71600
H  -17.92900 20.25800 40.87000
H  -17.15700 20.94000 42.25100
H  -16.77700 19.30100 41.85400
H  -16.60700 15.49800 40.14900
H  -15.38300 13.56100 42.05400
H  -16.25000 17.11000 42.54800
H  -16.56300 15.38600 43.03800
H  -17.64400 16.29500 41.95600
H  -14.82600 12.89100 39.35100
H  -16.39600 13.61900 39.13700
H  -15.72900 11.06600 40.27900
H  -17.39400 11.56500 39.80700
H  -16.77900 11.95700 41.36200
H  -11.17800 10.68700 41.59400
H  -10.24400 11.08900 42.93200
H  -9.41000 10.82100 41.31100
H  -6.66900 14.68400 39.66800
H  -3.13300 13.90900 41.99400
H  -4.23900 14.33500 43.37400
H  -3.54500 15.62200 42.62100

