158

Mg 35.83900 48.99400 25.88000
C  35.77100 47.22500 28.93200
C  34.37700 51.67100 27.41700
C  35.84800 50.58700 22.90100
C  37.10100 46.03600 24.31500
N  35.26300 49.35700 28.00600
C  35.42600 48.60300 29.08100
C  35.24200 49.48400 30.38600
C  34.62500 50.81500 29.84200
C  34.74200 50.56400 28.26100
C  33.21600 51.20100 30.31900
C  36.49900 49.56000 31.25300
C  36.33500 48.98400 32.70800
H  34.97600 48.87100 33.35700
N  35.11300 50.87200 25.25000
C  34.59000 51.83100 26.02900
C  34.36600 52.97700 25.22700
C  34.55800 52.55600 23.84000
C  35.23900 51.35500 23.92300
C  33.79300 54.23000 25.87200
C  34.27600 53.21100 22.56300
O  34.76900 52.96900 21.44700
C  33.24200 54.40800 22.61200
N  36.28800 48.39700 23.89800
C  36.34200 49.31600 22.92300
C  36.98700 48.69800 21.63000
C  37.37200 47.27100 22.05600
C  36.87600 47.16700 23.51200
C  36.03800 48.59900 20.44700
C  38.98400 47.07300 21.96000
C  39.77300 47.73600 23.13200
N  36.36900 47.12000 26.44400
C  36.90500 46.05300 25.71300
C  37.13200 44.91700 26.59600
C  36.67500 45.35700 27.83900
C  36.21600 46.66500 27.70900
C  37.62500 43.61400 26.16000
C  36.58200 44.86700 29.19800
O  36.77400 43.79100 29.71300
C  36.00500 46.10000 29.95600
C  34.89100 45.66500 30.82600
O  33.75000 45.60400 30.49700
O  35.37500 45.30500 32.09900
C  34.35000 44.55800 32.83600
H  33.89700 52.54800 27.85400
H  35.95900 51.16400 21.98000
H  37.64400 45.17500 23.91900
H  34.50900 48.97900 31.01500
H  35.23100 51.65900 30.17100
H  32.66900 51.43300 29.40600
H  33.17900 52.09600 30.94100
H  32.75100 50.36700 30.84400
H  36.82000 50.59000 31.40900
H  37.32400 48.98300 30.83400
H  36.98000 49.50200 33.41800
H  36.77000 47.98500 32.73300
H  33.85800 55.11400 25.23700
H  34.41100 54.57200 26.70300
H  32.78000 54.05400 26.23400
H  33.54900 55.30200 23.15500
H  32.33500 53.99300 23.05200
H  33.07000 54.79200 21.60700
H  37.87100 49.29000 21.39600
H  36.76900 46.55700 21.49400
H  35.34300 47.77200 20.59200
H  36.65900 48.37100 19.58000
H  35.57800 49.58300 20.35200
H  39.30100 47.59600 21.05700
H  39.27700 46.02500 21.90200
H  40.63600 48.33900 22.85000
H  40.13900 46.87300 23.68800
H  39.08000 48.27400 23.77900
H  38.67900 43.68500 25.89300
H  37.04300 43.28600 25.29800
H  37.61400 43.02700 27.07800
H  36.75500 46.50200 30.63700
H  34.83800 43.97200 33.61500
H  33.70500 43.94200 32.21000
H  33.65600 45.18700 33.39400
Mg 6.81800 53.99000 40.93100
C  6.21400 50.64000 40.41200
C  10.04200 53.59100 40.09600
C  7.19000 57.38000 40.94500
C  3.29400 54.39300 41.64000
N  7.89700 52.31800 40.14600
C  7.56000 51.04000 40.18900
C  8.72500 50.12700 39.95200
C  9.90500 51.02400 40.13400
C  9.24200 52.38100 40.21900
C  10.93700 50.74700 41.28200
C  8.73900 49.44600 38.46900
C  8.50100 50.41600 37.29600
H  7.35000 50.26800 36.39200
N  8.37800 55.26500 40.63100
C  9.69500 54.91400 40.26800
C  10.44700 56.11600 40.05000
C  9.61500 57.24500 40.35100
C  8.34600 56.62400 40.70800
C  11.89300 55.99000 39.63000
C  10.10900 58.68700 40.37000
O  11.20600 58.99800 39.92100
C  9.27500 59.83200 40.90600
N  5.33700 55.73000 41.06800
C  5.80300 56.99500 41.09700
C  4.69100 58.05400 41.32700
C  3.44700 57.05800 41.56900
C  4.04400 55.65100 41.51300
C  4.87100 59.13400 42.46700
C  2.14200 57.25800 40.72500
C  0.79400 57.56000 41.55900
N  5.06400 52.84000 41.03000
C  3.75600 53.10600 41.42700
C  3.02900 51.86100 41.44000
C  3.93200 50.88100 41.02800
C  5.12600 51.49200 40.87000
C  1.54000 51.70800 41.77400
C  4.11700 49.46400 40.76000
O  3.23900 48.56200 40.85500
C  5.62700 49.22500 40.33600
C  5.41200 48.58200 39.02400
O  4.70200 48.98800 38.17100
O  5.91400 47.31100 39.11300
C  5.62500 46.43200 38.01800
H  11.09700 53.33600 39.97800
H  7.31300 58.46100 41.03500
H  2.21800 54.44700 41.81400
H  8.83000 49.30400 40.65800
H  10.48500 51.08700 39.21400
H  11.91200 50.69900 40.79900
H  10.72200 49.82800 41.82800
H  10.86300 51.60200 41.95400
H  8.13200 48.54100 38.45700
H  9.75900 49.10200 38.29600
H  9.36600 50.36700 36.63500
H  8.45500 51.39300 37.77700
H  12.49500 55.43300 40.34800
H  12.39400 56.95800 39.65700
H  11.93800 55.55900 38.63000
H  9.93600 60.68700 41.04600
H  8.99300 59.49100 41.90200
H  8.40500 60.09500 40.30400
H  4.73200 58.66800 40.42700
H  3.21100 57.19100 42.62500
H  5.66200 58.83400 43.15300
H  4.01300 59.28400 43.12300
H  5.13900 60.03000 41.90500
H  1.90600 56.38800 40.11300
H  2.35700 58.11400 40.08600
H  0.63300 58.63000 41.42600
H  0.92800 57.34600 42.61900
H  -0.12300 57.11100 41.17700
H  1.41700 51.55600 42.84700
H  1.21700 50.80500 41.25700
H  1.09100 52.62500 41.39000
H  6.17200 48.52000 40.96400
H  5.71400 47.02400 37.10700
H  4.57300 46.16600 38.12900
H  6.38200 45.66200 37.86500

