158

Mg 47.10600 44.91200 43.11500
C  43.64800 44.14000 43.13900
C  47.67500 41.47700 43.02800
C  50.33800 45.64300 42.30200
C  46.23400 48.26500 42.58900
N  45.76500 43.05700 42.94600
C  44.39900 42.96800 43.04400
C  43.97600 41.56100 42.86800
C  45.25500 40.71400 43.02500
C  46.32700 41.79200 43.05600
C  45.27700 39.91100 44.38200
C  43.19200 41.26000 41.53800
C  43.81900 41.82600 40.32000
H  43.14500 41.56600 38.96400
N  48.84400 43.77100 42.90600
C  48.87600 42.33400 42.97500
C  50.28700 41.97100 42.75500
C  51.12100 43.13800 42.63300
C  50.12900 44.26200 42.69500
C  50.61800 40.48600 42.50200
C  52.58800 43.18800 42.45500
O  53.16300 42.11900 42.32700
C  53.32800 44.43300 42.40600
N  48.10300 46.65200 42.36600
C  49.41800 46.69100 42.22100
C  49.88600 48.07900 41.73600
C  48.59700 48.94900 41.85000
C  47.54700 47.91000 42.34800
C  51.19100 48.63000 42.40500
C  48.18300 49.80800 40.55800
C  47.93400 51.25700 40.91200
N  45.37100 46.01700 42.95600
C  45.18100 47.34600 42.76500
C  43.70600 47.57800 42.75500
C  43.05200 46.40900 43.00500
C  44.11100 45.46700 43.01600
C  42.96500 48.89100 42.36600
C  41.81500 45.76200 43.18100
O  40.70300 46.17100 43.19000
C  42.13700 44.24700 43.21600
C  41.66200 43.53700 44.32900
O  40.78000 42.71600 44.22800
O  42.27100 43.88400 45.56700
C  41.83100 43.05600 46.69500
H  47.88800 40.40900 43.11600
H  51.29300 45.83400 41.80800
H  45.99600 49.33000 42.62600
H  43.27600 41.39500 43.68700
H  45.43700 40.01300 42.21000
H  45.52000 40.57000 45.21500
H  46.11100 39.23900 44.18100
H  44.30400 39.45300 44.56200
H  42.15300 41.54400 41.70500
H  43.13900 40.17400 41.45800
H  44.84600 41.52000 40.12200
H  43.80800 42.91500 40.36100
H  51.67800 40.26200 42.61700
H  50.33300 40.02800 41.55400
H  50.03900 39.95900 43.26000
H  53.08000 44.92200 41.46400
H  54.40100 44.24300 42.38000
H  53.10900 45.08700 43.25000
H  50.23300 47.88900 40.72100
H  48.71700 49.62000 42.70000
H  51.17700 49.69300 42.64700
H  51.99200 48.47100 41.68300
H  51.45600 48.08900 43.31300
H  47.26100 49.41600 40.12900
H  48.97500 49.74100 39.81200
H  47.09500 51.71700 40.39000
H  48.80400 51.89800 40.76800
H  47.57100 51.29100 41.93900
H  43.68600 49.69400 42.52300
H  42.11200 48.98100 43.03900
H  42.70200 48.90500 41.30900
H  41.70600 43.78000 42.33000
H  40.91400 43.54100 47.03000
H  42.62800 43.15600 47.43100
H  41.59300 42.06500 46.30900
Mg 30.73100 59.43000 38.86200
C  27.74600 57.94500 37.64700
C  32.52500 56.69600 37.84700
C  33.52100 61.25600 39.14700
C  28.77500 62.34400 39.40700
N  30.23100 57.66200 37.75600
C  28.96700 57.10700 37.48200
C  28.98000 55.69500 36.83100
C  30.46500 55.27200 37.19900
C  31.12100 56.61000 37.65400
C  30.62200 54.31000 38.43900
C  28.56300 55.64800 35.31500
C  27.72900 54.50500 34.74000
H  26.53200 54.97800 33.83100
N  32.79000 58.96400 38.58700
C  33.26700 57.80200 38.26000
C  34.68100 57.93600 38.21300
C  35.06500 59.20700 38.75900
C  33.78200 59.85100 38.85800
C  35.54800 56.71400 37.86500
C  36.48500 59.64100 38.94600
O  37.34300 58.84400 38.70000
C  36.92000 61.00300 39.43800
N  31.09800 61.51000 39.21300
C  32.35300 62.02900 39.32500
C  32.41700 63.51600 39.63000
C  30.91000 63.82700 39.69200
C  30.15400 62.49600 39.41800
C  33.33300 63.88500 40.77600
C  30.39300 65.01600 38.90500
C  29.71600 66.10200 39.73700
N  28.68200 60.04100 38.75000
C  28.09500 61.18000 39.04900
C  26.66200 61.14800 38.81600
C  26.46000 59.84700 38.29900
C  27.75200 59.23100 38.22200
C  25.56700 62.24300 38.78700
C  25.48200 58.84800 37.77400
O  24.31500 58.91600 37.45800
C  26.26700 57.60800 37.47900
C  25.81300 56.63400 38.52900
O  25.60400 56.98600 39.67300
O  25.60100 55.32300 38.04200
C  25.21100 54.30100 39.03900
H  32.99600 55.76400 37.52900
H  34.44800 61.73300 39.47200
H  28.10400 63.15500 39.69600
H  28.23700 55.20800 37.46200
H  31.04800 54.84800 36.38100
H  29.66500 53.78700 38.45800
H  30.72800 54.88100 39.36200
H  31.37400 53.52500 38.36800
H  29.45200 55.52200 34.69800
H  28.06800 56.58500 35.06000
H  27.27000 53.86400 35.49300
H  28.43100 53.83800 34.24000
H  34.97700 55.94800 37.33900
H  35.98500 56.33900 38.79000
H  36.28800 56.95400 37.10200
H  37.98200 61.24100 39.36500
H  36.45000 61.17000 40.40700
H  36.50400 61.65300 38.66900
H  32.65700 63.98600 38.67700
H  30.74700 64.04000 40.74800
H  34.15000 64.57300 40.55900
H  33.92000 63.04100 41.13800
H  32.79100 64.28800 41.63100
H  29.64200 64.51400 38.29500
H  31.14500 65.41100 38.22200
H  29.44900 65.66800 40.70100
H  28.79100 66.41700 39.25500
H  30.33400 66.98000 39.92300
H  24.70000 61.70900 39.17600
H  25.32000 62.38400 37.73500
H  25.83200 63.12700 39.36700
H  25.96800 57.13200 36.54500
H  25.98700 54.31700 39.80400
H  25.21100 53.29200 38.62800
H  24.22600 54.45400 39.48000

