158

Mg 41.06000 8.92000 29.72000
C  42.93600 10.04900 32.38600
C  38.87500 7.41400 31.95600
C  39.42700 7.68400 27.05800
C  43.69700 9.90600 27.69000
N  41.08500 8.55200 31.98500
C  41.78000 9.32400 32.78700
C  41.18400 9.35600 34.25100
C  40.04600 8.32600 34.08400
C  39.95000 8.10800 32.59100
C  40.17000 7.01300 34.89800
C  40.69100 10.76300 34.70700
C  40.09200 10.78100 36.11700
H  40.73400 11.66500 37.19100
N  39.26700 7.77900 29.57200
C  38.57800 7.21300 30.61400
C  37.49900 6.49100 30.04000
C  37.62800 6.57900 28.64500
C  38.81200 7.37100 28.39000
C  36.45800 5.80300 30.83300
C  36.67700 6.13900 27.55700
O  36.89700 6.28700 26.38200
C  35.25200 5.58400 27.92400
N  41.59600 8.68100 27.82900
C  40.71600 8.25800 26.85800
C  41.41400 8.11500 25.44600
C  42.51400 9.23700 25.61000
C  42.60300 9.27600 27.11800
C  41.83300 6.54900 25.22300
C  42.16200 10.49300 24.80200
C  41.71400 11.65800 25.60200
N  42.95400 9.79100 29.95500
C  43.93300 10.12300 29.05000
C  45.10900 10.64900 29.69600
C  44.72100 10.76800 30.97800
C  43.43700 10.17800 31.07100
C  46.33600 11.16700 29.04000
C  45.05300 11.18600 32.30500
O  46.08500 11.68700 32.78700
C  43.86100 10.84000 33.24900
C  44.36900 10.04600 34.41900
O  44.80400 8.88500 34.45100
O  44.28200 10.74500 35.55300
C  44.93800 10.25800 36.74000
H  38.03800 7.14100 32.60200
H  38.88300 7.38800 26.15800
H  44.52000 10.25700 27.06400
H  42.02900 9.09700 34.88900
H  39.03300 8.67600 34.28600
H  40.80500 6.31400 34.35300
H  39.16500 6.63900 35.09100
H  40.59100 7.20800 35.88400
H  39.96600 11.23100 34.04000
H  41.48800 11.50600 34.73300
H  39.88500 9.77700 36.48500
H  39.15000 11.31100 35.97300
H  36.63000 5.74100 31.90700
H  36.24100 4.79200 30.48900
H  35.57100 6.41700 30.67600
H  34.73200 6.35400 28.49300
H  35.32100 4.71900 28.58400
H  34.67700 5.38700 27.01800
H  40.66700 8.26700 24.66700
H  43.46700 8.82800 25.27500
H  41.19800 5.92600 25.85300
H  42.88000 6.33600 25.43800
H  41.62900 6.22100 24.20400
H  41.31000 10.35100 24.13700
H  43.08600 10.58700 24.23100
H  42.47600 12.36400 25.93100
H  41.23400 11.33500 26.52500
H  40.94300 12.25700 25.11700
H  45.97500 11.78800 28.21900
H  46.92900 10.36200 28.60600
H  46.88800 11.63500 29.85500
H  43.37000 11.75100 33.59000
H  45.79200 10.92300 36.86700
H  45.11100 9.18800 36.85200
H  44.30400 10.49800 37.59300
Mg 51.59300 46.06000 41.99200
C  48.72300 47.51200 40.73900
C  50.35500 42.95600 40.77400
C  54.58100 44.75400 42.21300
C  52.81700 49.33300 42.77800
N  49.75600 45.31800 40.82100
C  48.70800 46.06300 40.60600
C  47.55200 45.20800 39.97000
C  47.93100 43.74800 40.33600
C  49.47300 44.03500 40.65000
C  47.09500 43.22200 41.52600
C  47.13400 45.40100 38.46800
C  45.66200 45.31500 38.23000
H  45.30300 43.94100 37.55300
N  52.32900 44.08900 41.78300
C  51.68700 42.99000 41.22000
C  52.62500 41.89600 41.24200
C  53.91000 42.33100 41.68500
C  53.64600 43.79100 41.86400
C  52.19500 40.50800 40.91100
C  55.16700 41.50700 41.83600
O  55.11000 40.27600 41.70700
C  56.51100 41.99700 42.11700
N  53.46700 46.96700 42.57200
C  54.53600 46.16400 42.54600
C  55.75300 46.97200 42.86200
C  55.18700 48.40100 43.15100
C  53.77400 48.31700 42.82400
C  56.79200 46.28600 43.83300
C  55.79600 49.67100 42.53900
C  57.31700 49.89200 42.33100
N  50.90800 48.01000 41.87200
C  51.45800 49.21000 42.29800
C  50.53000 50.32100 42.08000
C  49.35800 49.67700 41.48900
C  49.71300 48.29300 41.40700
C  50.74200 51.78500 42.34200
C  48.08600 49.92200 40.90300
O  47.40400 50.95500 40.69400
C  47.66900 48.46800 40.44000
C  46.27800 48.04800 40.69600
O  45.41400 48.33100 39.84700
O  46.09500 47.47500 41.91400
C  44.68200 47.06900 42.22400
H  49.91400 41.98000 40.56100
H  55.61900 44.42300 42.13500
H  53.12000 50.34700 43.04800
H  46.76600 45.63100 40.59500
H  47.68500 43.12800 39.47400
H  47.71600 42.70000 42.25400
H  46.31000 42.61600 41.07400
H  46.56600 44.06100 41.97800
H  47.56500 44.60300 37.86400
H  47.66000 46.27600 38.08400
H  45.50100 46.11000 37.50100
H  44.99300 45.36200 39.08900
H  51.97000 39.87700 41.77100
H  53.03400 40.03800 40.39800
H  51.34200 40.42200 40.23800
H  56.50000 42.43700 43.11500
H  56.57100 42.76700 41.34800
H  57.27400 41.21900 42.09400
H  56.29600 47.04800 41.91900
H  55.20100 48.57900 44.22700
H  57.14400 47.03000 44.54800
H  57.67300 45.98100 43.26800
H  56.27800 45.42900 44.26700
H  55.44300 50.42100 43.24700
H  55.43000 49.87200 41.53200
H  57.40400 50.94200 42.61100
H  57.72900 49.78100 41.32800
H  57.73200 49.20300 43.06700
H  51.40200 52.19800 41.58000
H  51.18400 52.01700 43.31100
H  49.76700 52.25500 42.21700
H  47.55000 48.48700 39.35600
H  44.79000 46.33500 43.02300
H  44.18500 46.73900 41.31200
H  44.19800 48.01500 42.46800

