158

Mg 44.16700 4.90500 46.78200
C  42.25200 7.93900 46.44600
C  41.13800 3.29300 45.96000
C  45.92400 2.24200 46.19400
C  47.01800 6.95700 46.48200
N  41.93300 5.56100 46.35900
C  41.45600 6.87000 46.36200
C  39.98100 6.91700 46.01700
C  39.55300 5.40800 45.89100
C  40.91300 4.69500 46.06800
C  38.51600 4.87900 46.91400
C  39.68600 7.73400 44.75600
C  40.59000 7.48700 43.52100
H  39.91900 7.79600 42.17500
N  43.56200 3.01300 46.33700
C  42.27900 2.48800 45.99300
C  42.44200 1.04700 45.63200
C  43.87200 0.78600 45.61500
C  44.54800 2.04100 46.13400
C  41.31900 0.13800 45.28100
C  44.49200 -0.54900 45.24500
O  43.84200 -1.55200 44.95800
C  45.96800 -0.74800 45.22000
N  46.16700 4.59000 46.38700
C  46.67000 3.37300 46.44500
C  48.18900 3.39700 46.28300
C  48.53100 4.86500 46.43800
C  47.16400 5.57400 46.47500
C  48.97200 2.37600 47.09300
C  49.56600 5.48500 45.42300
C  50.93200 5.78400 46.09600
N  44.58600 6.98500 46.70100
C  45.82200 7.70800 46.61100
C  45.61300 9.14800 46.55600
C  44.22100 9.27800 46.57500
C  43.67100 8.00100 46.57000
C  46.66300 10.24500 46.51500
C  43.10700 10.26500 46.54600
O  43.07600 11.46700 46.44600
C  41.85100 9.41600 46.40300
C  40.94700 9.69600 47.53400
O  41.14800 9.43700 48.69100
O  39.78600 10.32100 47.06200
C  38.66200 10.47300 48.06100
H  40.25700 2.73200 45.64200
H  46.53300 1.33700 46.13800
H  47.94400 7.53400 46.45700
H  39.43000 7.41100 46.81800
H  39.10400 5.07400 44.95500
H  38.25100 5.70700 47.57200
H  38.89100 4.06800 47.53900
H  37.64400 4.46000 46.41100
H  39.65100 8.78700 45.03500
H  38.71600 7.33800 44.45500
H  40.97300 6.46700 43.49600
H  41.46700 8.12400 43.63800
H  41.48900 -0.13300 44.23900
H  40.39300 0.71200 45.31700
H  41.25700 -0.69100 45.98600
H  46.15000 -1.75900 44.85500
H  46.37700 -0.77300 46.23000
H  46.48200 -0.02800 44.58400
H  48.36200 3.12100 45.24300
H  48.75000 4.91700 47.50400
H  48.33900 1.60700 47.53600
H  49.47000 2.94700 47.87600
H  49.73300 1.79000 46.57800
H  49.20900 6.42400 44.99900
H  49.75100 4.92000 44.51000
H  51.10800 5.53400 47.14200
H  51.46400 6.73500 46.06400
H  51.67200 5.23800 45.51200
H  47.57800 9.71400 46.25200
H  46.75300 10.70800 47.49700
H  46.40800 10.98200 45.75300
H  41.28900 9.82200 45.56200
H  38.04200 11.23300 47.58500
H  38.86700 10.65100 49.11700
H  38.04900 9.57800 47.95400
Mg -1.85400 33.65000 27.75100
C  -3.59400 32.02700 30.42400
C  -0.55200 35.88400 30.29800
C  -0.25600 35.27400 25.40500
C  -3.51700 31.69900 25.40600
N  -2.15200 33.99700 30.04100
C  -2.82700 33.09600 30.89400
C  -2.82900 33.63800 32.36800
C  -1.85300 34.89300 32.31300
C  -1.46700 34.88100 30.78600
C  -2.57300 36.28300 32.60800
C  -2.37400 32.49000 33.37300
C  -3.37600 32.18400 34.55100
H  -2.83300 32.23700 35.97900
N  -0.68600 35.36500 27.80400
C  -0.15800 36.12500 28.94300
C  0.83400 37.00400 28.40200
C  0.94700 36.81900 27.02300
C  -0.07000 35.79900 26.70600
C  1.64700 37.88100 29.33500
C  1.87300 37.46400 26.03100
O  1.87700 37.17800 24.89300
C  3.01400 38.22400 26.56000
N  -2.13400 33.56000 25.64500
C  -1.20400 34.30000 24.92300
C  -1.49400 34.05900 23.42800
C  -2.47900 32.83900 23.38200
C  -2.83400 32.71500 24.86100
C  -1.99300 35.24100 22.68000
C  -1.91500 31.50600 22.82900
C  -0.69900 30.95000 23.63900
N  -3.14300 32.10000 27.84600
C  -3.67400 31.38900 26.77300
C  -4.47800 30.36600 27.31700
C  -4.49700 30.55200 28.75200
C  -3.65500 31.62400 29.01300
C  -5.40700 29.46700 26.55600
C  -4.97900 30.02800 30.02900
O  -5.61200 29.02400 30.33900
C  -4.39200 30.96200 31.14300
C  -5.51900 31.58600 31.87000
O  -6.06100 32.63900 31.53500
O  -5.85000 30.77700 32.96600
C  -6.88500 31.35200 33.77900
H  -0.03600 36.50400 31.03500
H  0.30200 35.50600 24.49500
H  -4.18700 31.28900 24.64600
H  -3.84600 34.00400 32.51400
H  -1.06200 34.86700 33.06200
H  -3.41500 36.12800 33.28300
H  -3.04400 36.80300 31.77400
H  -1.83400 36.88900 33.13200
H  -1.39400 32.78300 33.75000
H  -2.27000 31.56800 32.80000
H  -3.56200 31.11200 34.49600
H  -4.26900 32.80600 34.49200
H  2.57800 37.32100 29.42900
H  1.24800 37.99500 30.34300
H  1.87800 38.91100 29.06600
H  3.72900 38.43400 25.76600
H  3.55700 37.62500 27.29200
H  2.68500 39.10400 27.11500
H  -0.59700 33.71600 22.91200
H  -3.32300 33.17600 22.77900
H  -1.67300 36.07600 23.30300
H  -3.07300 35.28800 22.54400
H  -1.62300 35.22500 21.65500
H  -1.61300 31.62500 21.78800
H  -2.68700 30.73900 22.88900
H  0.27200 31.08100 23.16100
H  -0.85100 29.87000 23.62900
H  -0.50200 31.28700 24.65600
H  -5.15400 29.17900 25.53600
H  -6.36300 29.98600 26.63300
H  -5.53000 28.58400 27.18300
H  -3.73400 30.33600 31.74600
H  -7.84600 30.88200 33.57100
H  -7.08000 32.40300 33.56000
H  -6.57900 31.38300 34.82400

