158

Mg 26.84100 50.22100 27.02000
C  24.87300 51.29800 29.63700
C  29.20500 49.07000 29.12100
C  28.74000 49.37300 24.24800
C  24.38300 51.51000 24.77600
N  26.97500 50.21800 29.12600
C  25.97200 50.56800 30.07500
C  26.28700 50.07400 31.50200
C  27.79600 49.57400 31.31100
C  28.01700 49.62300 29.75900
C  28.84000 50.42100 32.04500
C  25.22000 49.06900 32.09300
C  24.64300 49.36200 33.52600
H  25.59800 49.96800 34.64100
N  28.75700 49.51400 26.73400
C  29.60800 49.04800 27.70600
C  30.80200 48.45600 27.13800
C  30.75400 48.80100 25.74900
C  29.38100 49.25500 25.50900
C  31.87700 47.74900 27.96200
C  31.81000 48.62300 24.63900
O  31.56100 48.87600 23.45800
C  33.20800 48.17700 24.95100
N  26.58600 50.39200 24.85200
C  27.43000 49.87100 23.99600
C  26.78800 49.82600 22.54600
C  25.54900 50.73700 22.67900
C  25.46100 50.82700 24.18500
C  27.77300 50.36700 21.45600
C  24.28400 50.31300 21.94800
C  23.52200 49.12500 22.53600
N  25.03900 51.22300 27.17500
C  24.17800 51.65700 26.13600
C  23.06000 52.33600 26.76400
C  23.33100 52.26500 28.14200
C  24.51000 51.55200 28.31300
C  21.95900 53.05900 26.12000
C  22.76900 52.57700 29.45200
O  21.74300 53.17400 29.76400
C  23.82900 51.98500 30.55400
C  24.20700 52.93300 31.65000
O  25.08200 53.80900 31.52700
O  23.40600 52.71800 32.76700
C  23.54800 53.84400 33.67200
H  29.95900 48.71200 29.82500
H  29.20900 49.00600 23.33200
H  23.67800 51.91600 24.04800
H  26.34700 50.95200 32.14500
H  28.00300 48.60000 31.75600
H  28.87100 50.21600 33.11500
H  28.61100 51.47300 31.87700
H  29.84600 50.17800 31.70400
H  25.52200 48.02700 31.98800
H  24.33400 49.15200 31.46400
H  24.40200 48.36200 33.88600
H  23.69000 49.87700 33.40900
H  31.49300 47.35700 28.90400
H  32.54900 48.53900 28.29800
H  32.28700 46.87800 27.45200
H  33.26900 47.10900 24.73900
H  33.49500 48.36300 25.98600
H  33.88000 48.56500 24.18500
H  26.60100 48.77300 22.33300
H  25.86800 51.75100 22.44000
H  28.73800 50.61800 21.89500
H  27.49600 51.28300 20.93200
H  28.03300 49.57300 20.75600
H  24.75600 49.96700 21.02800
H  23.61200 51.11100 21.63000
H  23.68800 48.25800 21.89700
H  22.44500 49.29200 22.50000
H  23.86700 48.84600 23.53200
H  20.99800 52.62900 26.40400
H  21.85100 53.06700 25.03500
H  21.96500 54.09400 26.46100
H  23.22500 51.23200 31.06100
H  23.33100 54.68000 33.00800
H  24.54000 54.04300 34.07900
H  22.81800 53.79200 34.48000
Mg 6.36200 54.09500 41.68400
C  5.90100 50.54100 41.38800
C  9.44100 53.63200 40.27200
C  6.66200 57.53500 41.50100
C  3.04600 54.49200 42.36600
N  7.47700 52.31200 40.78400
C  7.12500 50.96800 40.87700
C  8.29400 50.15400 40.30900
C  9.54300 51.10500 40.57100
C  8.76200 52.44800 40.46300
C  10.30800 50.81500 41.87500
C  8.06600 49.87600 38.80400
C  7.03800 50.66400 38.06100
H  6.70600 50.18800 36.55200
N  7.85400 55.41900 41.01300
C  9.07200 54.99100 40.43900
C  9.93600 56.14500 40.30300
C  9.21400 57.26100 40.79900
C  7.87300 56.80100 41.15800
C  11.35500 56.04700 39.82700
C  9.85800 58.65200 41.20300
O  11.00700 58.90500 40.86600
C  9.10000 59.64000 42.08200
N  4.95000 55.85700 41.89000
C  5.31900 57.14400 41.82100
C  4.16000 58.08200 42.06600
C  2.91000 57.08600 42.27600
C  3.65100 55.72800 42.09700
C  4.39000 59.01500 43.21700
C  1.76600 57.14600 41.30800
C  0.67900 58.21700 41.71200
N  4.79600 52.83700 41.97500
C  3.52000 53.15200 42.30500
C  2.79900 51.95000 42.58200
C  3.65600 50.89900 42.21400
C  4.84200 51.51500 41.82400
C  1.40600 51.77600 43.03000
C  3.79700 49.46000 42.14200
O  3.04000 48.55500 42.40600
C  5.26000 49.18400 41.48000
C  5.12800 48.41700 40.21100
O  4.39900 48.77800 39.24200
O  5.91700 47.31300 40.22100
C  5.55100 46.35400 39.16300
H  10.45400 53.42300 39.92100
H  6.79200 58.61700 41.43000
H  2.02500 54.59800 42.74000
H  8.29900 49.19400 40.82700
H  10.35600 51.08700 39.84600
H  11.34300 51.15400 41.83400
H  10.12700 49.82700 42.29900
H  9.96800 51.55900 42.59500
H  7.88100 48.80700 38.69700
H  8.97700 50.06400 38.23600
H  7.37800 51.69500 37.96300
H  6.11200 50.66100 38.63500
H  11.22200 56.18800 38.75400
H  11.73400 55.02500 39.84500
H  12.04400 56.77500 40.25400
H  8.43600 59.05600 42.71900
H  8.61200 60.14100 41.24600
H  9.68800 60.21900 42.79400
H  4.00100 58.68200 41.17000
H  2.55400 57.28900 43.28600
H  3.83200 58.64400 44.07700
H  4.12500 60.01800 42.88500
H  5.45000 59.16100 43.42200
H  1.19000 56.22100 41.33000
H  2.08800 57.40700 40.30000
H  -0.28600 57.77600 41.96200
H  0.60900 59.08400 41.05400
H  1.05400 58.80800 42.54700
H  1.25700 52.62300 43.69900
H  1.23800 50.82200 43.52800
H  0.79600 51.84700 42.12900
H  5.88300 48.53400 42.09300
H  5.97100 45.38400 39.42900
H  5.83200 46.77600 38.19800
H  4.46700 46.24700 39.18000

