158

Mg 2.11100 -1.98500 44.39300
C  5.46200 -1.27000 43.72600
C  1.29400 0.75800 42.33300
C  -1.08000 -3.02200 44.42000
C  3.20000 -4.90000 46.06600
N  3.22100 -0.43900 43.16400
C  4.58400 -0.40700 43.00400
C  5.00700 0.73300 42.08200
C  3.62900 1.46200 41.75700
C  2.63500 0.54300 42.50400
C  3.55900 2.91200 42.07400
C  5.75800 0.32500 40.80500
C  7.11000 1.07600 40.59800
H  7.08600 1.99100 39.36400
N  0.32900 -1.23500 43.41400
C  0.18300 -0.07100 42.70800
C  -1.20500 0.08700 42.42900
C  -1.95600 -0.94600 43.09800
C  -0.87600 -1.78400 43.64600
C  -1.77300 1.19600 41.55800
C  -3.44600 -1.15300 43.10300
O  -4.14200 -0.45500 42.39600
C  -4.11800 -2.27700 43.82700
N  1.17000 -3.69300 45.19100
C  -0.11500 -3.91900 45.02700
C  -0.42600 -5.26100 45.62900
C  0.96800 -5.89600 45.97900
C  1.85100 -4.74700 45.73100
C  -1.33700 -5.14400 46.84000
C  1.35200 -7.10100 45.01600
C  1.07600 -8.54900 45.42600
N  3.98500 -2.91100 44.92300
C  4.31900 -4.07200 45.61900
C  5.72900 -4.16100 45.88600
C  6.23800 -3.04400 45.17100
C  5.09500 -2.36100 44.50400
C  6.46900 -5.34200 46.58200
C  7.43600 -2.33500 44.81600
O  8.55000 -2.63500 45.12400
C  6.99400 -1.21100 43.81500
C  7.58100 0.15200 44.28500
O  7.35300 0.68400 45.37400
O  8.42200 0.67000 43.32700
C  9.09000 1.91400 43.82100
H  0.88100 1.65900 41.87400
H  -2.05800 -3.43800 44.67100
H  3.51600 -5.78100 46.62700
H  5.60200 1.45500 42.64300
H  3.36700 1.36600 40.70400
H  2.57300 3.00600 42.52900
H  3.65500 3.53100 41.18200
H  4.36300 3.19600 42.75200
H  5.15800 0.43300 39.90200
H  5.82800 -0.75000 40.97400
H  7.89900 0.32700 40.53400
H  7.41300 1.81600 41.33900
H  -0.92500 1.63500 41.03300
H  -2.38300 1.94600 42.06200
H  -2.33900 0.75000 40.74000
H  -3.82800 -2.31500 44.87700
H  -3.77700 -3.20100 43.35900
H  -5.20500 -2.34500 43.77900
H  -0.90000 -5.86800 44.85700
H  1.13500 -6.22300 47.00500
H  -1.65300 -4.10100 46.87400
H  -0.80500 -5.46900 47.73400
H  -2.21000 -5.78000 46.68900
H  2.40600 -7.18600 44.75300
H  0.78200 -6.86100 44.11900
H  2.04100 -9.03200 45.58400
H  0.66000 -9.18600 44.64500
H  0.53000 -8.48400 46.36700
H  5.93800 -5.46500 47.52500
H  7.47200 -5.00700 46.84900
H  6.37100 -6.19800 45.91400
H  7.37100 -1.47100 42.82600
H  10.02100 2.11400 43.29000
H  9.17400 2.01400 44.90300
H  8.39600 2.70100 43.52600
Mg 54.11500 23.54700 43.98700
C  51.66300 26.04200 43.25700
C  52.30400 21.22900 42.44200
C  56.83100 21.65300 44.03000
C  56.24400 26.32300 45.03000
N  52.30500 23.72100 42.77000
C  51.38400 24.68100 42.82700
C  50.10700 24.18800 42.02200
C  50.25800 22.63600 42.15900
C  51.71600 22.55600 42.47700
C  49.36100 21.93400 43.27200
C  50.04500 24.76000 40.58900
C  51.40500 24.90700 39.84200
H  51.18800 25.59500 38.41100
N  54.48400 21.67600 43.41800
C  53.64300 20.86400 42.76500
C  54.24000 19.57700 42.59500
C  55.49200 19.67200 43.19200
C  55.62200 21.07700 43.56900
C  53.58300 18.35200 41.95000
C  56.46600 18.45700 43.36800
O  56.16400 17.25900 43.13100
C  57.85500 18.67900 43.81000
N  56.24200 24.03000 44.54600
C  57.13000 22.93100 44.52300
C  58.50500 23.35800 44.92400
C  58.35500 24.87800 45.22000
C  56.88600 25.13100 44.84400
C  59.13900 22.41200 46.08600
C  59.46600 25.78700 44.55900
C  60.19200 26.67600 45.51300
N  54.07300 25.74500 44.14900
C  54.92000 26.63900 44.74900
C  54.21100 28.00200 44.90100
C  52.87200 27.72100 44.37400
C  52.88000 26.40400 43.86400
C  54.64700 29.19100 45.62200
C  51.58800 28.27700 44.12800
O  51.16700 29.39000 44.35800
C  50.68500 27.15900 43.45400
C  50.17500 27.79700 42.22300
O  50.87900 28.00500 41.25800
O  48.82600 28.02500 42.29400
C  48.10700 28.21100 40.98600
H  51.68200 20.35000 42.26300
H  57.79000 21.13000 44.01800
H  56.84000 27.14500 45.43100
H  49.12000 24.52900 42.33500
H  50.00200 22.12700 41.23000
H  48.54000 22.62700 43.45300
H  49.93900 21.87600 44.19500
H  49.04600 20.97300 42.86500
H  49.53100 25.71800 40.50500
H  49.42600 24.08800 39.99500
H  51.71300 23.86300 39.78100
H  52.07500 25.48900 40.47500
H  52.98700 18.58000 41.06600
H  52.98700 17.73800 42.62600
H  54.36800 17.67700 41.60900
H  57.76500 19.29900 44.70200
H  58.36400 19.17000 42.98100
H  58.39200 17.74400 43.96700
H  59.16700 23.27600 44.06200
H  58.38300 24.92900 46.30900
H  59.32000 22.98100 46.99800
H  60.10900 22.00300 45.80300
H  58.47500 21.56300 46.24900
H  59.03500 26.42200 43.78500
H  60.26500 25.16400 44.15700
H  60.16900 27.69500 45.12700
H  61.24000 26.38300 45.44900
H  59.84700 26.54800 46.53900
H  53.97100 29.22500 46.47700
H  54.45800 30.03800 44.96400
H  55.71500 29.09200 45.81900
H  49.86600 26.86300 44.11000
H  48.15300 27.31500 40.36700
H  48.63700 28.94300 40.37500
H  47.08900 28.59700 41.03500

