158

Mg -1.82900 16.92900 26.56800
C  -2.55000 14.75000 29.27100
C  -2.36000 19.54300 28.77800
C  -1.70900 18.97400 23.96100
C  -2.16000 14.26400 24.34600
N  -2.59200 17.06900 28.88600
C  -2.57300 16.09400 29.81100
C  -2.65800 16.73700 31.17300
C  -2.79700 18.24100 30.93500
C  -2.67700 18.30400 29.42000
C  -4.10900 18.77800 31.48300
C  -1.40200 16.32900 31.97100
C  -1.02700 17.08700 33.21200
H  -0.64200 16.25700 34.42300
N  -1.94700 19.00500 26.39700
C  -2.12000 19.89400 27.39600
C  -1.96400 21.23500 26.87600
C  -1.65300 21.06200 25.49600
C  -1.73000 19.63200 25.20800
C  -1.92200 22.48100 27.75000
C  -1.39800 22.11400 24.37200
O  -1.11200 21.77600 23.21500
C  -1.47200 23.57200 24.62600
N  -1.89100 16.66900 24.38500
C  -1.84200 17.64200 23.53600
C  -2.05900 17.12500 22.10300
C  -1.89300 15.60900 22.25700
C  -1.95200 15.46300 23.73900
C  -3.38500 17.49300 21.47500
C  -0.59500 14.99600 21.73800
C  -0.69100 13.91500 20.66300
N  -2.18500 14.87600 26.71700
C  -2.27600 13.96300 25.70300
C  -2.42000 12.62800 26.31600
C  -2.56000 12.93100 27.66500
C  -2.46700 14.29700 27.89200
C  -2.45600 11.36400 25.56600
C  -2.68700 12.32900 28.99900
O  -2.80500 11.17900 29.36300
C  -2.64600 13.47200 30.02600
C  -1.66000 13.23100 31.01300
O  -0.46100 13.49000 30.87900
O  -2.24400 12.61900 32.09000
C  -1.40000 12.35500 33.24800
H  -2.34900 20.32000 29.54500
H  -1.68800 19.53300 23.02300
H  -2.01800 13.41500 23.67300
H  -3.52700 16.29000 31.65800
H  -2.05000 18.89500 31.38400
H  -4.95400 18.09500 31.39600
H  -4.30300 19.63300 30.83600
H  -3.90500 19.14100 32.49000
H  -0.56800 16.32400 31.26800
H  -1.50600 15.27400 32.22300
H  -1.93100 17.66100 33.41600
H  -0.11800 17.60000 32.89800
H  -1.02200 23.04900 27.51100
H  -1.80900 22.28200 28.81600
H  -2.78000 23.13300 27.58700
H  -0.61000 23.99300 25.14200
H  -2.43100 23.72100 25.12300
H  -1.70500 24.12800 23.71800
H  -1.33700 17.58900 21.43100
H  -2.77600 15.11100 21.85500
H  -3.34600 17.53400 20.38600
H  -3.65800 18.46500 21.88500
H  -4.21800 16.80000 21.59900
H  0.01600 14.59000 22.54400
H  0.09800 15.73400 21.33300
H  -0.45900 14.33600 19.68500
H  -1.63500 13.37100 20.68500
H  0.02700 13.10500 20.79500
H  -1.68100 11.32200 24.80100
H  -3.46600 11.23300 25.17800
H  -2.18300 10.55200 26.24000
H  -3.64000 13.53900 30.46800
H  -1.36400 13.06100 34.07800
H  -0.38500 12.10300 32.94000
H  -1.78800 11.43500 33.68400
Mg -11.99700 37.68100 42.24900
C  -9.91200 35.02400 41.28200
C  -9.96300 39.97200 40.63500
C  -14.46400 39.97400 42.62700
C  -14.32000 35.25700 43.25000
N  -10.21500 37.45500 41.00700
C  -9.44100 36.31500 40.82600
C  -8.14400 36.57800 40.06000
C  -8.16300 38.17700 39.92200
C  -9.50700 38.62600 40.63700
C  -6.93200 38.99800 40.30500
C  -8.06000 35.79700 38.66700
C  -6.84400 34.95500 38.37200
H  -5.84600 35.52100 37.32900
N  -12.20500 39.70400 41.72200
C  -11.22900 40.49800 41.10600
C  -11.63200 41.86000 41.15800
C  -12.96700 41.91200 41.62900
C  -13.27900 40.49900 41.95500
C  -10.80800 43.04300 40.58800
C  -13.78800 43.19400 41.80500
O  -13.27300 44.23600 41.37500
C  -15.14200 43.14600 42.36400
N  -14.04000 37.59000 42.96700
C  -14.82500 38.67700 43.06300
C  -16.20100 38.37000 43.63200
C  -16.22800 36.83700 43.61600
C  -14.79800 36.51000 43.23500
C  -16.48600 38.98800 45.00200
C  -17.33900 36.33000 42.65900
C  -18.78900 36.43400 43.20800
N  -12.13700 35.54000 42.33100
C  -13.11000 34.75900 42.81300
C  -12.65900 33.36100 42.87500
C  -11.42800 33.40800 42.23500
C  -11.16000 34.77600 41.91000
C  -13.33400 32.09000 43.45500
C  -10.29700 32.63900 41.85700
O  -10.04700 31.46100 41.96700
C  -9.22000 33.72000 41.36100
C  -8.01900 33.67600 42.27000
O  -6.88600 33.29800 41.97900
O  -8.35500 34.01000 43.60800
C  -7.33900 34.08300 44.67000
H  -9.21100 40.70100 40.32500
H  -15.26500 40.70500 42.75500
H  -15.08600 34.50800 43.46100
H  -7.28400 36.39700 40.70500
H  -8.24000 38.38600 38.85500
H  -7.14000 39.82200 40.98900
H  -6.49900 39.45600 39.41600
H  -6.18400 38.29000 40.66100
H  -8.15300 36.42300 37.78000
H  -8.91400 35.12000 38.64800
H  -7.10900 33.91500 38.17900
H  -6.26800 34.95000 39.29800
H  -9.96600 42.64800 40.02100
H  -10.36300 43.75800 41.28000
H  -11.37500 43.61600 39.85400
H  -15.53900 44.14200 42.55900
H  -15.10400 42.79000 43.39300
H  -15.85800 42.60700 41.74300
H  -16.92200 38.79500 42.93400
H  -16.34700 36.46900 44.63500
H  -15.61900 39.53300 45.37400
H  -16.72300 38.25900 45.77700
H  -17.31500 39.68900 44.90500
H  -17.13400 35.31300 42.32500
H  -17.37800 36.86100 41.70800
H  -19.30400 35.47400 43.23900
H  -19.33500 37.26400 42.75900
H  -18.64400 36.56700 44.28000
H  -13.43500 31.33400 42.67700
H  -14.35000 32.31000 43.78200
H  -12.67800 31.71900 44.24300
H  -8.94000 33.44100 40.34500
H  -6.92500 35.08700 44.58600
H  -6.64800 33.24100 44.61500
H  -7.85500 33.89900 45.61200

