158

Mg 35.45600 49.71400 26.24100
C  35.81600 47.72700 29.05600
C  34.19100 52.23800 28.09400
C  35.34200 51.78700 23.46600
C  36.51400 47.09000 24.22300
N  34.97600 49.89400 28.35100
C  35.23000 48.99500 29.32900
C  34.86200 49.53500 30.65900
C  34.24100 50.90300 30.38700
C  34.44300 51.08200 28.81900
C  32.74000 51.17900 30.89000
C  36.20000 49.67800 31.37500
C  36.30300 49.22400 32.88500
H  35.16200 49.51800 33.85400
N  34.98700 51.77700 25.88200
C  34.46600 52.60000 26.80000
C  34.25300 53.92100 26.22300
C  34.49400 53.80100 24.79000
C  35.02900 52.44800 24.67400
C  33.72300 55.03500 27.10700
C  34.21700 54.82300 23.71500
O  34.22400 54.48100 22.55300
C  33.66300 56.18300 24.02900
N  35.89200 49.44900 24.14700
C  35.64900 50.41000 23.20300
C  36.08400 49.90900 21.78500
C  36.46600 48.38800 22.02300
C  36.27400 48.27900 23.57100
C  35.04300 49.98900 20.62600
C  37.84600 47.98600 21.41000
C  39.14000 48.34300 22.27900
N  35.93700 47.73200 26.54300
C  36.51400 46.86000 25.62000
C  36.93300 45.65300 26.39600
C  36.67300 45.94600 27.73400
C  36.09200 47.25700 27.78000
C  37.55900 44.50100 25.75700
C  36.83600 45.52600 29.12600
O  37.25700 44.49700 29.58700
C  36.14900 46.57400 30.03300
C  34.98900 45.97600 30.70600
O  33.89900 45.65600 30.21300
O  35.38200 45.75000 31.96900
C  34.35800 45.10300 32.83800
H  33.75200 53.02700 28.70700
H  35.29200 52.40500 22.56800
H  37.00300 46.33200 23.60800
H  34.23300 48.95000 31.32900
H  34.80700 51.72000 30.83500
H  32.17000 51.39000 29.98500
H  32.70900 52.06200 31.52800
H  32.25700 50.34100 31.39100
H  36.44200 50.74000 31.41400
H  37.06100 49.24700 30.86500
H  37.20100 49.73100 33.23700
H  36.40200 48.14500 33.00900
H  32.63900 55.10100 27.01900
H  34.09800 56.01300 26.80600
H  34.13000 54.92100 28.11200
H  34.29200 56.96800 24.44700
H  32.75000 56.01500 24.60100
H  33.29400 56.42100 23.03100
H  36.91500 50.47000 21.35800
H  35.70300 47.77400 21.54500
H  34.17500 50.51900 21.01800
H  34.85500 48.98600 20.24200
H  35.43900 50.64600 19.85100
H  37.94800 48.52900 20.47000
H  37.92000 46.90700 21.27500
H  39.92400 48.78300 21.66300
H  39.46300 47.35300 22.60200
H  38.77600 48.88100 23.15400
H  36.78100 43.82900 25.39300
H  38.04700 43.91200 26.53300
H  38.28200 44.79300 24.99600
H  36.82800 47.01600 30.76200
H  34.70200 44.79500 33.82600
H  34.06800 44.20100 32.29900
H  33.54600 45.79600 33.06100
Mg 16.59500 51.91900 26.23300
C  18.16200 50.23200 28.92300
C  14.21900 52.96900 28.20800
C  15.39900 53.34500 23.53200
C  19.16100 50.28300 24.21500
N  16.17600 51.44000 28.31600
C  16.92700 50.90200 29.26300
C  16.38700 51.18900 30.68100
C  14.95000 51.64900 30.35400
C  15.12300 52.14100 28.89000
C  13.91000 50.51300 30.50900
C  17.21600 52.32000 31.37300
C  17.62500 52.01500 32.81100
H  16.56900 52.43500 33.86800
N  14.94400 52.89100 25.96400
C  14.05100 53.30500 26.84800
C  13.17300 54.28100 26.33000
C  13.51300 54.44300 24.97100
C  14.64800 53.53300 24.76200
C  12.22300 55.02600 27.33300
C  13.05900 55.42700 23.91400
O  13.36600 55.50000 22.71700
C  11.99700 56.40700 24.37400
N  17.25000 51.89600 24.23200
C  16.47500 52.56300 23.28400
C  17.15300 52.50500 21.92900
C  18.42000 51.65000 22.14300
C  18.34500 51.29300 23.61400
C  16.20600 52.09900 20.77400
C  19.81400 52.20200 21.58400
C  20.69800 53.18300 22.54600
N  18.34100 50.50600 26.47300
C  19.17900 49.93400 25.60300
C  20.20100 49.17400 26.26500
C  19.82700 49.23100 27.61400
C  18.72700 50.03400 27.63100
C  21.14200 48.30500 25.60000
C  20.15600 48.75900 28.91200
O  21.01300 47.96900 29.26600
C  19.18700 49.54900 29.82700
C  18.52700 48.74600 30.80200
O  17.58500 48.06500 30.60400
O  19.15800 48.79000 31.97600
C  18.53800 48.06800 33.08700
H  13.38900 53.42600 28.75100
H  15.12400 53.91900 22.64500
H  19.83100 49.73800 23.54700
H  16.39700 50.29700 31.30600
H  14.64100 52.53200 30.91300
H  14.17900 49.84900 31.33000
H  13.78700 50.04100 29.53400
H  13.01000 51.06100 30.79000
H  16.60200 53.21900 31.41300
H  18.12900 52.65000 30.87700
H  18.58900 52.50200 32.96100
H  17.80800 50.94600 32.92400
H  11.58700 55.82000 26.94400
H  12.76100 55.38500 28.21000
H  11.63900 54.26200 27.84700
H  12.47700 57.05400 25.10800
H  11.07100 55.92500 24.68600
H  11.70700 56.99000 23.50000
H  17.57200 53.50900 21.86700
H  18.12200 50.68500 21.73400
H  16.82800 52.09900 19.87900
H  15.46000 52.87800 20.61400
H  15.70900 51.13100 20.83800
H  19.53500 52.68500 20.64800
H  20.49100 51.40600 21.27400
H  20.99200 54.13200 22.09700
H  21.58500 52.60000 22.79500
H  20.09600 53.33900 23.44100
H  20.60100 47.73500 24.84500
H  21.72300 47.79600 26.37000
H  21.94200 48.88900 25.14400
H  19.66000 50.32300 30.43200
H  17.48100 48.29400 33.23000
H  19.12700 48.32000 33.96900
H  18.62100 46.98300 33.02500

