158

Mg -1.56100 18.10700 26.87300
C  -2.34700 15.90600 29.61400
C  -2.10500 20.80000 28.99300
C  -1.53600 20.18400 24.26000
C  -2.14600 15.43200 24.79400
N  -2.20200 18.25500 29.04300
C  -2.34600 17.31400 29.96800
C  -2.30300 17.86800 31.41200
C  -2.64600 19.37700 31.14200
C  -2.22300 19.50800 29.66200
C  -4.19600 19.68300 31.16600
C  -1.05600 17.65500 32.35700
C  -1.39500 17.11700 33.70200
H  -0.29700 16.91700 34.73800
N  -1.73100 20.18800 26.67400
C  -1.77300 21.15200 27.68900
C  -1.43600 22.44100 27.15400
C  -1.30400 22.35300 25.75000
C  -1.42500 20.84000 25.53000
C  -1.46900 23.57900 28.02200
C  -0.94200 23.37200 24.68800
O  -0.87700 23.08400 23.48200
C  -0.63800 24.71600 25.12300
N  -1.86700 17.77600 24.81500
C  -1.81700 18.86200 23.91500
C  -1.97300 18.34900 22.48000
C  -2.05100 16.77400 22.67400
C  -2.19300 16.66900 24.16100
C  -3.25400 18.82900 21.67100
C  -0.72600 16.03000 22.16800
C  -0.89700 14.53600 21.59100
N  -1.88500 16.01200 27.11500
C  -2.04900 15.09500 26.13400
C  -2.33500 13.80200 26.88900
C  -2.37700 14.09800 28.24800
C  -2.14500 15.48400 28.30200
C  -2.68100 12.51100 26.12100
C  -2.62800 13.47500 29.48000
O  -2.69500 12.30800 29.86800
C  -2.47900 14.69000 30.46200
C  -1.28100 14.44700 31.33200
O  -0.08800 14.75900 31.01000
O  -1.54600 13.68600 32.37700
C  -0.33500 13.19700 33.12200
H  -2.13800 21.61000 29.72500
H  -1.50600 20.80300 23.36100
H  -2.46200 14.59900 24.16300
H  -3.11200 17.46900 32.02400
H  -2.03000 20.09500 31.68400
H  -4.57700 19.77400 30.14900
H  -4.33800 20.68000 31.58300
H  -4.77400 18.94500 31.72300
H  -0.72700 18.65000 32.65500
H  -0.23700 17.09500 31.90500
H  -1.94600 16.18800 33.55400
H  -2.09800 17.84200 34.11100
H  -1.49400 23.31800 29.08000
H  -2.39700 24.07300 27.73700
H  -0.56000 24.16500 27.88700
H  -0.59000 25.47300 24.34000
H  0.30900 24.57300 25.64300
H  -1.35100 25.08400 25.86000
H  -1.18400 18.72200 21.82700
H  -2.92600 16.31500 22.21300
H  -3.50600 19.75600 22.18500
H  -3.98500 18.03300 21.81400
H  -3.06900 19.09500 20.63100
H  0.01200 15.86700 22.95300
H  -0.29100 16.62700 21.36700
H  -0.27000 13.84600 22.15500
H  -0.57300 14.35000 20.56700
H  -1.96300 14.31000 21.61100
H  -3.44600 12.69300 25.36500
H  -3.02400 11.74400 26.81600
H  -1.79000 12.22400 25.56300
H  -3.29600 14.72200 31.18300
H  -0.61900 13.29700 34.16900
H  0.55900 13.76900 32.87700
H  -0.21600 12.14700 32.85600
Mg 47.10600 24.77000 28.02600
C  48.03400 27.02000 30.63000
C  46.52700 22.46800 30.50500
C  46.82900 22.41200 25.69000
C  48.24300 27.09300 25.73200
N  47.16600 24.89300 30.31100
C  47.51600 25.86100 31.19400
C  47.33300 25.44400 32.66900
C  46.84600 23.99100 32.53900
C  46.91000 23.74700 31.01200
C  47.62400 22.93900 33.44800
C  46.33600 26.37900 33.37800
C  45.56500 25.85800 34.60600
H  45.53800 26.92900 35.78500
N  46.65800 22.70700 28.11100
C  46.51900 21.99200 29.24600
C  46.33100 20.64900 28.94900
C  46.25600 20.54300 27.46400
C  46.58000 21.91500 26.96300
C  46.21200 19.58000 30.00200
C  46.09300 19.33500 26.51100
O  46.21600 19.44400 25.30700
C  45.75800 17.95200 27.08000
N  47.50400 24.74000 26.03900
C  47.28700 23.67900 25.23600
C  47.43700 24.01500 23.74500
C  47.72200 25.59400 23.82400
C  47.81800 25.80400 25.29900
C  48.49300 23.26800 22.85700
C  46.61500 26.43800 23.07900
C  46.14100 25.85800 21.67900
N  47.87600 26.72400 28.05500
C  48.33500 27.49600 27.04000
C  48.91400 28.70300 27.59500
C  48.76700 28.55500 29.02100
C  48.15100 27.28200 29.22100
C  49.74500 29.79900 26.84500
C  49.03900 29.23500 30.29400
O  49.60600 30.27300 30.56500
C  48.47500 28.22200 31.36400
C  49.31900 28.02500 32.60100
O  50.40000 27.35100 32.71800
O  48.83500 28.78900 33.66600
C  49.47000 28.56400 34.97300
H  46.29800 21.84400 31.37100
H  46.84500 21.68600 24.87400
H  48.53700 27.84400 24.99600
H  48.29400 25.55100 33.17200
H  45.79100 23.85200 32.77500
H  47.82500 23.33100 34.44500
H  48.51400 22.57000 32.93800
H  47.04000 22.03000 33.58800
H  45.63800 26.84000 32.67900
H  46.93300 27.21100 33.75100
H  46.04700 24.95800 34.98800
H  44.51400 25.78800 34.32600
H  45.30400 18.99500 29.85600
H  46.38500 19.89100 31.03200
H  46.99800 18.84500 29.83200
H  45.68000 17.20400 26.29100
H  44.74100 18.16000 27.41300
H  46.47000 17.64100 27.84400
H  46.43100 23.97500 23.32800
H  48.62300 25.91500 23.30200
H  49.28500 23.91800 22.48400
H  48.08400 22.80600 21.95800
H  48.84200 22.44700 23.48300
H  46.98200 27.45600 22.95500
H  45.81300 26.47100 23.81600
H  45.16000 25.38600 21.73000
H  46.81000 25.12700 21.22500
H  46.10900 26.64200 20.92300
H  49.94200 29.49100 25.81800
H  50.71100 29.96700 27.32100
H  49.25600 30.76500 26.72300
H  47.63000 28.87800 31.57300
H  50.27400 29.27200 35.17700
H  49.89700 27.56200 35.00000
H  48.75300 28.77200 35.76700

