158

Mg 7.60100 2.88000 27.27900
C  9.09600 1.61000 30.33500
C  5.61400 4.94300 29.21200
C  6.46100 4.20400 24.45000
C  9.47200 0.50400 25.47000
N  7.36600 3.16400 29.50700
C  8.10300 2.61700 30.52600
C  7.69100 3.23400 31.84800
C  6.53600 4.18600 31.47400
C  6.40900 4.09400 29.94200
C  5.24000 3.81200 32.22400
C  8.78300 4.01600 32.60700
C  8.41200 4.43900 33.97900
H  9.28200 4.06800 35.21500
N  6.26600 4.47300 26.87400
C  5.55800 5.23400 27.78800
C  4.87300 6.27600 27.07700
C  5.08000 6.07900 25.71100
C  5.93100 4.87400 25.65600
C  4.06900 7.28700 27.73800
C  4.50500 6.81900 24.50700
O  4.59900 6.46300 23.34000
C  3.61800 7.95200 24.70200
N  7.79300 2.30500 25.30600
C  7.28200 3.06700 24.32400
C  7.74900 2.65500 22.93900
C  8.78400 1.53300 23.24700
C  8.71900 1.43000 24.81100
C  6.60500 2.21000 22.09100
C  10.22700 1.88700 22.65900
C  11.10000 2.89600 23.35100
N  8.90000 1.26400 27.81000
C  9.64900 0.41400 26.91100
C  10.47900 -0.49400 27.74900
C  10.31700 0.00500 29.06300
C  9.31000 1.03600 29.08200
C  11.54000 -1.53100 27.32600
C  10.69300 -0.27600 30.41200
O  11.38200 -1.19300 30.84300
C  10.02100 0.82900 31.31400
C  9.15200 0.16300 32.35300
O  8.12900 -0.45700 32.15400
O  9.74200 0.42900 33.56700
C  8.91400 0.13900 34.77400
H  5.12500 5.63500 29.90100
H  6.18000 4.54900 23.45300
H  10.14700 -0.11300 24.87200
H  7.54500 2.34600 32.46300
H  6.70700 5.21700 31.78200
H  5.41500 2.92300 32.83100
H  4.53900 3.50600 31.44800
H  4.81100 4.63600 32.79400
H  8.89600 4.96600 32.08500
H  9.74500 3.50400 32.65000
H  7.56400 3.82000 34.27100
H  8.03500 5.46100 34.03700
H  4.04400 7.06200 28.80400
H  3.08400 7.07100 27.32400
H  4.36600 8.27900 27.39700
H  3.92800 8.73700 25.39200
H  2.63900 7.55200 24.96500
H  3.45100 8.53600 23.79800
H  8.25400 3.50100 22.47200
H  8.52700 0.52200 22.93300
H  6.39300 2.94500 21.31400
H  5.67300 2.18800 22.65500
H  6.72500 1.27700 21.53900
H  10.04800 2.25300 21.64800
H  10.76200 0.93700 22.64000
H  10.99700 2.81900 24.43400
H  10.77800 3.87000 22.98100
H  12.15400 2.79100 23.09700
H  12.39800 -1.22700 27.92600
H  11.63900 -1.65000 26.24700
H  11.21000 -2.53500 27.59100
H  10.69300 1.60700 31.67700
H  8.06900 0.82700 34.77900
H  9.53600 0.06700 35.66700
H  8.52300 -0.87800 34.80300
Mg 47.32600 16.59900 28.07700
C  45.19900 16.29500 30.97000
C  49.55100 18.37700 30.09900
C  49.04700 17.31000 25.24800
C  44.75400 15.25800 26.27300
N  47.37900 17.15500 30.31600
C  46.45900 16.83900 31.28200
C  46.90300 17.36100 32.61400
C  48.16600 18.26300 32.29200
C  48.44600 17.97800 30.80400
C  48.06200 19.82300 32.54400
C  47.22700 16.14200 33.56600
C  47.13400 16.37700 35.06100
H  47.31700 17.78000 35.58100
N  49.13300 17.59200 27.71000
C  49.86900 18.24100 28.71900
C  50.96900 18.89400 28.04800
C  50.99500 18.43000 26.66300
C  49.67400 17.73900 26.44500
C  51.94800 19.70200 28.87200
C  52.00600 18.73000 25.62700
O  51.90400 18.43200 24.43700
C  53.20800 19.58800 25.92500
N  46.91400 16.52900 26.12200
C  47.76600 16.83000 25.11400
C  47.21800 16.59000 23.77500
C  45.85500 15.80100 24.03000
C  45.81400 15.82000 25.62600
C  46.98500 17.93300 22.99400
C  45.98600 14.24600 23.69100
C  45.05300 13.71200 22.59000
N  45.34000 15.95900 28.50100
C  44.41700 15.39100 27.66900
C  43.18100 15.05300 28.40500
C  43.48400 15.46500 29.68600
C  44.79000 15.95100 29.71300
C  41.92000 14.47700 27.88300
C  42.87800 15.54700 31.02700
O  41.84000 15.09700 31.48200
C  44.02100 16.07800 31.90500
C  43.50200 17.27700 32.63200
O  43.47500 18.39400 32.12200
O  42.98000 16.93200 33.82600
C  42.53500 17.95600 34.76800
H  50.28100 18.95500 30.67000
H  49.52500 17.55900 24.29800
H  43.91500 14.90000 25.67200
H  46.17600 18.03900 33.06100
H  49.01300 17.85100 32.84100
H  47.07300 19.97900 32.97500
H  47.97100 20.40600 31.62800
H  48.86700 20.12700 33.21300
H  48.23700 15.78800 33.36200
H  46.54600 15.32300 33.33600
H  47.91800 15.76300 35.50300
H  46.20800 15.97000 35.46700
H  52.44600 18.89400 29.40700
H  51.38100 20.34900 29.54200
H  52.61800 20.23200 28.19500
H  53.79900 19.76300 25.02700
H  53.76700 19.28500 26.81000
H  52.92800 20.57800 26.28400
H  48.04400 15.95300 23.45700
H  44.99600 16.39100 23.70900
H  45.96100 18.10700 22.66400
H  47.72700 17.96600 22.19600
H  47.21500 18.78300 23.63600
H  45.80200 13.63900 24.57800
H  46.97900 14.04600 23.28800
H  45.50500 13.98400 21.63600
H  44.02700 14.08100 22.61700
H  44.95900 12.62700 22.63900
H  41.90800 13.43900 28.21400
H  41.80400 14.62300 26.80900
H  41.10000 14.94200 28.43000
H  44.29200 15.26700 32.58100
H  41.45700 18.03400 34.62300
H  43.00500 18.91000 34.53000
H  42.55900 17.64500 35.81200

