158

Mg 17.12000 -2.15900 27.30600
C  15.77100 -0.14900 29.84900
C  19.41900 -3.44600 29.41800
C  18.89400 -3.37100 24.61900
C  15.11400 -0.37700 24.99400
N  17.57000 -1.74300 29.36900
C  16.82100 -0.99400 30.28700
C  17.28400 -1.24000 31.71000
C  18.46600 -2.15700 31.56700
C  18.49400 -2.53200 30.05500
C  19.81800 -1.55000 32.05900
C  16.12500 -1.95400 32.45700
C  15.89300 -1.38300 33.95300
H  17.07000 -0.69300 34.71000
N  18.67800 -3.54200 27.14700
C  19.51000 -3.94100 28.12800
C  20.51100 -4.81900 27.54700
C  20.40800 -4.79500 26.16700
C  19.32200 -3.87400 25.90700
C  21.50400 -5.53700 28.44300
C  21.16700 -5.45300 25.14600
O  20.89600 -5.33400 23.93200
C  22.30100 -6.29000 25.33500
N  16.96100 -1.97200 25.19000
C  17.85600 -2.47500 24.27300
C  17.53300 -1.99000 22.88900
C  16.19500 -1.26000 23.00700
C  16.01700 -1.24500 24.49100
C  18.64300 -1.12900 22.24100
C  14.99500 -1.82300 22.19300
C  13.92500 -2.61800 22.96900
N  15.74000 -0.48600 27.34700
C  14.97000 0.04700 26.32200
C  14.10800 1.07900 26.93100
C  14.35600 0.98400 28.30300
C  15.37900 0.04300 28.47400
C  13.25500 2.02600 26.15900
C  14.02700 1.54800 29.64500
O  13.11900 2.31500 29.99000
C  14.89300 0.74600 30.70400
C  15.66400 1.70500 31.49800
O  16.83700 1.97800 31.19800
O  14.88500 2.34200 32.46600
C  15.69100 3.45000 33.07100
H  20.03200 -3.85300 30.22500
H  19.55100 -3.55200 23.76600
H  14.49200 0.13700 24.25900
H  17.53600 -0.24200 32.06900
H  18.36000 -3.13800 32.03100
H  20.34500 -2.33900 32.59500
H  19.69200 -0.67700 32.70000
H  20.38200 -1.21500 31.18900
H  16.25500 -3.02300 32.62200
H  15.24200 -1.92000 31.81900
H  15.43800 -2.23400 34.46000
H  15.06600 -0.67300 33.93100
H  21.78100 -6.52700 28.08000
H  21.17400 -5.66900 29.47300
H  22.48300 -5.07600 28.58000
H  22.71500 -6.58600 24.37100
H  22.05800 -7.15400 25.95400
H  22.99900 -5.63400 25.85500
H  17.32900 -2.79700 22.18500
H  16.25400 -0.20200 22.75000
H  18.15700 -0.33500 21.67400
H  19.15500 -1.62000 21.41300
H  19.39500 -0.69600 22.90100
H  15.38900 -2.56100 21.49400
H  14.54600 -0.98200 21.66500
H  13.08000 -1.97800 23.22200
H  14.30700 -3.18000 23.82200
H  13.54100 -3.35200 22.26100
H  12.65200 1.56600 25.37700
H  13.85200 2.77800 25.64300
H  12.66700 2.60900 26.86900
H  14.21900 0.15800 31.32700
H  16.38600 3.85500 32.33500
H  16.08500 2.99900 33.98200
H  15.22800 4.39300 33.36000
Mg -12.01300 16.76000 41.49700
C  -9.04200 14.91900 41.07400
C  -10.49300 19.42800 40.11600
C  -14.99000 18.05800 41.26000
C  -13.53100 13.52200 42.16100
N  -10.10600 17.01600 40.59800
C  -8.93800 16.19600 40.65100
C  -7.65400 16.82100 40.09100
C  -8.21000 18.29000 39.82000
C  -9.71400 18.25200 40.18300
C  -7.50800 19.49800 40.43700
C  -7.30500 16.17200 38.69000
C  -5.97000 15.32700 38.59600
H  -5.02500 15.70300 37.47800
N  -12.64300 18.59200 40.83600
C  -11.86200 19.55300 40.36100
C  -12.71900 20.73600 40.13200
C  -14.01700 20.33400 40.44400
C  -13.91000 18.91200 40.89500
C  -12.25200 22.07100 39.61300
C  -15.18800 21.27400 40.39100
O  -15.10100 22.44600 39.95000
C  -16.63400 20.86900 40.72400
N  -13.93800 15.90800 41.83000
C  -15.05000 16.70600 41.65100
C  -16.38900 15.93600 41.85600
C  -15.80700 14.58400 42.28800
C  -14.33100 14.69600 42.07800
C  -17.39100 16.55100 42.79800
C  -16.34300 13.32500 41.51800
C  -16.75300 12.21600 42.52200
N  -11.45300 14.64400 41.67300
C  -12.14500 13.50400 41.96200
C  -11.30000 12.39000 42.15700
C  -10.05700 12.96500 41.86900
C  -10.22000 14.31500 41.54200
C  -11.60300 10.98500 42.47200
C  -8.65300 12.57500 41.67100
O  -8.14600 11.48800 41.80000
C  -7.99300 13.82100 41.25700
C  -7.05400 14.09700 42.33400
O  -7.23700 14.61000 43.43700
O  -5.79200 13.62000 41.92600
C  -4.70000 14.24100 42.67300
H  -10.02400 20.37800 39.85200
H  -15.98100 18.51300 41.21300
H  -14.01800 12.61700 42.53100
H  -6.78400 16.82000 40.74800
H  -8.21700 18.52000 38.75400
H  -7.58900 20.33500 39.74300
H  -6.50000 19.33000 40.81800
H  -7.98600 19.77200 41.37800
H  -7.37100 16.88000 37.86400
H  -8.09100 15.53500 38.28500
H  -6.21000 14.29200 38.35200
H  -5.43000 15.47700 39.53100
H  -12.30800 22.07000 38.52400
H  -11.18300 22.28200 39.65500
H  -12.67900 22.99800 39.99500
H  -17.25900 21.76100 40.77200
H  -16.68400 20.35600 41.68400
H  -16.95200 20.17300 39.94800
H  -16.85200 15.83400 40.87500
H  -15.98000 14.52400 43.36300
H  -18.39700 16.67300 42.39700
H  -16.93300 17.47700 43.14600
H  -17.49600 15.93000 43.68700
H  -15.76800 12.92700 40.68100
H  -17.27800 13.63100 41.04800
H  -17.28800 11.40500 42.02800
H  -17.27800 12.58500 43.40400
H  -15.85700 11.68800 42.84900
H  -10.69300 10.38900 42.54000
H  -12.16200 10.43200 41.71700
H  -12.10700 10.96600 43.43900
H  -7.51000 13.71200 40.28600
H  -4.00100 14.23000 41.83700
H  -4.36300 13.60600 43.49200
H  -4.78700 15.27100 43.01800

