158

Mg -1.26500 18.12400 27.08000
C  -1.85900 16.00100 29.80600
C  -1.60500 20.87700 29.26900
C  -1.28800 20.33100 24.43100
C  -1.36300 15.40800 24.89200
N  -1.86600 18.34900 29.30300
C  -1.82200 17.37500 30.21500
C  -1.97400 17.91900 31.65200
C  -1.98300 19.50200 31.41200
C  -1.76100 19.63200 29.93200
C  -3.38900 20.01300 32.00600
C  -0.90600 17.59000 32.71400
C  -1.38500 17.23200 34.13900
H  -0.37800 17.35700 35.33100
N  -1.23800 20.32500 26.87000
C  -1.42100 21.23500 27.89100
C  -1.23900 22.52000 27.31100
C  -1.25300 22.42100 25.88700
C  -1.23500 20.98100 25.64300
C  -1.32200 23.74100 28.26000
C  -1.39700 23.55400 24.83700
O  -1.55500 23.31400 23.60800
C  -1.42800 25.03400 25.27900
N  -1.15900 17.88700 24.97100
C  -1.31400 18.93300 24.09800
C  -1.09800 18.44200 22.66500
C  -0.85600 16.91700 22.84600
C  -1.10500 16.72400 24.29600
C  -2.16300 18.87400 21.62800
C  0.45600 16.37700 22.21800
C  1.78600 16.58700 23.01200
N  -1.53400 16.11500 27.19300
C  -1.52800 15.07600 26.22000
C  -1.70000 13.77800 26.91000
C  -1.79300 14.11000 28.29700
C  -1.72700 15.50700 28.41000
C  -1.67200 12.49600 26.22600
C  -1.91300 13.49600 29.59000
O  -1.92700 12.30900 29.92000
C  -1.81000 14.65300 30.61800
C  -0.53300 14.46900 31.33400
O  0.58000 14.68900 30.87100
O  -0.86600 13.99100 32.57600
C  0.35000 13.81100 33.42400
H  -1.55300 21.69300 29.99200
H  -1.40400 20.92700 23.52300
H  -1.42900 14.57300 24.19100
H  -2.96600 17.54100 31.89700
H  -1.17300 19.99400 31.95000
H  -3.80000 19.51400 32.88400
H  -4.19000 19.89800 31.27500
H  -3.35600 21.07300 32.25500
H  -0.06600 18.28400 32.75600
H  -0.55100 16.62300 32.35600
H  -1.65000 16.18100 34.01700
H  -2.25300 17.86100 34.33800
H  -2.35000 24.02600 28.03700
H  -0.60200 24.54900 28.13200
H  -1.37700 23.66800 29.34600
H  -2.36200 25.19600 25.81600
H  -1.40300 25.53900 24.31300
H  -0.54800 25.21500 25.89600
H  -0.07200 18.78700 22.53300
H  -1.73900 16.40200 22.46900
H  -2.62400 18.00300 21.16400
H  -1.68100 19.60400 20.97800
H  -3.02100 19.42700 22.01200
H  0.53800 16.78800 21.21100
H  0.33700 15.29500 22.27000
H  2.54300 16.88800 22.28800
H  2.02800 15.67800 23.56200
H  1.70100 17.38000 23.75500
H  -0.81700 11.86100 26.45900
H  -1.65000 12.70900 25.15700
H  -2.60400 11.95300 26.38300
H  -2.65500 14.74300 31.30000
H  0.76000 14.80400 33.60900
H  1.14900 13.29900 32.88700
H  -0.00000 13.27100 34.30300
Mg 35.97700 49.01200 25.67100
C  36.16000 47.06000 28.66800
C  34.77600 51.67800 27.53500
C  35.05700 50.49600 22.84800
C  36.67800 46.10600 23.89900
N  35.36700 49.26300 27.85000
C  35.70900 48.43000 28.91500
C  35.37100 49.14600 30.20400
C  34.79500 50.50700 29.79500
C  35.03500 50.49500 28.28600
C  33.24800 50.66200 30.07000
C  36.57200 49.31700 31.12800
C  36.38500 48.69800 32.55700
H  36.36100 49.71600 33.66900
N  35.19800 50.83900 25.26200
C  34.85500 51.85500 26.14700
C  34.34400 53.03700 25.38100
C  34.53200 52.71800 23.99500
C  34.91500 51.29300 24.02300
C  33.78800 54.31700 26.01400
C  34.35700 53.59900 22.71600
O  34.63300 53.27000 21.54100
C  33.77300 54.90300 22.87800
N  35.98300 48.44100 23.60500
C  35.47600 49.15700 22.60500
C  35.64900 48.54400 21.27600
C  36.48100 47.25800 21.63200
C  36.40200 47.19700 23.09600
C  34.34000 48.23800 20.54300
C  37.91600 47.14100 21.12700
C  38.26000 45.96600 20.24900
N  36.30800 46.99300 26.12900
C  36.62900 45.94100 25.31200
C  36.91500 44.78000 26.11400
C  36.66800 45.12800 27.44400
C  36.30400 46.53800 27.39700
C  37.34300 43.48100 25.65200
C  36.63100 44.65300 28.81200
O  36.78900 43.51600 29.27600
C  36.37900 46.00400 29.72600
C  35.17700 45.81800 30.71300
O  33.94300 45.87200 30.41100
O  35.68300 45.61400 31.92000
C  34.78800 45.24700 33.01100
H  34.62700 52.63400 28.04100
H  34.83700 50.98300 21.89500
H  37.12700 45.23600 23.41500
H  34.53100 48.58500 30.61200
H  35.21700 51.42500 30.20500
H  32.69200 50.48500 29.14900
H  33.03400 51.61500 30.55400
H  32.92800 49.85900 30.73400
H  36.73900 50.38600 31.26100
H  37.48000 48.92300 30.67200
H  37.12800 47.92000 32.73300
H  35.52100 48.03300 32.55900
H  32.91100 54.61800 25.44000
H  34.43400 55.19100 25.92800
H  33.55500 54.16600 27.06800
H  33.75600 55.52000 21.98000
H  34.49700 55.42200 23.50600
H  32.74600 54.81000 23.23200
H  36.17300 49.32200 20.72100
H  36.01800 46.34000 21.26900
H  33.49700 48.84500 20.87100
H  34.03600 47.21700 20.77400
H  34.51100 48.26400 19.46700
H  38.53500 47.18900 22.02200
H  38.15500 48.00600 20.50900
H  38.80500 46.29300 19.36300
H  37.37200 45.49000 19.83200
H  38.89000 45.29200 20.83000
H  37.65000 43.50100 24.60700
H  36.55700 42.72700 25.69900
H  38.26700 43.15000 26.12500
H  37.23700 46.18900 30.37200
H  34.46600 46.14100 33.54500
H  35.28000 44.50700 33.64200
H  33.89500 44.73500 32.65200

