158

Mg 47.02800 34.44800 27.61000
C  45.18300 32.88800 30.12200
C  47.18100 37.14800 29.82500
C  47.99600 36.31800 25.07200
C  46.24500 31.81300 25.46300
N  46.27800 34.89500 29.68000
C  45.67100 34.08700 30.56800
C  45.71800 34.58900 31.96300
C  45.95800 36.09700 31.73400
C  46.52300 36.04300 30.31700
C  44.78500 37.06400 31.86600
C  46.91700 33.84000 32.61400
C  46.88800 33.55400 34.07200
H  46.07700 34.65000 34.91400
N  47.51600 36.53200 27.43400
C  47.67600 37.36500 28.50900
C  48.31200 38.56700 27.92800
C  48.56000 38.40500 26.58800
C  47.99500 37.06400 26.30100
C  48.46400 39.82900 28.85200
C  49.31400 39.29700 25.62500
O  49.63400 38.84400 24.51700
C  49.77600 40.62900 25.95500
N  47.09000 34.11800 25.49900
C  47.57500 35.05400 24.68400
C  47.64500 34.50100 23.23900
C  47.14800 33.00600 23.36500
C  46.84100 32.91200 24.87300
C  46.70900 35.27900 22.32500
C  48.26900 31.87200 23.01000
C  47.63900 30.60200 22.38200
N  46.13900 32.59900 27.73900
C  45.80300 31.66100 26.81400
C  45.07000 30.59400 27.44200
C  44.88100 31.03200 28.78500
C  45.40700 32.27400 28.88200
C  44.75600 29.29800 26.78500
C  44.16600 30.73600 29.94900
O  43.46000 29.71400 30.18200
C  44.19700 31.91400 30.88600
C  44.47300 31.45100 32.23600
O  45.44000 30.82000 32.67200
O  43.37600 31.66400 32.98700
C  43.33900 31.32100 34.35900
H  47.28800 38.06300 30.41200
H  48.30600 36.97700 24.25800
H  45.99200 30.98100 24.80400
H  44.79300 34.29900 32.46100
H  46.62600 36.64700 32.39800
H  44.77500 37.76300 31.02900
H  44.87600 37.84800 32.61800
H  43.77700 36.66500 31.97600
H  47.78600 34.46000 32.39800
H  47.06900 32.88200 32.11800
H  47.91300 33.37800 34.39700
H  46.49300 32.56100 34.28600
H  47.52900 40.38200 28.94400
H  49.26400 40.47600 28.49100
H  48.71500 39.41000 29.82700
H  49.92700 41.11900 24.99300
H  50.67900 40.59800 26.56500
H  49.03100 41.11300 26.58700
H  48.59300 34.63100 22.71800
H  46.22300 32.86500 22.80400
H  46.19500 36.09200 22.83700
H  45.84500 34.78500 21.88000
H  47.28500 35.71300 21.50700
H  48.82100 31.55400 23.89500
H  49.01200 32.24000 22.30200
H  47.54900 29.89800 23.20900
H  48.34000 30.11400 21.70300
H  46.69000 30.77900 21.87600
H  45.08600 29.27900 25.74700
H  43.66600 29.26700 26.79500
H  45.18200 28.43700 27.30000
H  43.23100 32.41800 30.86400
H  43.98800 32.00600 34.90500
H  43.74200 30.33400 34.58900
H  42.35000 31.51000 34.77500
Mg 6.82900 56.60700 42.61800
C  6.32900 53.08900 42.11500
C  9.97200 56.22500 41.29900
C  7.06900 60.01900 42.36300
C  3.46500 56.89100 43.57400
N  8.01800 54.81400 41.94300
C  7.64000 53.51000 41.74800
C  8.74700 52.61500 41.11800
C  9.95200 53.60900 41.21000
C  9.33700 54.97100 41.56900
C  11.09300 53.05800 42.04300
C  8.31100 52.15100 39.69900
C  8.77600 50.80600 39.26300
H  9.05300 50.53600 37.74300
N  8.31800 57.95200 41.90600
C  9.51600 57.56300 41.40700
C  10.35000 58.72600 41.14500
C  9.57200 59.84700 41.53100
C  8.28300 59.32000 41.94700
C  11.88500 58.57800 40.83400
C  10.04000 61.24000 41.47300
O  11.19100 61.52800 41.22200
C  9.06000 62.38300 41.71500
N  5.38300 58.25700 42.84400
C  5.80700 59.54500 42.89200
C  4.55600 60.48200 43.17400
C  3.37900 59.47800 43.52200
C  4.11800 58.16100 43.36700
C  4.77200 61.61000 44.20500
C  2.12100 59.60500 42.64800
C  0.88000 59.92800 43.51400
N  5.28600 55.31200 42.88700
C  4.04500 55.56900 43.40500
C  3.32600 54.32200 43.58100
C  4.22300 53.39900 43.12900
C  5.32300 53.98800 42.62500
C  1.92500 54.08700 44.19200
C  4.34700 51.95300 42.82000
O  3.49500 51.05100 42.79700
C  5.76200 51.71800 42.19800
C  5.33900 51.16300 40.84800
O  4.67100 51.77900 40.01800
O  5.74500 49.82000 40.73200
C  5.39000 48.98900 39.53100
H  10.96900 56.03100 40.89700
H  7.11100 61.10400 42.47500
H  2.48100 56.86900 44.04600
H  8.89800 51.72900 41.73600
H  10.38500 53.69600 40.21300
H  11.85100 52.73500 41.32900
H  10.85500 52.14100 42.58200
H  11.58100 53.72200 42.75700
H  8.85900 52.81600 39.03200
H  7.27300 52.34700 39.42700
H  8.05400 50.02500 39.50400
H  9.69500 50.54900 39.78900
H  12.08400 57.96300 39.95700
H  12.49300 58.11800 41.61300
H  12.22600 59.58200 40.58200
H  8.77000 62.43300 42.76500
H  8.18900 62.44000 41.06300
H  9.56400 63.34100 41.58300
H  4.24300 61.05700 42.30300
H  3.09600 59.45600 44.57400
H  4.64600 62.62900 43.83700
H  5.79400 61.58800 44.58300
H  4.03900 61.43400 44.99300
H  2.03400 58.69900 42.04800
H  2.23000 60.44500 41.96200
H  0.41200 58.94600 43.58500
H  0.32000 60.68300 42.96200
H  1.17900 60.36800 44.46600
H  1.28500 54.96900 44.18000
H  2.02300 53.81300 45.24300
H  1.37900 53.23200 43.79300
H  6.19100 50.94400 42.83400
H  5.15000 49.67900 38.72100
H  4.39100 48.63600 39.78900
H  6.04200 48.18100 39.19900

