158

Mg 46.68000 17.00100 28.42700
C  44.88600 16.90600 31.50600
C  49.11300 18.82500 30.08900
C  47.89900 17.64400 25.44500
C  43.89000 15.48200 26.99100
N  46.88900 17.92000 30.60200
C  46.03800 17.74300 31.61200
C  46.70200 18.10300 32.98600
C  47.97900 18.87900 32.53000
C  48.04900 18.51100 31.00200
C  47.98900 20.41100 32.82500
C  47.06400 16.89000 33.89500
C  46.89900 17.04800 35.45400
H  46.53200 18.38000 36.13500
N  48.28300 17.97100 27.88000
C  49.12600 18.67500 28.67600
C  50.21400 19.25000 27.84000
C  49.96900 18.82800 26.51300
C  48.57800 18.18500 26.54500
C  51.38000 20.05700 28.40100
C  50.84700 18.99700 25.26300
O  50.46900 18.57600 24.14400
C  52.27700 19.31900 25.39600
N  45.99300 16.62100 26.46500
C  46.78600 16.88200 25.36900
C  46.17200 16.24000 24.07600
C  44.93400 15.54600 24.66000
C  44.96600 15.83700 26.11100
C  45.88300 17.24400 22.92600
C  44.88600 14.01900 24.34300
C  43.74700 13.68800 23.36200
N  44.81500 16.29700 29.07200
C  43.86400 15.66400 28.38100
C  42.80600 15.22600 29.22700
C  43.21600 15.61500 30.47000
C  44.46300 16.32800 30.34600
C  41.57400 14.38600 28.93400
C  42.81600 15.54500 31.86400
O  41.84300 15.02300 32.46400
C  43.91300 16.34400 32.59500
C  43.26900 17.50100 33.27000
O  42.96800 18.59000 32.79100
O  42.89600 16.99100 34.52500
C  42.35600 18.11600 35.42700
H  49.99400 19.27400 30.55300
H  48.34100 17.88900 24.47600
H  42.97200 15.00500 26.64100
H  46.10100 18.80700 33.56000
H  48.86300 18.47500 33.02500
H  47.07900 20.73400 33.33200
H  47.92900 20.82600 31.81900
H  48.90600 20.70700 33.33600
H  48.12000 16.62400 33.84100
H  46.51900 15.98900 33.61200
H  47.94500 16.98300 35.75600
H  46.36400 16.27400 36.00400
H  52.31100 19.49500 28.46600
H  51.12600 20.48200 29.37200
H  51.57200 20.90400 27.74200
H  52.46600 20.37900 25.57000
H  52.77500 19.00000 24.48100
H  52.61400 18.62800 26.16800
H  46.95900 15.57400 23.72100
H  44.08100 16.09200 24.25800
H  46.51800 16.91300 22.10500
H  46.18400 18.27300 23.12200
H  44.84900 17.24500 22.58000
H  44.75200 13.46500 25.27200
H  45.85700 13.72400 23.94700
H  44.16300 13.39000 22.40000
H  43.14200 14.55500 23.09900
H  43.24600 12.79500 23.73800
H  41.20300 14.60100 27.93100
H  40.70600 14.59700 29.55900
H  41.92400 13.35500 28.95800
H  44.28400 15.67600 33.37300
H  41.64600 18.74900 34.89500
H  43.07300 18.75900 35.93800
H  41.71700 17.62200 36.16000
Mg -11.90100 37.60800 42.21800
C  -9.76500 35.20000 40.92000
C  -9.96900 40.08600 40.82000
C  -14.45300 39.84400 42.64200
C  -14.12900 34.91100 43.10400
N  -10.07200 37.59800 40.94800
C  -9.43100 36.47100 40.55800
C  -8.15400 36.91100 39.77200
C  -8.19600 38.50800 39.75200
C  -9.45200 38.78000 40.58500
C  -6.92100 39.21600 40.36300
C  -7.98100 36.24400 38.34500
C  -6.67500 35.42400 38.11300
H  -5.81000 35.74400 36.90100
N  -12.10600 39.70700 41.91500
C  -11.19000 40.55400 41.36600
C  -11.64200 41.86200 41.33800
C  -12.96600 41.84200 41.92700
C  -13.24700 40.39100 42.20700
C  -10.84100 43.04400 40.83100
C  -13.79100 43.04500 42.16900
O  -13.32100 44.17100 42.01100
C  -15.13900 42.93000 42.69400
N  -13.91100 37.46400 42.72000
C  -14.75700 38.52300 42.92500
C  -16.10400 38.04600 43.49900
C  -15.95700 36.56000 43.71300
C  -14.59700 36.23200 43.10500
C  -16.76000 38.82100 44.71100
C  -17.12200 35.61200 43.10300
C  -17.47000 34.45000 44.05600
N  -11.91600 35.45700 42.18700
C  -12.83900 34.58600 42.67400
C  -12.30500 33.25100 42.53500
C  -11.09900 33.42400 41.79400
C  -10.93400 34.81600 41.62400
C  -13.00000 32.04100 42.92600
C  -9.93200 32.74700 41.15000
O  -9.63200 31.59100 41.03600
C  -8.99200 33.95000 40.60100
C  -7.70100 33.86500 41.24500
O  -6.59900 33.67100 40.63800
O  -7.88800 33.85800 42.61800
C  -6.66000 34.07800 43.35500
H  -9.31400 40.87300 40.44100
H  -15.36100 40.44300 42.73400
H  -14.74700 34.13000 43.55000
H  -7.22100 36.65300 40.27300
H  -8.22900 38.93800 38.75100
H  -6.69800 40.05400 39.70200
H  -6.10800 38.49000 40.37600
H  -7.12300 39.57800 41.37100
H  -8.01800 36.91000 37.48300
H  -8.84000 35.59000 38.19700
H  -6.92000 34.37900 37.92300
H  -5.96300 35.41100 38.93800
H  -10.13200 43.37700 41.58900
H  -11.42500 43.91300 40.53000
H  -10.24200 42.87100 39.93600
H  -15.50600 43.95600 42.71600
H  -15.15600 42.49800 43.69500
H  -15.75000 42.28600 42.06100
H  -16.80600 38.12800 42.66900
H  -15.80800 36.27400 44.75500
H  -16.16000 39.65300 45.08100
H  -17.23900 38.25400 45.51000
H  -17.55500 39.36200 44.19800
H  -16.78600 35.23000 42.13900
H  -17.96100 36.29700 42.98700
H  -16.67600 34.17600 44.75100
H  -17.67200 33.50600 43.55000
H  -18.40500 34.60400 44.59400
H  -13.25100 31.47500 42.02900
H  -13.82000 32.29900 43.59600
H  -12.29400 31.49900 43.55500
H  -8.86200 33.72800 39.54200
H  -6.83700 34.98300 43.93600
H  -5.74200 34.13200 42.77000
H  -6.55600 33.23000 44.03200

