158

Mg 46.84900 16.81800 28.09700
C  45.08900 16.59800 31.24600
C  49.24100 18.68600 29.74000
C  48.30600 17.02700 25.11700
C  44.10400 15.26700 26.67200
N  47.16300 17.52600 30.26800
C  46.29100 17.27700 31.36200
C  47.00000 17.74200 32.77700
C  48.12800 18.66700 32.13500
C  48.27500 18.23000 30.63900
C  47.75500 20.14500 32.24400
C  47.54100 16.47000 33.59900
C  47.66200 16.49800 35.08900
H  47.45100 17.80700 35.90800
N  48.55100 17.78200 27.52900
C  49.38100 18.55800 28.34600
C  50.46300 19.02800 27.53800
C  50.23000 18.51000 26.18100
C  48.96800 17.73600 26.21800
C  51.68100 19.83700 28.08900
C  51.07600 18.63800 24.90600
O  50.79500 18.05100 23.89700
C  52.17200 19.61300 24.89600
N  46.31500 16.19900 26.06300
C  47.11200 16.28300 25.02100
C  46.41300 15.73600 23.71500
C  45.14200 15.12800 24.27600
C  45.15500 15.56300 25.77500
C  46.10800 16.83700 22.68100
C  45.19400 13.58100 24.08800
C  44.71600 13.17600 22.66900
N  44.98300 16.08200 28.72000
C  44.03400 15.39600 27.99000
C  42.95200 15.01500 28.82200
C  43.33300 15.41200 30.14300
C  44.59300 16.08500 30.02000
C  41.70200 14.43000 28.36600
C  42.91800 15.46700 31.57600
O  41.92700 14.93600 32.08000
C  44.15100 16.13600 32.31700
C  43.74300 17.28500 33.23400
O  43.82600 18.48000 32.92800
O  43.13300 16.83500 34.35700
C  42.47800 17.72500 35.34800
H  50.06300 19.29500 30.12200
H  48.79700 16.98900 24.14200
H  43.29100 14.64300 26.29600
H  46.37700 18.34500 33.43700
H  49.07900 18.58100 32.66100
H  48.50500 20.81200 32.67000
H  46.91200 20.33900 32.90700
H  47.56600 20.63900 31.29200
H  48.50900 16.15300 33.21100
H  46.89900 15.59300 33.51700
H  48.65300 16.12800 35.35200
H  46.88500 15.89600 35.56200
H  52.62300 19.31900 27.90900
H  51.51200 20.05000 29.14500
H  51.54000 20.79100 27.58100
H  51.71100 20.58800 25.05100
H  52.47800 19.61500 23.85000
H  52.95100 19.41800 25.63300
H  47.11600 15.01100 23.30500
H  44.19500 15.49000 23.87500
H  46.84500 17.62700 22.82100
H  45.09800 17.24500 22.70800
H  46.36600 16.43500 21.70100
H  44.63800 13.09100 24.88700
H  46.22000 13.22100 24.16200
H  45.52400 12.75900 22.06700
H  44.27000 14.00100 22.11400
H  44.01400 12.35600 22.82300
H  41.65500 13.34100 28.37300
H  41.34400 14.70700 27.37500
H  40.87600 14.69100 29.02800
H  44.65600 15.43200 32.97800
H  41.70300 18.21200 34.75500
H  43.19400 18.39800 35.81800
H  41.99000 17.02300 36.02300
Mg 30.63900 57.59900 40.54900
C  27.61400 55.79600 39.53800
C  32.48400 54.96600 39.23400
C  33.29200 59.57700 40.53800
C  28.50100 60.40200 41.09300
N  30.12500 55.68600 39.56600
C  28.85400 55.13100 39.26700
C  28.96000 53.67100 38.83600
C  30.51900 53.36600 39.12600
C  31.09600 54.72900 39.39700
C  30.71000 52.42700 40.36300
C  28.58100 53.41000 37.31200
C  29.20600 54.33100 36.22500
H  28.60300 54.54100 34.73800
N  32.63000 57.37400 40.00300
C  33.15800 56.23000 39.50700
C  34.47300 56.39900 39.13500
C  34.81900 57.69700 39.58200
C  33.54600 58.27500 40.09600
C  35.34700 55.41700 38.41900
C  36.22100 58.22900 39.47000
O  37.09400 57.54100 38.92500
C  36.48500 59.63400 39.85300
N  30.83500 59.64900 40.83300
C  32.09300 60.22700 40.93100
C  32.00300 61.75600 41.06500
C  30.45800 61.95800 41.41800
C  29.83700 60.59700 41.05800
C  32.87000 62.45100 42.07900
C  29.93000 63.32400 40.75000
C  28.73800 64.06000 41.57700
N  28.53600 58.01500 40.45100
C  27.83500 59.16600 40.78400
C  26.45700 58.90900 40.67500
C  26.26100 57.56800 40.24500
C  27.58100 57.08700 40.07100
C  25.30000 59.85900 40.94300
C  25.28900 56.51300 39.70300
O  24.10400 56.53700 39.50600
C  26.20400 55.26700 39.23200
C  25.86300 54.14100 40.05700
O  26.45600 53.75800 41.08200
O  24.77300 53.57500 39.47400
C  24.36700 52.44300 40.18900
H  33.09600 54.12500 38.90300
H  34.05800 60.35200 40.46300
H  27.83500 61.25300 41.24900
H  28.30800 53.06800 39.46800
H  30.98600 52.88200 38.26700
H  31.09000 51.49000 39.95500
H  29.74900 52.32000 40.86500
H  31.48900 52.72600 41.06500
H  27.51600 53.18200 37.25700
H  29.10700 52.48500 37.07500
H  30.17700 53.87300 36.03500
H  29.46100 55.33000 36.58000
H  34.80600 54.61200 37.92100
H  35.99600 55.01500 39.19700
H  36.00800 55.89100 37.69300
H  37.51900 59.94200 39.70000
H  36.10000 59.88900 40.84000
H  36.02600 60.27400 39.09900
H  32.08000 62.08700 40.02900
H  30.29700 62.06600 42.49100
H  32.32800 62.95600 42.87800
H  33.46700 63.23700 41.61700
H  33.53300 61.71100 42.52800
H  29.61300 63.22100 39.71200
H  30.76200 64.02500 40.80600
H  28.53200 63.49100 42.48200
H  27.82700 64.00200 40.98200
H  28.97400 65.09800 41.81500
H  24.77700 59.72300 41.88900
H  24.59400 59.81200 40.11400
H  25.66100 60.88600 40.87700
H  26.17000 54.98600 38.18000
H  23.73600 51.79200 39.58300
H  23.76600 52.69500 41.06300
H  25.27100 51.89100 40.44700

