158

Mg 25.61000 0.73300 29.69400
C  27.44200 0.47100 32.56700
C  22.75200 1.40300 31.68000
C  23.69800 0.80600 26.89100
C  28.43400 -0.24300 27.82400
N  25.14900 0.79200 31.77700
C  26.16700 0.94000 32.74900
C  25.59600 1.28400 34.11200
C  24.03700 1.37700 33.93400
C  23.97700 1.16800 32.37200
C  23.20700 0.25000 34.73000
C  26.35500 2.56300 34.70500
C  27.12100 2.29800 35.95700
H  26.94300 3.35600 37.09200
N  23.56700 1.01300 29.30000
C  22.62500 1.21700 30.30100
C  21.35100 1.38300 29.61200
C  21.53500 1.25000 28.23200
C  23.01400 1.11100 28.05900
C  20.12700 1.77600 30.30500
C  20.48400 1.40000 27.07700
O  20.76100 1.16200 25.89100
C  19.07700 1.71200 27.44000
N  25.98000 0.51200 27.65600
C  25.08900 0.61800 26.65700
C  25.79100 0.37000 25.23400
C  27.26600 0.12700 25.57700
C  27.26000 0.13900 27.12100
C  25.11700 -0.86300 24.50800
C  28.21700 1.21900 24.97600
C  28.15900 1.62900 23.47900
N  27.48000 0.12100 30.08500
C  28.53800 -0.23100 29.23600
C  29.74600 -0.45500 30.02200
C  29.34500 -0.25200 31.30700
C  27.98700 0.10100 31.31400
C  31.09300 -0.95400 29.40300
C  29.80400 -0.29900 32.66800
O  30.86200 -0.57000 33.19400
C  28.58600 0.16100 33.56200
C  28.26600 -0.91300 34.58000
O  27.48500 -1.85700 34.40900
O  28.96400 -0.55900 35.68500
C  28.63900 -1.33200 36.89500
H  21.98500 1.76900 32.36600
H  23.06800 0.85300 26.00100
H  29.25700 -0.56200 27.18100
H  25.71300 0.37000 34.69300
H  23.67200 2.38000 34.15800
H  22.89700 -0.48800 33.99000
H  22.30700 0.69300 35.15800
H  23.88300 -0.09200 35.51400
H  25.62100 3.32100 34.97800
H  27.01600 2.89200 33.90300
H  28.17000 2.36400 35.67000
H  26.94700 1.28400 36.31900
H  19.45700 0.95300 30.55400
H  19.38800 2.46600 29.89800
H  20.33000 2.21600 31.28200
H  18.26800 1.62700 26.71400
H  19.19300 2.75500 27.73700
H  18.79600 1.04200 28.25200
H  25.63100 1.19500 24.53900
H  27.75000 -0.78500 25.22700
H  24.70300 -1.63700 25.15400
H  26.00300 -1.36400 24.11800
H  24.32800 -0.47800 23.86100
H  29.26800 0.96400 25.11300
H  28.10100 2.13500 25.55400
H  29.18200 1.64100 23.10200
H  27.76200 2.64300 23.51600
H  27.60500 0.96200 22.81900
H  31.35800 -0.48900 28.45400
H  30.86400 -1.98500 29.13300
H  31.99900 -0.91100 30.00800
H  28.88800 1.12000 33.98400
H  28.74100 -2.38800 36.64300
H  27.63800 -1.17200 37.29500
H  29.34500 -1.07500 37.68500
Mg 1.47900 42.89700 26.09400
C  3.53400 43.11600 28.91900
C  -0.99100 41.63400 28.39500
C  -0.46600 41.67600 23.54700
C  4.20200 43.09700 23.94900
N  1.29400 42.39900 28.45600
C  2.25700 42.66000 29.34500
C  1.70500 42.50100 30.79900
C  0.23400 41.87100 30.64800
C  0.15200 42.00300 29.08300
C  -0.10900 40.47600 31.30800
C  1.72700 43.84500 31.49100
C  1.84800 43.97000 33.04100
H  1.88400 42.58700 33.80100
N  -0.51900 42.01200 25.96100
C  -1.32500 41.61100 27.02600
C  -2.58800 41.17100 26.48000
C  -2.51600 41.13800 25.04800
C  -1.12500 41.62000 24.74300
C  -3.79900 40.86200 27.30500
C  -3.47200 40.63100 24.02100
O  -3.30100 40.62900 22.81300
C  -4.65600 39.99600 24.52800
N  1.77200 42.57600 24.07100
C  0.81500 42.11500 23.25100
C  1.31000 42.13200 21.77800
C  2.74000 42.82200 21.83100
C  2.96800 42.76600 23.35400
C  1.18500 40.71800 21.02800
C  2.77700 44.35500 21.24200
C  2.51500 45.62200 22.08800
N  3.46500 43.19400 26.31900
C  4.42500 43.33000 25.36700
C  5.68800 43.76800 25.99000
C  5.41200 43.62500 27.37200
C  4.02300 43.25800 27.54100
C  6.99100 43.83300 25.32200
C  6.04300 43.62500 28.61400
O  7.21300 43.71400 28.90700
C  4.89200 43.36300 29.69600
C  5.31500 42.26200 30.55200
O  5.26600 41.06400 30.32400
O  5.65100 42.81300 31.73600
C  6.09900 41.94600 32.83000
H  -1.74300 41.35800 29.13700
H  -0.98000 41.42200 22.61800
H  4.94100 43.39500 23.20300
H  2.36500 41.81600 31.33100
H  -0.53000 42.49000 31.11700
H  0.87500 40.15900 31.65300
H  -0.55300 39.72600 30.65300
H  -0.71500 40.54700 32.21100
H  0.82100 44.42800 31.32400
H  2.57000 44.41500 31.10100
H  1.00200 44.51500 33.45800
H  2.76900 44.52300 33.22300
H  -4.71300 41.30000 26.90600
H  -3.65500 41.36000 28.26400
H  -3.82400 39.78200 27.45300
H  -4.94600 39.34900 23.70100
H  -5.42200 40.76000 24.66000
H  -4.57800 39.35900 25.40900
H  0.60100 42.73200 21.20700
H  3.49400 42.16100 21.40300
H  2.09100 40.11100 21.02900
H  0.91900 40.93400 19.99400
H  0.35200 40.14500 21.43500
H  1.94900 44.40700 20.53600
H  3.74300 44.49900 20.75900
H  1.95000 46.36500 21.52600
H  3.44200 46.04900 22.47200
H  1.87000 45.45000 22.95000
H  6.91300 44.38500 24.38500
H  7.36600 42.82500 25.14600
H  7.72900 44.28400 25.98500
H  4.76400 44.23600 30.33600
H  5.36500 42.10800 33.61900
H  7.03900 42.38200 33.17000
H  6.13900 40.89800 32.53100

