158

Mg 24.74500 -7.80600 46.18700
C  27.55300 -5.63100 45.62200
C  23.02100 -5.86500 44.04800
C  22.66400 -10.33600 45.85800
C  27.01900 -9.87800 47.97300
N  25.23700 -5.94500 45.06800
C  26.39800 -5.26600 44.94300
C  26.21700 -4.05800 44.03400
C  24.68500 -3.82900 44.17800
C  24.24700 -5.29800 44.39300
C  24.14500 -2.80300 45.22600
C  26.75500 -4.24100 42.61000
C  26.98400 -3.01200 41.66800
H  26.09100 -2.97800 40.45500
N  22.94600 -8.06200 45.19800
C  22.42500 -7.13700 44.35700
C  21.13200 -7.60800 43.99600
C  20.94400 -8.96000 44.53000
C  22.24500 -9.20800 45.19300
C  20.12900 -6.72800 43.23200
C  19.74300 -9.84400 44.45300
O  18.70500 -9.49200 43.87300
C  19.75500 -11.23400 45.05900
N  24.94000 -9.78700 46.80000
C  23.83300 -10.59800 46.59100
C  23.98500 -11.99700 47.30200
C  25.33300 -11.83300 48.13400
C  25.77500 -10.40300 47.64600
C  22.67300 -12.49000 48.11600
C  26.47200 -12.94000 47.90700
C  27.41100 -13.28100 49.06700
N  26.85800 -7.72300 46.91300
C  27.54600 -8.62700 47.59600
C  28.91200 -8.10100 47.80600
C  28.95300 -6.86400 47.05500
C  27.72600 -6.73800 46.50200
C  30.04100 -8.76100 48.48100
C  29.82300 -5.78200 46.56700
O  30.98400 -5.58100 46.90100
C  28.92100 -5.00100 45.46300
C  29.00500 -3.55700 45.70200
O  28.37400 -2.91000 46.51800
O  29.77000 -3.07300 44.68500
C  29.35900 -1.75500 44.21900
H  22.41300 -5.18500 43.44700
H  22.06300 -11.24600 45.80100
H  27.64700 -10.49800 48.61700
H  26.65900 -3.18100 44.50700
H  24.34500 -3.36500 43.25200
H  24.94200 -2.40900 45.85600
H  23.53600 -3.40100 45.90400
H  23.49900 -2.04900 44.77700
H  26.02400 -4.89800 42.13900
H  27.73200 -4.72400 42.61400
H  27.99500 -3.18000 41.29800
H  26.99700 -1.98400 42.03200
H  20.23400 -5.70200 43.58400
H  19.11100 -7.11200 43.30200
H  20.36500 -6.58800 42.17700
H  19.91700 -11.22900 46.13700
H  20.58400 -11.65000 44.48800
H  18.82300 -11.76600 44.86700
H  24.12800 -12.71900 46.49800
H  25.03500 -11.75600 49.18000
H  21.79000 -11.88400 47.90900
H  22.77200 -12.50100 49.20100
H  22.40000 -13.46100 47.70300
H  26.98900 -12.79100 46.96000
H  25.86400 -13.84000 47.81400
H  26.97800 -14.00900 49.75200
H  27.68500 -12.47500 49.74700
H  28.30100 -13.77500 48.67500
H  30.53900 -7.94300 49.00000
H  30.75200 -9.12400 47.74000
H  29.63800 -9.61800 49.02100
H  29.22900 -5.24400 44.44600
H  28.37400 -1.46800 44.58700
H  29.22500 -1.79900 43.13800
H  30.12900 -1.07100 44.57800
Mg 47.31800 24.59000 28.66800
C  47.98100 26.76700 31.15900
C  46.46300 22.21800 30.86000
C  46.55700 22.74200 26.00000
C  48.49600 27.04300 26.27900
N  47.37700 24.53400 30.84800
C  47.50400 25.55000 31.69600
C  47.34500 25.05200 33.19400
C  46.93300 23.59000 32.97900
C  46.89300 23.38300 31.46300
C  47.85200 22.62800 33.71700
C  46.31000 25.93500 33.93000
C  46.77500 26.47600 35.38400
H  45.70000 26.50300 36.34700
N  46.69200 22.75900 28.44500
C  46.24900 21.92500 29.47900
C  45.94000 20.67300 28.91600
C  46.00400 20.72200 27.52200
C  46.38200 22.16800 27.29000
C  45.77400 19.42100 29.85900
C  45.87000 19.63500 26.43600
O  46.22200 19.85800 25.30600
C  45.32100 18.32600 26.68100
N  47.45800 24.79900 26.44200
C  47.13200 23.90400 25.58200
C  47.35400 24.26100 24.11300
C  47.73700 25.77900 24.27500
C  47.95800 25.84000 25.78700
C  48.48900 23.35300 23.50100
C  46.66400 26.79800 23.70100
C  45.43700 27.18800 24.53600
N  48.11600 26.46700 28.69000
C  48.45600 27.35600 27.70400
C  48.87200 28.67700 28.20300
C  48.70000 28.50000 29.60300
C  48.25500 27.13900 29.83200
C  49.48500 29.88900 27.40100
C  48.79000 29.10600 30.89300
O  49.11000 30.24500 31.20200
C  48.27400 28.04700 31.87800
C  49.26800 27.89800 32.98800
O  50.20100 27.15800 32.82600
O  49.04900 28.82700 33.97000
C  49.81600 28.75300 35.22300
H  46.17100 21.49100 31.62100
H  46.17500 22.03400 25.26200
H  49.01500 27.72900 25.60700
H  48.28700 25.16300 33.73100
H  45.91900 23.41800 33.33900
H  47.23000 21.92300 34.26900
H  48.44200 23.12700 34.48700
H  48.55500 21.98000 33.19300
H  45.35500 25.47100 34.17800
H  46.09600 26.83900 33.36100
H  47.22400 27.45100 35.19700
H  47.51100 25.73900 35.70700
H  46.46600 18.62600 29.58000
H  44.76400 19.04600 29.69600
H  45.92600 19.59300 30.92500
H  44.47100 18.27700 27.36200
H  46.20900 17.80100 27.03500
H  45.15400 17.75000 25.77100
H  46.43100 24.08000 23.56300
H  48.68600 25.91700 23.75600
H  48.38300 22.35200 23.92000
H  49.44900 23.70200 23.88200
H  48.54000 23.30900 22.41300
H  46.30200 26.25500 22.82800
H  47.30900 27.59600 23.33300
H  45.50500 26.53100 25.40300
H  44.60800 26.93800 23.87300
H  45.55900 28.21000 24.89700
H  48.88800 30.12600 26.52000
H  50.46600 29.50300 27.12600
H  49.51700 30.85300 27.90900
H  47.36900 28.54300 32.22900
H  49.25500 28.26800 36.02300
H  49.95600 29.77100 35.58400
H  50.77800 28.26300 35.07500

