158

Mg 42.63400 41.94600 26.04500
C  41.75400 44.23700 28.37300
C  43.89400 39.94700 28.72400
C  43.91900 39.68900 23.76600
C  42.27100 44.32100 23.55300
N  42.75900 42.16100 28.27300
C  42.19300 43.07100 28.96600
C  42.05200 42.59400 30.45300
C  43.05500 41.43600 30.57400
C  43.19500 41.10400 29.08600
C  44.29900 41.67400 31.38500
C  40.56700 42.38000 30.84900
C  40.40800 41.64400 32.25300
H  39.98500 42.61900 33.38800
N  43.68000 40.05200 26.25700
C  44.03100 39.40100 27.41600
C  44.53800 38.11900 27.07900
C  44.38200 37.89000 25.60400
C  44.00300 39.24700 25.13600
C  45.18900 37.23000 28.06500
C  44.70800 36.70400 24.77600
O  44.70500 36.75800 23.57400
C  45.05100 35.45000 25.49600
N  43.02300 42.02700 24.00200
C  43.40600 40.91400 23.26900
C  43.31400 41.16300 21.82200
C  42.67300 42.57100 21.71700
C  42.69800 43.07000 23.18100
C  44.65700 40.92300 21.07500
C  41.15300 42.66200 21.18000
C  40.13600 42.09600 22.19500
N  42.07600 43.89600 25.96100
C  41.88100 44.75000 24.84300
C  41.21000 45.98100 25.33700
C  41.17000 45.84700 26.75700
C  41.69800 44.60000 27.05400
C  40.84600 47.11900 24.50600
C  40.73800 46.46500 28.03300
O  40.21400 47.53000 28.38700
C  41.20000 45.42200 29.18600
C  42.33400 45.93100 30.06100
O  43.49500 46.06200 29.74000
O  41.98700 46.03900 31.37900
C  43.04200 46.49000 32.32500
H  44.17700 39.35900 29.60000
H  44.26800 39.05500 22.94900
H  42.20200 45.04700 22.74100
H  42.34200 43.43800 31.07900
H  42.55000 40.62900 31.10300
H  45.25900 41.35000 30.98400
H  44.18700 41.07400 32.28800
H  44.34000 42.71700 31.70200
H  40.11700 41.78100 30.05700
H  40.06700 43.34700 30.87900
H  41.31100 41.19200 32.66300
H  39.70700 40.81800 32.13000
H  44.60000 36.35800 28.35000
H  45.44500 37.80500 28.95500
H  46.11000 36.83800 27.63200
H  44.26100 35.05800 26.13500
H  46.01800 35.47300 26.00000
H  45.10800 34.61500 24.79800
H  42.71200 40.34500 21.42700
H  43.22100 43.28300 21.10000
H  45.00700 41.84500 20.61000
H  44.49800 40.20900 20.26800
H  45.43300 40.48800 21.70400
H  41.03200 42.15100 20.22500
H  40.97000 43.70900 20.93800
H  40.69300 41.51400 22.93000
H  39.42600 41.36000 21.82000
H  39.50700 42.86100 22.64900
H  41.63200 47.73600 24.07100
H  40.37800 47.86400 25.14900
H  40.20500 46.91200 23.64900
H  40.33500 45.20700 29.81400
H  43.56600 45.56000 32.54300
H  42.78200 46.98900 33.25800
H  43.70100 47.21300 31.84400
Mg 6.57000 54.35700 41.67600
C  5.15300 51.27600 41.03100
C  9.48400 53.27900 40.23800
C  7.81500 57.53700 41.71900
C  3.42400 55.56200 42.47600
N  7.07600 52.54900 40.51100
C  6.40700 51.39300 40.47900
C  7.11700 50.36700 39.65800
C  8.66400 50.93300 39.74400
C  8.40400 52.34100 40.20300
C  9.70200 50.06600 40.52500
C  6.58600 50.30600 38.19100
C  6.41500 48.91400 37.53200
H  7.02500 48.79400 36.15900
N  8.43900 55.23100 41.17800
C  9.44900 54.63300 40.56100
C  10.49800 55.50800 40.31800
C  10.08100 56.72900 40.65300
C  8.74100 56.56400 41.27200
C  11.84700 55.09200 39.58300
C  10.94000 57.94500 40.40900
O  12.01000 57.91500 39.84100
C  10.45500 59.40000 40.74200
N  5.68400 56.29100 41.94500
C  6.46000 57.42200 42.12600
C  5.58300 58.62200 42.62600
C  4.23100 57.91600 42.95300
C  4.45300 56.54700 42.41000
C  6.28300 59.30700 43.89000
C  2.96900 58.73200 42.60600
C  1.89600 58.76600 43.70300
N  4.65300 53.58900 41.80400
C  3.48100 54.24700 42.15900
C  2.40400 53.20100 42.17300
C  2.99100 52.00400 41.84900
C  4.39300 52.34900 41.59100
C  1.01000 53.56200 42.74300
C  2.96600 50.51200 41.70900
O  2.02400 49.76200 41.94400
C  4.27000 50.08100 41.22500
C  3.91900 49.24300 40.05200
O  3.23400 49.48200 39.03800
O  4.33600 47.97600 40.38200
C  3.67600 46.83900 39.81800
H  10.45900 53.05300 39.80100
H  8.20400 58.55600 41.66600
H  2.52500 56.05900 42.84800
H  6.95300 49.40000 40.13400
H  9.04700 51.15800 38.74900
H  9.08200 49.25300 40.90300
H  10.13900 50.56500 41.39100
H  10.38200 49.56800 39.83400
H  7.22100 50.91100 37.54300
H  5.60200 50.76300 38.29000
H  5.43400 48.43800 37.50500
H  6.99200 48.17500 38.08800
H  11.68900 55.11300 38.50500
H  12.23100 54.09000 39.77300
H  12.71500 55.66500 39.91000
H  11.22900 60.13600 40.52900
H  10.14800 59.50300 41.78200
H  9.65400 59.73500 40.08300
H  5.59200 59.38900 41.85200
H  4.32200 57.72700 44.02300
H  7.33100 59.00800 43.92400
H  5.80600 59.10500 44.84900
H  6.19600 60.35400 43.60200
H  2.59700 58.23000 41.71300
H  3.15600 59.77000 42.33200
H  2.20600 58.42300 44.69000
H  1.06400 58.14600 43.36800
H  1.46300 59.76600 43.69400
H  0.35300 52.82500 42.28200
H  0.71500 54.52600 42.32900
H  0.82400 53.37300 43.80100
H  4.75600 49.36600 41.88900
H  2.83100 47.25100 39.26600
H  3.48100 46.16900 40.65600
H  4.38600 46.32500 39.17000

