158

Mg 25.47300 1.65400 29.46300
C  27.68400 1.31600 32.37100
C  22.86400 1.70700 31.56100
C  23.59800 2.06400 26.80100
C  28.21500 0.96600 27.52600
N  25.33000 1.41000 31.73400
C  26.30500 1.48000 32.70700
C  25.69600 1.69000 34.05600
C  24.12100 1.59300 33.84900
C  24.10400 1.56100 32.28000
C  23.37800 0.35600 34.45300
C  26.18100 2.87200 34.87300
C  26.76900 2.68700 36.26300
H  26.59300 3.80800 37.31900
N  23.44700 1.93900 29.27700
C  22.50400 1.85500 30.21900
C  21.19900 2.06500 29.76200
C  21.35900 2.20100 28.30300
C  22.85000 2.05300 28.06100
C  19.94800 2.06100 30.66100
C  20.29400 2.31800 27.19500
O  20.55800 2.49800 26.00400
C  18.82900 2.28000 27.65200
N  25.97600 1.72900 27.43100
C  24.96300 2.01800 26.52200
C  25.59000 2.09600 25.08700
C  27.06300 1.61800 25.33100
C  27.09200 1.34000 26.86900
C  24.85700 1.42800 23.86100
C  28.07200 2.68900 24.75300
C  28.29100 3.97700 25.64400
N  27.58600 1.31400 29.82400
C  28.55900 0.91900 28.92600
C  29.81500 0.67300 29.58200
C  29.55000 0.80400 30.93700
C  28.15800 1.20100 31.03600
C  31.15700 0.36600 28.83500
C  30.10700 0.77200 32.19400
O  31.19500 0.47200 32.62400
C  28.94000 1.16000 33.25800
C  28.94100 0.06700 34.18000
O  28.52400 -1.05500 33.92100
O  29.52200 0.43100 35.43500
C  29.35700 -0.65100 36.46000
H  22.14500 1.93400 32.35100
H  22.96800 2.09200 25.90900
H  29.09200 0.68600 26.93800
H  25.95600 0.84900 34.69800
H  23.65900 2.51500 34.20200
H  24.03000 -0.28500 35.04700
H  22.95700 -0.25900 33.65700
H  22.57600 0.75900 35.07100
H  25.55600 3.76400 34.90000
H  27.02700 3.24500 34.29500
H  27.83400 2.75400 36.04000
H  26.64800 1.66900 36.63600
H  20.21900 2.17500 31.71100
H  19.52200 1.06100 30.58800
H  19.20700 2.82400 30.42500
H  18.79000 1.28300 28.09200
H  18.14100 2.38700 26.81300
H  18.60700 3.11300 28.31900
H  25.53800 3.16900 24.90000
H  27.23900 0.68400 24.79600
H  24.00700 0.84900 24.21900
H  25.52900 0.71000 23.39200
H  24.59200 2.14700 23.08600
H  27.68900 3.06800 23.80600
H  28.97000 2.18400 24.39500
H  29.36900 4.11900 25.72200
H  27.80800 3.93200 26.62000
H  27.82900 4.79000 25.08400
H  31.25000 -0.68100 28.54700
H  32.01000 0.43600 29.51000
H  31.35300 0.98600 27.96000
H  29.17100 2.11900 33.72200
H  28.58900 -0.34800 37.17200
H  30.27700 -0.79700 37.02700
H  29.18000 -1.66100 36.09000
Mg -6.25800 25.66800 26.08000
C  -5.08400 27.15000 29.04000
C  -8.22800 23.61900 28.08900
C  -6.89000 23.90400 23.43400
C  -3.91900 27.55000 24.37600
N  -6.54000 25.46100 28.36200
C  -5.96300 26.11500 29.36800
C  -6.53800 25.66400 30.62500
C  -7.33000 24.40600 30.28100
C  -7.42900 24.53500 28.79700
C  -6.63200 23.06900 30.72900
C  -7.45000 26.77400 31.31000
C  -7.40300 26.82500 32.90700
H  -6.64300 25.69700 33.73100
N  -7.45900 24.03600 25.72900
C  -8.27600 23.44600 26.64200
C  -9.05200 22.39900 26.01800
C  -8.62300 22.31400 24.66800
C  -7.59700 23.36500 24.54100
C  -10.10000 21.54600 26.70300
C  -9.18700 21.47400 23.62600
O  -8.75800 21.57200 22.46500
C  -10.25600 20.42100 23.88700
N  -5.39000 25.64900 24.18000
C  -6.00500 24.92100 23.24100
C  -5.42600 25.22300 21.84900
C  -4.56300 26.52900 22.05200
C  -4.68400 26.64700 23.60000
C  -4.70800 23.99000 21.15900
C  -5.08600 27.69800 21.24100
C  -6.41700 28.33800 21.63700
N  -4.79400 27.12000 26.48400
C  -3.83300 27.72900 25.74100
C  -3.15700 28.73900 26.48500
C  -3.59000 28.54200 27.78200
C  -4.51400 27.47900 27.74800
C  -2.21300 29.66300 25.94200
C  -3.45300 29.00500 29.14900
O  -2.90200 30.01600 29.65200
C  -4.31700 28.03600 30.01300
C  -3.44800 27.40200 30.99900
O  -2.89700 26.30900 30.92600
O  -3.31900 28.28700 32.06100
C  -2.65600 27.69400 33.27200
H  -8.83500 22.98400 28.73800
H  -6.91700 23.24000 22.56700
H  -3.19600 28.15700 23.82800
H  -5.67700 25.43000 31.25200
H  -8.34700 24.48400 30.66600
H  -6.41200 22.51400 29.81700
H  -7.24100 22.42700 31.36600
H  -5.70800 23.23700 31.28300
H  -8.50700 26.67200 31.06500
H  -7.09800 27.74600 30.96300
H  -8.44800 26.82100 33.22000
H  -6.98600 27.78500 33.21300
H  -9.65100 20.55300 26.74000
H  -11.01600 21.45400 26.12000
H  -10.22600 21.69500 27.77500
H  -9.88900 19.82600 24.72400
H  -10.39400 19.83700 22.97700
H  -11.21100 20.85000 24.19200
H  -6.34200 25.27100 21.26000
H  -3.53100 26.22100 21.87900
H  -5.27100 23.55200 20.33500
H  -4.50100 23.18800 21.86800
H  -3.73600 24.29500 20.77300
H  -5.19900 27.29000 20.23700
H  -4.30000 28.44700 21.33500
H  -7.04800 27.52100 21.98600
H  -6.97800 28.76300 20.80500
H  -6.34800 29.17400 22.33300
H  -2.36000 30.58800 26.49800
H  -2.37800 29.74500 24.86700
H  -1.17400 29.43000 26.17700
H  -4.97400 28.68400 30.59300
H  -3.44900 27.63200 34.01700
H  -1.84600 28.29800 33.68200
H  -2.35500 26.64800 33.22100

