158

Mg 29.22500 57.92700 41.02600
C  26.67800 55.78000 39.65400
C  31.52800 55.65800 39.92500
C  31.41500 60.13600 41.66100
C  26.64700 60.21200 41.96600
N  28.98900 55.99600 39.89100
C  27.95300 55.35100 39.38700
C  28.45400 54.13300 38.61700
C  29.86800 53.85300 39.22600
C  30.15500 55.25600 39.76000
C  29.96500 52.82600 40.33500
C  28.54200 54.38700 37.11400
C  27.59900 53.47300 36.25600
H  26.78000 54.13100 35.16400
N  31.22700 57.90800 40.75300
C  32.00900 56.89800 40.31200
C  33.38300 57.28400 40.36400
C  33.36000 58.59900 40.98500
C  31.98700 58.92300 41.22300
C  34.52400 56.39400 39.93300
C  34.63600 59.31700 41.48900
O  35.70300 58.91000 41.12000
C  34.55400 60.64200 42.24700
N  29.06400 60.05700 41.59800
C  30.11700 60.66900 41.92700
C  29.83300 62.08300 42.34100
C  28.39600 61.94400 42.85200
C  27.97900 60.70200 42.01800
C  30.85300 62.68900 43.38800
C  27.47900 63.19000 42.55000
C  26.71900 63.75300 43.70200
N  27.12900 58.00800 40.88100
C  26.22200 59.03000 41.39100
C  24.88100 58.60000 41.08200
C  25.03400 57.34400 40.49900
C  26.38800 57.02600 40.34300
C  23.56000 59.38900 41.31800
C  24.25300 56.30000 39.90600
O  23.02100 56.23100 39.80800
C  25.27200 55.24300 39.26100
C  25.07500 53.97000 39.91300
O  25.51100 53.62900 41.00400
O  24.23800 53.23200 39.16600
C  23.61100 52.12200 39.81700
H  32.22600 54.82500 39.81800
H  32.17500 60.91500 41.75100
H  25.89800 60.88900 42.38200
H  27.76600 53.29300 38.70900
H  30.58400 53.56700 38.45600
H  29.94200 53.34000 41.29600
H  30.92500 52.30900 40.33600
H  29.13400 52.12500 40.26400
H  29.49800 54.13100 36.65900
H  28.37900 55.43700 36.87000
H  26.87400 53.03400 36.94200
H  28.15800 52.60800 35.90000
H  35.28200 56.96100 39.39200
H  34.23900 55.52300 39.34200
H  34.95700 55.95500 40.83200
H  35.51900 60.94400 42.65300
H  33.87000 60.62400 43.09500
H  34.29300 61.28900 41.41000
H  29.84200 62.71000 41.45000
H  28.42400 61.68400 43.91000
H  30.34800 63.26700 44.16200
H  31.49400 63.37000 42.82700
H  31.49200 61.91500 43.81300
H  26.60700 62.99100 41.92600
H  28.07800 63.89400 41.97300
H  26.78300 63.12400 44.58900
H  25.65600 63.80700 43.46600
H  27.14500 64.68300 44.07800
H  23.62100 60.39900 40.91300
H  23.34600 59.40600 42.38700
H  22.71200 58.91800 40.82000
H  25.15400 55.09400 38.18800
H  23.82500 51.15500 39.36200
H  22.54500 52.33000 39.90600
H  23.87900 52.04000 40.87100
Mg 36.06000 48.41300 25.96800
C  35.89500 46.63000 29.07300
C  35.37900 51.25100 27.56800
C  35.79200 49.87800 23.00800
C  36.74000 45.40200 24.44200
N  35.71200 48.87600 28.11700
C  35.75300 48.09200 29.20000
C  35.55700 48.85400 30.54200
C  35.27300 50.32800 30.00500
C  35.40900 50.18100 28.46500
C  33.83300 50.76800 30.57400
C  36.83900 48.75900 31.46200
C  36.58600 48.08100 32.81400
H  35.51200 48.67900 33.84800
N  35.69700 50.28000 25.35700
C  35.47700 51.33800 26.19600
C  35.24300 52.50900 25.46400
C  35.18400 52.11000 24.08700
C  35.53400 50.67000 24.09800
C  35.06900 53.95100 26.17500
C  34.88900 52.91800 22.86800
O  34.84100 52.47000 21.73900
C  34.73100 54.33000 23.06800
N  36.15200 47.72700 24.03800
C  36.01800 48.51800 22.94200
C  36.42600 47.80900 21.66700
C  36.96200 46.44700 22.18000
C  36.63300 46.54200 23.63800
C  35.23700 47.74400 20.67100
C  38.49100 46.23900 22.00400
C  38.80800 45.06600 21.09600
N  36.39100 46.43200 26.57000
C  36.66100 45.28100 25.83300
C  36.78400 44.16600 26.71900
C  36.47100 44.68500 27.99000
C  36.17300 46.00100 27.82400
C  37.17700 42.76800 26.38300
C  36.48700 44.27400 29.38800
O  36.77100 43.27400 29.96000
C  35.99400 45.59400 30.16200
C  34.65900 45.29400 30.69000
O  33.75900 44.78300 30.01100
O  34.68000 45.38100 32.09300
C  33.52900 44.78700 32.81100
H  35.07700 52.16600 28.08200
H  35.68900 50.31900 22.01400
H  37.06500 44.46300 23.98800
H  34.81100 48.29300 31.10500
H  36.07800 50.97800 30.34900
H  33.87100 51.81100 30.89200
H  33.43900 50.10400 31.34300
H  33.13200 50.68800 29.74300
H  37.22300 49.76100 31.65400
H  37.53400 48.13300 30.90200
H  37.54500 48.03900 33.33100
H  36.44900 47.00500 32.70800
H  35.42600 54.84000 25.65500
H  35.54500 53.95600 27.15500
H  34.03100 54.25700 26.31400
H  34.67200 54.78900 22.08100
H  35.61200 54.72300 23.57500
H  33.79600 54.52600 23.59300
H  37.25200 48.30900 21.16200
H  36.30700 45.67500 21.77600
H  34.32200 47.74300 21.26400
H  35.30600 46.83800 20.06900
H  35.25800 48.54300 19.93000
H  38.86000 45.97900 22.99600
H  39.02100 47.14700 21.71500
H  38.02400 44.31500 20.99400
H  39.67600 44.60400 21.56700
H  39.17600 45.34300 20.10800
H  36.91900 42.31600 25.42500
H  36.84500 42.15100 27.21900
H  38.26600 42.73000 26.40300
H  36.65500 45.85100 30.98900
H  33.15300 43.94600 32.22900
H  32.69300 45.47700 32.93400
H  33.84100 44.39600 33.77900

