158

Mg 47.57300 24.34600 28.26300
C  48.48600 26.56900 30.84900
C  46.76200 21.97300 30.66100
C  46.71300 22.18600 25.80900
C  48.44900 26.78900 26.00400
N  47.56800 24.25300 30.48900
C  47.95800 25.29600 31.34900
C  47.63000 24.90300 32.81500
C  47.25300 23.37100 32.65700
C  47.18800 23.17700 31.18100
C  48.28800 22.41400 33.32600
C  46.56700 25.74100 33.52100
C  46.16500 25.42200 34.91900
H  46.47100 26.46000 36.03200
N  46.84500 22.36900 28.22500
C  46.49900 21.55800 29.33600
C  45.93600 20.33300 28.91800
C  45.92200 20.33600 27.48700
C  46.53900 21.62100 27.08400
C  45.41100 19.26600 29.79400
C  45.52700 19.23900 26.53200
O  45.52000 19.41100 25.29900
C  45.12700 17.86100 27.08700
N  47.78100 24.38000 26.16600
C  47.32200 23.41800 25.38000
C  47.38500 23.79200 23.80500
C  47.71000 25.28900 23.98800
C  48.02700 25.55700 25.47700
C  48.39300 23.00100 23.03100
C  46.56200 26.28400 23.50800
C  47.08100 27.59900 22.71100
N  48.26900 26.26600 28.27900
C  48.61200 27.16500 27.30400
C  48.98600 28.46000 27.78400
C  48.81400 28.24000 29.13300
C  48.48100 26.87200 29.42000
C  49.33000 29.69600 27.06400
C  48.97800 29.00200 30.42900
O  49.34400 30.15000 30.65800
C  48.77000 27.89000 31.57400
C  49.90400 27.80400 32.50300
O  51.00000 27.25800 32.32700
O  49.55100 28.43700 33.62900
C  50.37400 28.33400 34.87900
H  46.48800 21.22000 31.40300
H  46.36900 21.63300 24.93200
H  48.63900 27.55700 25.25100
H  48.59100 25.06300 33.30400
H  46.24200 23.23200 33.04000
H  48.68900 21.73300 32.57500
H  47.78500 21.72700 34.00600
H  49.14300 22.81200 33.87300
H  45.63400 25.60100 32.97500
H  46.75700 26.80300 33.37100
H  46.63700 24.49800 35.25200
H  45.11200 25.14900 34.84900
H  45.50200 19.42500 30.86800
H  46.03200 18.38000 29.65800
H  44.39500 19.09700 29.43900
H  44.26700 17.92400 27.75500
H  45.92600 17.46900 27.71600
H  44.84000 17.26200 26.22300
H  46.38200 23.60000 23.42300
H  48.58500 25.46600 23.36300
H  49.36600 23.49200 23.06600
H  48.19600 22.84500 21.97000
H  48.54600 22.02800 23.49900
H  45.96900 26.63400 24.35300
H  45.92500 25.67900 22.86300
H  48.16700 27.55200 22.63400
H  46.72000 28.47200 23.25500
H  46.52100 27.68100 21.77900
H  49.07200 30.51700 27.73300
H  48.71000 29.79500 26.17300
H  50.37500 29.75500 26.76100
H  47.82200 28.15000 32.04600
H  51.10900 29.13800 34.83200
H  50.97500 27.42500 34.85700
H  49.79000 28.41900 35.79500
Mg -9.72900 40.03900 39.01500
C  -8.60200 36.88900 38.36700
C  -6.64500 41.17700 38.59900
C  -11.03200 43.08800 38.59500
C  -13.03500 38.81900 38.86100
N  -7.88400 39.08700 38.35900
C  -7.61600 37.76500 38.15600
C  -6.14700 37.47500 38.00800
C  -5.50500 38.85400 38.36500
C  -6.73200 39.80400 38.46000
C  -4.63800 38.83800 39.63200
C  -5.66600 36.87800 36.61300
C  -6.07500 37.59100 35.28300
H  -6.97500 36.81600 34.35300
N  -8.93500 41.99800 38.84200
C  -7.62500 42.24300 38.70000
C  -7.39700 43.65000 38.64600
C  -8.67800 44.26300 38.72100
C  -9.64400 43.12400 38.68700
C  -6.04700 44.32600 38.44500
C  -8.95400 45.76200 38.66700
O  -8.06500 46.58900 38.58000
C  -10.31000 46.34600 38.59000
N  -11.76500 40.79700 38.54400
C  -12.00800 42.12100 38.50600
C  -13.54900 42.42300 38.29300
C  -14.15300 41.03200 38.60000
C  -12.94800 40.19900 38.75700
C  -14.21500 43.60300 39.09000
C  -15.13700 40.59000 37.44400
C  -16.55400 41.04700 37.72700
N  -10.56600 38.27800 38.85100
C  -11.98100 37.88900 38.83000
C  -12.14600 36.45700 38.63300
C  -10.80700 36.05000 38.44100
C  -9.94700 37.11200 38.62700
C  -13.47500 35.73200 38.55800
C  -9.99600 34.84900 38.14200
O  -10.33800 33.70100 37.95400
C  -8.46100 35.37700 38.14800
C  -7.58700 34.62200 39.17200
O  -7.74300 34.56200 40.36400
O  -6.59000 33.98700 38.44900
C  -5.52700 33.50100 39.34900
H  -5.60100 41.47300 38.47800
H  -11.51100 44.05200 38.40700
H  -14.03000 38.37500 38.92300
H  -5.74200 36.74800 38.71200
H  -5.00300 39.27100 37.49100
H  -3.61700 39.18100 39.46600
H  -4.73000 37.94000 40.24300
H  -5.12800 39.57000 40.27300
H  -5.89400 35.82000 36.48800
H  -4.59200 37.03100 36.50600
H  -5.12500 37.84500 34.81300
H  -6.69200 38.46800 35.47700
H  -5.31000 43.57100 38.72000
H  -5.89600 45.23000 39.03500
H  -5.94500 44.63600 37.40500
H  -10.93200 46.18700 39.47100
H  -10.77800 46.10900 37.63500
H  -10.29400 47.43600 38.58500
H  -13.68400 42.60800 37.22700
H  -14.67500 41.06800 39.55600
H  -13.52400 44.06200 39.79700
H  -15.09800 43.25900 39.62800
H  -14.60700 44.34000 38.39000
H  -15.00400 39.53500 37.20400
H  -15.01800 41.02100 36.44900
H  -17.16300 40.14600 37.80400
H  -17.04100 41.69000 36.99500
H  -16.65000 41.59900 38.66200
H  -13.96500 36.21000 37.70900
H  -13.94300 35.80300 39.54000
H  -13.27200 34.74400 38.14400
H  -8.04900 35.11200 37.17500
H  -5.35200 32.43200 39.23200
H  -5.55300 33.79400 40.39900
H  -4.56900 33.86100 38.97400

