158

Mg 47.34200 44.37700 43.13000
C  43.92700 43.58000 43.09300
C  47.95700 41.12400 42.68000
C  50.48100 45.32400 42.65700
C  46.34000 47.86100 42.95200
N  46.12300 42.57800 42.70100
C  44.79500 42.46400 42.80000
C  44.24400 41.06300 42.65100
C  45.55200 40.29100 43.05600
C  46.63900 41.37100 42.72200
C  45.45400 39.64300 44.50000
C  43.62100 40.70200 41.32400
C  43.81400 41.55700 40.06200
H  43.65300 40.89800 38.69500
N  49.09400 43.30200 42.70500
C  49.09700 41.98200 42.56700
C  50.52100 41.63900 42.25900
C  51.27100 42.86700 42.18100
C  50.33600 43.93000 42.43400
C  50.98700 40.17800 41.96900
C  52.75000 42.99800 41.93600
O  53.45600 42.00700 41.96700
C  53.35900 44.35500 41.98100
N  48.25100 46.31700 42.69000
C  49.57700 46.43800 42.79900
C  49.99500 47.93500 42.84500
C  48.70600 48.67100 42.85900
C  47.68400 47.52400 42.89600
C  50.88700 48.40200 44.00500
C  48.49500 49.77500 41.74900
C  48.30200 51.14900 42.41000
N  45.54300 45.55500 43.11700
C  45.31700 46.92100 43.03300
C  43.89900 47.11700 42.81800
C  43.35400 45.83500 43.05500
C  44.37400 44.90800 43.05300
C  43.12200 48.42700 42.48600
C  42.09400 45.16400 43.13600
O  40.99300 45.72800 43.26700
C  42.39100 43.62400 43.04800
C  41.81400 43.10900 44.25200
O  42.19300 43.38300 45.35300
O  40.69200 42.36200 43.99200
C  39.78300 42.04200 45.11400
H  48.18100 40.07800 42.90200
H  51.48300 45.75800 42.63900
H  46.04500 48.90800 42.85500
H  43.43900 40.87800 43.36100
H  45.85000 39.49600 42.37200
H  44.45400 39.49200 44.90600
H  46.08100 40.09500 45.26900
H  45.78500 38.62100 44.31300
H  42.55800 40.52600 41.48500
H  44.08800 39.75700 41.04400
H  44.69900 42.19200 40.11700
H  43.00100 42.28200 40.10100
H  51.19400 40.24400 40.90100
H  50.10700 39.56500 42.16200
H  51.88100 39.88500 42.51800
H  52.82800 44.98000 41.26300
H  54.43500 44.34300 41.80200
H  53.36000 44.74400 43.00000
H  50.44700 48.07500 41.86300
H  48.46100 49.03200 43.85900
H  50.63500 49.27200 44.61100
H  51.92100 48.53700 43.68900
H  50.84400 47.55500 44.69000
H  47.65700 49.54600 41.09100
H  49.31600 49.81900 41.03400
H  48.59800 51.08200 43.45700
H  47.29100 51.52200 42.24700
H  48.93100 51.89400 41.92100
H  42.76900 48.42000 41.45500
H  43.77800 49.29500 42.54700
H  42.28200 48.48600 43.17700
H  41.93700 43.30200 42.11100
H  40.13400 41.09900 45.53400
H  38.74100 42.03100 44.79600
H  39.85000 42.79800 45.89700
Mg -11.03200 16.90200 43.29300
C  -7.49500 17.19500 43.40000
C  -11.14100 20.06600 42.22900
C  -14.25700 16.33000 42.48800
C  -10.67400 13.39300 43.72600
N  -9.38900 18.37700 42.77600
C  -8.03700 18.34800 42.98100
C  -7.36800 19.63000 42.54100
C  -8.53400 20.60700 42.29900
C  -9.80000 19.65100 42.37500
C  -8.69200 21.72100 43.34000
C  -6.51700 19.40900 41.24700
C  -4.96000 19.66700 41.42100
H  -4.35400 20.42400 40.22500
N  -12.54600 18.09600 42.63300
C  -12.37500 19.40400 42.28100
C  -13.66200 19.93800 41.94000
C  -14.57600 18.79000 42.05700
C  -13.78800 17.66000 42.41300
C  -13.91600 21.40400 41.64300
C  -16.06800 18.87500 41.71400
O  -16.55400 19.94000 41.33500
C  -17.14000 17.77500 41.84000
N  -12.30500 15.14400 43.19100
C  -13.58300 15.21000 42.96900
C  -14.28900 13.84000 43.14300
C  -13.05200 12.86600 43.04900
C  -11.92500 13.87700 43.40700
C  -15.02000 13.70400 44.54400
C  -12.71600 12.17900 41.71600
C  -13.01400 10.72400 41.56600
N  -9.48300 15.51100 43.46800
C  -9.45500 14.19400 43.77100
C  -8.06200 13.68300 43.83300
C  -7.26100 14.84900 43.78100
C  -8.17800 15.93100 43.56700
C  -7.60700 12.21600 43.96600
C  -5.90900 15.27900 43.87500
O  -4.83900 14.74600 44.22800
C  -6.01800 16.84200 43.63900
C  -5.45300 17.58600 44.82200
O  -5.99800 17.64100 45.90200
O  -4.22400 18.10200 44.47500
C  -3.62400 18.78400 45.62500
H  -11.24700 21.14900 42.13800
H  -15.29900 16.05700 42.31000
H  -10.57300 12.32000 43.90200
H  -6.74000 20.01000 43.34700
H  -8.55000 21.15200 41.35500
H  -7.94700 21.55900 44.12000
H  -9.68800 21.72000 43.78200
H  -8.56700 22.69300 42.86400
H  -6.84800 20.13700 40.50600
H  -6.68700 18.40200 40.86700
H  -4.44900 18.71000 41.31800
H  -4.76800 20.23800 42.32900
H  -14.45900 21.93900 42.42300
H  -14.42800 21.41800 40.68100
H  -12.93700 21.82700 41.41700
H  -18.12800 18.23200 41.89300
H  -16.98800 17.25500 42.78600
H  -17.04000 17.25300 40.88800
H  -14.82600 13.66400 42.21100
H  -13.08500 12.07100 43.79500
H  -16.05400 13.55100 44.23300
H  -14.87500 14.57700 45.17900
H  -14.78400 12.73100 44.97400
H  -11.74400 12.42100 41.28600
H  -13.39200 12.56300 40.95200
H  -12.77300 10.11000 42.43400
H  -12.23000 10.26100 40.96600
H  -13.97800 10.36300 41.20700
H  -6.85000 12.20400 44.75000
H  -7.18700 11.84500 43.03100
H  -8.41800 11.52500 44.19700
H  -5.48100 17.12300 42.73400
H  -4.20700 19.70300 45.70300
H  -2.58400 18.92500 45.33100
H  -3.56000 18.15400 46.51200

