158

Mg 43.10100 3.69100 47.70600
C  41.58200 6.76100 47.78300
C  40.03500 2.11000 47.31100
C  44.71900 0.83000 47.00200
C  46.29500 5.53000 47.57600
N  41.04400 4.40500 47.47600
C  40.60900 5.65700 47.65800
C  39.03400 5.77900 47.74900
C  38.63500 4.27700 47.64300
C  39.95800 3.54200 47.47100
C  37.66500 3.81000 48.72700
C  38.36000 6.70400 46.67700
C  39.12300 6.73800 45.27000
H  38.25800 6.46700 44.02700
N  42.44700 1.77300 47.25700
C  41.18700 1.31500 47.22100
C  41.14400 -0.13300 46.96700
C  42.50600 -0.48500 46.86600
C  43.30700 0.71800 47.07100
C  39.84500 -1.00400 46.79000
C  43.01700 -1.90200 46.52300
O  42.20500 -2.81200 46.19500
C  44.43700 -2.29800 46.72400
N  45.16600 3.27500 47.33200
C  45.55500 1.95400 47.20700
C  47.12700 1.90300 47.13500
C  47.60200 3.35300 47.21900
C  46.28900 4.11700 47.53100
C  47.80200 0.82400 48.07000
C  48.40900 3.89000 46.03500
C  49.76000 4.45700 46.51100
N  43.81400 5.70100 47.65500
C  45.10500 6.29700 47.62400
C  44.96700 7.73100 47.78200
C  43.59200 7.99000 47.86200
C  42.94400 6.75400 47.77900
C  46.08100 8.69600 47.85400
C  42.58800 9.03000 48.12600
O  42.61600 10.21600 48.41800
C  41.25200 8.23900 47.94200
C  40.46200 8.41300 49.10600
O  40.46900 7.70800 50.15400
O  39.47900 9.33400 48.79600
C  38.39600 9.38300 49.78000
H  39.09000 1.56900 47.39700
H  45.39400 -0.00200 46.79200
H  47.22700 6.09800 47.55500
H  38.66900 6.23600 48.66900
H  38.16000 4.33200 46.66400
H  37.46900 4.61000 49.44100
H  38.14900 2.98700 49.25400
H  36.73700 3.60200 48.19400
H  38.21400 7.72200 47.03900
H  37.36000 6.42700 46.34300
H  39.84900 5.93600 45.14100
H  39.63500 7.69300 45.15600
H  39.41400 -0.92800 45.79200
H  39.09800 -0.69300 47.52000
H  39.97100 -2.07500 46.94600
H  45.00600 -1.88700 47.55800
H  44.96900 -2.12500 45.78800
H  44.36900 -3.38200 46.81400
H  47.34700 1.60900 46.10900
H  48.14500 3.39700 48.16300
H  48.70200 1.16700 48.58000
H  47.92700 -0.04900 47.43000
H  46.98800 0.61200 48.76300
H  47.92100 4.72700 45.53500
H  48.57300 3.07900 45.32500
H  50.46100 3.79000 46.00900
H  49.97500 4.46300 47.57900
H  49.79800 5.46400 46.09400
H  46.38200 8.88800 48.88400
H  45.70900 9.65200 47.48600
H  46.85100 8.47800 47.11400
H  40.78800 8.67900 47.06000
H  38.23500 8.42800 50.28100
H  37.53200 9.58400 49.14700
H  38.66100 10.20900 50.44000
Mg -5.70800 25.63400 25.19300
C  -3.87400 26.96400 27.87500
C  -7.22600 23.46700 27.39000
C  -7.06000 24.08000 22.52700
C  -3.81200 27.63600 23.02600
N  -5.51000 25.31300 27.42000
C  -4.79900 25.99600 28.32800
C  -5.25200 25.62600 29.74000
C  -6.01400 24.33000 29.49700
C  -6.31500 24.39200 27.96700
C  -5.18800 23.03900 29.80400
C  -6.13900 26.75900 30.30900
C  -5.93000 26.83200 31.82300
H  -5.51300 25.67500 32.61400
N  -7.04400 23.96700 25.03000
C  -7.58100 23.25800 26.05500
C  -8.47100 22.21900 25.52800
C  -8.50200 22.43300 24.12600
C  -7.48800 23.50000 23.79900
C  -9.17000 21.21200 26.39000
C  -9.41900 21.69200 23.06000
O  -9.35000 21.97600 21.87300
C  -10.61200 20.85900 23.43200
N  -5.35800 25.71600 23.03200
C  -6.18100 25.14900 22.20300
C  -5.82900 25.45700 20.73400
C  -5.06200 26.76400 20.94400
C  -4.72700 26.74300 22.45300
C  -5.04500 24.27600 20.01400
C  -5.68800 28.01600 20.23000
C  -6.94000 28.63700 20.90900
N  -4.11700 27.00200 25.32500
C  -3.49100 27.85000 24.37800
C  -2.50400 28.74500 24.96700
C  -2.61800 28.35800 26.32000
C  -3.56800 27.32900 26.50200
C  -1.64200 29.77600 24.34300
C  -2.11300 28.63000 27.64400
O  -1.23100 29.42100 27.87700
C  -2.86600 27.72700 28.66800
C  -1.96100 26.77800 29.30600
O  -1.48600 25.79200 28.75800
O  -2.00500 26.81500 30.63200
C  -1.39800 25.65500 31.31600
H  -7.68400 22.82500 28.14600
H  -7.49100 23.68600 21.60400
H  -3.39300 28.35300 22.31700
H  -4.32900 25.58300 30.31900
H  -6.90400 24.35000 30.12600
H  -5.01900 22.42400 28.92000
H  -5.76300 22.45300 30.52200
H  -4.23700 23.33200 30.24900
H  -7.16600 26.72300 29.94700
H  -5.73900 27.66900 29.86000
H  -6.93000 27.07200 32.18300
H  -5.26300 27.67100 32.02400
H  -9.23400 20.22700 25.92700
H  -10.20100 21.52100 26.56100
H  -8.70200 21.00800 27.35300
H  -10.32000 19.85900 23.75300
H  -11.35200 20.84500 22.63200
H  -11.09800 21.27600 24.31400
H  -6.73300 25.70000 20.17600
H  -4.06000 26.68400 20.52400
H  -4.93300 23.38000 20.62600
H  -4.04400 24.53600 19.67100
H  -5.55200 23.98400 19.09400
H  -6.06400 27.63000 19.28200
H  -5.01200 28.84900 20.04300
H  -7.58000 29.11500 20.16700
H  -6.69300 29.38500 21.66200
H  -7.49900 27.86600 21.43800
H  -1.30100 29.50200 23.34500
H  -0.77800 29.94100 24.98800
H  -2.28100 30.65200 24.22500
H  -3.31400 28.29000 29.48600
H  -0.39300 25.47500 30.93300
H  -1.88700 24.70100 31.11700
H  -1.33600 25.92900 32.36900

