158

Mg -2.14200 17.23200 25.94100
C  -2.46200 15.00800 28.86100
C  -3.49400 19.76900 28.03800
C  -2.20300 19.09800 23.37800
C  -1.73300 14.34000 24.04300
N  -3.07000 17.24900 28.18000
C  -2.90200 16.34200 29.15000
C  -3.37300 16.91700 30.52800
C  -3.96300 18.31000 30.15500
C  -3.44600 18.50300 28.72600
C  -5.47100 18.33000 30.23100
C  -2.20800 17.03200 31.50900
C  -2.25300 16.06100 32.67300
H  -2.73300 16.52700 34.05900
N  -2.52800 19.17600 25.69800
C  -3.07300 20.06300 26.68800
C  -3.19400 21.39000 26.12500
C  -2.86600 21.24500 24.69200
C  -2.52700 19.81400 24.49500
C  -3.37000 22.62200 26.94100
C  -2.86000 22.35900 23.60600
O  -2.68100 22.04700 22.43800
C  -3.06500 23.77100 23.93100
N  -1.89600 16.80000 24.02900
C  -1.95500 17.76900 23.08800
C  -1.65000 17.15900 21.71300
C  -1.32500 15.68200 21.94500
C  -1.65400 15.56900 23.38300
C  -2.81400 17.43600 20.64700
C  0.11000 15.32600 21.61900
C  1.24500 15.86300 22.55100
N  -2.00100 15.12900 26.32500
C  -1.82900 14.11500 25.39900
C  -1.77600 12.85300 26.08300
C  -1.94100 13.18500 27.44900
C  -2.15500 14.53100 27.55900
C  -1.68200 11.50700 25.47200
C  -2.09900 12.60100 28.77600
O  -1.98600 11.45400 29.21400
C  -2.44400 13.72000 29.65700
C  -1.38300 13.76800 30.66200
O  -0.31100 14.38500 30.59300
O  -1.67100 13.00200 31.74900
C  -0.76200 12.79600 32.86600
H  -3.81400 20.62000 28.64300
H  -2.07900 19.64400 22.44000
H  -1.59400 13.46200 23.40800
H  -4.14000 16.23200 30.89000
H  -3.46300 19.11200 30.69700
H  -5.96400 17.42400 30.58400
H  -6.07800 18.46400 29.33600
H  -5.85800 19.12000 30.87500
H  -2.14500 18.02100 31.96400
H  -1.25300 16.91200 30.99800
H  -1.22800 15.73500 32.84500
H  -2.87100 15.18600 32.47500
H  -3.60900 22.47700 27.99400
H  -4.21900 23.18000 26.54500
H  -2.42900 23.16500 26.85300
H  -2.17200 24.35900 24.14200
H  -3.89800 24.00900 24.59300
H  -3.24700 24.25900 22.97300
H  -0.84600 17.78200 21.32100
H  -1.96500 15.02000 21.36100
H  -2.51900 18.08200 19.82100
H  -3.71000 17.82300 21.13300
H  -3.09900 16.46000 20.25400
H  0.32000 15.84300 20.68300
H  0.17900 14.24800 21.47800
H  0.82400 16.46500 23.35600
H  1.95100 16.44300 21.95600
H  1.69100 14.96600 22.98100
H  -1.09700 11.68600 24.57000
H  -2.61900 10.97600 25.30700
H  -1.01400 10.97000 26.14500
H  -3.37300 13.48600 30.17700
H  0.26000 13.04500 32.57900
H  -0.78400 11.79200 33.29000
H  -1.11500 13.53400 33.58600
Mg 52.38900 23.45300 44.69100
C  49.44400 25.29600 43.83400
C  50.59700 20.57100 43.78900
C  55.26900 21.72100 44.54700
C  53.97200 26.32800 45.29800
N  50.27400 23.02200 43.88800
C  49.25800 23.93000 43.59400
C  47.94700 23.18200 43.34200
C  48.31000 21.76900 43.75400
C  49.83600 21.71100 43.82200
C  47.45000 21.39700 45.00900
C  47.51500 23.22600 41.86400
C  48.41000 22.68300 40.83200
H  48.62100 23.52700 39.56900
N  52.84000 21.41800 44.26000
C  51.98800 20.41500 44.00400
C  52.75100 19.14100 43.98100
C  54.11300 19.45900 44.08000
C  54.11200 20.94500 44.32300
C  52.14900 17.79900 43.65500
C  55.27300 18.40600 43.99800
O  55.03700 17.25700 43.82300
C  56.63900 18.69800 44.26000
N  54.41600 24.02600 44.85200
C  55.40900 23.13500 44.76300
C  56.75000 23.92200 44.76400
C  56.30600 25.37300 45.18800
C  54.78400 25.25100 45.14700
C  57.87200 23.33600 45.66100
C  56.98600 26.51800 44.37200
C  57.84700 27.48600 45.12100
N  51.93700 25.44000 44.71100
C  52.67200 26.52200 45.14500
C  51.81400 27.64400 45.24200
C  50.55900 27.26100 44.72200
C  50.71200 25.89300 44.33100
C  52.18100 28.99900 45.76700
C  49.26300 27.70300 44.39200
O  48.76800 28.84200 44.49300
C  48.51500 26.48500 43.76100
C  48.18600 26.87000 42.35100
O  48.94200 26.90900 41.42800
O  46.84200 27.13400 42.23000
C  46.38100 27.58400 40.90700
H  50.11500 19.59400 43.87200
H  56.17700 21.12600 44.66500
H  54.42100 27.28900 45.55900
H  47.17500 23.55100 44.01700
H  47.94800 21.13300 42.94700
H  47.85000 20.51100 45.50300
H  46.48700 21.16600 44.55200
H  47.32600 22.19200 45.74500
H  47.22200 24.25400 41.64800
H  46.56900 22.69600 41.74900
H  48.03900 21.72300 40.47100
H  49.39800 22.57400 41.27800
H  52.72500 17.44700 42.79900
H  51.08200 17.86600 43.44200
H  52.30700 17.09000 44.46700
H  57.17200 17.78300 44.00300
H  56.87900 18.96000 45.29100
H  56.92300 19.51100 43.59200
H  57.06900 23.87900 43.72300
H  56.58600 25.60200 46.21600
H  57.69000 22.32100 46.01400
H  57.93800 24.03600 46.49300
H  58.77400 23.32500 45.04900
H  56.29700 27.18200 43.85000
H  57.65700 25.93400 43.74200
H  58.74400 27.02700 45.53600
H  57.29700 27.98500 45.91800
H  58.10800 28.27900 44.42000
H  51.81600 29.72200 45.03800
H  53.25200 29.20200 45.79600
H  51.83100 29.08300 46.79600
H  47.61100 26.27400 44.33200
H  46.83700 26.93600 40.15900
H  46.65200 28.61700 40.68900
H  45.30600 27.41500 40.97900

