158

Mg 26.20400 0.71000 29.37200
C  28.11500 0.19500 32.02200
C  23.27400 0.56700 31.33800
C  24.24100 0.95200 26.57900
C  28.91200 0.04900 27.36600
N  25.79800 0.27800 31.45400
C  26.77000 0.31500 32.36300
C  26.21500 0.59900 33.76800
C  24.65700 0.71700 33.51900
C  24.51200 0.42900 32.01400
C  23.70400 -0.07800 34.48200
C  26.77200 1.83800 34.48400
C  26.09200 2.23100 35.83100
H  26.71400 2.85500 37.05200
N  24.02100 0.70100 29.04400
C  23.03900 0.67000 29.97100
C  21.73300 0.81700 29.31800
C  21.92100 0.86900 27.93600
C  23.42800 0.83000 27.78200
C  20.53100 0.91400 30.14700
C  20.94700 1.14400 26.81600
O  21.27200 1.17800 25.63500
C  19.47200 1.38000 27.20300
N  26.53300 0.46700 27.25100
C  25.59200 0.73300 26.33800
C  26.15800 0.66100 24.91300
C  27.65200 0.39200 25.20300
C  27.69300 0.19600 26.69500
C  25.57800 -0.40900 23.92700
C  28.52100 1.65000 24.71100
C  28.62900 2.87000 25.63800
N  28.12000 0.23900 29.58000
C  29.16200 0.02300 28.68700
C  30.39800 -0.24900 29.41000
C  30.05700 -0.15300 30.77800
C  28.69300 0.09600 30.80800
C  31.79300 -0.43100 28.89200
C  30.44500 -0.25900 32.16400
O  31.54400 -0.55300 32.60900
C  29.26400 0.11400 33.03500
C  29.12300 -0.90400 34.14500
O  28.80500 -2.03700 34.01200
O  29.31900 -0.23400 35.35500
C  29.46700 -0.98100 36.60400
H  22.38900 0.73600 31.95400
H  23.60700 1.24400 25.73900
H  29.64700 -0.11100 26.57400
H  26.41600 -0.29400 34.35900
H  24.48900 1.79000 33.61400
H  23.16900 -0.82900 33.90100
H  23.02100 0.55300 35.05100
H  24.30600 -0.53500 35.26800
H  26.69400 2.62100 33.73000
H  27.85400 1.73000 34.57100
H  25.93400 1.21000 36.17700
H  25.13100 2.69700 35.61500
H  19.75100 0.37800 29.60600
H  20.18300 1.94100 30.25300
H  20.59600 0.34600 31.07500
H  18.90000 1.67700 26.32400
H  19.62900 2.20500 27.89800
H  19.00400 0.52000 27.68100
H  25.94800 1.65900 24.52800
H  28.02000 -0.56500 24.83500
H  25.44400 -0.06600 22.90200
H  24.68700 -0.82000 24.40100
H  26.32300 -1.17900 23.72400
H  28.23100 2.06400 23.74600
H  29.51000 1.22500 24.54000
H  28.34200 2.63300 26.66200
H  28.03100 3.67500 25.21200
H  29.64400 3.26000 25.72100
H  32.16300 0.43400 28.34200
H  31.65900 -1.32600 28.28400
H  32.49200 -0.58700 29.71300
H  29.53400 1.10400 33.40200
H  28.92200 -0.43000 37.37100
H  30.51700 -1.11100 36.86600
H  28.99300 -1.96100 36.65500
Mg -10.53400 17.15700 41.19100
C  -7.12000 16.80800 41.07100
C  -10.04800 20.54500 40.47900
C  -13.80200 17.36800 40.36100
C  -10.80500 13.63400 41.09100
N  -8.84700 18.50400 40.92700
C  -7.48500 18.10200 40.84600
C  -6.56200 19.25300 40.54600
C  -7.52700 20.50100 40.77000
C  -8.87000 19.81200 40.68800
C  -7.48000 21.24000 42.16500
C  -6.03100 19.31000 39.08700
C  -4.50100 19.19900 38.99700
H  -3.85900 18.23000 37.95600
N  -11.78500 18.77500 40.65300
C  -11.43700 20.05300 40.53100
C  -12.59500 20.88200 40.37400
C  -13.67600 20.01600 40.04800
C  -13.13700 18.62900 40.37300
C  -12.51100 22.44900 40.27000
C  -15.15300 20.37600 39.64600
O  -15.53300 21.50700 39.66300
C  -16.14800 19.25800 39.39700
N  -12.01600 15.69100 40.56300
C  -13.32700 16.06400 40.53900
C  -14.20900 14.87500 40.70500
C  -13.20000 13.70200 40.35600
C  -11.92800 14.36200 40.75300
C  -14.83200 14.72900 42.08800
C  -13.21200 13.33400 38.90700
C  -14.19700 12.19000 38.43700
N  -9.22100 15.55800 41.23300
C  -9.48400 14.14800 41.24600
C  -8.23500 13.43500 41.45200
C  -7.26300 14.43100 41.28500
C  -7.93600 15.68100 41.27100
C  -8.19700 12.01100 41.57300
C  -5.84700 14.66600 41.24800
O  -4.92600 13.84300 41.27400
C  -5.66400 16.28800 41.23300
C  -4.97400 16.72100 42.52000
O  -3.94900 17.30200 42.50400
O  -5.71800 16.46300 43.62900
C  -5.25200 17.02500 44.89600
H  -9.86400 21.61500 40.36200
H  -14.89000 17.29400 40.30200
H  -10.97200 12.55600 41.04600
H  -5.77100 19.39200 41.28200
H  -7.42600 21.29400 40.02800
H  -6.73400 20.73000 42.77500
H  -8.45100 21.39700 42.63400
H  -7.07900 22.24200 42.01600
H  -6.28100 20.25500 38.60500
H  -6.47400 18.49000 38.52100
H  -4.03500 18.90700 39.93800
H  -4.20900 20.22500 38.77200
H  -13.51100 22.88400 40.29100
H  -12.06500 22.58800 39.28500
H  -11.87100 22.77700 41.08900
H  -15.68200 18.48500 38.78500
H  -17.01800 19.68100 38.89600
H  -16.39700 18.77000 40.33900
H  -15.01700 14.92500 39.97400
H  -13.31600 12.73300 40.84300
H  -14.56700 13.78500 42.56500
H  -15.92100 14.69300 42.09900
H  -14.37300 15.50800 42.69800
H  -12.20500 12.99200 38.66600
H  -13.46500 14.22300 38.33000
H  -14.92700 12.53600 37.70600
H  -14.86900 11.81000 39.20600
H  -13.60300 11.36400 38.04400
H  -8.38900 11.69900 40.54600
H  -9.04600 11.55100 42.07800
H  -7.26500 11.59900 41.95900
H  -5.06500 16.52100 40.35300
H  -4.21000 16.73000 45.02000
H  -5.86600 16.67400 45.72600
H  -5.29000 18.11200 44.95800

