158

Mg 43.27900 3.88700 47.09900
C  41.36000 6.84900 47.09400
C  40.29000 2.11600 46.74700
C  45.01600 1.20800 46.25400
C  46.08400 6.00600 46.50100
N  41.09000 4.49800 46.94500
C  40.51400 5.72300 47.06200
C  38.96800 5.66400 47.08200
C  38.79900 4.10500 47.11800
C  40.15700 3.47400 46.88300
C  38.15300 3.58800 48.43200
C  38.26200 6.36800 45.86300
C  39.19600 6.92100 44.76000
H  38.80600 6.38900 43.36100
N  42.75300 1.87000 46.85600
C  41.49000 1.31400 46.69700
C  41.54600 -0.04300 46.42700
C  42.95200 -0.39800 46.32500
C  43.63800 0.86800 46.53400
C  40.34200 -0.89300 46.22500
C  43.44100 -1.89200 46.07400
O  42.63500 -2.82800 45.86200
C  44.85500 -2.29600 46.03300
N  45.21600 3.65600 46.36100
C  45.71800 2.39400 46.16400
C  47.15400 2.49400 45.68000
C  47.54700 3.97800 45.98200
C  46.18400 4.64600 46.29800
C  48.02500 1.46500 46.39800
C  48.53500 4.71300 44.99000
C  49.87800 4.95600 45.62300
N  43.70400 6.04600 46.75800
C  44.94500 6.72300 46.65300
C  44.65300 8.18700 46.75000
C  43.26800 8.26400 46.97000
C  42.74300 6.94700 46.97300
C  45.75600 9.23800 46.65800
C  42.19700 9.17100 47.29600
O  42.22400 10.39100 47.34900
C  40.91600 8.28900 47.31200
C  40.08900 8.54100 48.49600
O  40.10800 7.81700 49.46000
O  39.28000 9.59700 48.33200
C  38.28800 10.07800 49.27000
H  39.28800 1.70900 46.59900
H  45.53400 0.30400 45.92900
H  47.03300 6.53400 46.61600
H  38.65800 6.13000 48.01800
H  38.21500 3.64000 46.32400
H  37.72500 4.40900 49.00600
H  38.93200 3.14500 49.05300
H  37.39100 2.85400 48.17100
H  37.72200 7.23800 46.23700
H  37.52700 5.73500 45.36600
H  40.23600 6.60600 44.84300
H  39.06500 8.00300 44.77700
H  39.85000 -0.80100 45.25700
H  39.55800 -0.62800 46.93500
H  40.46400 -1.94800 46.46800
H  45.44600 -1.88200 46.85000
H  45.16400 -1.94400 45.04900
H  44.99100 -3.37700 46.03700
H  47.16700 2.30400 44.60700
H  48.02600 3.81400 46.94700
H  48.90400 1.91400 46.86000
H  48.26900 0.79300 45.57500
H  47.51000 0.99800 47.23700
H  48.16800 5.71100 44.75000
H  48.52700 4.20900 44.02300
H  50.62000 4.47900 44.98200
H  49.95400 4.49100 46.60500
H  49.98000 6.03300 45.75500
H  46.13200 9.48600 47.65000
H  45.39900 10.20500 46.30400
H  46.58600 8.89600 46.04000
H  40.30000 8.64100 46.48400
H  38.28200 9.43100 50.14700
H  37.38300 10.03500 48.66400
H  38.58200 11.10000 49.51200
Mg -11.08700 16.05100 42.30200
C  -8.00100 14.74500 41.57900
C  -10.13300 18.90700 40.20800
C  -14.31100 17.05100 41.82200
C  -12.12500 13.16000 43.65000
N  -9.31800 16.64900 40.87500
C  -8.08800 15.97500 40.88300
C  -6.99300 16.82500 40.13700
C  -7.67400 18.22000 40.03000
C  -9.14100 17.92700 40.44800
C  -6.88700 19.33400 40.78300
C  -6.54600 16.26400 38.73500
C  -5.08400 16.45000 38.20600
H  -5.00000 17.16300 36.78300
N  -12.02400 17.88700 41.41700
C  -11.45200 18.88600 40.64200
C  -12.46500 19.81700 40.24100
C  -13.68500 19.29700 40.82100
C  -13.40000 17.99300 41.38600
C  -12.32700 21.07200 39.46900
C  -15.02000 20.01900 40.88400
O  -15.13700 21.10400 40.29300
C  -16.26600 19.63300 41.73000
N  -12.99200 15.18900 42.72000
C  -14.18600 15.81400 42.54200
C  -15.37700 15.01700 43.01200
C  -14.57300 13.86800 43.80800
C  -13.13400 14.03000 43.35200
C  -16.36000 15.81900 43.91300
C  -15.18900 12.47600 43.52200
C  -15.27700 11.60100 44.72200
N  -10.24900 14.34500 42.74000
C  -10.80600 13.21700 43.35000
C  -9.67100 12.22700 43.61500
C  -8.55800 12.86500 43.00600
C  -8.96100 14.10800 42.43400
C  -9.69200 10.85600 44.21000
C  -7.19400 12.62200 42.63900
O  -6.41900 11.72800 42.91300
C  -6.73700 13.91600 41.73600
C  -5.69700 14.70700 42.42400
O  -5.78500 15.40800 43.40500
O  -4.57100 14.43400 41.63200
C  -3.29900 15.04200 42.16500
H  -9.96500 19.88100 39.74400
H  -15.34700 17.12100 41.48200
H  -12.43100 12.23900 44.15000
H  -6.15900 16.98600 40.82000
H  -7.83800 18.60400 39.02400
H  -6.05300 19.00700 41.40300
H  -7.60500 19.84700 41.42300
H  -6.53200 20.14100 40.14200
H  -7.12300 16.84500 38.01600
H  -6.68200 15.18300 38.74100
H  -4.60400 15.47300 38.16500
H  -4.54300 17.08300 38.91000
H  -12.02300 21.86200 40.15600
H  -13.24900 21.43400 39.01500
H  -11.62400 20.99900 38.63900
H  -16.78800 20.55700 41.97600
H  -15.72000 19.32800 42.62300
H  -16.96400 18.95800 41.23500
H  -15.96400 14.68100 42.15700
H  -14.65500 14.03800 44.88200
H  -16.06300 16.86200 44.02000
H  -16.51600 15.48600 44.94000
H  -17.29600 15.72000 43.36300
H  -14.47700 11.98900 42.85600
H  -16.11400 12.61500 42.96300
H  -14.60600 10.77400 44.49100
H  -16.27500 11.16400 44.69300
H  -15.02400 12.00400 45.70300
H  -10.41600 10.72400 45.01400
H  -8.74300 10.71500 44.72700
H  -9.85300 10.13800 43.40600
H  -6.45900 13.61000 40.72800
H  -2.45600 14.38000 41.96800
H  -3.34900 15.12700 43.25000
H  -3.20500 16.01500 41.68300

