158

Mg 6.39700 53.81000 42.00700
C  3.92900 51.46200 41.69300
C  8.64300 51.49000 40.62400
C  8.67900 56.28300 41.66600
C  4.09400 56.06600 42.94200
N  6.21800 51.81500 41.06700
C  5.10000 51.04100 41.04600
C  5.32100 49.76000 40.20200
C  6.90700 49.59100 40.36400
C  7.33200 51.05800 40.64900
C  7.52700 48.47800 41.35100
C  4.90300 49.78400 38.74800
C  4.09300 48.51100 38.25400
H  4.56700 47.83100 37.01600
N  8.38800 53.91100 41.41200
C  9.08700 52.79700 40.93200
C  10.41800 53.21300 40.74600
C  10.44900 54.64600 40.77100
C  9.15100 55.03700 41.23500
C  11.45900 52.26100 40.24200
C  11.69500 55.49100 40.27300
O  12.64200 54.91000 39.73600
C  11.60200 57.01800 40.31400
N  6.39300 55.93400 42.17600
C  7.45800 56.72100 42.10500
C  7.16300 58.25300 42.44400
C  5.62500 58.13400 42.68200
C  5.34100 56.66900 42.63700
C  8.01200 58.83600 43.61900
C  4.79700 58.91300 41.66100
C  4.37700 60.31900 42.20500
N  4.37300 53.82400 42.25300
C  3.56200 54.79900 42.81600
C  2.24500 54.26900 43.04300
C  2.43900 52.91900 42.68400
C  3.67800 52.73500 42.16800
C  1.02100 55.03800 43.56700
C  1.76700 51.63500 42.65400
O  0.66000 51.35600 43.03900
C  2.76000 50.55300 42.17600
C  2.22700 49.66700 41.12900
O  1.70100 50.04600 40.05900
O  2.40300 48.33600 41.40400
C  1.62100 47.30600 40.59500
H  9.32200 50.69100 40.31800
H  9.35000 57.12900 41.50200
H  3.39700 56.78300 43.38100
H  4.82500 48.92100 40.69100
H  7.30500 49.29100 39.39400
H  8.10500 47.79900 40.72500
H  6.82300 47.76200 41.77500
H  8.22200 48.89300 42.08100
H  5.72300 49.89600 38.03900
H  4.24400 50.65200 38.70800
H  3.07500 48.86800 38.09600
H  4.16400 47.67800 38.95300
H  11.95100 52.63100 39.34200
H  11.19100 51.20500 40.20300
H  12.20200 52.38200 41.03000
H  10.70300 57.44200 39.86800
H  12.46700 57.45400 39.81500
H  11.68200 57.35700 41.34700
H  7.47900 58.90000 41.62600
H  5.39400 58.37600 43.71900
H  7.37400 59.03300 44.48000
H  8.53900 59.77600 43.45400
H  8.71300 58.06600 43.94100
H  3.87700 58.35700 41.48000
H  5.33000 58.95300 40.71100
H  4.66000 60.65400 43.20200
H  3.29200 60.22900 42.15200
H  4.67100 61.16000 41.57600
H  0.52300 54.50300 44.37600
H  0.19800 54.83700 42.88000
H  1.22200 56.08800 43.77900
H  3.13700 49.95300 43.00400
H  0.68600 47.05300 41.09500
H  2.20500 46.38900 40.51500
H  1.30900 47.60400 39.59500
Mg 16.70700 52.73600 26.80000
C  18.82500 50.87700 28.76500
C  14.58200 53.06300 29.48000
C  14.57700 54.22000 24.76800
C  18.49400 51.59100 23.93200
N  16.74600 52.13000 29.00400
C  17.78400 51.39300 29.57400
C  17.60300 51.30500 31.08200
C  16.08000 51.66400 31.18600
C  15.69000 52.28400 29.84500
C  15.10600 50.51200 31.59200
C  18.55300 52.29100 31.79900
C  18.96500 52.01100 33.24900
H  17.96000 51.43800 34.18900
N  14.96700 53.75000 27.11900
C  14.23500 53.73800 28.28600
C  12.96700 54.45500 28.09100
C  12.88400 54.70000 26.65100
C  14.17300 54.31300 26.14300
C  12.09800 54.66700 29.12400
C  11.70400 55.17900 25.80800
O  11.87400 55.48000 24.58900
C  10.27600 55.48500 26.38400
N  16.49900 52.79000 24.63500
C  15.56900 53.59900 24.12700
C  15.73200 53.78200 22.61700
C  17.03700 53.00600 22.30700
C  17.42400 52.47500 23.72300
C  14.47800 53.48500 21.79600
C  18.15400 53.86200 21.62600
C  18.58100 55.08000 22.45000
N  18.27600 51.47200 26.37600
C  18.97400 51.20300 25.19500
C  20.07700 50.26900 25.50700
C  20.11600 50.17700 26.93600
C  18.95600 50.90000 27.38100
C  20.95200 49.77500 24.43200
C  20.78300 49.62500 28.10600
O  21.90800 49.07800 28.12800
C  20.03200 50.15700 29.38500
C  19.65900 49.06000 30.27000
O  18.88500 48.17500 29.93100
O  20.18100 49.27000 31.51300
C  19.84700 48.34600 32.62500
H  13.79100 53.11100 30.23200
H  13.99800 54.77600 24.02800
H  19.06900 51.30800 23.04800
H  17.72900 50.26300 31.37600
H  15.88800 52.47100 31.89200
H  14.19700 50.66800 31.01200
H  14.90900 50.47700 32.66400
H  15.58100 49.55300 31.38700
H  18.01100 53.23700 31.80900
H  19.38000 52.35400 31.09100
H  19.40500 52.92300 33.65300
H  19.73100 51.25200 33.09300
H  12.71700 54.96600 29.97000
H  11.65700 53.70800 29.39600
H  11.33100 55.42700 28.97400
H  9.88300 54.51400 26.68200
H  9.65100 55.89600 25.59100
H  10.36200 56.12400 27.26300
H  15.97000 54.83300 22.45600
H  16.86300 52.08200 21.75500
H  14.61400 52.87300 20.90400
H  14.03100 54.43800 21.51500
H  13.86200 52.91700 22.49400
H  17.69800 54.21500 20.70200
H  19.11100 53.43400 21.32700
H  19.59800 55.03500 22.84000
H  18.05800 55.18800 23.40000
H  18.45500 55.99500 21.87100
H  21.73300 49.14200 24.85300
H  21.45700 50.64800 24.02000
H  20.36600 49.33400 23.62500
H  20.64000 50.77100 30.04800
H  19.41900 47.41200 32.26000
H  19.14000 48.88100 33.25800
H  20.73300 48.09500 33.20800

