158

Mg 10.32800 46.74700 24.71900
C  8.07200 47.14000 27.43100
C  12.76100 48.31200 26.51800
C  12.29200 46.58800 21.97100
C  7.53100 45.81200 22.77200
N  10.36800 47.73500 26.58300
C  9.40200 47.63300 27.65700
C  9.96700 47.98600 28.99400
C  11.34400 48.73500 28.53500
C  11.51600 48.30500 27.09200
C  11.14700 50.25700 28.64600
C  10.26600 46.72000 29.86400
C  10.09900 47.10100 31.39400
H  9.85900 45.89300 32.34100
N  12.35100 47.18300 24.34800
C  13.19700 47.74900 25.28700
C  14.50700 47.66200 24.80900
C  14.38600 47.16700 23.49600
C  12.97900 46.98500 23.16700
C  15.70000 47.92400 25.69600
C  15.51700 46.84400 22.50900
O  15.29100 46.47800 21.37400
C  16.96100 46.78900 22.83000
N  9.88900 46.36700 22.70600
C  10.90300 46.37200 21.77400
C  10.42800 45.91600 20.41700
C  8.98200 45.41700 20.70700
C  8.76800 45.80600 22.16800
C  10.51000 46.93500 19.30700
C  8.74300 43.92100 20.46500
C  9.47700 43.01600 21.54200
N  8.22400 46.42400 25.04300
C  7.22200 46.13500 24.14500
C  5.88600 46.33700 24.73700
C  6.16600 46.57900 26.12000
C  7.58100 46.68000 26.20700
C  4.57900 46.17600 24.08200
C  5.67600 46.76300 27.43700
O  4.52900 46.57300 27.89000
C  6.89300 47.06800 28.42400
C  7.03000 45.92600 29.34200
O  7.50200 44.84200 29.05600
O  6.46700 46.41600 30.51100
C  6.47800 45.53400 31.65500
H  13.63200 48.63400 27.09100
H  12.94400 46.31800 21.13600
H  6.71900 45.86800 22.04400
H  9.12000 48.54500 29.39300
H  12.11800 48.46400 29.25300
H  10.37800 50.80800 28.10400
H  12.13200 50.66600 28.42200
H  10.94000 50.47100 29.69400
H  11.32900 46.49400 29.78600
H  9.68100 45.83000 29.63000
H  9.15100 47.60700 31.57900
H  10.86200 47.77900 31.77600
H  15.56500 47.57100 26.71900
H  16.05700 48.95300 25.66900
H  16.51000 47.30200 25.31300
H  17.03700 45.90100 23.45800
H  17.08300 47.78300 23.26000
H  17.64000 46.80800 21.97700
H  11.13200 45.15700 20.07800
H  8.30800 46.02700 20.10600
H  11.26700 47.69800 19.48600
H  9.52800 47.35400 19.08500
H  10.82200 46.36400 18.43300
H  9.10100 43.63400 19.47700
H  7.65700 43.83100 20.48200
H  8.73500 42.51700 22.16500
H  10.21600 43.54400 22.14400
H  10.16100 42.31700 21.06000
H  3.86800 46.91400 24.45400
H  4.35100 45.14400 24.34900
H  4.64400 46.41100 23.01900
H  6.75500 47.97500 29.01300
H  6.90500 46.19500 32.41000
H  7.11800 44.66600 31.49900
H  5.47200 45.25200 31.96800
Mg -6.14600 24.95900 25.86800
C  -4.26000 26.25700 28.54900
C  -8.09600 23.24400 28.25500
C  -7.38800 23.37500 23.35700
C  -3.82600 26.52000 23.63800
N  -5.89900 24.50600 28.13900
C  -5.32100 25.41300 28.97100
C  -5.72300 25.15900 30.48300
C  -6.58200 23.87700 30.32500
C  -6.87900 23.80900 28.83800
C  -5.99000 22.59300 30.84800
C  -6.46500 26.44600 31.05300
C  -6.47000 26.52200 32.62100
H  -5.77200 25.42200 33.49900
N  -7.73600 23.66700 25.78000
C  -8.40100 23.07200 26.79800
C  -9.49300 22.27600 26.23300
C  -9.24600 22.21500 24.80200
C  -8.08300 23.10900 24.55000
C  -10.35000 21.35000 27.09000
C  -9.92900 21.36500 23.74700
O  -9.52000 21.38500 22.61300
C  -11.11400 20.51200 23.97700
N  -5.57200 24.90900 23.73700
C  -6.31000 24.14800 22.89600
C  -5.75600 24.26800 21.41900
C  -4.74700 25.44400 21.56200
C  -4.68100 25.66900 23.04400
C  -5.03100 23.03700 20.78000
C  -5.17700 26.76500 20.75100
C  -4.34200 27.06900 19.52100
N  -4.39200 26.21600 25.99100
C  -3.61200 26.76000 25.02000
C  -2.59600 27.56900 25.67900
C  -2.77400 27.40700 27.02800
C  -3.90900 26.59200 27.19200
C  -1.49700 28.31700 24.93000
C  -2.24300 27.73500 28.35500
O  -1.25300 28.41900 28.71200
C  -3.14400 26.95400 29.34900
C  -2.34500 26.03500 30.29800
O  -1.66300 25.07000 29.97500
O  -2.42800 26.53100 31.62800
C  -1.49000 26.04800 32.69200
H  -8.74600 22.81500 29.02100
H  -7.81400 22.83400 22.50900
H  -3.06400 26.95200 22.98600
H  -4.82200 24.94400 31.05700
H  -7.54700 24.07700 30.79000
H  -4.96000 22.69100 31.19200
H  -6.15300 21.80500 30.11300
H  -6.56100 22.16300 31.67100
H  -7.50500 26.28400 30.76800
H  -6.00200 27.29300 30.54700
H  -7.49600 26.55900 32.98700
H  -6.07600 27.50300 32.88700
H  -10.49100 20.37200 26.63000
H  -11.33400 21.81000 27.18200
H  -10.07600 21.18900 28.13200
H  -10.69000 19.52400 24.16000
H  -11.76600 20.43300 23.10700
H  -11.59700 20.97600 24.83600
H  -6.65700 24.65000 20.94100
H  -3.71900 25.25800 21.25000
H  -5.16200 22.13400 21.37600
H  -3.97600 23.18900 20.55200
H  -5.64400 22.76200 19.92200
H  -5.20500 27.70900 21.29600
H  -6.23400 26.76700 20.48400
H  -3.84400 26.20600 19.07900
H  -3.59200 27.85100 19.64300
H  -4.94800 27.55700 18.75800
H  -0.73400 27.57500 24.69500
H  -1.14400 29.13300 25.56000
H  -2.02600 28.86600 24.15100
H  -3.76200 27.57000 30.00200
H  -0.52600 25.73800 32.29000
H  -1.86000 25.24000 33.32200
H  -1.34500 26.88500 33.37600

