158

Mg 24.76300 -6.67400 45.86800
C  26.83600 -4.12500 44.32500
C  22.25800 -5.58300 43.82400
C  23.26200 -9.49100 46.41200
C  27.63000 -7.71600 47.59100
N  24.64200 -5.05900 44.22200
C  25.56700 -4.13300 43.75200
C  24.84400 -3.06200 42.86000
C  23.35100 -3.49800 42.90700
C  23.40700 -4.77900 43.72400
C  22.29900 -2.46700 43.50900
C  25.44500 -3.02500 41.47200
C  25.69800 -1.63800 40.76600
H  25.06700 -1.33000 39.38300
N  22.95800 -7.42700 45.35300
C  22.06500 -6.80900 44.50200
C  20.94700 -7.64100 44.27200
C  21.19200 -8.78100 45.05100
C  22.48600 -8.59300 45.64100
C  19.73500 -7.29200 43.51900
C  20.25800 -9.99300 45.13400
O  19.08200 -9.94300 44.70600
C  20.72700 -11.18300 45.74400
N  25.41700 -8.42900 46.75800
C  24.54500 -9.44500 46.97100
C  25.31100 -10.62500 47.66200
C  26.57800 -9.95700 48.22600
C  26.58800 -8.65200 47.47100
C  24.52000 -11.47800 48.68000
C  27.92000 -10.84500 48.09300
C  29.11800 -10.69900 49.10300
N  26.85100 -6.01200 46.09200
C  27.79200 -6.54800 46.78300
C  29.02400 -5.70600 46.61600
C  28.65000 -4.70800 45.64100
C  27.31500 -5.00100 45.31800
C  30.31700 -5.78100 47.38700
C  29.16300 -3.62600 44.87600
O  30.33000 -3.25200 44.72300
C  27.99300 -3.20300 43.92900
C  27.61600 -1.79000 44.25100
O  27.22400 -1.29500 45.34700
O  27.87300 -0.99300 43.14400
C  27.57600 0.47900 43.11100
H  21.42300 -5.18200 43.24600
H  22.87500 -10.47600 46.68400
H  28.49500 -8.10500 48.13200
H  24.96800 -2.05700 43.26400
H  22.96600 -3.74100 41.91700
H  22.66200 -1.46100 43.71500
H  21.84000 -2.73100 44.46200
H  21.50700 -2.47100 42.76000
H  24.82000 -3.48600 40.70800
H  26.33200 -3.65000 41.57600
H  26.76700 -1.62600 40.55400
H  25.39900 -0.77200 41.35700
H  19.01900 -8.09300 43.33600
H  20.03300 -6.79300 42.59700
H  19.14300 -6.56000 44.06900
H  19.90600 -11.88500 45.88800
H  21.05100 -10.82200 46.72000
H  21.53800 -11.63300 45.17100
H  25.54500 -11.23200 46.78700
H  26.46000 -9.76100 49.29100
H  23.46300 -11.21200 48.66600
H  24.85600 -11.19200 49.67700
H  24.57100 -12.55300 48.50800
H  28.36100 -10.64900 47.11600
H  27.57800 -11.88000 48.06400
H  29.46900 -11.60000 49.60600
H  28.93400 -9.98000 49.90200
H  29.98100 -10.26900 48.59500
H  30.90300 -4.92200 47.06000
H  30.81900 -6.70000 47.08300
H  30.11300 -5.73600 48.45600
H  28.17000 -3.39100 42.87000
H  26.96900 0.62900 42.21800
H  28.49200 1.03200 42.90600
H  27.03400 0.74400 44.02000
Mg 31.03600 58.33200 39.75400
C  28.31400 56.49800 38.71800
C  33.07800 55.53100 39.08700
C  33.67700 60.25400 40.13400
C  28.95700 61.23000 39.92800
N  30.70400 56.25600 38.82800
C  29.50200 55.74800 38.61500
C  29.68900 54.20400 38.29000
C  31.15500 53.90400 38.46700
C  31.69300 55.30400 38.81900
C  31.53500 52.87200 39.47100
C  29.25500 53.75600 36.92200
C  29.78300 54.51800 35.69800
H  28.67100 55.17700 34.79900
N  33.18200 57.95800 39.46900
C  33.78800 56.77300 39.19300
C  35.23000 56.96900 39.27100
C  35.41000 58.29400 39.70700
C  34.09200 58.91800 39.76700
C  36.28300 55.89900 38.96200
C  36.66800 58.93100 39.97900
O  37.66800 58.22400 40.00500
C  36.87000 60.49000 40.25700
N  31.30700 60.46900 39.87100
C  32.46200 60.95600 40.21500
C  32.47600 62.48400 40.52900
C  30.96400 62.72500 40.70300
C  30.33200 61.51600 40.04700
C  33.41900 63.08700 41.60800
C  30.42300 64.07800 40.01200
C  29.61600 64.96600 41.00100
N  29.02200 58.87200 39.43800
C  28.32200 60.02000 39.59300
C  26.92500 59.76200 39.38700
C  26.83200 58.38100 39.01900
C  28.10100 57.87300 39.08600
C  25.78400 60.80900 39.44300
C  25.94200 57.30100 38.66100
O  24.72400 57.36900 38.45100
C  26.82700 56.03300 38.56700
C  26.32600 55.03100 39.54400
O  26.76600 54.81100 40.67100
O  25.42400 54.18400 38.93000
C  25.11100 52.96200 39.67500
H  33.68300 54.63600 38.92600
H  34.45600 60.94400 40.46300
H  28.22800 61.98400 40.23100
H  29.17700 53.58200 39.02500
H  31.62700 53.51900 37.56300
H  31.64700 51.88600 39.02000
H  30.88900 52.76300 40.34200
H  32.47400 53.13500 39.95700
H  28.17100 53.70200 36.81900
H  29.60900 52.73200 36.80800
H  30.35300 53.87300 35.02900
H  30.35500 55.39400 36.00300
H  36.59900 56.08400 37.93500
H  35.82700 54.90900 38.95600
H  37.03600 55.88600 39.74900
H  36.62700 60.73600 41.29000
H  36.35200 61.13100 39.54400
H  37.93000 60.74000 40.21600
H  32.71200 62.84300 39.52700
H  30.72200 62.64500 41.76300
H  32.80500 63.55400 42.37800
H  34.18100 63.69800 41.12400
H  34.04000 62.38200 42.16100
H  29.82400 63.88200 39.12200
H  31.20900 64.71200 39.60100
H  28.60600 64.91500 40.59500
H  29.98500 65.99100 40.95900
H  29.77300 64.57000 42.00400
H  25.69900 61.25200 38.45100
H  25.83900 61.59500 40.19600
H  24.90600 60.17700 39.58000
H  26.75700 55.50800 37.61500
H  24.68100 52.21200 39.01100
H  24.27800 53.15400 40.35200
H  25.86600 52.37200 40.19400

