158

Mg 48.69500 36.10300 27.34700
C  46.84200 34.18800 29.42800
C  48.96100 38.47000 29.86800
C  50.30900 38.09700 25.08200
C  48.38200 33.61100 24.94300
N  48.08300 36.21500 29.51800
C  47.36700 35.29500 30.16200
C  47.37600 35.58300 31.66800
C  47.73500 37.10100 31.67300
C  48.33900 37.29400 30.27700
C  46.56600 38.07700 31.93000
C  48.41800 34.62900 32.32700
C  48.40500 34.42200 33.84200
H  47.54500 35.18800 34.84700
N  49.48800 38.08400 27.47300
C  49.47000 38.86900 28.60200
C  50.35900 40.06400 28.37400
C  50.59700 39.97800 26.93600
C  50.11900 38.68900 26.40400
C  50.81100 41.07700 29.43900
C  51.35800 41.06400 26.09400
O  51.70400 40.89500 24.91100
C  51.66300 42.30800 26.79400
N  49.08300 35.96600 25.30300
C  49.79000 36.87600 24.58300
C  50.27000 36.33200 23.27100
C  49.82600 34.80900 23.27300
C  49.08100 34.74200 24.58500
C  49.79500 37.20100 22.03400
C  50.99800 33.82200 22.94600
C  51.18300 33.40300 21.50700
N  47.88300 34.20300 27.14300
C  47.79400 33.34300 26.14700
C  46.98800 32.19700 26.44000
C  46.56000 32.48200 27.76600
C  47.13400 33.73800 28.12200
C  46.61000 31.04300 25.69300
C  45.71100 32.01000 28.80100
O  45.13300 30.94300 28.83700
C  45.78400 33.13700 29.91600
C  46.06400 32.37900 31.09800
O  46.85300 31.41700 31.31400
O  45.24800 32.90600 32.15000
C  45.10600 32.10100 33.39300
H  49.21900 39.10700 30.71700
H  50.90300 38.61700 24.32700
H  48.29700 32.83600 24.17900
H  46.36100 35.33500 31.98000
H  48.50100 37.26200 32.43100
H  46.72300 38.83200 32.70000
H  45.60400 37.69200 32.26800
H  46.47500 38.55600 30.95500
H  49.40300 35.00900 32.05700
H  48.44200 33.65100 31.84500
H  49.38500 34.31900 34.30700
H  48.00800 33.41300 33.95100
H  51.86200 41.35600 29.37100
H  50.59700 40.77500 30.46500
H  50.27400 42.02000 29.34300
H  50.79300 42.61400 27.37600
H  51.88100 43.06500 26.04000
H  52.42900 42.04300 27.52200
H  51.35900 36.31700 23.32700
H  49.03200 34.63400 22.54800
H  49.32600 36.56600 21.28200
H  50.62400 37.77500 21.61900
H  49.03800 37.92400 22.33800
H  50.90100 32.85800 23.44600
H  51.91300 34.24000 23.36500
H  51.38900 32.33300 21.50100
H  52.10200 33.88400 21.17300
H  50.26500 33.53100 20.93300
H  45.84300 31.35000 24.98300
H  46.15600 30.36600 26.41600
H  47.44000 30.47400 25.27300
H  44.75100 33.48300 29.92300
H  45.54600 31.11000 33.28400
H  44.06500 31.82200 33.55500
H  45.54400 32.61900 34.24600
Mg 1.81200 42.42100 25.48600
C  3.25000 42.63200 28.69100
C  -1.16600 41.22200 26.96200
C  0.57600 41.66900 22.50500
C  4.99300 43.05500 24.17900
N  1.13100 42.01000 27.56200
C  1.87300 42.18300 28.71400
C  1.03500 41.80300 29.88800
C  -0.25700 41.14100 29.30600
C  -0.06800 41.45700 27.80000
C  -0.42100 39.61900 29.64400
C  0.82300 43.18100 30.68400
C  0.69100 43.12100 32.23500
H  0.26300 41.71800 32.68500
N  -0.06200 41.75400 24.79200
C  -1.19400 41.33600 25.56000
C  -2.32600 41.07400 24.65000
C  -1.90800 41.22900 23.31000
C  -0.41900 41.54500 23.45200
C  -3.86600 40.81900 25.17300
C  -2.58800 41.08800 21.95200
O  -2.05800 41.43000 20.87100
C  -3.94900 40.54500 21.93600
N  2.65100 42.35000 23.68000
C  1.99400 41.93500 22.59700
C  2.88500 42.01200 21.36100
C  4.05900 42.88000 21.83300
C  3.94000 42.78900 23.30700
C  3.30300 40.56000 20.94500
C  4.04700 44.35000 21.38500
C  3.29000 45.44700 22.20700
N  3.73800 42.89000 26.28400
C  4.92500 43.17700 25.61700
C  5.95100 43.40000 26.54700
C  5.34100 43.22600 27.77000
C  4.02300 42.93000 27.56100
C  7.42500 43.75900 26.36200
C  5.61600 43.10300 29.18600
O  6.61400 43.38300 29.80700
C  4.24300 42.69100 29.83100
C  4.40100 41.37700 30.52300
O  4.40900 40.28100 30.02100
O  4.66600 41.63700 31.82700
C  5.37800 40.60100 32.55900
H  -2.04400 40.90000 27.52500
H  0.27900 41.41500 21.48500
H  5.98800 43.19400 23.75000
H  1.56000 41.12600 30.56200
H  -1.12900 41.67500 29.68600
H  -1.45900 39.42800 29.91500
H  0.23900 39.38300 30.47900
H  -0.31500 38.98400 28.76400
H  -0.08900 43.60300 30.26100
H  1.60700 43.91500 30.49200
H  -0.11800 43.77200 32.56900
H  1.57500 43.47300 32.76600
H  -3.81400 40.90500 26.25800
H  -4.21700 39.86500 24.78100
H  -4.51800 41.59000 24.76300
H  -4.52200 41.39200 22.31300
H  -3.91800 39.64900 22.55700
H  -4.26000 40.25200 20.93300
H  2.33100 42.46600 20.54000
H  5.04100 42.47700 21.58300
H  2.71000 39.81700 21.47900
H  4.38900 40.46700 20.93200
H  3.00900 40.35100 19.91700
H  3.74300 44.34700 20.33900
H  5.11800 44.53600 21.45200
H  2.59000 45.03200 22.93200
H  2.64600 46.05300 21.57000
H  3.94400 46.11500 22.76700
H  7.91300 43.77400 27.33600
H  7.41500 44.69300 25.80000
H  7.74200 42.96200 25.69000
H  3.91800 43.46100 30.53000
H  5.90000 39.87600 31.93500
H  4.55800 40.08300 33.05600
H  6.04000 41.04600 33.30300

