158

Mg 26.86200 50.38100 26.73900
C  25.08000 51.85100 29.29800
C  28.97900 49.03500 28.94700
C  28.50200 48.97900 24.11800
C  24.51900 51.83300 24.48400
N  26.94200 50.33400 28.79900
C  26.05500 50.93800 29.69300
C  26.39100 50.66000 31.22600
C  27.80500 49.97000 31.01800
C  27.90000 49.75100 29.50000
C  29.07500 50.65200 31.73600
C  25.30600 49.64500 31.83100
C  24.73100 49.86200 33.30600
H  25.40600 50.78300 34.24400
N  28.70200 49.31900 26.58000
C  29.36000 48.78500 27.60700
C  30.49200 48.05400 27.10900
C  30.34600 47.91400 25.73200
C  29.12900 48.70300 25.42200
C  31.47200 47.45000 28.11700
C  31.26500 47.25300 24.72400
O  31.29000 47.51200 23.58400
C  32.29300 46.30700 25.28800
N  26.74400 50.65000 24.53100
C  27.46500 49.76200 23.73000
C  26.90100 49.78300 22.26600
C  25.55400 50.60100 22.45500
C  25.57900 51.06400 23.94200
C  27.85000 50.47200 21.30400
C  24.13500 49.91700 22.10900
C  23.06100 50.84400 21.45900
N  25.20100 51.65100 26.79200
C  24.29600 52.14600 25.79600
C  23.27600 52.93700 26.40100
C  23.57500 52.78700 27.77500
C  24.74200 52.10900 27.93600
C  22.22100 53.71300 25.71100
C  23.04000 53.21900 29.06500
O  22.01100 53.78300 29.34800
C  23.99100 52.53600 30.14500
C  24.56700 53.57000 31.09000
O  25.53000 54.26200 30.92500
O  23.68600 53.67600 32.15000
C  23.91600 54.87800 32.96900
H  29.56800 48.58600 29.75000
H  29.03200 48.46400 23.31300
H  23.71200 52.16900 23.82900
H  26.51200 51.60400 31.75700
H  27.79700 48.92700 31.33400
H  28.81600 51.65200 32.08600
H  29.99800 50.67500 31.15600
H  29.28300 50.01200 32.59300
H  25.71700 48.63600 31.87300
H  24.40600 49.62900 31.21700
H  24.52600 48.89300 33.76200
H  23.75100 50.29000 33.09700
H  32.50800 47.44000 27.77800
H  31.05700 46.46600 28.33300
H  31.50800 47.99100 29.06200
H  31.75600 45.58200 25.90000
H  33.11800 46.72500 25.86400
H  32.75800 45.79000 24.44800
H  26.74600 48.76100 21.91900
H  25.62200 51.49000 21.82900
H  27.47500 51.43100 20.94700
H  28.13700 49.81100 20.48700
H  28.74100 50.69100 21.89400
H  23.78000 49.58900 23.08600
H  24.27900 49.03500 21.48500
H  22.89900 50.60300 20.40800
H  23.34000 51.88400 21.63000
H  22.15700 50.55100 21.99300
H  21.36800 53.82600 26.38000
H  21.84200 53.34600 24.75700
H  22.62000 54.70200 25.48500
H  23.36200 51.89000 30.75800
H  24.56600 54.70400 33.82600
H  22.94300 55.19100 33.34800
H  24.30700 55.69700 32.36500
Mg -5.62500 25.69700 25.94500
C  -4.36300 27.26400 28.90800
C  -7.38900 23.50100 27.88500
C  -6.29500 23.93900 23.26200
C  -3.30400 27.63300 24.26300
N  -5.75200 25.33700 28.09900
C  -5.22800 26.18300 29.18000
C  -5.81900 25.70000 30.48600
C  -6.44700 24.31000 30.10100
C  -6.60300 24.37700 28.61700
C  -5.48800 23.09000 30.45500
C  -6.77600 26.73900 31.03000
C  -6.86100 27.02800 32.55300
H  -6.27200 26.02900 33.57900
N  -6.78300 24.08700 25.55600
C  -7.48500 23.28200 26.48300
C  -8.12700 22.23200 25.80200
C  -7.85400 22.35800 24.39300
C  -6.96200 23.52800 24.32600
C  -8.86300 21.06200 26.46300
C  -8.21600 21.50300 23.13800
O  -7.80600 21.63300 22.02200
C  -9.29200 20.47000 23.29800
N  -4.87400 25.70700 24.11100
C  -5.24600 24.84600 23.11800
C  -4.54100 25.12800 21.80300
C  -3.57900 26.31100 22.09400
C  -3.94600 26.62400 23.57100
C  -3.84800 23.78500 21.21200
C  -3.58600 27.44000 20.97500
C  -4.64800 28.55400 21.08400
N  -4.19100 27.27200 26.43200
C  -3.40300 27.98500 25.57500
C  -2.77300 29.05100 26.29900
C  -3.07200 28.77900 27.66300
C  -3.93300 27.66800 27.66000
C  -1.96200 30.16500 25.78400
C  -2.84400 29.11000 29.04400
O  -2.19100 30.02200 29.47500
C  -3.63500 28.14200 29.94000
C  -2.66800 27.44200 30.79600
O  -1.50200 27.25000 30.47600
O  -3.16000 27.36600 32.11700
C  -2.11900 27.31000 33.18500
H  -7.78800 22.72500 28.54100
H  -6.62100 23.58400 22.28200
H  -2.50800 28.12900 23.70400
H  -5.07000 25.60400 31.27200
H  -7.41300 24.06600 30.54300
H  -4.65600 23.46900 31.04800
H  -5.05100 22.72700 29.52500
H  -5.96800 22.30700 31.04200
H  -7.77400 26.34900 30.83000
H  -6.71300 27.69300 30.50600
H  -7.89600 27.10700 32.88300
H  -6.31500 27.95800 32.70900
H  -9.84600 21.53100 26.46500
H  -8.57600 20.89500 27.50200
H  -9.01800 20.08500 26.00400
H  -9.92700 20.43400 22.41200
H  -9.99900 20.77600 24.06900
H  -8.84800 19.48300 23.42200
H  -5.31900 25.50100 21.13700
H  -2.56500 25.92600 22.19700
H  -4.21600 23.70100 20.18900
H  -4.25700 22.90200 21.70400
H  -2.77000 23.92800 21.27900
H  -3.75300 27.01500 19.98500
H  -2.57500 27.84600 20.95700
H  -4.93600 28.86100 22.09000
H  -5.46700 28.22400 20.44500
H  -4.19100 29.40100 20.57300
H  -1.63100 30.88300 26.53400
H  -2.72800 30.68200 25.20500
H  -1.13900 29.96600 25.09700
H  -4.36800 28.73500 30.48800
H  -2.10400 26.36500 33.72800
H  -2.36700 28.11200 33.88000
H  -1.18900 27.59000 32.69100

