158

Mg 0.60100 43.26900 25.60500
C  1.85400 43.19100 28.90500
C  -2.47600 42.42000 26.89300
C  -0.63000 42.98200 22.46500
C  3.75600 43.66300 24.37800
N  -0.21900 43.02200 27.71700
C  0.46400 43.14100 28.90000
C  -0.40200 42.85100 30.06800
C  -1.75500 42.41000 29.40200
C  -1.50300 42.61200 27.92900
C  -2.28900 40.98500 29.71700
C  -0.54100 44.09100 31.00100
C  -0.02600 43.94800 32.44900
H  -1.17600 43.87900 33.46700
N  -1.30500 42.86100 24.72100
C  -2.40500 42.50000 25.49100
C  -3.48200 42.10500 24.56300
C  -3.03400 42.30000 23.22600
C  -1.62200 42.77500 23.40900
C  -4.75500 41.48200 24.95200
C  -3.65600 42.00400 21.90900
O  -3.00500 42.04100 20.85400
C  -5.03000 41.58000 21.70300
N  1.48000 43.13600 23.71800
C  0.72700 43.14900 22.56300
C  1.58800 43.35900 21.25100
C  2.93000 43.73800 21.91900
C  2.76600 43.42700 23.45200
C  1.57600 41.99800 20.48000
C  3.18300 45.21500 21.74600
C  3.51600 45.72700 20.29300
N  2.42500 43.33700 26.46900
C  3.70000 43.64400 25.81800
C  4.64000 43.65900 26.88000
C  4.00900 43.38900 28.06700
C  2.63000 43.26100 27.79000
C  6.22400 43.77900 26.72700
C  4.23000 43.23500 29.49100
O  5.32400 43.23600 30.08600
C  2.79300 43.03400 30.10800
C  2.68000 41.72500 30.71500
O  2.23600 40.68500 30.25800
O  2.98600 41.81900 32.04600
C  2.31500 40.90600 33.00300
H  -3.49400 42.06900 27.07500
H  -1.10600 43.16900 21.50000
H  4.76600 43.73500 23.97100
H  0.04900 42.04100 30.64100
H  -2.54600 43.10600 29.68300
H  -2.48700 40.49800 28.76200
H  -3.15700 40.94300 30.37600
H  -1.47800 40.42100 30.17800
H  -1.61800 44.22500 31.10000
H  -0.10300 44.96200 30.51300
H  0.65600 44.75300 32.72400
H  0.48300 42.98500 32.48900
H  -5.12300 40.88000 24.12200
H  -5.27100 42.41900 25.15800
H  -4.54500 40.82800 25.79800
H  -5.72100 41.95300 22.45800
H  -4.95600 40.49300 21.68200
H  -5.48200 42.05700 20.83300
H  1.30300 44.15300 20.56100
H  3.78700 43.35200 21.36600
H  1.20200 42.13500 19.46500
H  0.92300 41.29400 20.99500
H  2.60100 41.64900 20.35400
H  4.15100 45.39200 22.21600
H  2.41500 45.87100 22.15500
H  3.24900 44.91900 19.61200
H  4.58700 45.92500 20.33600
H  2.89400 46.57300 20.00200
H  6.58200 44.08200 25.74300
H  6.68500 42.81600 26.94600
H  6.49900 44.46000 27.53300
H  2.62400 43.83100 30.83200
H  3.11700 40.43400 33.57000
H  1.71000 40.11600 32.55700
H  1.64800 41.54800 33.57800
Mg -2.45600 34.31300 26.53100
C  -3.97400 32.45000 29.13500
C  -1.05800 36.24700 29.00000
C  -1.16200 36.16800 24.22200
C  -4.14800 32.33200 24.18700
N  -2.67300 34.39200 28.89700
C  -3.12700 33.43800 29.70200
C  -2.93900 33.81100 31.16400
C  -2.13600 35.14800 31.04200
C  -1.91800 35.29600 29.53200
C  -2.90600 36.39400 31.66600
C  -2.22400 32.76800 32.03100
C  -2.92400 32.36700 33.33300
H  -2.25200 32.36100 34.69100
N  -1.19700 36.00100 26.55300
C  -0.82000 36.69600 27.65500
C  -0.09300 37.83500 27.24200
C  -0.15700 37.94900 25.87900
C  -0.82800 36.70600 25.46200
C  0.64000 38.73500 28.25700
C  0.27900 39.09700 24.93700
O  -0.05300 39.07900 23.75100
C  1.03400 40.26300 25.34100
N  -2.62200 34.21800 24.42700
C  -1.96600 35.05700 23.67800
C  -2.21200 34.77000 22.18100
C  -2.95700 33.42000 22.20900
C  -3.22000 33.26100 23.69200
C  -2.98000 35.88600 21.42000
C  -2.28100 32.30000 21.49400
C  -1.53400 31.30300 22.42500
N  -3.75300 32.74800 26.59000
C  -4.34000 32.04400 25.54300
C  -5.20200 31.06800 26.13500
C  -5.11300 31.14300 27.50600
C  -4.21500 32.23200 27.73300
C  -6.17600 30.23800 25.29600
C  -5.58700 30.62300 28.79500
O  -6.39700 29.73600 29.05200
C  -4.80600 31.45900 29.91700
C  -5.83200 32.13500 30.87500
O  -6.43300 33.18500 30.65100
O  -5.91500 31.46800 32.01200
C  -6.98000 31.87900 32.99800
H  -0.46100 36.74100 29.77000
H  -0.62900 36.69700 23.42900
H  -4.54100 31.65200 23.42900
H  -3.92600 34.08600 31.53600
H  -1.20700 35.18300 31.61100
H  -3.73300 36.65500 31.00600
H  -2.15000 37.15800 31.85000
H  -3.34200 36.20000 32.64600
H  -1.31000 33.18000 32.45700
H  -2.14800 31.84700 31.45200
H  -3.15800 31.31100 33.19800
H  -3.86600 32.89900 33.46600
H  1.37800 39.42800 27.85100
H  1.14700 38.13700 29.01500
H  -0.18300 39.40500 28.50900
H  0.52200 40.95400 26.01100
H  1.32600 40.83800 24.46200
H  1.97000 39.86300 25.73200
H  -1.22300 34.55400 21.77700
H  -3.99300 33.53200 21.88800
H  -3.98600 35.56900 21.14400
H  -2.38600 36.11500 20.53600
H  -3.04500 36.78500 22.03200
H  -1.53300 32.59800 20.76000
H  -3.11700 31.70000 21.13300
H  -2.26100 30.62300 22.87000
H  -0.96800 31.77400 23.22800
H  -0.90800 30.67700 21.78800
H  -5.67700 29.75100 24.45900
H  -6.96500 30.85700 24.86900
H  -6.63000 29.47700 25.93000
H  -4.30600 30.78700 30.61500
H  -6.44100 32.39300 33.79400
H  -7.37300 30.99700 33.50400
H  -7.84100 32.40100 32.58100

