158

Mg 1.07500 7.52200 25.79700
C  1.72500 9.49000 28.66300
C  1.30700 4.71800 27.71600
C  0.87100 5.75300 22.87300
C  1.21300 10.38500 23.81900
N  1.43000 7.20800 27.94600
C  1.49800 8.14600 28.99000
C  1.22800 7.44400 30.33400
C  1.52500 5.90800 30.02400
C  1.49200 5.91800 28.47900
C  2.87400 5.18500 30.56400
C  -0.28600 7.81200 30.84700
C  -0.33700 8.13800 32.35100
H  0.67000 7.49400 33.24900
N  0.87900 5.58800 25.41400
C  1.07400 4.59500 26.32100
C  0.87200 3.32400 25.68000
C  0.85600 3.53900 24.19200
C  0.85400 5.02800 24.13800
C  0.80700 1.99100 26.45800
C  0.67100 2.53200 23.16200
O  0.74500 2.75600 21.95500
C  0.39700 1.04300 23.53000
N  1.09000 7.93800 23.67200
C  0.93500 7.07700 22.66000
C  1.00800 7.77400 21.27600
C  0.67700 9.22100 21.64500
C  1.00600 9.18800 23.14700
C  2.29700 7.63200 20.41200
C  -0.79800 9.76800 21.21800
C  -0.84200 11.07100 20.35700
N  1.60900 9.51200 26.05600
C  1.51900 10.52600 25.19100
C  1.67200 11.78900 25.86400
C  1.80600 11.46000 27.19500
C  1.69200 10.06900 27.30700
C  1.69600 13.23400 25.33300
C  2.03700 11.99700 28.60000
O  2.21500 13.14800 29.00000
C  1.76300 10.69900 29.64200
C  2.89200 10.66700 30.63400
O  3.98900 10.12400 30.55800
O  2.38500 11.11100 31.80800
C  3.24800 11.15700 32.92300
H  1.35400 3.89600 28.43300
H  0.83600 5.16600 21.95300
H  1.05000 11.29500 23.23700
H  1.99800 7.79900 31.01900
H  0.67600 5.37100 30.44700
H  3.30500 4.61100 29.74400
H  2.76800 4.61900 31.48900
H  3.59600 5.98600 30.72600
H  -0.96000 6.97600 30.66000
H  -0.63300 8.68800 30.29900
H  -1.26300 7.80500 32.81900
H  -0.27700 9.20600 32.56400
H  1.66000 1.33300 26.29200
H  -0.15300 1.56800 26.16200
H  0.84300 2.20000 27.52700
H  1.29300 0.64900 24.01100
H  0.15400 0.40300 22.68200
H  -0.44300 0.99100 24.22200
H  0.21100 7.31600 20.69100
H  1.41700 9.88200 21.19400
H  3.11000 7.61400 21.13900
H  2.41400 8.50200 19.76700
H  2.22900 6.74700 19.77900
H  -1.38900 9.88200 22.12600
H  -1.41300 8.98900 20.76700
H  -1.43600 10.99600 19.44700
H  0.17900 11.30900 20.05800
H  -1.25400 11.82800 21.02400
H  0.78200 13.72800 25.66100
H  1.46700 13.33600 24.27200
H  2.57900 13.84500 25.52300
H  0.80000 10.75500 30.15000
H  2.77800 11.48400 33.85000
H  4.10300 11.79200 32.69000
H  3.53600 10.13400 33.16700
Mg 17.68800 -2.35000 28.90500
C  16.05500 -0.64000 31.44000
C  19.64100 -3.84500 31.21600
C  19.37700 -3.61600 26.21100
C  16.04000 -0.12700 26.49800
N  17.75400 -2.32000 31.09100
C  16.98600 -1.54100 31.98600
C  17.34200 -1.85700 33.44000
C  18.50900 -2.86400 33.38300
C  18.75400 -2.98400 31.80200
C  19.72900 -2.46900 34.16200
C  16.04100 -2.36600 34.21500
C  15.68200 -1.52900 35.44900
H  16.82500 -0.77800 36.23900
N  19.02100 -3.75300 28.71200
C  19.78400 -4.24200 29.80500
C  20.71400 -5.23500 29.23900
C  20.54600 -5.22500 27.84100
C  19.63500 -4.10200 27.58400
C  21.77000 -5.88100 30.11000
C  21.17200 -6.20200 26.84300
O  20.91800 -6.10200 25.65500
C  22.00300 -7.38500 27.33400
N  17.81500 -1.90400 26.66600
C  18.57800 -2.62600 25.83300
C  18.30000 -2.19200 24.43200
C  17.14300 -1.11300 24.50700
C  16.97600 -1.03300 26.01700
C  19.54300 -1.84900 23.67600
C  15.83600 -1.33100 23.69800
C  15.47800 -0.10300 22.74500
N  16.34200 -0.72500 28.94600
C  15.74500 0.04800 27.89600
C  14.85700 0.93600 28.48500
C  14.91100 0.72600 29.91900
C  15.87200 -0.28600 30.09400
C  13.97700 1.83000 27.73400
C  14.42700 1.24700 31.14900
O  13.63900 2.13700 31.39500
C  15.30500 0.43800 32.19500
C  16.21300 1.41300 32.81100
O  17.20100 1.80600 32.27300
O  15.68100 1.86400 34.03400
C  16.27300 3.01100 34.70200
H  20.31900 -4.33000 31.92100
H  19.86100 -4.02800 25.32300
H  15.41500 0.48200 25.84200
H  17.63200 -0.86500 33.78600
H  18.22600 -3.84600 33.76200
H  19.42200 -1.63100 34.78800
H  20.67900 -2.34900 33.64200
H  19.97600 -3.26800 34.86200
H  16.25900 -3.35800 34.61000
H  15.14200 -2.35100 33.59900
H  15.36900 -2.27200 36.18300
H  14.84100 -0.89000 35.18100
H  22.36100 -5.18300 30.70300
H  22.62400 -6.31600 29.59000
H  21.36900 -6.68000 30.73400
H  21.33400 -7.77900 28.09900
H  22.99700 -7.11700 27.69100
H  22.12700 -8.08300 26.50600
H  17.90300 -3.09200 23.96200
H  17.53500 -0.10900 24.33900
H  19.41300 -0.94700 23.07800
H  19.84000 -2.61500 22.95900
H  20.46000 -1.66100 24.23500
H  15.04600 -1.45300 24.44000
H  15.94100 -2.20400 23.05500
H  16.25100 0.64800 22.58400
H  14.58200 0.36300 23.15300
H  15.36200 -0.46100 21.72100
H  13.07800 2.04300 28.31200
H  13.60600 1.32400 26.84300
H  14.32200 2.83800 27.50100
H  14.63700 -0.03000 32.91800
H  15.45900 3.71400 34.52300
H  17.16900 3.34700 34.17900
H  16.46000 2.95700 35.77500

