158

Mg 17.07800 -1.24600 27.04500
C  16.33300 0.84400 29.80600
C  18.75300 -3.31600 29.31200
C  18.71100 -2.73400 24.41200
C  15.91000 1.09200 24.99100
N  17.45100 -1.22200 29.36700
C  16.94300 -0.34300 30.28100
C  17.34900 -0.72300 31.74900
C  18.27200 -1.97000 31.47500
C  18.17000 -2.21700 29.95000
C  19.70100 -1.79100 31.92800
C  16.11400 -0.92600 32.72400
C  16.09400 -0.09600 34.02800
H  17.35800 0.33000 34.79200
N  18.35600 -2.98900 26.87500
C  18.93200 -3.65300 27.92100
C  19.79200 -4.71000 27.39700
C  19.73900 -4.62000 25.99100
C  18.98400 -3.40100 25.70200
C  20.61700 -5.62400 28.23600
C  20.41800 -5.47100 24.86500
O  20.31900 -5.34500 23.65500
C  21.20700 -6.65100 25.28200
N  17.40600 -0.72100 25.05900
C  17.92400 -1.61200 24.16900
C  17.83900 -1.05300 22.72200
C  16.89000 0.09600 22.94900
C  16.65000 0.18800 24.39000
C  19.21600 -0.70600 22.15800
C  15.56900 0.11200 22.04500
C  15.26000 1.29600 21.14200
N  16.21700 0.52700 27.27500
C  15.71700 1.34100 26.36500
C  15.01800 2.43200 27.03200
C  15.22200 2.34500 28.35300
C  15.95500 1.19200 28.46000
C  14.13700 3.36200 26.36900
C  15.00400 2.99600 29.67900
O  14.57200 4.10000 29.98700
C  15.68200 1.92500 30.62300
C  16.54400 2.63300 31.55200
O  17.79700 2.77300 31.52900
O  15.65600 3.13700 32.51000
C  16.17900 3.95800 33.52100
H  19.33700 -3.98900 29.94200
H  19.07800 -3.26300 23.52900
H  15.43300 1.85800 24.37700
H  17.88100 0.17300 32.06800
H  17.90200 -2.92100 31.85900
H  20.20200 -1.40000 31.04200
H  20.17200 -2.74600 32.16200
H  19.70700 -1.02500 32.70500
H  15.96700 -1.98300 32.94900
H  15.25200 -0.55600 32.16900
H  15.76500 -0.89800 34.68900
H  15.36100 0.70600 34.11000
H  20.41400 -5.74200 29.30000
H  21.65100 -5.29800 28.12000
H  20.54800 -6.65400 27.88500
H  22.14700 -6.44500 25.79500
H  21.52800 -7.15700 24.37200
H  20.57900 -7.31000 25.88100
H  17.36100 -1.76700 22.05100
H  17.49800 0.96100 22.68400
H  19.71900 -0.10600 22.91700
H  19.27400 -0.11900 21.24200
H  19.80600 -1.61500 22.04600
H  14.65400 0.08000 22.63600
H  15.55900 -0.80500 21.45500
H  14.30300 1.72100 21.44300
H  15.40500 0.95400 20.11700
H  15.99300 2.06700 21.37800
H  14.61400 4.26100 25.98000
H  13.36600 3.70100 27.06200
H  13.58500 2.90600 25.54700
H  14.98400 1.35700 31.23700
H  17.14700 3.62700 33.89400
H  15.39300 4.08700 34.26600
H  16.24200 4.96800 33.11400
Mg -10.58100 39.37500 40.50600
C  -9.56200 36.31900 39.46000
C  -7.76600 40.76700 38.89600
C  -11.84200 42.56400 40.94300
C  -13.71600 38.14300 41.31300
N  -8.83700 38.58500 39.34900
C  -8.67300 37.29600 39.05500
C  -7.45400 37.03100 38.12400
C  -6.78200 38.41700 38.20500
C  -7.88300 39.37700 38.79100
C  -5.43100 38.48500 39.02800
C  -7.81500 36.60600 36.63600
C  -6.72200 36.54300 35.58800
H  -6.70100 37.63700 34.58500
N  -9.85700 41.38000 40.14000
C  -8.65800 41.68800 39.51600
C  -8.44100 43.11500 39.43200
C  -9.49100 43.62400 40.20300
C  -10.51600 42.55000 40.44400
C  -7.18800 43.89500 38.88700
C  -9.71300 45.04700 40.68400
O  -8.84200 45.91600 40.47100
C  -10.87400 45.46800 41.45100
N  -12.59000 40.24100 40.98800
C  -12.76400 41.52200 41.27000
C  -14.20400 41.86500 41.72100
C  -14.80000 40.38500 41.83700
C  -13.70000 39.56300 41.27800
C  -14.27700 42.76400 42.96700
C  -16.16900 40.13700 41.10100
C  -17.37100 40.42900 41.98800
N  -11.47600 37.60200 40.58100
C  -12.71500 37.20900 40.99600
C  -12.84000 35.76600 40.94500
C  -11.65800 35.45500 40.21600
C  -10.80700 36.58600 40.11200
C  -14.02100 34.87400 41.33100
C  -10.94300 34.36200 39.62500
O  -11.36400 33.20900 39.50900
C  -9.58000 34.85200 39.11900
C  -8.49600 34.15400 39.81100
O  -8.31100 34.14700 41.04200
O  -7.59300 33.70900 38.84000
C  -6.33100 33.23400 39.44800
H  -6.84300 41.09800 38.41700
H  -12.33100 43.51800 41.14900
H  -14.65900 37.65200 41.56300
H  -6.86300 36.29600 38.67000
H  -6.59200 38.81300 37.20800
H  -5.67600 39.21300 39.80000
H  -4.68100 38.78500 38.29600
H  -5.26000 37.52200 39.50900
H  -8.63000 37.20400 36.22900
H  -8.19800 35.59400 36.76800
H  -6.96200 35.57400 35.15300
H  -5.80400 36.57100 36.17500
H  -7.60300 44.65500 38.22400
H  -6.58000 43.21600 38.29000
H  -6.62700 44.40800 39.66900
H  -11.18500 44.73000 42.19100
H  -11.71000 45.64900 40.77700
H  -10.61500 46.36100 42.01900
H  -14.61800 42.41800 40.87800
H  -14.77300 40.15800 42.90300
H  -15.02900 43.54600 42.86100
H  -13.34400 43.30900 43.10500
H  -14.42000 42.18600 43.88000
H  -16.17900 39.15200 40.63500
H  -16.37400 40.86700 40.31800
H  -17.95000 39.51200 42.09400
H  -18.01300 41.19300 41.55000
H  -17.14100 40.81300 42.98200
H  -13.82300 33.85900 40.98700
H  -14.96500 35.19200 40.88800
H  -14.12500 34.83200 42.41600
H  -9.57900 34.73600 38.03600
H  -5.76300 32.68700 38.69500
H  -6.48800 32.57500 40.30100
H  -5.67900 34.02300 39.82500

