158

Mg 46.96900 25.96700 29.29500
C  47.78700 27.93600 32.06200
C  45.92100 23.47400 31.52100
C  45.93000 24.27200 26.63700
C  48.04100 28.45000 27.20600
N  46.80400 25.80200 31.56700
C  47.19200 26.72700 32.49700
C  46.68200 26.31900 33.88700
C  46.20200 24.87100 33.65600
C  46.28400 24.71500 32.13600
C  46.98000 23.82700 34.47800
C  45.63100 27.23100 34.47400
C  45.98700 27.95800 35.82300
H  46.39100 27.06700 37.02400
N  46.18600 24.08900 29.09700
C  45.82400 23.24100 30.13400
C  45.31800 22.00800 29.54500
C  45.14000 22.25400 28.11700
C  45.77900 23.57900 27.91300
C  44.98500 20.77400 30.39200
C  44.57600 21.35200 27.05300
O  44.61000 21.61600 25.84800
C  43.99900 20.11800 27.43200
N  47.22700 26.13400 27.11400
C  46.55800 25.39400 26.26400
C  46.53200 25.89800 24.83600
C  47.18300 27.32100 25.05400
C  47.47300 27.34100 26.57900
C  47.29700 25.01600 23.78500
C  46.29600 28.52200 24.63600
C  47.06900 29.63300 23.96000
N  47.96300 27.68500 29.50800
C  48.28300 28.58300 28.57700
C  48.91300 29.70100 29.22200
C  48.76800 29.48700 30.57700
C  48.14400 28.29500 30.74100
C  49.46400 30.89000 28.50300
C  49.00400 30.04900 31.92700
O  49.61500 31.06800 32.31900
C  48.32000 29.02100 32.97900
C  49.46300 28.39500 33.76900
O  50.28700 27.69900 33.25400
O  49.27700 28.76600 35.10700
C  50.29900 28.25100 35.99300
H  45.51000 22.75500 32.23300
H  45.50000 23.77000 25.76700
H  48.37900 29.16600 26.45400
H  47.45800 26.36900 34.65100
H  45.14700 24.71200 33.87900
H  47.48700 23.09900 33.84500
H  46.17600 23.39600 35.07400
H  47.73900 24.21700 35.15700
H  44.73500 26.63500 34.64700
H  45.44600 28.09100 33.83000
H  45.01500 28.37800 36.08100
H  46.72500 28.75800 35.75800
H  44.90200 19.83700 29.84100
H  43.99500 20.99400 30.79200
H  45.50900 20.61600 31.33400
H  44.72800 19.40500 27.81700
H  43.51000 19.62400 26.59300
H  43.26900 20.28900 28.22300
H  45.46600 25.96200 24.61800
H  48.11000 27.30300 24.48100
H  47.13400 25.11500 22.71200
H  47.22300 23.97000 24.08300
H  48.34700 25.30900 23.76400
H  45.85600 28.89300 25.56200
H  45.46600 28.18500 24.01400
H  46.54800 29.88600 23.03700
H  48.10200 29.33600 23.78100
H  47.05000 30.50100 24.62000
H  49.10600 31.74700 29.07300
H  49.21000 30.97000 27.44700
H  50.53800 30.92400 28.68900
H  47.60600 29.48800 33.65700
H  50.98400 29.00700 36.37800
H  50.89600 27.42200 35.61400
H  49.77300 27.92500 36.89000
Mg 27.16100 50.48200 26.07600
C  25.07900 51.51400 28.68600
C  29.50600 49.71700 28.40600
C  29.28300 49.98300 23.47200
C  24.69200 51.47300 23.82900
N  27.14900 50.42200 28.34500
C  26.27500 51.00400 29.17500
C  26.64700 50.76300 30.66200
C  28.24300 50.39900 30.48600
C  28.33600 50.19500 29.01100
C  29.09700 51.59900 30.99800
C  25.80300 49.64800 31.34800
C  25.22600 50.05800 32.71600
H  25.47800 49.17900 33.95300
N  29.07600 49.86600 25.93900
C  29.89000 49.60300 27.04300
C  31.20900 49.15800 26.57400
C  31.22000 49.23100 25.14500
C  29.80900 49.73700 24.81000
C  32.38100 48.83300 27.50200
C  32.27700 48.81700 24.14800
O  32.14000 49.00200 22.92600
C  33.61500 48.25800 24.55100
N  27.06600 50.77900 23.88500
C  28.01800 50.40600 23.06100
C  27.50200 50.19600 21.60900
C  25.99500 50.55800 21.81100
C  25.92800 51.00100 23.23800
C  28.22600 50.99200 20.51400
C  24.88800 49.60300 21.27200
C  23.99800 50.15200 20.13200
N  25.37400 51.41400 26.16900
C  24.39300 51.72700 25.20400
C  23.20900 52.32700 25.76000
C  23.40300 52.19800 27.09800
C  24.72500 51.62300 27.30900
C  22.00300 52.87700 25.05000
C  22.78600 52.48700 28.43100
O  21.69300 52.86100 28.85000
C  23.86100 52.02600 29.48700
C  24.26800 53.21200 30.37600
O  25.15900 53.95300 30.11500
O  23.69200 53.13800 31.60900
C  23.88000 54.29600 32.54500
H  30.36600 49.49200 29.04000
H  29.98200 49.72800 22.67400
H  23.86600 51.62800 23.13100
H  26.34600 51.62400 31.26000
H  28.43000 49.50400 31.07900
H  29.92400 51.76000 30.30700
H  29.40900 51.35900 32.01500
H  28.45000 52.46900 30.88700
H  26.44000 48.78000 31.51700
H  24.97100 49.30700 30.73200
H  24.14700 50.02900 32.56300
H  25.45300 51.07800 33.02500
H  33.13100 48.11900 27.16000
H  31.99000 48.63800 28.50000
H  32.94100 49.76700 27.54000
H  34.23300 48.80700 25.26100
H  34.14400 48.06500 23.61800
H  33.51300 47.27900 25.02100
H  27.56700 49.12000 21.44500
H  25.84000 51.49400 21.27500
H  29.06800 51.57400 20.89000
H  27.51700 51.49300 19.85400
H  28.62200 50.17200 19.91500
H  24.14700 49.45400 22.05700
H  25.36700 48.69700 20.89900
H  24.26800 51.10900 19.68600
H  22.93100 50.25000 20.32900
H  24.06800 49.51500 19.25000
H  22.34500 52.98600 24.02100
H  21.85000 53.87800 25.45200
H  21.12400 52.24300 24.94000
H  23.59900 51.24600 30.20100
H  24.12700 55.22600 32.03200
H  24.63600 54.15200 33.31700
H  22.95900 54.50900 33.08700

