158

Mg 24.85900 1.69600 29.25700
C  26.95700 1.76800 32.18700
C  22.19100 1.65600 31.32000
C  22.95100 1.53600 26.51600
C  27.69000 1.15400 27.29700
N  24.63100 1.79200 31.53700
C  25.58600 1.86300 32.53700
C  24.92200 2.17700 33.97600
C  23.41500 1.99800 33.54900
C  23.36500 1.74800 32.02000
C  22.64500 0.87600 34.33700
C  25.30600 3.53500 34.46600
C  24.76200 4.06200 35.84700
H  25.65200 3.85100 37.15000
N  22.88900 1.57600 29.00700
C  21.93200 1.61100 29.94500
C  20.57900 1.40000 29.39200
C  20.77200 1.30100 27.94200
C  22.24300 1.49000 27.76300
C  19.25800 1.40100 30.18300
C  19.77900 1.12700 26.81000
O  20.12700 1.20700 25.63600
C  18.29300 0.89700 27.13800
N  25.22900 1.47600 27.19600
C  24.34200 1.48400 26.22100
C  24.97600 1.52000 24.87300
C  26.46400 1.54800 25.13000
C  26.49100 1.31500 26.64500
C  24.48300 0.28600 24.00800
C  27.29500 2.81400 24.74900
C  26.79300 4.12100 25.34000
N  26.94200 1.33500 29.64600
C  27.96000 1.16700 28.72500
C  29.15000 1.01700 29.42900
C  28.86500 1.30500 30.81700
C  27.44000 1.50800 30.88300
C  30.39700 0.58600 28.74900
C  29.36800 1.34700 32.17300
O  30.49100 1.11600 32.61600
C  28.25800 1.92600 33.02500
C  28.13200 1.17800 34.30000
O  27.65200 0.06800 34.39900
O  28.79900 1.87400 35.30300
C  29.16800 1.10300 36.52400
H  21.34000 1.71900 32.00200
H  22.34700 1.53400 25.60600
H  28.56500 1.18200 26.64500
H  25.17400 1.37500 34.67100
H  22.89100 2.92200 33.79500
H  22.54800 0.11200 33.56500
H  21.71300 1.29500 34.71400
H  23.19900 0.39400 35.14300
H  25.13200 4.22000 33.63600
H  26.38000 3.39900 34.59800
H  23.81100 3.56400 36.03700
H  24.48400 5.11000 35.73500
H  18.69400 2.19400 29.69100
H  19.26200 1.69100 31.23400
H  18.83200 0.39800 30.17400
H  18.26800 0.03100 27.80000
H  17.73800 0.79000 26.20500
H  17.87400 1.70700 27.73500
H  24.60200 2.43000 24.40300
H  27.01000 0.77900 24.58300
H  23.66500 -0.20700 24.53300
H  25.31800 -0.40200 23.87300
H  24.15800 0.77100 23.08700
H  27.28800 2.96700 23.67000
H  28.36000 2.61800 24.87300
H  26.35300 4.02000 26.33200
H  26.00300 4.44200 24.66000
H  27.60300 4.83400 25.49100
H  30.34500 0.35900 27.68500
H  30.70600 -0.30700 29.29200
H  31.18000 1.33900 28.84000
H  28.43800 2.99100 33.17100
H  29.26000 0.04300 36.28600
H  28.39400 1.16200 37.28900
H  30.11600 1.46700 36.92200
Mg -13.06700 38.29000 42.08200
C  -11.19300 35.41900 40.90600
C  -11.01300 40.32000 40.11400
C  -15.18000 40.90000 42.82100
C  -15.31300 36.06900 43.55600
N  -11.39300 37.84400 40.57500
C  -10.65500 36.64800 40.45500
C  -9.34900 36.80800 39.67900
C  -9.30700 38.43700 39.52500
C  -10.62700 38.92300 40.12900
C  -8.11100 39.09100 40.27800
C  -9.22200 36.00800 38.35800
C  -8.01400 34.95000 38.39100
H  -7.20200 34.77400 37.02500
N  -13.13300 40.28000 41.55800
C  -12.16400 40.89800 40.79700
C  -12.47600 42.28900 40.76000
C  -13.61200 42.56300 41.59100
C  -14.04900 41.23400 42.00800
C  -11.71000 43.33600 39.93000
C  -14.09600 43.99300 41.86500
O  -13.65000 44.99500 41.27400
C  -15.23300 44.17800 42.85100
N  -15.07500 38.46800 43.02300
C  -15.70400 39.65700 43.19300
C  -17.03000 39.38900 43.87600
C  -17.05600 37.85500 44.09000
C  -15.73900 37.42100 43.50800
C  -17.26400 40.09600 45.21500
C  -18.30800 37.11600 43.49800
C  -19.42800 36.91600 44.58000
N  -13.36600 36.13800 42.17600
C  -14.26700 35.39600 42.86700
C  -13.92200 33.96600 42.75000
C  -12.77100 33.97200 42.00000
C  -12.42800 35.31900 41.70800
C  -14.65400 32.87100 43.44500
C  -11.76700 33.14500 41.44500
O  -11.76700 31.92700 41.44000
C  -10.61800 34.01600 40.83600
C  -9.25700 33.72900 41.46400
O  -8.50000 32.75900 41.13600
O  -9.00700 34.59700 42.44300
C  -7.76600 34.34900 43.20500
H  -10.34800 40.99300 39.56900
H  -15.87900 41.71600 43.01400
H  -16.05900 35.36000 43.92100
H  -8.51400 36.50500 40.31100
H  -9.31900 38.86100 38.52100
H  -7.32600 39.09200 39.52200
H  -7.85400 38.41900 41.09700
H  -8.38400 40.04900 40.72000
H  -9.11000 36.52000 37.40200
H  -10.14400 35.42700 38.33600
H  -8.36300 33.94200 38.61600
H  -7.27900 35.29000 39.12100
H  -11.21200 44.10100 40.52400
H  -12.51800 43.77400 39.34400
H  -11.04600 42.81100 39.24300
H  -16.23000 44.27400 42.42200
H  -15.00300 45.13900 43.31100
H  -15.06200 43.41400 43.61000
H  -17.90300 39.67400 43.28800
H  -16.94500 37.59300 45.14200
H  -16.38500 40.65400 45.53600
H  -17.65100 39.43900 45.99400
H  -18.04200 40.85600 45.13100
H  -18.06200 36.09600 43.20400
H  -18.71500 37.50400 42.56500
H  -19.15300 37.60500 45.37900
H  -19.42600 35.95000 45.08500
H  -20.42400 37.10300 44.18000
H  -14.27300 31.94400 43.01700
H  -15.71000 32.91100 43.17800
H  -14.55400 32.92600 44.52900
H  -10.69000 33.57400 39.84300
H  -7.76800 33.34200 43.62400
H  -7.79000 35.07100 44.02100
H  -6.83000 34.61600 42.71300

