158

Mg 23.88100 -5.54100 46.01800
C  26.12500 -3.57400 44.19800
C  21.37400 -4.70500 43.83600
C  22.23700 -8.37400 46.98100
C  26.56900 -6.61400 48.03200
N  23.77500 -4.42900 44.20800
C  24.79600 -3.67800 43.61700
C  24.29800 -2.77000 42.50000
C  22.75800 -3.12000 42.55500
C  22.55200 -4.09600 43.59200
C  21.86100 -1.86800 42.74300
C  25.06600 -3.06600 41.13400
C  25.69600 -1.91000 40.43800
H  25.91600 -2.00200 38.90600
N  21.94000 -6.27900 45.63600
C  21.08000 -5.76200 44.77100
C  19.76200 -6.46100 44.95300
C  19.99800 -7.44000 45.95400
C  21.46300 -7.38600 46.24500
C  18.48100 -6.07800 44.21900
C  18.98800 -8.44700 46.53800
O  17.84800 -8.51500 46.09800
C  19.28800 -9.31300 47.71000
N  24.41900 -7.32200 47.22800
C  23.57600 -8.38300 47.42200
C  24.19600 -9.47900 48.37700
C  25.32800 -8.69200 48.98200
C  25.44100 -7.45700 48.09700
C  23.29500 -10.25800 49.37200
C  26.74900 -9.46300 49.12100
C  27.62600 -9.03200 50.27700
N  25.92800 -5.17100 46.17400
C  26.91700 -5.68400 47.06400
C  28.11300 -4.95100 46.89500
C  27.92000 -4.05600 45.80900
C  26.53400 -4.32500 45.33500
C  29.26500 -5.15300 47.83900
C  28.45200 -3.02300 44.93800
O  29.54200 -2.48100 44.99200
C  27.34700 -2.72800 43.85900
C  27.11300 -1.25000 43.96900
O  26.38900 -0.73700 44.80500
O  27.95000 -0.62800 43.10300
C  28.00300 0.80400 43.31100
H  20.50400 -4.38500 43.25900
H  21.76000 -9.34700 47.11200
H  27.28500 -6.85600 48.82000
H  24.43300 -1.71900 42.75400
H  22.37800 -3.53200 41.62100
H  21.14500 -1.93500 43.56200
H  21.28900 -1.74800 41.82300
H  22.39100 -0.91600 42.76200
H  24.33000 -3.49300 40.45200
H  25.78300 -3.88500 41.19500
H  26.61200 -1.87200 41.02700
H  25.25000 -0.92900 40.60100
H  18.13100 -6.79600 43.47700
H  18.58200 -5.15800 43.64400
H  17.75600 -5.86400 45.00400
H  18.36200 -9.62900 48.19000
H  19.96100 -8.69500 48.30400
H  19.68800 -10.23700 47.29500
H  24.50000 -10.27300 47.69400
H  24.95000 -8.41700 49.96700
H  22.38600 -9.70300 49.60400
H  23.78100 -10.37200 50.34100
H  23.03800 -11.23400 48.96000
H  27.27300 -9.21700 48.19800
H  26.56100 -10.53000 49.24300
H  27.90600 -9.80000 50.99800
H  27.01000 -8.31400 50.81800
H  28.48200 -8.44900 49.93800
H  30.00200 -4.50300 47.36800
H  29.45900 -6.22500 47.88500
H  29.08600 -4.89300 48.88200
H  27.62200 -2.98700 42.83600
H  26.96100 1.11600 43.37700
H  28.47300 1.31900 42.47200
H  28.60500 1.01800 44.19400
Mg 46.83600 16.65300 27.40900
C  45.01000 16.51000 30.41100
C  49.18900 18.43000 28.99600
C  48.32100 16.94500 24.40700
C  44.21800 15.00900 25.81500
N  46.91700 17.62000 29.51600
C  46.19700 17.22000 30.62200
C  46.88400 17.65400 31.91900
C  48.19100 18.50800 31.36500
C  48.14600 18.15300 29.91300
C  48.15700 19.98500 31.64100
C  47.33500 16.45700 32.73300
C  47.06300 16.56500 34.20700
H  47.05200 18.00700 34.82100
N  48.48400 17.64100 26.76900
C  49.39900 18.33400 27.58200
C  50.50600 18.75400 26.72100
C  50.21300 18.33800 25.40500
C  48.96700 17.63400 25.53400
C  51.64900 19.59800 27.29700
C  50.98400 18.62400 24.09500
O  50.70700 18.26500 22.96400
C  52.18400 19.48700 24.26200
N  46.37600 15.94200 25.36800
C  47.20400 16.14300 24.33700
C  46.67300 15.49000 23.01100
C  45.26300 14.88100 23.52500
C  45.30200 15.18800 25.03700
C  46.46600 16.66400 21.96100
C  45.01300 13.39500 23.09100
C  44.23500 13.26500 21.79600
N  45.05800 15.80300 28.00600
C  44.01400 15.27500 27.22100
C  42.85100 14.91000 28.02100
C  43.24000 15.44000 29.31400
C  44.56100 15.95700 29.17600
C  41.72400 14.08700 27.59800
C  42.82500 15.54600 30.72200
O  41.77500 15.14100 31.22200
C  44.05100 16.12000 31.46600
C  43.56300 17.20800 32.32100
O  43.16000 18.31400 31.99300
O  43.54300 16.68300 33.60300
C  42.68000 17.48900 34.46000
H  49.96100 18.92700 29.58600
H  48.86300 17.08100 23.46800
H  43.31200 14.63200 25.33600
H  46.29400 18.33600 32.53100
H  49.11700 18.13600 31.80300
H  49.05200 20.20600 32.22100
H  47.28500 20.27200 32.22900
H  48.17900 20.50300 30.68200
H  48.39900 16.22200 32.71100
H  46.81600 15.60400 32.29400
H  47.82100 15.98700 34.73600
H  46.18500 15.93800 34.36700
H  52.60900 19.12800 27.08500
H  51.66200 19.62800 28.38600
H  51.66000 20.60500 26.88100
H  51.88900 20.38300 24.80900
H  52.51000 19.92900 23.32000
H  52.99800 18.95900 24.75900
H  47.44200 14.79500 22.67400
H  44.45600 15.43300 23.04400
H  46.47700 17.63500 22.45600
H  45.46500 16.50600 21.55900
H  47.16300 16.59100 21.12600
H  44.45300 12.97100 23.92500
H  45.97800 12.89000 23.07100
H  44.90700 12.73300 21.12300
H  44.07800 14.21400 21.28400
H  43.29200 12.74200 21.95400
H  41.98200 13.07300 27.29500
H  41.29500 14.54400 26.70600
H  41.05700 14.08300 28.46000
H  44.56600 15.40100 32.10300
H  42.94500 18.54300 34.37200
H  42.63000 17.05400 35.45800
H  41.70800 17.45200 33.96700

