158

Mg 7.85500 3.23500 27.37500
C  9.37300 1.96100 30.16300
C  6.01600 5.34300 29.41200
C  6.17100 4.06800 24.67400
C  9.21500 0.38900 25.56300
N  7.88300 3.73900 29.50400
C  8.58400 3.04900 30.40900
C  8.28900 3.54100 31.84800
C  7.25700 4.71500 31.55800
C  7.07400 4.61200 30.05300
C  5.87800 4.67800 32.32300
C  9.55900 3.90400 32.74800
C  9.33900 4.82300 33.98000
H  10.27600 4.90500 35.23000
N  6.50800 4.66400 27.03500
C  5.79600 5.38600 28.01700
C  4.88200 6.27600 27.34700
C  5.05700 6.02700 25.92800
C  5.95600 4.90300 25.80800
C  3.96600 7.30500 27.94700
C  4.55100 6.83900 24.79400
O  4.94300 6.63600 23.60800
C  3.63000 7.93500 24.92900
N  7.90000 2.43700 25.31100
C  7.03300 3.03300 24.40700
C  7.06800 2.26400 23.06500
C  8.15600 1.18600 23.33800
C  8.43100 1.30500 24.78400
C  5.70900 1.76000 22.59100
C  9.37700 1.25900 22.41900
C  9.69200 0.09200 21.44600
N  9.03200 1.58000 27.71300
C  9.51700 0.56100 26.90900
C  10.37900 -0.37400 27.63800
C  10.32800 0.16100 28.93100
C  9.48700 1.28800 28.94000
C  11.11000 -1.58800 27.15200
C  10.75500 -0.03700 30.31600
O  11.45300 -0.92600 30.77800
C  10.17400 1.12500 31.10000
C  9.41700 0.51200 32.19900
O  8.28700 0.04700 32.14100
O  10.04900 0.69000 33.43500
C  9.39900 0.30900 34.65100
H  5.28100 5.96400 29.92900
H  5.55200 4.37000 23.82700
H  9.60900 -0.44500 24.97900
H  7.74400 2.87900 32.52000
H  7.74500 5.67600 31.72600
H  5.54900 5.66600 32.64500
H  5.93000 4.25500 33.32600
H  4.93900 4.38500 31.85200
H  10.29300 4.43700 32.14400
H  10.08700 3.00700 33.07300
H  8.40500 4.48800 34.43200
H  9.32100 5.84500 33.60000
H  4.30700 8.28900 27.62700
H  4.01200 7.21200 29.03200
H  3.01800 6.99700 27.50600
H  4.16100 8.69900 25.49700
H  2.72300 7.71400 25.49100
H  3.30200 8.43200 24.01600
H  7.40400 2.91200 22.25600
H  7.74600 0.18400 23.21200
H  4.93900 2.10000 23.28300
H  5.80000 0.67400 22.56400
H  5.46000 2.05600 21.57200
H  10.26800 1.33200 23.04100
H  9.36000 2.14800 21.78800
H  8.74900 -0.38400 21.17900
H  10.47300 -0.50800 21.91400
H  10.21500 0.49600 20.57900
H  11.55600 -1.28900 26.20300
H  10.39300 -2.39700 27.01000
H  11.86500 -1.92600 27.86100
H  10.99700 1.76100 31.42500
H  10.00800 -0.13500 35.43900
H  8.58300 -0.39000 34.46600
H  8.97300 1.23400 35.04000
Mg 26.90300 49.74600 26.59600
C  24.91000 50.59400 29.44300
C  29.42400 49.01600 28.78200
C  28.87000 49.35400 24.02900
C  24.28900 50.99400 24.56600
N  27.07200 49.82500 28.80300
C  26.12900 50.04300 29.76300
C  26.60800 49.65300 31.19600
C  28.12900 49.41900 30.95700
C  28.22400 49.40700 29.42000
C  29.00500 50.45100 31.62800
C  25.84700 48.43600 31.76800
C  25.05700 48.85300 33.02600
H  25.81300 49.46600 34.25000
N  28.96300 49.18100 26.41600
C  29.80300 48.82500 27.46200
C  31.02200 48.42300 26.88000
C  30.96400 48.66900 25.47200
C  29.56300 49.09000 25.20900
C  32.19800 47.99000 27.68500
C  31.97500 48.65600 24.42500
O  31.87900 49.15900 23.26800
C  33.32500 48.09400 24.56600
N  26.61800 50.10000 24.61400
C  27.54300 49.73700 23.70300
C  27.04200 50.01500 22.27500
C  25.59800 50.42700 22.43100
C  25.46500 50.52400 23.98200
C  27.86500 51.07500 21.51700
C  24.45800 49.39500 21.93200
C  23.37800 49.95800 21.07300
N  25.08000 50.67700 26.87300
C  24.10100 51.11600 25.97300
C  22.91700 51.63300 26.64900
C  23.18500 51.37900 27.98500
C  24.47800 50.82700 28.12000
C  21.67900 52.25500 26.06300
C  22.63600 51.51600 29.28800
O  21.53500 51.95800 29.63700
C  23.67200 50.93200 30.33100
C  24.07100 52.00100 31.26300
O  24.94200 52.83800 31.05400
O  23.40000 51.91800 32.40500
C  23.67000 53.01100 33.37600
H  30.11800 48.80000 29.59700
H  29.45800 49.11500 23.14000
H  23.38300 51.27500 24.02400
H  26.39000 50.55800 31.76300
H  28.40300 48.39300 31.20200
H  29.64100 49.88700 32.31000
H  28.37300 51.04400 32.28800
H  29.69300 50.87400 30.89600
H  26.53600 47.62400 32.00400
H  25.10400 48.06800 31.06000
H  24.60600 47.91000 33.33400
H  24.21900 49.51800 32.81700
H  31.80100 47.54800 28.59900
H  32.85600 48.83200 27.89900
H  32.68100 47.25700 27.03900
H  33.84800 47.85400 23.64000
H  33.11500 47.11800 25.00300
H  33.97200 48.58900 25.29100
H  27.11700 49.06000 21.75500
H  25.38600 51.40800 22.00500
H  28.79000 51.39100 22.00000
H  27.42300 52.05100 21.32000
H  28.18200 50.75300 20.52500
H  23.96300 48.91400 22.77500
H  24.99500 48.64800 21.34800
H  22.49000 49.36700 21.29700
H  23.73000 50.03300 20.04400
H  23.25800 50.94800 21.51300
H  21.58300 53.33900 26.12100
H  20.87500 51.94200 26.72800
H  21.41400 51.84400 25.08900
H  23.32600 50.04400 30.86000
H  24.63200 53.50800 33.25100
H  23.55400 52.67200 34.40600
H  22.86300 53.73700 33.27600

