158

Mg 0.72500 7.39800 26.54000
C  1.55900 9.84600 28.91000
C  0.98700 5.01100 28.86500
C  0.20800 5.16700 24.11500
C  1.31700 9.92500 24.14300
N  1.33800 7.46600 28.62200
C  1.38500 8.54800 29.46400
C  1.06500 8.14200 30.90800
C  1.47700 6.63800 30.79100
C  1.24700 6.31900 29.31200
C  2.90700 6.24700 31.24600
C  -0.28300 8.59800 31.41300
C  -0.36000 8.86800 32.89500
H  0.78200 8.54200 33.84600
N  0.45300 5.35400 26.53900
C  0.62400 4.53000 27.56100
C  0.36900 3.17700 27.17600
C  0.01900 3.15600 25.80900
C  0.22400 4.55500 25.41300
C  0.17700 2.04000 28.14900
C  -0.47200 2.06500 24.90900
O  -0.70400 2.20300 23.71800
C  -0.59200 0.65400 25.53000
N  0.66000 7.60000 24.38600
C  0.37500 6.45300 23.62500
C  0.48100 6.75200 22.11800
C  1.04300 8.27500 22.05600
C  0.99300 8.65000 23.59200
C  1.40400 5.69200 21.37500
C  0.18400 9.23100 21.17600
C  -1.25100 9.33700 21.66500
N  1.21900 9.47800 26.46200
C  1.37100 10.31600 25.44300
C  1.57800 11.64600 25.84600
C  1.67800 11.52000 27.26900
C  1.50400 10.19800 27.54800
C  1.72400 12.93700 24.97400
C  1.81400 12.20900 28.53400
O  2.04400 13.38900 28.84900
C  1.66000 11.17700 29.68400
C  2.83400 11.18600 30.48300
O  3.93200 10.68300 30.20800
O  2.66400 11.78200 31.70700
C  3.76100 11.83400 32.69600
H  1.12000 4.26800 29.65400
H  0.10800 4.48600 23.26700
H  1.50400 10.70000 23.39600
H  1.82600 8.65500 31.49500
H  0.60300 6.05900 31.08800
H  2.79000 5.99600 32.30000
H  3.60900 7.04200 30.99400
H  3.15300 5.35800 30.66500
H  -0.97700 7.76500 31.30300
H  -0.59400 9.52100 30.92300
H  -1.15600 8.22700 33.27400
H  -0.55200 9.92800 33.06600
H  -0.84900 1.71200 27.98600
H  0.29000 2.26800 29.20900
H  0.92300 1.27400 27.93900
H  0.19400 0.42100 26.24800
H  -0.53900 -0.08600 24.73200
H  -1.61400 0.59900 25.90500
H  -0.48400 6.62900 21.62500
H  2.04900 8.22700 21.63900
H  2.11200 5.17300 22.02200
H  2.04200 6.05100 20.56800
H  0.75500 4.91200 20.97700
H  0.22200 8.93800 20.12700
H  0.65900 10.21200 21.19100
H  -1.65900 10.33000 21.84800
H  -1.56800 8.85900 22.59200
H  -1.87300 8.82100 20.93400
H  0.87800 13.61000 25.11400
H  1.77000 12.77300 23.89700
H  2.63500 13.45800 25.26800
H  0.83100 11.44800 30.33800
H  4.69200 12.14400 32.22100
H  3.90400 10.93200 33.29100
H  3.71200 12.60600 33.46400
Mg 5.52000 54.31400 41.53800
C  4.92200 50.90900 41.07900
C  8.55600 54.05400 39.95300
C  5.61600 57.75500 41.59200
C  2.06800 54.62100 42.62500
N  6.55200 52.65100 40.54900
C  6.18500 51.32000 40.58100
C  7.30900 50.44300 40.09700
C  8.57500 51.45000 40.13600
C  7.84400 52.79500 40.17800
C  9.64300 51.21900 41.24300
C  7.03700 49.83000 38.72000
C  6.30200 50.62800 37.65500
H  5.50100 49.70800 36.67400
N  6.90800 55.67300 40.91100
C  8.10300 55.35400 40.30200
C  8.68400 56.53800 39.93400
C  7.94100 57.65200 40.47400
C  6.75700 57.04500 41.12100
C  9.96100 56.49400 39.01700
C  8.28500 59.15500 40.19200
O  9.33800 59.39100 39.62700
C  7.34900 60.33700 40.45900
N  4.06400 56.01300 42.12800
C  4.32800 57.33000 41.89700
C  3.16200 58.23400 42.19800
C  2.00700 57.18100 42.53900
C  2.73500 55.85100 42.43500
C  3.41400 59.25900 43.27200
C  0.59100 57.41700 41.83000
C  -0.67600 57.41500 42.79800
N  3.82200 53.03800 41.86200
C  2.59900 53.29200 42.32300
C  1.94300 52.01500 42.50600
C  2.81100 51.04400 42.07600
C  3.95500 51.74700 41.65200
C  0.64900 51.68300 43.08700
C  3.08700 49.67000 42.06700
O  2.47700 48.75000 42.55100
C  4.38400 49.48300 41.29500
C  3.97000 48.74700 40.11100
O  3.49800 49.28000 39.12100
O  4.12000 47.37400 40.30200
C  3.49200 46.46500 39.33100
H  9.58000 54.01200 39.57600
H  5.63300 58.84500 41.53000
H  0.97800 54.63000 42.69500
H  7.49600 49.56800 40.71900
H  9.19100 51.41600 39.23800
H  9.55400 50.28800 41.80300
H  9.76400 52.10000 41.87400
H  10.62600 51.11000 40.78700
H  6.49100 48.89100 38.81800
H  8.04900 49.54800 38.42900
H  7.11200 51.13700 37.13200
H  5.55800 51.31100 38.06500
H  10.41200 57.47900 38.89200
H  9.74800 56.07500 38.03400
H  10.76600 55.94600 39.50600
H  7.86000 61.29900 40.44100
H  7.12400 60.32000 41.52600
H  6.54300 60.33900 39.72600
H  2.92600 58.72600 41.25400
H  1.85600 57.28400 43.61400
H  3.65500 60.20800 42.79400
H  4.40600 59.18000 43.71800
H  2.55600 59.27800 43.94300
H  0.49000 56.63800 41.07500
H  0.60700 58.36800 41.29600
H  -1.50800 56.85900 42.36700
H  -1.10700 58.40800 42.91800
H  -0.30600 56.85500 43.65800
H  0.05500 51.41200 42.21400
H  0.20700 52.54600 43.58300
H  0.86800 50.91100 43.82500
H  5.11500 48.98900 41.93500
H  2.46000 46.36000 39.66800
H  4.01400 45.50800 39.33600
H  3.34600 46.74300 38.28700

