158

Mg 25.36100 -6.13700 47.33800
C  26.80800 -3.04400 46.27800
C  22.90300 -5.79300 45.07400
C  24.52700 -9.25000 48.21200
C  28.46100 -6.63800 49.17200
N  24.98200 -4.63100 45.86700
C  25.71000 -3.46600 45.56100
C  25.09200 -2.74700 44.43800
C  23.68900 -3.50300 44.17200
C  23.82800 -4.72000 45.14900
C  22.46000 -2.60300 44.48000
C  26.10300 -2.90200 43.25400
C  26.26200 -1.66800 42.39000
H  25.38300 -1.63100 41.15300
N  23.88800 -7.38400 46.73500
C  22.93500 -7.03900 45.84500
C  21.99400 -8.07100 45.69000
C  22.52500 -9.09700 46.51800
C  23.68400 -8.60200 47.25100
C  20.82800 -8.06300 44.68900
C  21.93800 -10.45600 46.60800
O  20.88300 -10.81400 46.05700
C  22.54100 -11.50600 47.39400
N  26.50200 -7.82100 48.37400
C  25.80500 -8.91600 48.68500
C  26.56600 -9.82200 49.69100
C  27.79800 -8.99300 50.05100
C  27.59500 -7.77000 49.12400
C  25.84600 -10.11400 51.02900
C  29.11400 -9.82100 49.71000
C  30.10000 -10.13700 50.80100
N  27.21700 -5.10500 47.71600
C  28.34500 -5.42000 48.50100
C  29.18700 -4.27200 48.56700
C  28.60400 -3.33400 47.68800
C  27.45900 -3.87500 47.20100
C  30.50400 -4.15300 49.43100
C  28.78000 -1.93700 47.19100
O  29.60600 -1.10000 47.42100
C  27.63800 -1.72000 46.26800
C  26.80600 -0.49900 46.60200
O  26.77400 0.54900 45.98800
O  26.16500 -0.76300 47.81800
C  25.31400 0.26500 48.29100
H  22.12000 -5.60900 44.33500
H  24.27000 -10.17200 48.73600
H  29.32600 -6.76100 49.82700
H  24.85200 -1.70300 44.64400
H  23.67300 -3.83300 43.13300
H  22.60600 -1.64100 44.97200
H  21.74100 -3.16400 45.07700
H  21.94200 -2.42600 43.53800
H  25.90700 -3.63800 42.47500
H  27.07300 -3.21500 43.63900
H  27.33500 -1.69100 42.19700
H  26.23100 -0.66600 42.81800
H  20.75500 -7.03900 44.32200
H  19.84900 -8.34900 45.07600
H  21.09100 -8.79400 43.92500
H  23.53900 -11.63000 46.97400
H  22.06900 -12.44400 47.09900
H  22.60300 -11.22000 48.44400
H  26.77300 -10.71000 49.09400
H  27.95100 -8.64600 51.07300
H  25.31800 -11.06500 50.94900
H  25.22800 -9.32300 51.45500
H  26.60000 -10.36200 51.77600
H  29.68800 -9.12700 49.09600
H  28.93600 -10.74600 49.16200
H  30.13400 -11.22400 50.73900
H  29.78500 -9.89400 51.81600
H  31.07000 -9.71400 50.54100
H  31.38100 -4.27500 48.79400
H  30.68100 -4.91400 50.19100
H  30.43400 -3.16300 49.88100
H  28.06200 -1.63200 45.26800
H  24.40600 0.20700 47.69100
H  25.77100 1.25000 48.38700
H  25.12000 -0.02900 49.32200
Mg -2.26300 35.03300 26.69200
C  -3.87600 32.94900 29.16500
C  -0.77600 36.64600 29.25500
C  -1.12400 37.04800 24.39300
C  -3.95900 33.05200 24.25400
N  -2.48500 34.80100 28.99000
C  -3.08500 33.89200 29.79800
C  -2.77300 34.06500 31.24500
C  -1.76600 35.27600 31.27400
C  -1.63200 35.61500 29.73700
C  -2.28200 36.44200 32.14400
C  -2.07400 32.89700 31.87900
C  -2.72100 32.20800 33.09000
H  -1.81500 31.93800 34.26400
N  -1.11800 36.72300 26.83700
C  -0.57500 37.17500 27.95400
C  0.39700 38.20500 27.61300
C  0.33900 38.32500 26.21000
C  -0.72500 37.42300 25.75100
C  1.15300 39.09900 28.62400
C  1.14900 39.12600 25.32200
O  0.95500 39.10100 24.10900
C  2.21700 40.11100 25.81200
N  -2.59800 35.10100 24.69700
C  -1.95500 36.05100 23.90900
C  -2.13500 35.78100 22.39400
C  -2.83000 34.33900 22.32200
C  -3.07900 34.08400 23.88800
C  -2.92000 36.93900 21.64300
C  -1.90800 33.27100 21.70400
C  -0.75400 32.85700 22.54600
N  -3.74500 33.40800 26.67500
C  -4.28000 32.69200 25.61100
C  -5.07400 31.60200 26.08900
C  -4.96300 31.68000 27.49000
C  -4.09500 32.75200 27.75500
C  -5.80700 30.64100 25.25600
C  -5.31400 31.00000 28.73800
O  -6.03400 30.02700 28.99400
C  -4.64400 31.81100 29.82400
C  -5.67800 32.28000 30.77300
O  -6.24100 33.37000 30.68200
O  -5.95700 31.32800 31.76700
C  -6.72000 31.87300 32.93700
H  -0.11600 37.07600 30.01100
H  -0.64000 37.56300 23.56000
H  -4.20900 32.28900 23.51400
H  -3.74200 34.30300 31.68500
H  -0.76200 35.02400 31.61500
H  -1.76300 37.36100 31.87400
H  -1.94100 36.08900 33.11700
H  -3.37100 36.49900 32.17000
H  -1.09300 33.12900 32.29500
H  -1.87000 32.05100 31.22400
H  -3.11800 31.21500 32.87700
H  -3.59600 32.75100 33.44800
H  0.68500 40.07300 28.76700
H  2.20000 39.30600 28.40100
H  1.09500 38.62200 29.60200
H  2.62500 40.76500 25.04200
H  3.04100 39.63900 26.34800
H  1.75700 40.80900 26.51100
H  -1.09000 35.65400 22.11200
H  -3.65300 34.48000 21.62200
H  -2.99600 37.78200 22.33000
H  -3.95700 36.65900 21.45800
H  -2.39000 37.45300 20.84200
H  -1.45200 33.57900 20.76400
H  -2.59300 32.43700 21.55200
H  -0.81900 31.77600 22.66300
H  -0.81400 33.43900 23.46600
H  0.20200 33.00200 22.04300
H  -5.19600 30.35300 24.40100
H  -6.69400 31.20500 24.96800
H  -6.04300 29.75800 25.84900
H  -3.91800 31.22300 30.38700
H  -6.18100 32.70200 33.39500
H  -6.91100 31.02700 33.59700
H  -7.73600 32.23300 32.77400

