158

Mg 17.02600 -1.60400 28.49600
C  15.93000 0.36400 31.20400
C  19.06300 -3.20400 30.67000
C  17.87100 -3.53200 25.89900
C  14.87900 0.28800 26.43100
N  17.54900 -1.40000 30.70000
C  16.95200 -0.53900 31.59400
C  17.59800 -0.78300 32.97200
C  18.78600 -1.75500 32.70200
C  18.47000 -2.09700 31.23500
C  20.20900 -1.17200 32.81900
C  16.41100 -1.22000 34.00400
C  16.44700 -0.50200 35.36500
H  17.72100 0.12900 35.89300
N  18.21300 -3.17300 28.29500
C  19.00900 -3.74400 29.34900
C  19.59200 -4.93100 28.81800
C  19.21000 -5.06300 27.42100
C  18.38800 -3.87200 27.12500
C  20.45800 -5.81400 29.65300
C  19.61600 -6.19200 26.43300
O  19.27700 -6.11800 25.25200
C  20.33700 -7.42200 26.92800
N  16.47500 -1.63500 26.38400
C  17.03300 -2.40600 25.51400
C  16.53200 -2.13000 24.08900
C  15.45900 -1.02300 24.34000
C  15.68700 -0.69900 25.78400
C  17.74800 -1.83400 23.08600
C  13.99400 -1.45300 24.14500
C  13.17100 -0.51900 23.28000
N  15.61900 -0.09900 28.71500
C  14.78100 0.52100 27.77500
C  13.95400 1.51000 28.40300
C  14.41900 1.59100 29.69000
C  15.42400 0.54300 29.87600
C  13.00500 2.41100 27.71300
C  14.19400 2.26900 31.03800
O  13.40800 3.21400 31.34800
C  15.17900 1.45500 32.01200
C  16.04700 2.45400 32.70200
O  16.58900 3.33400 32.10600
O  15.85000 2.33600 34.11200
C  16.34700 3.54800 34.77700
H  19.76500 -3.76600 31.28900
H  18.09600 -4.21700 25.08000
H  14.10300 0.78600 25.84600
H  18.07300 0.14900 33.27900
H  18.65700 -2.59600 33.38300
H  20.80600 -1.89900 33.37100
H  20.22700 -0.26700 33.42600
H  20.68700 -0.89800 31.87800
H  16.53200 -2.26400 34.29300
H  15.39200 -0.97600 33.70300
H  16.12700 -1.20100 36.13800
H  15.61900 0.20400 35.41600
H  20.42400 -6.88400 29.44400
H  20.30400 -5.69100 30.72500
H  21.47700 -5.45900 29.49900
H  19.73300 -8.03400 27.59800
H  21.30500 -7.16900 27.36100
H  20.59000 -7.93900 26.00300
H  16.10800 -3.02200 23.62700
H  15.73200 -0.22600 23.64800
H  17.60500 -0.89800 22.54500
H  18.00200 -2.63700 22.39400
H  18.62200 -1.53000 23.66100
H  13.51200 -1.47300 25.12300
H  13.85300 -2.47900 23.80700
H  12.55600 0.02500 23.99700
H  12.41000 -1.06800 22.72500
H  13.62800 0.11300 22.51900
H  12.40800 1.90600 26.95400
H  13.64700 3.11100 27.17800
H  12.29400 2.95700 28.33300
H  14.48800 0.93700 32.67800
H  17.42200 3.69300 34.66700
H  16.08600 3.53300 35.83500
H  15.87700 4.44400 34.37100
Mg 54.50700 23.35200 43.60300
C  51.87600 25.54800 42.92200
C  52.39500 20.72500 43.02600
C  57.20600 21.46900 43.42000
C  56.63200 26.22200 43.98400
N  52.45900 23.21700 43.06100
C  51.56400 24.16700 42.89700
C  50.22500 23.55500 42.38300
C  50.26800 22.11400 42.93000
C  51.80500 22.00900 43.04500
C  49.51300 21.88900 44.25800
C  50.03700 23.64900 40.85100
C  48.78900 24.22900 40.29300
H  48.74200 24.81500 38.80600
N  54.79000 21.40100 43.23000
C  53.78900 20.44700 43.08300
C  54.38800 19.14300 42.84800
C  55.78400 19.36400 42.98500
C  56.00900 20.77900 43.23500
C  53.59400 17.83600 42.68100
C  56.71800 18.23600 42.83400
O  56.38300 17.03800 42.64300
C  58.10100 18.50900 42.76600
N  56.60200 23.85500 43.41900
C  57.47300 22.81400 43.45200
C  58.92300 23.34700 43.67700
C  58.84900 24.92100 43.80700
C  57.28000 25.03000 43.76900
C  59.58800 22.63500 44.88900
C  59.60400 25.69800 42.70900
C  60.15900 27.06500 43.07000
N  54.32400 25.50700 43.66300
C  55.23800 26.49000 43.86000
C  54.57400 27.72100 43.87400
C  53.24200 27.43200 43.44200
C  53.15800 26.06100 43.36300
C  55.20100 29.10900 43.93600
C  51.85900 27.92200 43.20800
O  51.41200 29.05300 43.31500
C  50.96000 26.72400 42.65700
C  50.72600 27.08300 41.28300
O  51.49800 27.07800 40.28200
O  49.38500 27.48200 41.05500
C  49.15600 28.03500 39.74100
H  51.65600 19.93100 42.89800
H  58.07900 20.81900 43.51500
H  57.24200 27.12700 44.00800
H  49.43900 24.14300 42.85500
H  49.94600 21.41600 42.15800
H  49.50100 22.73300 44.94700
H  49.90600 21.03600 44.81100
H  48.44400 21.71900 44.12700
H  50.08000 22.66400 40.38700
H  50.91800 24.18500 40.49500
H  48.41500 24.96600 41.00300
H  48.00400 23.47400 40.34400
H  54.04000 17.07000 42.04700
H  52.58500 17.93900 42.28200
H  53.53600 17.40000 43.67900
H  58.20200 19.37800 42.11600
H  58.64900 17.72500 42.24400
H  58.60700 18.85300 43.66800
H  59.44500 23.23400 42.72600
H  59.03000 25.26700 44.82400
H  59.34900 23.24300 45.76200
H  60.64500 22.80400 44.68400
H  59.36300 21.58200 45.05700
H  58.94700 25.69300 41.83900
H  60.42300 25.04700 42.40400
H  61.11200 27.07000 42.54000
H  60.31400 27.14500 44.14600
H  59.47800 27.81500 42.66600
H  55.78200 29.31100 43.03600
H  55.91100 29.13400 44.76200
H  54.35200 29.77200 44.10300
H  50.00600 26.70800 43.18400
H  49.57700 27.35400 39.00000
H  49.75600 28.93700 39.62100
H  48.10900 28.31500 39.62600

