158

Mg 17.17800 -1.39900 27.99700
C  15.99200 0.25600 30.82300
C  19.61100 -2.97300 29.95900
C  18.62700 -2.66800 25.22600
C  14.99500 0.49300 26.03700
N  17.75400 -1.28700 30.11700
C  17.01900 -0.66600 31.11800
C  17.51100 -0.95600 32.56400
C  18.66500 -2.02000 32.24100
C  18.75800 -2.12300 30.66300
C  20.02600 -1.69500 32.88100
C  16.34900 -1.46700 33.51900
C  16.50500 -1.35200 35.05400
H  17.69300 -0.61200 35.61200
N  18.71400 -2.79000 27.67700
C  19.63200 -3.25100 28.59600
C  20.41000 -4.28800 27.90900
C  20.10700 -4.25900 26.53000
C  19.12900 -3.20500 26.39500
C  21.29100 -5.15100 28.67200
C  20.58100 -5.13600 25.39400
O  20.06800 -5.07100 24.33400
C  21.71400 -6.08700 25.57400
N  16.78800 -1.19000 25.89100
C  17.51600 -1.80300 24.98200
C  17.17000 -1.33600 23.65500
C  15.92100 -0.49700 23.88000
C  15.79100 -0.45600 25.36100
C  18.39600 -0.63900 22.93300
C  14.62900 -1.05300 23.15100
C  13.95300 -0.15800 22.13900
N  15.95200 0.18700 28.31000
C  15.03900 0.81200 27.40000
C  14.31500 1.82900 28.07400
C  14.65400 1.59900 29.38400
C  15.66600 0.63700 29.53100
C  13.41400 2.74300 27.47300
C  14.30000 2.10100 30.64600
O  13.52700 2.99300 30.96700
C  15.24400 1.26000 31.67900
C  16.12100 2.25000 32.38000
O  17.08600 2.83700 31.85700
O  15.67700 2.41500 33.73100
C  16.38400 3.45800 34.50500
H  20.20700 -3.59800 30.62800
H  19.08500 -3.07100 24.32000
H  14.25700 1.12800 25.54200
H  17.98200 -0.04500 32.93600
H  18.46800 -3.01800 32.63400
H  20.79500 -1.69100 32.10800
H  20.22900 -2.45300 33.63700
H  20.08000 -0.63900 33.14600
H  16.12800 -2.52600 33.38000
H  15.43700 -0.99200 33.15700
H  16.40400 -2.29700 35.58800
H  15.65200 -0.76100 35.38700
H  22.21700 -4.64200 28.93900
H  21.38000 -6.09800 28.14000
H  20.73300 -5.47200 29.55200
H  21.99100 -6.42700 24.57600
H  21.35000 -6.92800 26.16400
H  22.47600 -5.52200 26.11000
H  16.91600 -2.16000 22.98900
H  16.15500 0.50600 23.52300
H  18.19900 0.36900 22.56800
H  18.67700 -1.21400 22.05000
H  19.26200 -0.65400 23.59500
H  13.87600 -1.35300 23.87900
H  14.98500 -1.89500 22.55800
H  14.32400 0.86400 22.22500
H  12.86700 -0.21600 22.21200
H  14.20000 -0.46500 21.12300
H  12.67200 2.07400 27.03800
H  13.92800 3.20700 26.63100
H  12.85300 3.41000 28.12900
H  14.63100 0.71000 32.39300
H  17.36600 3.70200 34.09900
H  16.66500 3.03300 35.46900
H  15.76800 4.34100 34.67300
Mg -2.22500 35.01200 26.35100
C  -3.70000 33.18700 28.93600
C  -0.85700 37.00000 28.82600
C  -0.78500 36.79300 23.91500
C  -3.52100 32.77200 24.10900
N  -2.48800 35.20000 28.71200
C  -2.94400 34.22600 29.52400
C  -2.66000 34.40000 30.96900
C  -1.77300 35.74700 30.87300
C  -1.72000 36.09400 29.38400
C  -2.20600 36.94600 31.69700
C  -1.94100 33.20300 31.61600
C  -2.53300 32.83100 32.99500
H  -1.55200 32.84700 34.11100
N  -1.02600 36.68000 26.33600
C  -0.58800 37.32700 27.44200
C  0.10900 38.57500 27.03700
C  0.09900 38.52100 25.63700
C  -0.57000 37.29600 25.22600
C  0.72700 39.67800 28.05700
C  0.73900 39.50700 24.56300
O  0.65700 39.29000 23.37600
C  1.22900 40.79000 25.00900
N  -2.23300 34.81600 24.30800
C  -1.58400 35.64200 23.48300
C  -1.67700 35.14800 21.99000
C  -2.02700 33.64900 22.21900
C  -2.62100 33.72900 23.59400
C  -2.75900 35.96700 21.23400
C  -0.82000 32.54900 22.18900
C  -0.84800 31.70800 20.94000
N  -3.51700 33.42500 26.40800
C  -4.03000 32.58800 25.44600
C  -4.80900 31.48100 26.02200
C  -4.68700 31.70700 27.42100
C  -3.92000 32.90700 27.57900
C  -5.41900 30.26300 25.21500
C  -5.07100 31.12800 28.65700
O  -5.60900 30.11100 28.92900
C  -4.47700 32.10900 29.70800
C  -5.60000 32.74300 30.52100
O  -6.37000 33.55200 30.10900
O  -5.51200 32.22100 31.80000
C  -6.43200 32.70300 32.87000
H  -0.21100 37.46200 29.57500
H  -0.31700 37.35000 23.10100
H  -3.73900 31.99200 23.37600
H  -3.57400 34.59100 31.53100
H  -0.75600 35.48900 31.16600
H  -1.34500 37.40000 32.18800
H  -3.01400 36.82000 32.41700
H  -2.58000 37.69700 31.00100
H  -0.89400 33.47400 31.75400
H  -1.92300 32.31200 30.98900
H  -3.09900 31.89900 32.98400
H  -3.27000 33.60000 33.22700
H  0.53200 40.68800 27.69800
H  1.79200 39.55400 28.25500
H  0.08700 39.74400 28.93700
H  1.61700 41.38500 24.18200
H  1.98200 40.65900 25.78600
H  0.38300 41.31700 25.45100
H  -0.74900 35.32900 21.44600
H  -2.87200 33.46600 21.55500
H  -2.78500 35.94200 20.14400
H  -2.76600 36.97600 21.64700
H  -3.77400 35.68500 21.51300
H  -0.92900 31.78200 22.95600
H  0.12700 33.07400 22.31100
H  -1.06000 32.42400 20.14600
H  -1.68500 31.01200 20.88800
H  0.09300 31.20200 20.72400
H  -5.96200 30.71300 24.38400
H  -6.00100 29.69700 25.94200
H  -4.62200 29.67200 24.76500
H  -3.80500 31.53000 30.34200
H  -7.14200 33.43000 32.47800
H  -5.88200 33.10700 33.72000
H  -7.01500 31.81800 33.12500

