158

Mg 16.98200 -1.34300 27.79400
C  15.81900 0.70700 30.26200
C  18.85700 -3.08000 30.22300
C  18.43400 -3.17300 25.33600
C  15.16400 0.49500 25.37500
N  17.43100 -1.00300 29.93300
C  16.67500 -0.25400 30.79900
C  16.94400 -0.58400 32.31900
C  18.15500 -1.57100 32.21000
C  18.22300 -1.95000 30.68100
C  19.50200 -1.04200 32.75200
C  15.75100 -1.29600 33.00900
C  15.71900 -1.33900 34.48400
H  16.96400 -0.84500 35.23500
N  18.33000 -2.99300 27.85000
C  18.95500 -3.54900 28.94700
C  19.72900 -4.70300 28.49200
C  19.57900 -4.75500 27.08700
C  18.74400 -3.62000 26.67500
C  20.31000 -5.64800 29.47800
C  20.29600 -5.74400 26.12900
O  20.13300 -5.69300 24.93800
C  21.09900 -6.94900 26.64800
N  16.73800 -1.42800 25.76000
C  17.52900 -2.19800 24.92200
C  17.30200 -1.81000 23.38300
C  16.12700 -0.79900 23.48800
C  15.96700 -0.52500 24.93100
C  18.55700 -1.29900 22.57700
C  14.77200 -1.25200 22.86700
C  14.11600 -0.30900 21.85600
N  15.81000 0.31800 27.77300
C  15.09700 0.92600 26.72600
C  14.33800 2.00900 27.29300
C  14.56900 1.95100 28.65200
C  15.55100 0.94500 28.86200
C  13.50000 3.04000 26.56000
C  14.17600 2.53100 29.90300
O  13.42200 3.46600 30.12800
C  14.93000 1.70600 31.03000
C  15.70900 2.43100 32.00700
O  16.71600 3.07400 31.79100
O  15.10600 2.31200 33.22100
C  15.43900 3.28700 34.25700
H  19.49800 -3.55900 30.96600
H  18.93200 -3.68000 24.50600
H  14.50000 1.00200 24.67200
H  17.24600 0.29900 32.88200
H  17.95300 -2.50900 32.72800
H  20.28700 -1.17600 32.00800
H  19.85200 -1.64200 33.59300
H  19.39800 0.02200 32.96200
H  15.75800 -2.35400 32.74300
H  14.81200 -0.86900 32.65700
H  15.50600 -2.34000 34.85800
H  14.84300 -0.78200 34.81700
H  19.99400 -6.63600 29.14200
H  20.01800 -5.57700 30.52600
H  21.39400 -5.54200 29.44700
H  21.50500 -7.61700 25.88900
H  20.37800 -7.63200 27.09600
H  21.92000 -6.75300 27.33800
H  16.94300 -2.66600 22.81100
H  16.46800 0.13500 23.04200
H  19.40600 -1.00800 23.19600
H  18.32700 -0.41200 21.98600
H  18.85300 -2.09900 21.89900
H  14.01800 -1.36600 23.64600
H  14.85700 -2.23800 22.41200
H  14.97000 0.26600 21.49900
H  13.37000 0.30200 22.36400
H  13.79200 -0.87000 20.97900
H  13.27000 2.61100 25.58500
H  14.07700 3.93300 26.31900
H  12.66500 3.39700 27.16300
H  14.15100 1.06400 31.44200
H  15.96400 4.16700 33.88500
H  16.07100 2.76300 34.97300
H  14.50600 3.51600 34.77200
Mg 5.66700 54.50300 40.93300
C  4.94000 51.04300 40.80000
C  9.05900 53.76600 40.72500
C  6.20900 57.76900 40.68500
C  2.15300 55.12000 41.19200
N  6.80000 52.69400 40.61800
C  6.35400 51.37200 40.69400
C  7.54500 50.40400 40.81400
C  8.68500 51.39400 41.28600
C  8.17400 52.71100 40.82600
C  9.15200 51.31100 42.77100
C  7.82800 49.74700 39.38300
C  7.73600 50.69100 38.16000
H  6.65000 50.29700 37.12600
N  7.41800 55.65800 40.59100
C  8.69000 55.14800 40.50100
C  9.55300 56.29300 40.38800
C  8.81300 57.54100 40.34500
C  7.40900 57.01900 40.56700
C  11.09800 56.15400 40.33100
C  9.30700 58.92600 40.13300
O  10.52500 59.02800 40.13900
C  8.39500 60.14800 39.97700
N  4.36000 56.25800 41.01400
C  4.80400 57.49700 40.87800
C  3.59800 58.55300 41.02400
C  2.34900 57.63100 41.18900
C  2.97300 56.26400 41.06500
C  3.84100 59.48700 42.23100
C  1.14600 57.91800 40.18000
C  -0.31000 58.07900 40.75200
N  3.85100 53.44900 40.81500
C  2.53500 53.76200 41.11500
C  1.69900 52.54800 41.24300
C  2.62000 51.52200 41.23800
C  3.90200 52.08300 40.92800
C  0.21900 52.46200 41.43400
C  2.78000 50.12000 41.44800
O  1.92700 49.31400 41.85100
C  4.24300 49.75700 41.06100
C  4.13400 48.84500 39.86100
O  3.45700 48.95100 38.84600
O  4.88000 47.68800 40.11400
C  5.00700 46.54500 39.17400
H  10.14200 53.64000 40.78700
H  6.42800 58.83000 40.82700
H  1.08700 55.34500 41.26500
H  7.34500 49.63200 41.55700
H  9.54100 50.97900 40.75400
H  10.16100 50.90900 42.68000
H  8.46900 50.93600 43.53400
H  9.29400 52.36000 43.03200
H  7.12300 48.92800 39.24400
H  8.84500 49.35500 39.34700
H  8.75700 50.57700 37.79600
H  7.66700 51.76500 38.33100
H  11.49500 56.43900 39.35700
H  11.52200 55.15600 40.22200
H  11.60800 56.64300 41.16000
H  9.04100 60.94600 39.61200
H  8.09700 60.53400 40.95200
H  7.55200 59.95800 39.31300
H  3.37500 59.18600 40.16600
H  1.90400 57.73300 42.17800
H  4.90900 59.40800 42.43300
H  3.22600 59.31600 43.11500
H  3.61800 60.50400 41.90700
H  1.13800 57.18200 39.37700
H  1.43900 58.79800 39.60900
H  -0.99200 57.34400 40.32400
H  -0.69800 59.09300 40.65600
H  -0.26800 57.85900 41.81800
H  0.02900 51.38900 41.41700
H  -0.25700 52.87200 40.54400
H  -0.10300 52.82400 42.41100
H  4.67400 49.12800 41.84000
H  4.10400 45.94500 39.05600
H  5.61000 45.85300 39.76300
H  5.64800 46.58800 38.29400

