158

Mg 1.19600 7.96500 24.64400
C  1.49200 9.69400 27.80100
C  1.56400 5.01300 26.34900
C  1.01400 6.47300 21.75800
C  1.76300 11.11300 23.02100
N  1.53100 7.50100 26.89200
C  1.47200 8.30800 28.00000
C  1.48200 7.48500 29.32100
C  1.83900 5.97800 28.76800
C  1.70600 6.15200 27.18000
C  3.30700 5.57800 29.03500
C  0.04800 7.58200 29.92600
C  -0.03000 7.33100 31.47100
H  1.10200 6.61500 32.20400
N  1.17700 6.03000 24.09000
C  1.31400 4.92600 24.91500
C  1.01800 3.65900 24.23100
C  0.93100 4.09100 22.83000
C  1.04300 5.60200 22.82900
C  0.94200 2.31300 24.82500
C  0.69300 3.22300 21.63100
O  0.38700 3.71800 20.58400
C  0.70100 1.77500 21.62200
N  1.48800 8.70900 22.70100
C  1.17900 7.81800 21.74000
C  1.16200 8.51300 20.32300
C  1.56200 9.99900 20.68300
C  1.59800 9.94400 22.23600
C  2.06800 7.96100 19.20400
C  0.82000 11.23400 20.05200
C  -0.65200 11.37700 20.38800
N  1.49800 10.02500 25.21400
C  1.66700 11.12000 24.39900
C  1.76300 12.24600 25.18300
C  1.72400 11.79200 26.49900
C  1.58200 10.38100 26.48800
C  1.94500 13.63900 24.65800
C  1.83700 12.09400 27.95400
O  2.00800 13.15000 28.53600
C  1.54100 10.79900 28.80500
C  2.66900 10.78500 29.78300
O  3.84100 10.38100 29.56300
O  2.26100 11.25500 30.96300
C  3.33100 11.46000 31.98000
H  1.67000 4.05100 26.85500
H  0.88700 6.00000 20.78200
H  2.09500 12.06000 22.59000
H  2.29000 7.64400 30.03600
H  1.21100 5.16900 29.14100
H  3.82600 6.26700 29.70200
H  3.94300 5.39500 28.16900
H  3.16200 4.61300 29.52000
H  -0.59500 6.90400 29.36300
H  -0.26300 8.62500 29.87400
H  -0.90500 6.71000 31.66000
H  -0.27000 8.17700 32.11400
H  0.90800 2.18100 25.90600
H  1.77400 1.75100 24.40100
H  0.02500 1.90100 24.40300
H  1.58000 1.33200 22.08900
H  0.63600 1.43500 20.58800
H  -0.28300 1.49100 21.99400
H  0.15300 8.39600 19.92800
H  2.57200 10.19100 20.32000
H  2.44800 8.72900 18.53100
H  1.39900 7.34900 18.60000
H  2.92000 7.44500 19.64700
H  0.89700 11.14100 18.96800
H  1.49700 12.02500 20.37200
H  -0.61100 12.24200 21.05000
H  -0.93800 10.56200 21.05200
H  -1.32800 11.56200 19.55400
H  1.74400 14.34300 25.46600
H  1.36700 13.87100 23.76400
H  3.00400 13.70800 24.40700
H  0.55400 10.90000 29.25800
H  4.07700 12.13800 31.56500
H  3.84800 10.51900 32.17100
H  2.92500 11.81800 32.92700
Mg 6.22500 54.00100 42.10000
C  5.29600 50.57100 41.68800
C  9.31200 53.27400 40.60600
C  6.78800 57.28500 41.75300
C  2.81800 54.63700 42.71200
N  7.08400 52.20800 41.22400
C  6.56500 50.92600 41.14600
C  7.58300 49.95900 40.45500
C  8.90800 50.73700 40.46100
C  8.42900 52.18600 40.78200
C  9.98400 50.17900 41.45200
C  7.21800 49.34300 39.04900
C  6.20800 50.21000 38.22200
H  6.48100 50.36400 36.70400
N  7.87400 55.15300 41.42100
C  9.09600 54.65000 40.92400
C  10.01900 55.73400 40.67900
C  9.32500 56.94100 41.13300
C  7.92900 56.54200 41.46800
C  11.36600 55.63500 40.06700
C  9.88700 58.34200 41.13300
O  11.11300 58.51600 40.95300
C  9.04100 59.52500 41.44900
N  4.96500 55.67700 41.94900
C  5.47900 56.93800 42.03500
C  4.39500 57.90700 42.52400
C  3.07300 57.08300 42.43800
C  3.65800 55.72600 42.40100
C  4.65500 58.43100 43.92900
C  2.21600 57.43200 41.19400
C  0.73100 57.81800 41.53200
N  4.39000 52.87100 42.34600
C  3.15100 53.28100 42.78000
C  2.30700 52.12000 42.99300
C  3.20300 51.04100 42.66600
C  4.35700 51.56800 42.17200
C  0.98700 52.06300 43.54600
C  3.33900 49.59900 42.66200
O  2.62700 48.73300 43.09500
C  4.71800 49.24900 42.00200
C  4.33600 48.42700 40.81200
O  3.67700 48.79800 39.85100
O  4.74900 47.16400 41.03200
C  4.30900 46.14200 40.06500
H  10.30000 53.04100 40.20300
H  6.95800 58.35400 41.89300
H  1.74900 54.77500 42.88700
H  7.69500 49.15700 41.18500
H  9.33000 50.84500 39.46200
H  9.57700 50.04300 42.45400
H  10.81100 50.88300 41.54600
H  10.30300 49.23100 41.01900
H  6.77300 48.35600 39.17700
H  8.11700 49.19600 38.45000
H  6.34100 51.25600 38.49800
H  5.22600 49.77900 38.41700
H  11.28500 55.28600 39.03700
H  11.91700 54.83500 40.56100
H  12.10300 56.43800 40.07800
H  8.26700 59.56600 40.68200
H  9.66400 60.40600 41.29700
H  8.61500 59.55700 42.45100
H  4.31800 58.79900 41.90200
H  2.55700 57.17800 43.39300
H  3.99200 57.99900 44.67900
H  4.52700 59.51000 44.01800
H  5.65700 58.10700 44.20900
H  2.05200 56.58600 40.52600
H  2.71100 58.16900 40.56200
H  0.47500 57.80800 42.59100
H  0.12700 57.09800 40.98100
H  0.47900 58.78100 41.08700
H  0.42200 51.20400 43.18400
H  0.44300 52.96800 43.27500
H  1.12700 52.00400 44.62500
H  5.27300 48.60700 42.68600
H  4.58300 45.21800 40.57300
H  4.89900 46.21400 39.15200
H  3.27200 46.21600 39.73700

