158

Mg 48.33300 34.64900 27.17900
C  46.33200 33.33800 29.63700
C  48.90800 37.47600 29.06400
C  50.08400 35.91100 24.52600
C  47.32600 31.89200 25.04200
N  47.82700 35.22800 29.11900
C  47.05700 34.47900 30.07100
C  47.06900 35.13000 31.43700
C  47.38900 36.63000 31.00100
C  48.14300 36.51400 29.66700
C  46.25800 37.65400 30.97000
C  48.07600 34.53100 32.40600
C  47.67500 34.53600 33.91600
H  46.68200 35.62000 34.51700
N  49.50300 36.38700 26.90900
C  49.61500 37.38800 27.85800
C  50.60500 38.37900 27.34000
C  50.97000 37.94500 25.99800
C  50.18200 36.71300 25.72300
C  51.05100 39.50700 28.10900
C  51.87700 38.61500 24.95800
O  52.06200 38.13800 23.85200
C  52.70300 39.80600 25.34600
N  48.53800 34.08300 24.97700
C  49.35900 34.74400 24.12000
C  49.43000 34.03600 22.79300
C  48.62000 32.75700 23.02500
C  48.04200 32.93100 24.44400
C  49.09800 34.89200 21.60900
C  49.39300 31.41200 22.84800
C  49.39100 30.96100 21.41900
N  47.08900 32.98000 27.21800
C  46.85500 31.95700 26.38400
C  46.02400 31.02700 27.03600
C  45.63700 31.59700 28.23900
C  46.42300 32.71100 28.34800
C  45.37700 29.81900 26.39900
C  44.84800 31.41800 29.43300
O  43.91000 30.62100 29.60200
C  45.18700 32.62400 30.37200
C  45.52500 32.10700 31.66600
O  46.22100 31.09700 31.75200
O  44.70700 32.63300 32.63900
C  44.46400 31.85000 33.82700
H  48.94700 38.43100 29.59300
H  50.72100 36.24600 23.70500
H  47.07200 30.92300 24.60800
H  46.12100 35.27900 31.95300
H  48.20100 37.12400 31.53300
H  46.07900 38.06900 29.97800
H  46.60700 38.51900 31.53300
H  45.28100 37.32600 31.32400
H  49.06600 34.91000 32.14800
H  48.02700 33.47800 32.12800
H  48.55300 34.60000 34.55800
H  47.31400 33.57600 34.28500
H  50.35000 39.81700 28.88400
H  51.28500 40.40500 27.53600
H  51.95600 39.15500 28.60500
H  53.25000 39.58000 26.26100
H  52.14100 40.70200 25.61000
H  53.35800 39.96800 24.49000
H  50.49500 33.83000 22.68800
H  47.79700 32.83700 22.31600
H  48.52000 35.75200 21.95000
H  48.62500 34.28900 20.83400
H  50.05000 35.22200 21.19300
H  48.95900 30.63800 23.47900
H  50.41900 31.56500 23.18100
H  49.12800 31.78100 20.75100
H  48.73800 30.09500 21.30400
H  50.40800 30.59700 21.27300
H  46.06700 29.09400 25.96800
H  44.80800 30.06800 25.50400
H  44.64800 29.34300 27.05500
H  44.40000 33.37700 30.34100
H  43.85100 32.55400 34.38900
H  45.32000 31.52800 34.42000
H  43.81400 31.01400 33.56800
Mg 1.11600 43.73300 25.65100
C  3.19700 43.38000 28.45200
C  -1.59300 43.06600 27.72000
C  -0.89800 43.36000 22.98700
C  3.97300 43.39500 23.56100
N  0.90100 43.28800 27.85100
C  1.85100 43.32900 28.83000
C  1.33800 43.11200 30.19300
C  -0.19100 42.74500 29.92500
C  -0.35000 43.01400 28.37700
C  -0.50600 41.31100 30.29600
C  1.49400 44.36300 31.21800
C  1.67300 43.94200 32.72900
H  1.21000 42.49700 33.11900
N  -0.98300 43.61100 25.41700
C  -1.89400 43.39000 26.39500
C  -3.19600 43.50400 25.79900
C  -2.97100 43.50800 24.40600
C  -1.57800 43.48700 24.22700
C  -4.52200 43.53800 26.60100
C  -4.03200 43.42600 23.33000
O  -3.77500 43.52700 22.15500
C  -5.46600 43.24300 23.68000
N  1.56200 43.50800 23.59600
C  0.50500 43.28600 22.74700
C  1.00500 42.88900 21.31100
C  2.48400 43.34500 21.42000
C  2.74200 43.39100 22.96200
C  0.75700 41.40200 20.88000
C  2.82000 44.73500 20.75500
C  4.00700 44.69700 19.75600
N  3.11100 43.46800 25.88900
C  4.13000 43.48100 24.95500
C  5.40800 43.39700 25.62600
C  5.03700 43.40800 26.96100
C  3.66300 43.43700 27.11500
C  6.78900 43.57600 25.11200
C  5.65300 43.48000 28.32600
O  6.80600 43.64600 28.67400
C  4.45300 43.42100 29.30200
C  4.63200 42.22600 30.11500
O  4.48700 41.08100 29.78300
O  5.21900 42.71500 31.29000
C  5.74500 41.68800 32.22200
H  -2.42900 42.97600 28.41600
H  -1.52600 43.36600 22.09400
H  4.74500 43.19800 22.81400
H  1.90500 42.29900 30.64600
H  -0.86900 43.41800 30.44900
H  0.37200 40.86300 30.76300
H  -0.75100 40.84800 29.34100
H  -1.37500 41.27800 30.95400
H  0.56000 44.91500 31.10700
H  2.28800 45.02800 30.88100
H  1.04400 44.50900 33.41600
H  2.66800 44.25300 33.04600
H  -4.78800 44.59200 26.68200
H  -4.20200 43.12800 27.55900
H  -5.36100 42.91900 26.28200
H  -6.00600 43.11800 22.74100
H  -5.77600 44.19700 24.10600
H  -5.62100 42.32200 24.24100
H  0.41000 43.44800 20.58900
H  3.25500 42.61600 21.17100
H  1.62700 40.99900 20.36200
H  -0.04500 41.38400 20.14300
H  0.51400 40.78400 21.74500
H  2.85200 45.46300 21.56600
H  1.90600 45.00100 20.22300
H  4.47500 45.68200 19.76300
H  3.75800 44.71200 18.69500
H  4.81900 44.02300 20.03000
H  7.27700 44.23600 25.83000
H  6.92100 44.12300 24.17800
H  7.39100 42.66700 25.12100
H  4.44300 44.28900 29.96000
H  6.80600 41.74500 32.46400
H  5.62100 40.65100 31.90900
H  5.26700 41.68500 33.20100

