158

Mg 1.63200 8.42200 26.42700
C  1.74900 10.54100 29.08900
C  1.33600 5.69700 28.55600
C  2.06300 6.52200 23.79200
C  1.64500 11.42600 24.27800
N  1.49900 8.17000 28.57400
C  1.43900 9.17900 29.47100
C  1.29100 8.66400 30.93500
C  1.51800 7.11700 30.74200
C  1.45700 6.94500 29.21900
C  2.80500 6.51900 31.36700
C  -0.04800 9.12200 31.58300
C  -0.31100 8.62900 33.06300
H  0.87300 8.27900 33.97000
N  1.63400 6.48500 26.13600
C  1.43900 5.45700 27.17800
C  1.52900 4.14700 26.54600
C  1.87700 4.36400 25.23400
C  1.89400 5.84100 24.96700
C  1.16100 2.88700 27.32100
C  2.14900 3.38800 24.15900
O  2.50200 3.65200 23.00800
C  2.20100 1.86800 24.53200
N  1.86600 8.93700 24.37500
C  1.95000 7.90000 23.46500
C  2.01700 8.48700 22.02900
C  1.68200 9.95600 22.19400
C  1.71700 10.17700 23.71600
C  3.31400 8.16600 21.24000
C  0.32800 10.48900 21.64200
C  -0.84300 9.69700 22.19200
N  1.72800 10.55400 26.63100
C  1.80400 11.59300 25.64000
C  2.07700 12.79700 26.35900
C  2.09300 12.44900 27.75600
C  1.87900 11.07800 27.84000
C  2.26900 14.22300 25.86700
C  2.24900 12.93200 29.09400
O  2.51200 14.07700 29.52700
C  1.86800 11.77900 30.04000
C  2.89700 11.72900 31.15500
O  4.07000 11.31400 31.10500
O  2.31700 12.22400 32.26200
C  3.20100 12.16200 33.39600
H  1.25900 4.85700 29.24900
H  2.12000 5.97100 22.85100
H  1.55300 12.34100 23.68900
H  2.02600 9.04500 31.64400
H  0.69500 6.50500 31.11100
H  2.67900 5.48800 31.69800
H  3.07100 7.22700 32.15200
H  3.64900 6.49400 30.67800
H  -0.85300 8.85600 30.89900
H  0.01600 10.20800 31.65400
H  -0.97600 7.76800 32.98400
H  -0.99400 9.37500 33.46900
H  0.90500 3.07100 28.36500
H  1.90500 2.09100 27.33200
H  0.37200 2.32100 26.82600
H  1.26100 1.56200 24.99200
H  2.99700 1.72800 25.26300
H  2.58100 1.25900 23.71100
H  1.27400 7.84000 21.56200
H  2.43900 10.54000 21.67100
H  4.02700 8.98800 21.31100
H  3.01600 7.97700 20.20900
H  3.77000 7.22500 21.54700
H  0.40600 10.54200 20.55600
H  0.17300 11.53700 21.89600
H  -1.23400 10.06200 23.14100
H  -0.75100 8.61300 22.25300
H  -1.75800 9.85800 21.62100
H  1.67900 14.27400 24.95200
H  3.28600 14.45500 25.55300
H  1.94000 15.01600 26.53800
H  0.98300 12.09400 30.59400
H  4.05700 12.80600 33.19200
H  3.53500 11.14300 33.59600
H  2.70800 12.61000 34.25800
Mg 47.07800 25.67000 28.75400
C  48.11700 27.79700 31.30200
C  45.99700 23.41400 31.02300
C  46.64100 23.36800 26.21000
C  48.52300 27.80700 26.33000
N  47.16300 25.65300 30.87700
C  47.59400 26.59500 31.78600
C  47.26200 26.24500 33.23900
C  46.77900 24.76000 33.04800
C  46.55400 24.60100 31.52500
C  47.70200 23.68300 33.67400
C  46.10900 27.21200 33.87200
C  46.47800 27.48600 35.29100
H  45.33800 27.09000 36.24200
N  46.40900 23.64600 28.58100
C  45.92100 22.94200 29.65800
C  45.55700 21.64900 29.29900
C  45.70600 21.60100 27.89400
C  46.30400 22.86800 27.47200
C  45.03000 20.58400 30.27900
C  45.44400 20.42300 26.94600
O  45.76700 20.47600 25.78700
C  44.84800 19.15500 27.50300
N  47.52100 25.61500 26.57500
C  47.12300 24.53100 25.79600
C  47.54000 24.80600 24.41300
C  47.84100 26.29600 24.37600
C  48.01000 26.58800 25.84000
C  48.63800 23.87900 23.79500
C  46.80500 27.22000 23.64700
C  47.47300 28.00400 22.46700
N  48.02400 27.48000 28.77600
C  48.50700 28.24200 27.73600
C  49.18100 29.36700 28.29700
C  48.94800 29.25100 29.67900
C  48.29500 28.08700 29.93000
C  49.94100 30.43800 27.57200
C  49.20900 29.90700 30.95800
O  49.74900 30.92700 31.29400
C  48.55400 29.01600 32.02700
C  49.58000 28.65800 33.07900
O  50.71100 28.29900 32.85200
O  49.01900 28.80100 34.33300
C  49.96800 28.77700 35.44800
H  45.69300 22.74300 31.83000
H  46.50400 22.66500 25.38600
H  48.85400 28.46700 25.52500
H  48.16700 26.24300 33.84500
H  45.86300 24.55800 33.60400
H  48.59100 24.13000 34.11900
H  47.82200 22.98200 32.84800
H  47.22900 23.11000 34.47200
H  45.07200 26.97500 33.63500
H  46.24400 28.13800 33.31300
H  46.54300 28.56400 35.44100
H  47.41000 27.02000 35.61000
H  45.60400 19.66400 30.39500
H  44.08300 20.27600 29.83600
H  44.85900 20.91000 31.30500
H  44.68600 18.47900 26.66400
H  43.90800 19.45500 27.96600
H  45.51200 18.65100 28.20500
H  46.70000 24.75100 23.72200
H  48.84500 26.43200 23.97400
H  48.77100 22.99800 24.42300
H  49.52600 24.50100 23.67900
H  48.30700 23.53500 22.81500
H  46.36000 27.82100 24.43900
H  46.00200 26.63100 23.20300
H  46.88000 27.94900 21.55400
H  48.50400 27.69400 22.29800
H  47.38700 29.08200 22.60700
H  49.96200 30.31200 26.48900
H  50.94400 30.24800 27.95300
H  49.57100 31.43500 27.81400
H  47.73300 29.53800 32.51900
H  49.81800 27.84100 35.98600
H  49.80200 29.62600 36.11200
H  51.00800 29.00400 35.21600

