158

Mg -1.37900 34.31800 27.98500
C  -3.02900 32.24300 30.14200
C  -0.09100 36.08500 30.58000
C  0.02600 36.48900 25.73500
C  -3.09300 32.74600 25.30300
N  -1.58900 34.17500 30.06000
C  -2.29300 33.20200 30.84000
C  -2.01900 33.38100 32.35800
C  -1.32600 34.79300 32.42900
C  -0.93400 35.00600 30.94600
C  -2.25200 35.99300 32.84200
C  -1.11500 32.19000 32.98000
C  -1.78100 31.57300 34.15100
H  -0.98300 31.66900 35.43700
N  -0.14100 35.99000 28.12000
C  0.27100 36.57100 29.29200
C  1.29800 37.65400 29.02000
C  1.40900 37.69100 27.61700
C  0.42600 36.67800 27.07200
C  2.02200 38.46400 30.14900
C  2.34100 38.69400 26.83100
O  2.45100 38.58500 25.57700
C  3.19500 39.67000 27.47300
N  -1.67400 34.62900 25.89200
C  -1.06900 35.64800 25.24900
C  -1.49600 35.71600 23.74300
C  -1.88700 34.21100 23.55200
C  -2.23500 33.78900 24.97300
C  -2.71300 36.65800 23.55700
C  -0.67800 33.40800 22.99400
C  -0.96100 31.96700 22.39400
N  -2.78600 32.86000 27.71200
C  -3.36500 32.28600 26.61200
C  -4.05900 31.06400 26.96000
C  -3.95300 30.98300 28.34700
C  -3.22600 32.09400 28.80400
C  -4.84100 30.18600 26.08100
C  -4.29500 30.24500 29.50800
O  -5.08000 29.31300 29.70800
C  -3.56300 30.96100 30.71800
C  -4.72300 31.17000 31.71100
O  -5.54300 32.03600 31.73600
O  -4.60300 30.13700 32.66800
C  -5.77600 30.05200 33.49900
H  0.38700 36.61600 31.40600
H  0.47700 37.18400 25.02400
H  -3.44500 32.20600 24.42200
H  -2.98500 33.41500 32.86100
H  -0.44900 34.78000 33.07500
H  -2.43500 36.71800 32.04900
H  -1.77500 36.40600 33.73100
H  -3.25800 35.69000 33.13300
H  -0.15400 32.61900 33.26600
H  -0.92100 31.44700 32.20600
H  -1.88900 30.53100 33.85300
H  -2.82300 31.84200 34.32500
H  1.53000 38.38900 31.11900
H  1.89600 39.49800 29.83000
H  3.06900 38.16100 30.17000
H  2.63400 40.45500 27.98100
H  3.75300 40.11900 26.65200
H  3.97400 39.32000 28.15100
H  -0.69900 36.08800 23.10000
H  -2.64100 34.02900 22.78600
H  -3.17000 37.00900 24.48200
H  -3.46900 36.21900 22.90600
H  -2.45500 37.56900 23.01500
H  -0.05100 33.20400 23.86100
H  -0.14900 34.05000 22.28900
H  -2.03700 31.84300 22.27300
H  -0.58200 31.29700 23.16400
H  -0.34300 31.84400 21.50400
H  -4.62900 29.19000 26.47000
H  -4.54800 30.23200 25.03300
H  -5.89900 30.35100 26.28800
H  -2.69200 30.43700 31.11200
H  -5.87400 28.97600 33.64500
H  -6.74800 30.28200 33.06100
H  -5.39200 30.58100 34.37100
Mg -4.52700 25.39000 25.81400
C  -3.17900 26.26300 28.86300
C  -6.68000 22.98200 27.53500
C  -5.26100 23.73400 22.91400
C  -2.52300 27.48600 24.21900
N  -4.75200 24.62100 27.96600
C  -4.03400 25.14100 29.05500
C  -4.46200 24.40000 30.30500
C  -5.44100 23.29700 29.78900
C  -5.67100 23.65600 28.33100
C  -4.83900 21.86900 29.98800
C  -5.02600 25.42800 31.43200
C  -5.91400 24.73900 32.53200
H  -5.46200 24.79800 33.95200
N  -5.77900 23.62200 25.33500
C  -6.69100 22.94100 26.12000
C  -7.48500 22.04300 25.39000
C  -7.06900 22.13500 24.04100
C  -5.99900 23.25200 24.06600
C  -8.51400 21.05200 26.03500
C  -7.46600 21.41500 22.78300
O  -6.89300 21.63400 21.71100
C  -8.52200 20.29300 22.73500
N  -3.70400 25.42500 23.88900
C  -4.26200 24.75100 22.90000
C  -3.71300 25.19200 21.51200
C  -3.00400 26.56600 21.87500
C  -3.06600 26.50900 23.42700
C  -2.75700 24.12800 20.93100
C  -3.67600 27.81000 21.23000
C  -2.78500 28.75000 20.33800
N  -3.17900 26.69200 26.34200
C  -2.50400 27.53200 25.58200
C  -1.76500 28.41700 26.47400
C  -1.91500 27.93400 27.76300
C  -2.82500 26.84000 27.62500
C  -0.74900 29.61900 26.04500
C  -1.50100 28.07600 29.14200
O  -0.55600 28.69700 29.62300
C  -2.47600 27.07800 29.95200
C  -1.57400 26.33800 30.84400
O  -0.81000 25.46300 30.51400
O  -1.85100 26.71700 32.10800
C  -0.99400 26.10100 33.11900
H  -7.32700 22.39500 28.19100
H  -5.52300 23.44500 21.89400
H  -1.93000 28.21300 23.66100
H  -3.60700 23.96700 30.82300
H  -6.39000 23.30800 30.32400
H  -3.81900 21.83200 30.37200
H  -4.82000 21.36600 29.02100
H  -5.48100 21.29900 30.65900
H  -5.56400 26.10200 30.76500
H  -4.19000 25.92200 31.92700
H  -5.98000 23.66600 32.35300
H  -6.87600 25.21500 32.34400
H  -9.47400 21.48300 26.32100
H  -8.07700 20.68100 26.96200
H  -8.63900 20.20400 25.36200
H  -8.16300 19.52700 23.42200
H  -8.69000 19.90800 21.72900
H  -9.52700 20.61600 23.01000
H  -4.48200 25.41500 20.77300
H  -1.97400 26.56200 21.51900
H  -1.91300 24.60000 20.42800
H  -3.38400 23.77400 20.11300
H  -2.45600 23.34500 21.62700
H  -4.14100 28.41100 22.01200
H  -4.52600 27.41200 20.67600
H  -1.71600 28.54400 20.40700
H  -2.83700 29.80700 20.59700
H  -3.14800 28.77800 19.31100
H  0.07100 29.25300 25.42700
H  -0.39100 29.97800 27.01000
H  -1.34200 30.38400 25.54300
H  -3.18500 27.77100 30.40500
H  -0.77500 25.04500 32.96600
H  -1.53200 26.02800 34.06500
H  -0.08900 26.65800 33.36400

