158

Mg 47.87200 24.84700 29.60700
C  49.05700 27.13000 31.89000
C  46.56800 22.99600 32.02200
C  47.08300 22.39200 27.25500
C  49.57700 26.62600 27.06600
N  47.92200 25.05400 31.76600
C  48.36600 26.08200 32.48700
C  47.94500 26.00000 34.02400
C  47.46600 24.42800 34.00900
C  47.28100 24.11200 32.51200
C  48.47500 23.49800 34.73600
C  46.79000 26.91200 34.48500
C  47.02900 27.97600 35.56400
H  45.94800 28.04200 36.69600
N  46.91000 22.96400 29.66900
C  46.43000 22.35700 30.79200
C  45.79400 21.16500 30.54200
C  45.97400 20.94300 29.15800
C  46.72100 22.13600 28.59500
C  45.09300 20.24600 31.58400
C  45.61500 19.78500 28.29900
O  45.77900 19.80500 27.06400
C  44.77000 18.70900 28.81200
N  48.34400 24.53600 27.46100
C  47.89300 23.41800 26.77100
C  48.47200 23.51000 25.27000
C  49.04300 24.95600 25.20700
C  49.01600 25.40400 26.72700
C  49.36300 22.37700 24.61600
C  48.27000 25.88700 24.21900
C  48.72000 26.06100 22.71200
N  48.96000 26.56700 29.42100
C  49.56100 27.18600 28.35500
C  50.09700 28.37600 28.74700
C  49.95600 28.44200 30.08800
C  49.25200 27.27600 30.45500
C  50.70100 29.46700 27.99000
C  50.14900 29.22800 31.30000
O  50.59600 30.34600 31.53300
C  49.63500 28.42000 32.53800
C  50.79000 28.08200 33.42000
O  51.53600 27.17700 33.25200
O  50.86700 29.01400 34.49300
C  51.85800 28.84900 35.59600
H  46.10400 22.55500 32.90700
H  46.91200 21.66800 26.45500
H  50.01800 27.18600 26.23900
H  48.83000 26.19200 34.63000
H  46.48600 24.27300 34.46100
H  48.30700 22.42900 34.60100
H  48.36800 23.78900 35.78100
H  49.46200 23.71800 34.32900
H  46.10300 26.14500 34.84200
H  46.26500 27.36500 33.64400
H  47.04100 28.91700 35.01400
H  48.07000 27.92400 35.88300
H  45.72900 19.37300 31.72400
H  44.12800 19.83800 31.28200
H  44.96500 20.63300 32.59500
H  44.60300 17.88900 28.11300
H  43.89500 19.24500 29.17800
H  45.26500 18.32000 29.70200
H  47.58600 23.49700 24.63500
H  50.07500 24.79900 24.89300
H  50.30600 22.74800 24.21300
H  48.76000 22.02800 23.77700
H  49.48200 21.55500 25.32200
H  48.28300 26.90900 24.59600
H  47.21400 25.61600 24.19800
H  49.59100 25.44000 22.50200
H  49.05200 27.08700 22.54900
H  47.93500 25.80300 22.00200
H  51.08300 29.05800 27.05400
H  51.47700 29.93100 28.59800
H  49.89200 30.12800 27.67700
H  48.88900 28.95300 33.12700
H  51.60200 29.62800 36.31400
H  52.88700 29.03500 35.28900
H  51.83800 27.88500 36.10400
Mg 50.22200 46.62300 43.11800
C  46.89200 47.13300 42.47800
C  49.96000 43.48700 41.90600
C  53.61200 46.41100 43.17700
C  50.50100 50.11900 43.69600
N  48.61100 45.49300 42.17000
C  47.34500 45.86800 42.09300
C  46.45400 44.69400 41.67100
C  47.38500 43.43300 41.76200
C  48.76500 44.14100 41.92800
C  47.03800 42.48600 42.96400
C  45.82300 44.83500 40.28400
C  46.68100 45.58300 39.31300
H  46.91600 44.92900 37.96500
N  51.60200 45.14500 42.61400
C  51.24500 43.86100 42.17100
C  52.51200 43.08700 42.03700
C  53.59800 43.96800 42.36100
C  53.00500 45.29400 42.66400
C  52.40100 41.66700 41.62000
C  55.13600 43.52800 42.31600
O  55.38400 42.36900 42.14100
C  56.30800 44.53500 42.38000
N  51.83300 48.19300 43.17800
C  53.12000 47.70800 43.42100
C  54.02600 48.86500 43.85700
C  53.06900 50.10600 43.87000
C  51.73400 49.48500 43.48100
C  54.71500 48.60400 45.21200
C  53.49100 51.30700 42.95300
C  53.27600 52.69600 43.61900
N  49.01600 48.25800 43.15500
C  49.21000 49.58100 43.52900
C  47.99800 50.30300 43.60100
C  47.00900 49.34800 43.18400
C  47.65200 48.16600 42.96100
C  47.79100 51.78800 43.90500
C  45.63200 49.13300 42.89700
O  44.67300 49.93700 42.95100
C  45.53100 47.67800 42.30800
C  44.43500 46.96000 42.99500
O  44.35000 46.72300 44.19800
O  43.49600 46.58300 42.06000
C  42.39500 45.83000 42.64600
H  49.92400 42.42300 41.66200
H  54.69500 46.44500 43.31400
H  50.70600 51.12700 44.06300
H  45.67800 44.54500 42.42200
H  47.36700 42.89100 40.81700
H  47.66600 42.68700 43.83200
H  47.18000 41.43200 42.72400
H  45.99200 42.62800 43.23600
H  44.79200 45.18800 40.26900
H  45.71000 43.82600 39.88800
H  47.72400 45.72200 39.59900
H  46.26200 46.57400 39.14500
H  51.73900 41.56100 40.76000
H  51.86600 41.12800 42.40200
H  53.31800 41.09500 41.48100
H  56.42900 44.66200 43.45500
H  55.96700 45.39600 41.80500
H  57.18700 44.26800 41.79300
H  54.71200 48.95100 43.01400
H  53.00500 50.54100 44.86700
H  54.14400 48.01000 45.92600
H  54.75300 49.60900 45.63300
H  55.74400 48.26600 45.09300
H  52.85800 51.11900 42.08600
H  54.51500 51.32700 42.58200
H  54.26000 52.95600 44.00900
H  52.56800 52.68400 44.44800
H  53.07700 53.42800 42.83600
H  46.88900 51.98900 43.32600
H  48.60200 52.44800 43.59800
H  47.43900 51.96900 44.92000
H  45.30900 47.70400 41.24100
H  42.48900 44.78000 42.37000
H  41.44000 46.11800 42.20500
H  42.33300 45.90000 43.73200

