158

Mg 8.32100 3.27700 28.50500
C  9.62700 1.75800 31.18400
C  6.24700 5.01800 30.65100
C  6.77400 4.50900 25.71400
C  10.18500 1.01800 26.42900
N  7.98000 3.36500 30.63800
C  8.78400 2.79300 31.56100
C  8.56200 3.28800 33.02900
C  7.25500 4.08200 32.81300
C  7.09700 4.12300 31.26700
C  5.94800 3.40300 33.35700
C  9.74200 4.15300 33.47200
C  10.43400 3.80400 34.83900
H  9.54900 3.12200 35.88400
N  6.80300 4.65000 28.18200
C  6.05300 5.21200 29.29300
C  5.07800 6.09300 28.71700
C  5.18300 6.00100 27.30200
C  6.24700 4.96100 26.96700
C  4.26500 7.11300 29.49000
C  4.29700 6.69900 26.22700
O  4.45700 6.51600 25.04500
C  3.25200 7.58200 26.72100
N  8.24300 2.55200 26.32900
C  7.67100 3.40900 25.41100
C  8.28300 3.19600 23.97500
C  9.37800 2.12000 24.20500
C  9.31500 1.92100 25.76300
C  7.19400 2.60200 23.01800
C  10.78200 2.60600 23.63800
C  11.51900 3.72100 24.44400
N  9.51600 1.65500 28.69500
C  10.24500 0.81300 27.80500
C  11.18600 -0.02000 28.53700
C  10.95400 0.36700 29.82900
C  9.95200 1.31800 29.88100
C  12.04800 -1.08500 28.04400
C  11.39900 0.10900 31.11600
O  12.36200 -0.62100 31.51200
C  10.55200 1.02600 32.07200
C  9.80700 0.17400 32.94700
O  8.80500 -0.42200 32.62300
O  10.35100 -0.07900 34.14700
C  9.63900 -0.80700 35.11800
H  5.65900 5.64400 31.32500
H  6.34400 4.97200 24.82300
H  11.06800 0.48700 26.06800
H  8.34400 2.46700 33.71100
H  7.33000 5.05500 33.29900
H  5.71800 2.69300 32.56300
H  5.12500 4.11600 33.30700
H  6.02100 2.96500 34.35300
H  9.54800 5.22300 33.40400
H  10.56200 3.98000 32.77500
H  10.76300 4.74600 35.27700
H  11.29200 3.18300 34.58100
H  4.53300 8.16600 29.39800
H  4.29200 6.95400 30.56800
H  3.23800 6.88700 29.20300
H  2.71000 7.96800 25.85700
H  3.75200 8.36200 27.29500
H  2.52500 7.06600 27.34900
H  8.59500 4.21000 23.72800
H  9.16300 1.10800 23.86200
H  6.29100 2.97800 23.49900
H  7.29500 1.52600 22.87400
H  7.29700 3.15400 22.08400
H  10.69500 2.96100 22.61200
H  11.39200 1.70800 23.53300
H  11.13400 3.92100 25.44400
H  11.32600 4.66900 23.94200
H  12.60800 3.67600 24.43100
H  13.03600 -0.79000 28.39700
H  12.09300 -1.13100 26.95600
H  11.73400 -1.99800 28.55100
H  11.16400 1.65200 32.72200
H  9.54500 -1.81900 34.72200
H  8.67200 -0.34400 35.31400
H  10.29200 -0.68300 35.98100
Mg 36.06900 49.22200 26.24400
C  36.40000 47.02600 29.07800
C  35.02700 51.59100 28.48200
C  35.43800 51.05100 23.67300
C  36.91600 46.61600 24.16500
N  35.64900 49.19300 28.47400
C  35.96800 48.28400 29.44500
C  35.99100 48.84300 30.91900
C  35.26100 50.14700 30.67100
C  35.33300 50.37300 29.10800
C  33.78000 50.19400 31.09500
C  37.43900 49.12500 31.49600
C  37.65200 48.88000 33.00400
H  36.49500 49.19900 33.96600
N  35.38700 51.11200 26.07900
C  35.03100 51.93000 27.10600
C  34.60000 53.14900 26.54000
C  34.82500 53.11300 25.13800
C  35.28400 51.72900 24.93200
C  34.15700 54.21100 27.45700
C  34.55300 54.08400 24.00500
O  34.76900 53.86800 22.82300
C  33.99800 55.34900 24.45400
N  36.22600 48.87700 24.13200
C  35.79500 49.72500 23.28100
C  35.67100 49.23600 21.83600
C  36.18300 47.77400 22.05900
C  36.44300 47.71400 23.52800
C  34.31600 49.38200 21.12700
C  37.45400 47.44500 21.16200
C  38.83500 47.37300 21.79500
N  36.60700 47.23000 26.48400
C  37.01400 46.30100 25.52400
C  37.34400 45.14000 26.17500
C  37.06900 45.33500 27.58200
C  36.67700 46.65400 27.72900
C  37.70600 43.87700 25.50600
C  37.08700 44.67700 28.86500
O  37.44700 43.54300 29.11200
C  36.68100 45.76500 29.95100
C  35.52700 45.27500 30.65600
O  34.41800 45.13000 30.20500
O  35.90600 45.17700 31.97200
C  34.79200 44.70300 32.75900
H  34.62400 52.28200 29.22400
H  34.99600 51.70200 22.91600
H  37.23000 45.76000 23.56500
H  35.51700 48.13600 31.60000
H  35.64800 51.01100 31.21200
H  33.56100 49.50000 31.90600
H  33.13300 49.87500 30.27800
H  33.63100 51.22900 31.40300
H  37.77600 50.10700 31.16300
H  38.11200 48.38300 31.06700
H  38.36600 49.60900 33.38800
H  37.99400 47.86200 33.19000
H  33.53400 53.91000 28.30000
H  33.65200 54.97600 26.86700
H  34.99400 54.76200 27.88700
H  34.00800 56.03700 23.60800
H  34.66800 55.80000 25.18600
H  32.99900 55.14500 24.84000
H  36.34300 49.85300 21.23900
H  35.37300 47.06500 21.88900
H  33.69900 49.99600 21.78200
H  33.67600 48.51200 20.98100
H  34.55600 49.90100 20.19900
H  37.49300 48.16800 20.34700
H  37.17500 46.50900 20.67900
H  38.83700 47.47100 22.88100
H  39.39600 48.19300 21.34700
H  39.35100 46.41600 21.72200
H  36.78900 43.35900 25.22600
H  38.32200 43.32300 26.21400
H  38.40600 44.10000 24.70100
H  37.49800 45.89700 30.66000
H  33.82900 45.19100 32.61400
H  35.10000 44.99900 33.76200
H  34.71900 43.61900 32.66800

