158

Mg 33.87800 2.50700 29.35900
C  31.82400 3.34500 32.13100
C  36.44000 2.11500 31.64200
C  35.89100 2.30500 26.77300
C  31.16600 3.29500 27.35700
N  34.05900 2.88100 31.67400
C  33.07600 3.05200 32.55600
C  33.66500 3.03300 33.98100
C  35.23000 2.69600 33.81500
C  35.24700 2.46900 32.26400
C  36.19600 3.83300 34.20700
C  32.80800 2.05300 34.90200
C  32.78400 2.40200 36.43600
H  33.93900 3.15500 37.10700
N  35.86000 2.20900 29.22700
C  36.81000 2.07100 30.26500
C  38.13100 1.92700 29.72800
C  38.04100 2.07200 28.29100
C  36.52800 2.21300 28.06600
C  39.41400 1.73700 30.60600
C  39.11400 1.97800 27.17300
O  38.81500 2.09200 25.99200
C  40.54200 1.61400 27.56900
N  33.56500 2.78100 27.41700
C  34.53500 2.45800 26.50700
C  34.09200 2.61100 25.02900
C  32.50500 2.73500 25.25600
C  32.37700 2.90400 26.76400
C  34.69100 3.85600 24.22200
C  31.66300 1.53300 24.63900
C  30.60500 1.72000 23.55900
N  31.91000 3.22500 29.59500
C  30.93900 3.50300 28.67700
C  29.71100 3.93400 29.28000
C  30.00900 3.94700 30.63300
C  31.37100 3.44700 30.75700
C  28.37700 4.23200 28.59800
C  29.54200 4.23700 31.95300
O  28.44800 4.58800 32.29700
C  30.69300 3.96800 32.92500
C  31.09200 5.22300 33.54800
O  31.55100 6.17600 32.96000
O  30.91900 5.07700 34.89100
C  31.31600 6.10100 35.76500
H  37.29200 2.04600 32.32200
H  36.51000 2.05300 25.91000
H  30.33100 3.48500 26.67900
H  33.60100 4.07400 34.29700
H  35.49600 1.78200 34.34700
H  36.70200 3.37000 35.05500
H  35.61100 4.68400 34.55600
H  36.84000 4.11600 33.37400
H  33.39900 1.13900 34.86200
H  31.78600 1.93300 34.54400
H  32.63500 1.52400 37.06500
H  31.89600 3.03200 36.48000
H  40.36800 2.18600 30.33000
H  39.60100 0.66600 30.68200
H  39.41500 2.11200 31.62900
H  40.62600 0.85700 28.34900
H  40.84500 2.58700 27.95600
H  41.15900 1.44400 26.68600
H  34.38800 1.68300 24.54000
H  32.16800 3.69300 24.86000
H  35.35400 4.35200 24.93200
H  34.01800 4.68900 24.01500
H  35.17700 3.47700 23.32400
H  31.27300 0.90800 25.44200
H  32.34300 0.87700 24.09400
H  29.56600 1.65300 23.88300
H  30.76800 1.00500 22.75300
H  30.77700 2.73200 23.19300
H  28.38700 4.56900 27.56200
H  27.81700 5.03100 29.08500
H  27.79700 3.31300 28.52100
H  30.31700 3.27600 33.67800
H  31.44400 5.69700 36.76900
H  30.44700 6.75900 35.80200
H  32.20500 6.71000 35.60000
Mg 36.08200 49.66300 25.81700
C  36.01100 47.67700 28.71800
C  34.43300 52.11400 27.31300
C  35.53100 51.07400 22.76600
C  37.73500 46.95300 24.24400
N  35.33000 49.83100 27.77900
C  35.52700 48.97700 28.87900
C  34.97700 49.68100 30.20900
C  34.42100 51.00400 29.66200
C  34.68500 50.95300 28.10100
C  32.89300 51.20300 29.92100
C  36.20200 49.87800 31.19300
C  36.00200 49.41300 32.65200
H  34.57000 49.20800 33.14700
N  35.26200 51.48800 25.14600
C  34.60500 52.37700 25.95000
C  34.13400 53.51100 25.09800
C  34.54100 53.24700 23.78100
C  35.14600 51.92000 23.82400
C  33.31300 54.64200 25.61800
C  34.55600 54.09800 22.55300
O  35.12700 53.78300 21.51600
C  33.85600 55.41700 22.59000
N  36.57700 49.08700 23.83900
C  36.27200 49.89500 22.78100
C  36.93400 49.42800 21.50400
C  37.73800 48.10900 21.90900
C  37.35800 48.07300 23.47500
C  36.05300 49.16200 20.23600
C  39.24500 48.11700 21.56600
C  40.17100 49.18100 22.13800
N  36.73200 47.75500 26.26400
C  37.39200 46.76400 25.52800
C  37.55200 45.57400 26.33800
C  37.06800 45.89500 27.61000
C  36.58500 47.20900 27.51400
C  38.14900 44.35400 25.85200
C  36.79400 45.34700 28.92300
O  36.91700 44.21200 29.32200
C  36.25700 46.54000 29.78000
C  35.06200 46.16600 30.60800
O  33.89700 46.41300 30.36300
O  35.47500 45.66200 31.80300
C  34.56200 45.23200 32.80700
H  33.90900 52.88200 27.88700
H  35.21000 51.52900 21.82700
H  38.31800 46.15100 23.78600
H  34.20500 49.03400 30.62500
H  34.90100 51.87300 30.11200
H  32.66600 52.08700 30.51700
H  32.38100 50.35500 30.37700
H  32.24100 51.27400 29.05100
H  36.42600 50.93800 31.07400
H  37.08300 49.32800 30.86400
H  36.49100 50.11500 33.32700
H  36.45100 48.42300 32.73900
H  33.05800 54.40100 26.65000
H  32.33400 54.86100 25.19100
H  33.85500 55.58800 25.61400
H  34.40000 55.98100 23.34800
H  32.78600 55.37000 22.79100
H  33.90700 56.01700 21.68100
H  37.74300 50.15600 21.44000
H  37.20200 47.28300 21.44200
H  36.28400 48.20300 19.77400
H  36.18100 49.91100 19.45500
H  34.98900 49.13700 20.47400
H  39.30300 48.28900 20.49100
H  39.55700 47.07600 21.65000
H  40.45000 49.73200 21.24000
H  41.03700 48.69200 22.58600
H  39.65600 49.80200 22.87100
H  37.41400 43.78600 25.28300
H  38.61000 43.76500 26.64500
H  38.99700 44.58300 25.20600
H  37.05100 46.86900 30.45000
H  33.54300 45.28800 32.42300
H  34.68600 45.90200 33.65800
H  34.79200 44.21900 33.13600

