158

Mg 37.18200 50.38700 25.50000
C  37.27900 48.23300 28.53500
C  36.12600 52.83400 27.63700
C  36.53300 52.14200 22.82600
C  37.88800 47.43200 23.68700
N  36.65400 50.48200 27.79500
C  36.94500 49.55000 28.79500
C  36.85900 50.13400 30.15600
C  36.04000 51.47300 29.89500
C  36.27800 51.61300 28.34900
C  34.57300 51.35300 30.29800
C  38.11100 50.08500 30.98200
C  38.04700 49.47500 32.36100
H  36.72900 49.48000 33.22500
N  36.55800 52.27800 25.24500
C  36.12600 53.14500 26.21500
C  35.77200 54.40800 25.49900
C  35.90500 54.20700 24.12800
C  36.29300 52.88200 24.02600
C  35.40500 55.63700 26.24300
C  35.48400 55.17300 22.95800
O  35.45700 54.73500 21.77300
C  35.13000 56.60600 23.18800
N  37.06000 49.83000 23.56600
C  36.90500 50.83100 22.59200
C  37.14400 50.22100 21.23000
C  37.75100 48.82100 21.53100
C  37.58200 48.65400 22.99700
C  35.83300 50.08800 20.43800
C  39.18500 48.58900 21.05000
C  39.42800 47.22500 20.35700
N  37.56600 48.27400 25.95800
C  37.93700 47.24400 25.01600
C  38.44200 46.12400 25.81400
C  38.12600 46.41600 27.15400
C  37.63400 47.74000 27.22000
C  38.95100 44.78500 25.38300
C  38.10400 45.91600 28.55200
O  38.44900 44.83200 28.91700
C  37.57100 47.07400 29.43600
C  36.40500 46.51700 30.15700
O  35.24300 46.51400 29.74200
O  36.75000 46.07400 31.43400
C  35.60700 45.71200 32.25700
H  35.78900 53.67800 28.24400
H  36.55000 52.57700 21.82400
H  38.25800 46.61600 23.06300
H  36.15000 49.46800 30.64800
H  36.59200 52.20400 30.48600
H  34.38300 52.17500 30.98800
H  34.37200 50.39400 30.77600
H  33.90000 51.52200 29.45700
H  38.34500 51.14100 31.12000
H  38.94200 49.74300 30.36500
H  38.79700 50.03000 32.92400
H  38.36600 48.43300 32.32900
H  36.34800 56.11600 26.50600
H  34.90300 55.38000 27.17600
H  34.73800 56.34200 25.74700
H  34.17200 56.53500 23.70300
H  34.96000 56.91700 22.15800
H  35.96400 57.17600 23.59800
H  37.89800 50.82000 20.72000
H  37.15700 48.02200 21.08800
H  34.99000 50.61200 20.88700
H  35.58000 49.05200 20.21400
H  35.92500 50.57400 19.46700
H  39.74800 48.46900 21.97600
H  39.55300 49.47900 20.54000
H  40.01500 46.58600 21.01700
H  40.00100 47.37200 19.44200
H  38.49000 46.77100 20.04000
H  38.51700 43.91800 25.88100
H  40.00900 44.91600 25.61100
H  38.89500 44.47700 24.33900
H  38.35600 47.28600 30.16200
H  35.10800 44.75100 32.13400
H  34.78400 46.42600 32.21400
H  35.78400 45.54000 33.31800
Mg 1.64300 41.94300 26.05800
C  3.53900 42.06100 28.97300
C  -1.09200 41.12300 27.89400
C  0.26200 41.12200 23.28400
C  4.73500 42.59400 24.25300
N  1.27300 41.60900 28.25100
C  2.17000 41.95900 29.21200
C  1.37100 41.92400 30.56700
C  -0.09800 41.49700 30.25100
C  -0.02400 41.46600 28.70200
C  -0.41100 40.06400 30.78600
C  1.49400 43.24800 31.37600
C  1.60500 43.16300 32.89300
H  1.23000 41.89600 33.63600
N  -0.24100 41.21600 25.64200
C  -1.23400 40.84500 26.51400
C  -2.30700 40.31500 25.71200
C  -1.90900 40.26100 24.36900
C  -0.59500 40.90200 24.36800
C  -3.66400 39.88900 26.29100
C  -2.65500 39.75800 23.15900
O  -2.15300 39.66800 22.04600
C  -4.08000 39.30200 23.19700
N  2.39200 41.89000 23.98900
C  1.53500 41.55400 23.06700
C  2.14700 41.79800 21.67100
C  3.44700 42.55200 21.99700
C  3.57800 42.37000 23.48800
C  2.36600 40.47800 20.80800
C  3.39600 44.05600 21.62300
C  4.23800 44.47900 20.44900
N  3.69000 42.28900 26.45900
C  4.77600 42.57600 25.68600
C  5.93200 42.66300 26.50600
C  5.53000 42.46800 27.79500
C  4.15700 42.19900 27.73700
C  7.40000 42.91900 26.00900
C  5.91700 42.37500 29.21000
O  6.97100 42.44100 29.81500
C  4.57700 42.20900 30.02900
C  4.73400 41.04100 30.91700
O  4.49100 39.90900 30.54600
O  5.00200 41.42200 32.24000
C  5.19700 40.39200 33.18800
H  -2.00800 41.16100 28.48600
H  -0.29200 40.88700 22.37300
H  5.62000 42.91700 23.70100
H  1.92800 41.12200 31.04900
H  -0.86300 42.19500 30.59000
H  0.25600 39.81400 31.61200
H  -0.18900 39.36900 29.97700
H  -1.43800 39.85400 31.08900
H  0.62000 43.83900 31.10100
H  2.32600 43.83500 30.98800
H  1.03700 43.95700 33.37900
H  2.68100 43.26600 33.03600
H  -3.70700 40.17600 27.34100
H  -3.79200 38.80600 26.26300
H  -4.42300 40.43400 25.73000
H  -4.76600 40.14700 23.26300
H  -4.25700 38.69800 24.08600
H  -4.24700 38.80100 22.24300
H  1.46200 42.44000 21.11700
H  4.35800 42.13300 21.57000
H  1.50700 39.84300 21.02500
H  3.28700 39.96300 21.08100
H  2.42300 40.82800 19.77700
H  3.68200 44.72300 22.43600
H  2.35900 44.37300 21.51000
H  4.98400 45.21300 20.75300
H  3.55000 44.90700 19.72000
H  4.76500 43.61800 20.03800
H  7.74200 43.87300 26.41100
H  7.42400 42.97800 24.92100
H  7.99300 42.15500 26.51100
H  4.49800 43.11800 30.62500
H  6.22700 40.03800 33.14200
H  4.58200 39.49700 33.09100
H  4.82000 40.74900 34.14600

