158

Mg 55.09700 23.10200 44.02600
C  52.59900 25.44500 43.09400
C  53.13400 20.54400 43.07800
C  57.88000 21.18400 44.01600
C  57.16200 25.82800 44.90000
N  53.09900 23.07700 43.16900
C  52.25800 24.09000 42.76500
C  51.09800 23.48900 42.03100
C  51.16000 21.97700 42.37300
C  52.54800 21.81300 42.89300
C  50.13200 21.54100 43.41400
C  51.12400 23.74400 40.46700
C  49.78800 23.30800 39.84600
H  49.60200 22.60100 38.46500
N  55.44000 21.07500 43.57900
C  54.43400 20.17200 43.28500
C  54.99700 18.85900 43.11500
C  56.38300 19.02400 43.45300
C  56.61300 20.48200 43.69600
C  54.22000 17.60200 42.79200
C  57.44500 17.86300 43.62300
O  57.08000 16.69100 43.58900
C  58.88100 18.12900 43.82600
N  57.30700 23.48700 44.26500
C  58.19100 22.51200 44.23800
C  59.59700 23.05100 44.42500
C  59.35900 24.40900 44.99400
C  57.83900 24.63100 44.80500
C  60.51100 22.20100 45.38200
C  60.12200 25.63400 44.41900
C  60.68000 26.61200 45.41900
N  54.94400 25.19700 44.04000
C  55.83900 26.17600 44.47900
C  55.19100 27.49500 44.50500
C  53.90900 27.19500 43.90900
C  53.83900 25.82000 43.69700
C  55.68400 28.71100 45.08800
C  52.68800 27.81600 43.47100
O  52.31200 28.96000 43.51700
C  51.77400 26.65200 42.90600
C  51.58900 26.99800 41.48700
O  52.45600 27.12400 40.62600
O  50.27000 27.34300 41.25700
C  49.84800 27.62000 39.88100
H  52.41400 19.74700 42.87900
H  58.70000 20.47800 44.16500
H  57.69200 26.71100 45.26300
H  50.19500 23.94100 42.44100
H  51.02200 21.38600 41.46800
H  49.68500 22.46900 43.77000
H  50.57800 21.13900 44.32400
H  49.45900 20.84100 42.91900
H  51.84200 23.02800 40.06700
H  51.34600 24.78800 40.24500
H  49.34100 24.30000 39.78300
H  49.24400 22.71900 40.58400
H  54.09400 17.50100 41.71400
H  53.21800 17.65400 43.21900
H  54.61100 16.62000 43.06100
H  59.25500 18.75600 43.01700
H  59.49900 17.23100 43.84000
H  58.95400 18.63800 44.78700
H  59.98900 23.10400 43.41000
H  59.39600 24.37000 46.08300
H  61.44500 22.72100 45.59600
H  60.72700 21.29500 44.81600
H  59.93100 21.91900 46.26200
H  59.59800 26.15700 43.61900
H  60.98200 25.14800 43.95800
H  60.42300 27.62300 45.10200
H  61.76100 26.57400 45.55200
H  60.11100 26.44200 46.33300
H  55.44000 28.90600 46.13200
H  55.14200 29.50200 44.57000
H  56.74800 28.81100 44.87100
H  50.83900 26.77500 43.45400
H  50.43200 28.42200 39.43000
H  48.82200 27.97600 39.78500
H  49.97000 26.68400 39.33500
Mg 10.05400 48.53400 25.81000
C  8.14700 49.03700 28.65500
C  12.72400 50.01600 27.44200
C  11.86900 47.98600 23.09800
C  7.16000 47.87300 23.98100
N  10.44300 49.25200 27.91100
C  9.50000 49.34000 28.91300
C  10.05900 49.93300 30.15500
C  11.34400 50.71100 29.55800
C  11.50600 50.02300 28.17800
C  11.44800 52.26100 29.51200
C  10.26100 48.89000 31.27900
C  9.51900 49.19900 32.57600
H  9.33300 48.09500 33.58000
N  12.05700 48.83400 25.38600
C  12.97800 49.43200 26.19800
C  14.23200 49.15800 25.58800
C  14.05600 48.51000 24.28600
C  12.62200 48.39900 24.18100
C  15.49500 49.40700 26.29500
C  15.10800 48.04600 23.31800
O  14.85500 47.53200 22.29100
C  16.56200 48.17500 23.62100
N  9.50600 48.10200 23.78300
C  10.46600 47.83300 22.88600
C  9.89600 47.23400 21.55300
C  8.35500 47.17500 21.83900
C  8.29900 47.75700 23.24800
C  10.33800 48.07500 20.25200
C  7.80400 45.76100 21.67100
C  7.94300 44.80600 22.88500
N  8.11500 48.33600 26.18200
C  7.02200 48.13900 25.33200
C  5.81300 48.29800 26.06100
C  6.20900 48.64800 27.36100
C  7.64400 48.64400 27.36900
C  4.44900 48.35200 25.54200
C  5.70700 48.87600 28.78300
O  4.53400 48.85000 29.18800
C  6.97000 49.06800 29.68100
C  7.01900 47.96000 30.54900
O  7.72100 46.93400 30.44100
O  6.18900 48.05700 31.62000
C  6.07100 46.94900 32.60500
H  13.49500 50.54900 28.00300
H  12.56000 47.82400 22.26800
H  6.24500 47.68300 23.41600
H  9.45400 50.74200 30.56400
H  12.18900 50.30300 30.11200
H  10.47900 52.72600 29.69100
H  11.68500 52.77100 28.57900
H  12.15700 52.71200 30.20700
H  11.32000 48.92200 31.53500
H  9.99700 47.93200 30.83100
H  8.48800 49.49900 32.38900
H  10.00300 50.02900 33.09100
H  15.36000 49.38900 27.37700
H  15.97600 50.35700 26.06300
H  16.29000 48.67000 26.17800
H  16.88100 49.20100 23.80700
H  17.09500 47.84700 22.72800
H  16.65500 47.51900 24.48600
H  10.28500 46.22100 21.44500
H  7.76800 47.84300 21.20900
H  10.98800 48.79300 20.75100
H  9.46500 48.61900 19.89100
H  10.85500 47.57800 19.43000
H  8.36100 45.28000 20.86800
H  6.73800 45.74700 21.44200
H  8.64100 45.18300 23.63300
H  8.23600 43.82600 22.50800
H  6.96200 44.83700 23.35900
H  4.03100 47.36000 25.37200
H  4.35300 48.93200 24.62500
H  3.82200 48.77500 26.32800
H  6.94900 49.99800 30.24800
H  5.04500 46.59000 32.52500
H  6.25000 47.33900 33.60600
H  6.70100 46.10000 32.34000

