158

Mg 40.61200 9.62400 29.20300
C  42.36000 10.76500 31.79900
C  38.37000 8.07300 31.42700
C  38.72700 8.43800 26.56700
C  42.80200 10.93400 26.97000
N  40.45500 9.39400 31.39900
C  41.15400 10.22300 32.28200
C  40.69600 10.16600 33.71700
C  39.54100 9.08100 33.54000
C  39.49200 8.74000 32.03100
C  39.70400 7.72400 34.36100
C  40.14100 11.55200 34.09200
C  39.59100 11.75700 35.43600
H  40.27100 12.48800 36.53600
N  38.85500 8.33300 29.03500
C  38.12000 7.83200 30.07800
C  37.02500 6.97100 29.55500
C  37.03900 7.16300 28.14400
C  38.18100 8.01000 27.83400
C  35.92500 6.32100 30.42300
C  36.18000 6.60100 27.04300
O  36.29300 6.89200 25.87200
C  34.96600 5.80500 27.37200
N  40.64000 9.79500 27.06700
C  39.85400 9.13900 26.16600
C  40.33300 9.32000 24.66700
C  41.60300 10.20500 24.89800
C  41.65300 10.40800 26.40800
C  40.45900 8.06100 23.76700
C  41.59700 11.58500 24.11900
C  40.85900 12.82000 24.76500
N  42.22900 10.57500 29.27200
C  43.08900 11.06500 28.33800
C  44.27100 11.63100 28.97000
C  43.95900 11.58700 30.36000
C  42.80000 10.83700 30.47600
C  45.46800 12.19800 28.32200
C  44.43700 11.92300 31.68200
O  45.51600 12.36500 31.88200
C  43.31800 11.55900 32.63000
C  43.97100 10.89600 33.83900
O  44.34400 9.71000 33.87300
O  44.02000 11.70000 34.95900
C  44.54000 11.20900 36.21800
H  37.71500 7.58800 32.15400
H  38.33300 7.89300 25.70700
H  43.64300 11.21600 26.33200
H  41.41400 9.94100 34.50600
H  38.53600 9.41900 33.79400
H  39.58600 6.84200 33.73200
H  39.08200 7.73000 35.25600
H  40.71600 7.69000 34.76500
H  39.38000 11.94800 33.42000
H  40.94600 12.23700 33.82500
H  39.49400 10.73500 35.80200
H  38.57200 12.13300 35.34700
H  36.35900 5.37700 30.75000
H  34.92700 6.19300 30.00200
H  35.87800 6.96100 31.30400
H  35.26500 5.08600 28.13500
H  34.75100 5.31900 26.42000
H  34.07800 6.39100 27.60900
H  39.62000 9.99600 24.19600
H  42.52500 9.72600 24.56700
H  41.04500 7.38400 24.38800
H  41.23900 8.16200 23.01200
H  39.55000 7.55700 23.43700
H  41.19100 11.34800 23.13600
H  42.65500 11.75400 23.92000
H  40.58700 12.55500 25.78600
H  40.01400 13.25600 24.23100
H  41.61000 13.59800 24.90300
H  45.63900 13.11700 28.88200
H  45.15900 12.42400 27.30100
H  46.29800 11.49100 28.32100
H  42.84300 12.43300 33.07600
H  44.02600 10.26400 36.39200
H  44.23900 11.91100 36.99400
H  45.62900 11.16300 36.23300
Mg 47.78700 25.80100 29.18200
C  48.67000 28.06300 31.77400
C  46.53000 23.69700 31.37200
C  47.37100 23.50400 26.63000
C  49.24300 27.89700 26.89500
N  47.70700 25.81800 31.35500
C  47.95500 26.94900 32.24900
C  47.35300 26.69500 33.65000
C  46.85600 25.20300 33.51300
C  46.95900 24.88900 31.96000
C  47.84400 24.23000 34.24600
C  46.13800 27.70300 33.85500
C  46.41300 28.71300 34.93500
H  45.51400 28.82100 36.20400
N  46.94300 23.87700 29.02500
C  46.49500 23.21700 30.05400
C  45.88100 21.99600 29.61200
C  46.31000 21.81000 28.28000
C  46.84500 23.10200 27.86900
C  45.19400 20.98700 30.50600
C  46.23000 20.62100 27.29300
O  46.70000 20.68800 26.14800
C  45.62000 19.27600 27.65600
N  48.30400 25.65800 27.03700
C  48.01300 24.67500 26.23400
C  48.39600 25.02400 24.75100
C  48.95300 26.41100 24.92900
C  48.85600 26.67000 26.38300
C  49.33100 24.06500 23.98600
C  48.19200 27.61200 24.25000
C  48.95600 28.79800 23.62200
N  48.73300 27.61300 29.26000
C  49.35700 28.33300 28.20600
C  49.99600 29.53000 28.70100
C  49.67900 29.48200 30.08400
C  49.01000 28.26700 30.36800
C  50.69600 30.69300 27.96700
C  49.70500 30.20800 31.31700
O  50.15800 31.32500 31.53400
C  49.01300 29.36500 32.42100
C  50.02800 29.17800 33.54000
O  51.00600 28.47900 33.54500
O  49.69400 30.00600 34.59700
C  50.31600 29.75600 35.89700
H  46.14500 23.02700 32.14300
H  47.19200 22.89900 25.73800
H  49.71500 28.62800 26.23600
H  48.13900 26.76400 34.40100
H  45.83400 25.14200 33.88700
H  47.41100 23.88500 35.18500
H  48.80000 24.70800 34.46000
H  48.14100 23.33500 33.69900
H  45.18700 27.25700 34.14700
H  45.91400 28.24100 32.93400
H  46.42800 29.71700 34.51000
H  47.43000 28.57600 35.30300
H  45.95800 20.22400 30.65200
H  44.38400 20.52100 29.94400
H  44.89000 21.33400 31.49300
H  45.65900 19.07200 28.72600
H  46.19200 18.50200 27.14500
H  44.55200 19.32300 27.44100
H  47.44600 25.22700 24.25800
H  50.01000 26.55900 24.70900
H  49.76600 23.43100 24.75800
H  50.09300 24.55400 23.37900
H  48.81100 23.52200 23.19700
H  47.52000 28.07000 24.97500
H  47.55100 27.23000 23.45600
H  48.50000 29.74700 23.90400
H  48.90300 28.82800 22.53400
H  50.00100 28.80300 23.93300
H  51.14300 31.33700 28.72500
H  49.94700 31.25000 27.40400
H  51.44200 30.37000 27.24100
H  48.20400 29.92000 32.89600
H  49.50600 29.47100 36.56900
H  50.77600 30.62600 36.36300
H  50.97200 28.88700 35.94100

