158

Mg 46.92900 16.58300 28.10600
C  44.82600 16.17300 30.96800
C  49.05500 18.43500 30.20600
C  48.66200 17.39600 25.39500
C  44.45300 14.92900 26.25900
N  47.00700 17.01300 30.43600
C  46.05000 16.79300 31.31900
C  46.34000 17.33600 32.66100
C  47.60500 18.30500 32.36900
C  47.94000 17.87300 30.92200
C  47.57100 19.91500 32.57500
C  46.68400 16.24200 33.75400
C  46.40000 16.58600 35.30700
H  46.11900 18.02800 35.70300
N  48.62900 17.65800 27.83000
C  49.37800 18.37600 28.79500
C  50.60800 18.89300 28.23400
C  50.45400 18.67300 26.82500
C  49.21000 17.85000 26.65800
C  51.80200 19.42300 28.95400
C  51.38000 19.13000 25.68300
O  51.16000 18.84000 24.50200
C  52.63200 20.07100 25.92700
N  46.60600 16.15500 26.12700
C  47.48900 16.61300 25.14900
C  47.09900 16.19700 23.78400
C  46.01200 15.14300 24.10900
C  45.61000 15.42200 25.58400
C  46.56100 17.38200 23.02600
C  46.53200 13.73100 23.92800
C  45.56500 12.76000 23.24600
N  45.03600 15.68600 28.44700
C  44.15200 15.09300 27.63500
C  42.97000 14.63000 28.31200
C  43.19100 15.02800 29.62600
C  44.48200 15.65200 29.70500
C  41.73000 14.07900 27.58200
C  42.56700 15.13000 30.98400
O  41.49500 14.79000 31.42200
C  43.68700 15.82000 31.89900
C  43.02300 16.96300 32.52900
O  42.94400 18.12800 32.05600
O  42.50400 16.49300 33.70300
C  41.69400 17.44000 34.47700
H  49.70700 19.10000 30.77600
H  49.21800 17.61500 24.48100
H  43.76000 14.31600 25.67800
H  45.51600 17.97300 32.98100
H  48.34400 17.85100 33.02900
H  46.68700 20.40600 32.98100
H  47.50600 20.39700 31.60000
H  48.40000 20.21200 33.21800
H  47.69800 15.84700 33.69500
H  46.11300 15.36900 33.43600
H  47.20300 16.39700 36.02000
H  45.62600 15.92900 35.70200
H  52.57200 19.88400 28.33500
H  52.18300 18.58800 29.54200
H  51.42800 20.21700 29.60100
H  52.33000 20.98100 26.44600
H  52.92300 20.41200 24.93400
H  53.44400 19.47200 26.33900
H  47.98900 15.77600 23.31800
H  45.12700 15.36300 23.51200
H  47.42500 17.58300 22.39200
H  46.27100 18.25700 23.60800
H  45.73200 17.06000 22.39500
H  46.68900 13.27300 24.90500
H  47.48700 13.72000 23.40100
H  45.47100 11.87200 23.87100
H  45.94000 12.48200 22.26200
H  44.60900 13.27200 23.13500
H  41.25100 13.28300 28.15400
H  42.02000 13.59700 26.64900
H  41.02300 14.87100 27.33300
H  44.12500 15.09000 32.58000
H  42.35500 18.05100 35.09000
H  40.98800 16.96900 35.16100
H  41.07900 18.09700 33.86200
Mg 1.16900 41.40000 26.52300
C  3.49200 42.16100 29.08400
C  -1.10400 40.85100 28.98400
C  -0.97900 41.04700 24.07300
C  3.72100 42.32600 24.17700
N  1.13800 41.65700 28.70200
C  2.15900 42.04600 29.51700
C  1.70200 42.19100 30.95900
C  0.37300 41.45400 31.01100
C  0.08800 41.26700 29.45700
C  0.42800 40.19700 31.87900
C  1.55800 43.72200 31.22100
C  1.09600 44.19400 32.66500
H  1.03300 43.11000 33.73800
N  -0.74900 40.86400 26.53500
C  -1.54400 40.64700 27.61500
C  -2.75600 40.10100 27.13300
C  -2.84300 40.24100 25.77400
C  -1.51300 40.76700 25.35900
C  -3.78800 39.68000 28.16800
C  -3.99600 40.03600 24.85400
O  -3.91000 40.20400 23.64100
C  -5.31500 39.64500 25.43300
N  1.40100 41.67800 24.44600
C  0.33000 41.35300 23.62100
C  0.69900 41.55500 22.12900
C  2.17200 42.08200 22.20400
C  2.46800 42.02000 23.68300
C  0.42000 40.17700 21.39000
C  2.55200 43.44800 21.59700
C  1.91900 44.70900 22.11600
N  3.18100 42.03400 26.59600
C  4.08500 42.34200 25.53600
C  5.43700 42.49900 26.16700
C  5.22400 42.49100 27.56400
C  3.89400 42.15100 27.75000
C  6.62200 42.90200 25.32000
C  5.88100 42.52700 28.83600
O  7.07000 42.66100 29.08100
C  4.68100 42.38900 29.90700
C  4.98100 41.36900 30.97800
O  4.88100 40.19200 30.85400
O  5.20100 41.95800 32.22400
C  4.95800 41.19200 33.46200
H  -1.77700 40.67200 29.82500
H  -1.67000 40.82300 23.25800
H  4.55000 42.49200 23.48500
H  2.40500 41.72900 31.65300
H  -0.41500 42.06800 31.44700
H  1.27200 40.21700 32.56800
H  0.53000 39.32400 31.23400
H  -0.43200 40.05300 32.53200
H  0.67900 44.01900 30.64900
H  2.33000 44.37100 30.80800
H  0.18100 44.77900 32.56800
H  1.80100 44.89700 33.10900
H  -4.16000 38.70000 27.87200
H  -4.49500 40.51000 28.16400
H  -3.41100 39.63000 29.18900
H  -5.87400 40.54400 25.69200
H  -5.28100 38.99600 26.30900
H  -5.78900 39.09000 24.62400
H  0.05900 42.37100 21.79100
H  2.72700 41.20900 21.85900
H  -0.43400 40.25100 20.71700
H  0.16600 39.37200 22.08000
H  1.29700 39.94400 20.78600
H  2.18800 43.47000 20.56900
H  3.63500 43.55500 21.54600
H  1.06200 44.50300 22.75700
H  1.78100 45.49400 21.37400
H  2.62400 45.23700 22.75900
H  6.28500 43.80900 24.81800
H  6.86100 42.07000 24.65800
H  7.41600 43.18500 26.01100
H  4.60800 43.34600 30.42300
H  3.90700 40.93500 33.59300
H  5.38500 41.65600 34.35100
H  5.51100 40.25300 33.47800

