158

Mg 15.97300 -2.04700 27.87500
C  15.10800 0.01600 30.56300
C  17.83600 -4.02000 30.13800
C  17.01400 -3.86600 25.22900
C  14.54700 0.30100 25.62500
N  16.27900 -2.14500 30.13100
C  15.89300 -1.09000 30.98900
C  16.40100 -1.34600 32.36800
C  17.43800 -2.44900 32.18300
C  17.16600 -2.90900 30.72000
C  18.90500 -1.96400 32.37400
C  15.32100 -1.74100 33.41200
C  15.42400 -1.25800 34.88100
H  16.68500 -0.57000 35.34100
N  17.13500 -3.76700 27.71800
C  17.79300 -4.42200 28.77000
C  18.35300 -5.60700 28.19400
C  18.13800 -5.59300 26.81700
C  17.41400 -4.41400 26.54600
C  19.12000 -6.67200 28.95700
C  18.46300 -6.70600 25.74800
O  17.95300 -6.78800 24.60800
C  19.51800 -7.72200 26.11800
N  15.81600 -1.85800 25.78100
C  16.30000 -2.72100 24.85100
C  15.75300 -2.44100 23.47900
C  15.03200 -1.04600 23.54700
C  15.13100 -0.85800 25.10600
C  16.75700 -2.57900 22.24800
C  13.58600 -1.21100 22.87700
C  12.59100 -2.10500 23.53900
N  14.99400 -0.20600 28.01700
C  14.45400 0.57500 27.00600
C  13.79700 1.66900 27.66000
C  14.02000 1.51100 29.02900
C  14.74600 0.33500 29.20200
C  12.93300 2.76800 27.11600
C  13.68400 2.04300 30.34400
O  13.03200 2.97600 30.75800
C  14.45100 1.16300 31.37400
C  15.34400 2.14800 32.16200
O  16.47400 2.42900 31.86700
O  14.61200 2.78800 33.14300
C  15.29700 3.92400 33.78000
H  18.49200 -4.48400 30.87700
H  17.37300 -4.50000 24.41600
H  14.01800 1.00800 24.98100
H  16.77500 -0.36500 32.66200
H  17.18500 -3.29700 32.81900
H  19.40400 -2.49400 33.18500
H  18.96200 -0.90100 32.60900
H  19.57700 -2.14200 31.53400
H  15.23600 -2.82600 33.47800
H  14.31900 -1.60600 33.00400
H  15.31500 -2.14300 35.50700
H  14.50100 -0.69500 35.01800
H  20.18400 -6.48700 28.81400
H  18.85000 -7.67800 28.63400
H  18.90900 -6.54800 30.01900
H  20.03000 -8.12700 25.24500
H  19.08800 -8.50000 26.74800
H  20.31800 -7.21300 26.65600
H  15.05600 -3.27500 23.38400
H  15.57200 -0.28500 22.98400
H  17.76500 -2.76100 22.62100
H  16.68400 -1.73000 21.56800
H  16.54700 -3.44300 21.61800
H  13.61800 -1.43400 21.81000
H  13.16600 -0.20600 22.86500
H  11.64000 -1.60500 23.72100
H  12.89600 -2.51300 24.50300
H  12.34500 -3.01100 22.98500
H  11.91700 2.61300 27.47800
H  12.90800 2.88500 26.03300
H  13.29900 3.71600 27.51100
H  13.69900 0.81000 32.07900
H  16.13900 3.65600 34.42000
H  14.56500 4.48200 34.36400
H  15.74600 4.52100 32.98700
Mg 40.48600 9.45000 29.88300
C  42.43300 10.54000 32.65900
C  38.15800 8.33800 32.15300
C  38.74400 8.24800 27.23900
C  43.17400 10.32200 27.75900
N  40.37800 9.37700 32.14800
C  41.18500 9.99700 33.00300
C  40.72700 9.95800 34.47600
C  39.36300 9.18100 34.31100
C  39.28100 8.94400 32.78600
C  39.34900 7.80100 35.13000
C  40.64900 11.36300 35.13000
C  39.63700 11.48000 36.31600
H  40.08300 12.44800 37.39000
N  38.70100 8.39100 29.71300
C  37.85000 8.13000 30.78800
C  36.57600 7.61300 30.18700
C  36.72800 7.69600 28.80300
C  38.11000 8.10400 28.52000
C  35.42200 7.16500 31.05300
C  35.70700 7.44100 27.71200
O  35.93400 7.51100 26.52500
C  34.41400 7.03900 28.14600
N  40.92200 9.33600 27.84300
C  39.96400 8.85300 26.89300
C  40.52100 9.06400 25.43200
C  41.84600 9.88600 25.68400
C  41.99300 9.87100 27.21200
C  40.79300 7.75600 24.62100
C  41.85800 11.32900 25.12100
C  41.18500 12.40400 25.90900
N  42.47800 10.25500 30.08800
C  43.40700 10.48600 29.14700
C  44.51100 11.12800 29.84100
C  44.15300 11.18000 31.16900
C  42.94400 10.56200 31.25600
C  45.82700 11.60700 29.21700
C  44.65300 11.66200 32.45800
O  45.70100 12.25000 32.80300
C  43.56400 11.20800 33.50000
C  44.14900 10.25800 34.47600
O  44.34300 9.09400 34.34600
O  44.50900 10.94400 35.63500
C  45.54800 10.35400 36.51300
H  37.39000 8.00500 32.85400
H  38.25400 7.81200 26.36500
H  43.93500 10.66800 27.05800
H  41.37600 9.30100 35.05500
H  38.58000 9.87700 34.61300
H  39.97600 7.91600 36.01300
H  39.66600 6.95000 34.52700
H  38.34200 7.60700 35.50100
H  40.51600 12.12500 34.36200
H  41.59000 11.61300 35.61900
H  39.31200 10.55500 36.79100
H  38.81300 12.00500 35.83200
H  35.40900 7.43900 32.10800
H  35.43700 6.08500 31.20300
H  34.42100 7.45800 30.73800
H  33.84700 7.80300 28.67600
H  34.45900 6.11100 28.71600
H  33.83000 6.84200 27.24600
H  39.78400 9.58900 24.82300
H  42.73100 9.39000 25.28500
H  40.85000 6.93200 25.33300
H  41.77900 7.73500 24.15800
H  39.95700 7.65000 23.93000
H  41.29700 11.28100 24.18900
H  42.87900 11.57900 24.83200
H  40.81400 12.11700 26.89300
H  40.33300 12.80500 25.36100
H  41.89300 13.19700 26.15100
H  45.77400 11.94300 28.18100
H  46.59900 10.83800 29.24500
H  46.30900 12.42500 29.75100
H  43.29200 12.10000 34.06400
H  46.46400 10.02600 36.02000
H  45.09000 9.48500 36.98500
H  45.90800 10.99900 37.31500

