158

Mg 31.26200 58.72600 39.81200
C  28.17600 57.00500 38.93100
C  32.93200 56.03400 38.61300
C  33.96000 60.64900 39.82000
C  29.26700 61.43800 40.64200
N  30.59200 56.80600 38.89300
C  29.35200 56.26100 38.62700
C  29.52700 54.91100 38.08700
C  30.99700 54.55600 38.26800
C  31.54500 55.86800 38.58100
C  31.36000 53.56100 39.42500
C  29.15600 54.81300 36.60500
C  28.09000 53.72400 36.19700
H  27.25000 54.18600 34.95900
N  33.23200 58.38000 39.37400
C  33.74700 57.19000 38.87100
C  35.13500 57.31200 38.66100
C  35.48300 58.63500 39.01500
C  34.22200 59.31500 39.41900
C  35.99600 56.23300 38.05100
C  36.90200 59.17600 38.83900
O  37.85900 58.47500 38.55100
C  37.21100 60.64700 38.91400
N  31.53400 60.79600 40.08500
C  32.78100 61.33200 40.23300
C  32.72400 62.72200 40.84600
C  31.17700 62.96600 41.00700
C  30.57600 61.62800 40.49700
C  33.68600 62.89800 42.07400
C  30.65200 64.28800 40.16400
C  29.87800 65.31100 41.04000
N  29.14800 59.18300 39.92900
C  28.49200 60.25800 40.31400
C  27.07900 60.08700 40.26400
C  26.95200 58.84600 39.76000
C  28.20300 58.28400 39.54400
C  26.06800 61.10800 40.61300
C  25.89800 57.85400 39.42700
O  24.68900 57.87800 39.43900
C  26.69200 56.59800 38.80400
C  26.30200 55.37300 39.60500
O  26.95800 54.96300 40.52800
O  25.20600 54.68300 38.99900
C  25.04900 53.38400 39.63700
H  33.52900 55.16200 38.34000
H  34.85100 61.27900 39.83000
H  28.62700 62.27800 40.91900
H  29.03500 54.12700 38.66300
H  31.45500 54.20800 37.34200
H  32.04500 54.06400 40.10700
H  31.80700 52.63000 39.07600
H  30.45400 53.29000 39.96800
H  30.03400 54.61400 35.99100
H  28.79400 55.78400 36.26800
H  27.42600 53.65100 37.05900
H  28.60600 52.79200 35.97000
H  36.18100 56.43400 36.99600
H  35.59400 55.23000 38.19900
H  36.86500 56.22700 38.70900
H  36.42400 61.24700 38.45600
H  38.09100 60.97900 38.36200
H  37.23500 60.72200 40.00100
H  33.14000 63.44600 40.14500
H  31.08900 63.03000 42.09100
H  33.25300 63.60900 42.77800
H  34.70400 63.20600 41.83700
H  33.71300 61.92500 42.56500
H  30.00800 63.85700 39.39900
H  31.48000 64.76600 39.63900
H  30.38400 66.25700 40.84300
H  29.88300 65.04400 42.09700
H  28.85000 65.39000 40.68800
H  26.15300 61.89100 39.85900
H  26.08300 61.43400 41.65300
H  25.10600 60.63500 40.41800
H  26.45800 56.43900 37.75200
H  25.86100 52.72000 39.34000
H  24.02000 53.06800 39.46300
H  25.20500 53.60400 40.69300
Mg 16.83300 51.84700 26.45600
C  18.70400 50.68200 29.13200
C  14.51600 52.89500 28.94200
C  14.93200 52.83500 24.08100
C  19.13200 50.55300 24.23000
N  16.72100 51.94700 28.75500
C  17.58800 51.37100 29.60900
C  17.28700 51.71500 31.10300
C  15.75800 52.17000 31.01600
C  15.62500 52.31700 29.49600
C  14.68600 51.07900 31.47300
C  18.27200 52.80100 31.69900
C  18.65300 52.62000 33.24800
H  17.69800 51.77500 34.13200
N  15.05000 52.81900 26.45100
C  14.28900 53.23200 27.56400
C  13.11900 53.99600 26.99700
C  13.14600 53.90300 25.56600
C  14.40600 53.18100 25.29000
C  12.10000 54.61000 27.96400
C  12.09600 54.23600 24.54200
O  12.19200 53.91400 23.37000
C  10.89000 54.97300 25.01000
N  16.97000 51.67000 24.38400
C  16.11100 52.32300 23.58400
C  16.48000 52.10600 22.12100
C  17.94900 51.62500 22.24900
C  18.07700 51.36100 23.69700
C  15.63700 50.98300 21.43700
C  18.97500 52.64100 21.72500
C  20.25600 52.06300 21.13400
N  18.54800 50.87500 26.64300
C  19.38200 50.38900 25.64300
C  20.56100 49.82400 26.24400
C  20.25300 49.88500 27.61200
C  19.07700 50.57100 27.78200
C  21.79200 49.35900 25.56800
C  20.89800 49.51700 28.86100
O  21.98700 49.00900 29.09400
C  19.74800 50.05400 29.89200
C  19.20200 48.96900 30.77900
O  18.17100 48.31600 30.53400
O  19.90600 48.95400 32.01400
C  19.36100 48.02900 33.01700
H  13.76000 53.23300 29.65400
H  14.31000 53.26500 23.29300
H  19.95800 50.32100 23.55400
H  17.51800 50.83600 31.70500
H  15.46700 53.13600 31.42800
H  14.07300 51.48900 32.27600
H  15.12500 50.18300 31.91100
H  13.98500 50.90600 30.65700
H  17.83200 53.79400 31.60900
H  19.11800 52.95400 31.02900
H  18.50200 53.63600 33.61200
H  19.71100 52.37900 33.35000
H  11.73500 55.62000 27.77400
H  12.62900 54.70600 28.91200
H  11.25200 53.94800 28.14200
H  11.12700 55.89000 25.54900
H  10.36800 54.32400 25.71400
H  10.20800 55.18900 24.18700
H  16.43100 53.08700 21.64800
H  18.05600 50.62700 21.82500
H  15.18700 50.42500 22.25800
H  16.14900 50.31400 20.74600
H  14.83500 51.41300 20.83800
H  19.29400 53.27600 22.55200
H  18.35600 53.22800 21.04700
H  21.12400 52.32300 21.74000
H  20.39700 52.47500 20.13500
H  20.17500 50.97600 21.15200
H  22.05800 50.17500 24.89600
H  21.42400 48.64000 24.83600
H  22.63800 49.13500 26.21800
H  20.30200 50.72800 30.54600
H  18.30900 47.90000 32.76100
H  19.36000 48.32600 34.06600
H  19.84600 47.05900 32.90700

