158

Mg 42.30600 41.69100 27.39600
C  41.51500 44.07300 29.87400
C  43.29400 39.55000 29.93600
C  42.92100 39.39100 25.13800
C  41.52900 43.98300 24.98800
N  42.47400 41.82900 29.64200
C  41.97000 42.86100 30.43800
C  42.03500 42.47600 31.93900
C  42.76200 41.05400 31.89700
C  42.93800 40.82500 30.41700
C  44.07200 40.95000 32.73600
C  40.56400 42.51000 32.55700
C  40.34100 43.03500 34.00200
H  39.59000 42.15600 35.01600
N  43.07800 39.70200 27.52500
C  43.41500 38.99600 28.66400
C  43.74800 37.70600 28.28200
C  43.58900 37.65400 26.82900
C  43.13300 39.01200 26.40700
C  44.25600 36.75400 29.34000
C  43.88100 36.47800 25.94300
O  43.70600 36.53500 24.70100
C  44.29200 35.11500 26.62100
N  42.45200 41.75000 25.34500
C  42.75800 40.62400 24.58200
C  42.76500 40.97200 23.09000
C  42.08200 42.38000 23.05500
C  42.05300 42.74400 24.61300
C  44.17000 40.95600 22.43600
C  40.74800 42.37700 22.23600
C  39.54500 41.83500 23.00000
N  41.82700 43.75900 27.34500
C  41.45700 44.52500 26.27900
C  40.92000 45.78200 26.79700
C  40.92500 45.63000 28.21700
C  41.47800 44.41100 28.54400
C  40.46700 46.93800 25.94400
C  40.56500 46.28600 29.46600
O  39.96200 47.35300 29.63900
C  40.80500 45.22400 30.59200
C  41.72600 45.86300 31.59100
O  42.94200 46.09800 31.40200
O  41.06600 46.13400 32.71700
C  41.85600 46.65900 33.85700
H  43.34300 38.86600 30.78700
H  43.02800 38.69100 24.30600
H  41.35300 44.58300 24.09200
H  42.63700 43.19300 32.49800
H  42.07200 40.31600 32.30800
H  44.85900 40.59200 32.07100
H  43.89400 40.29500 33.58900
H  44.34100 41.93300 33.12300
H  40.21900 41.47800 32.62600
H  39.88200 42.98200 31.85000
H  39.78400 43.97100 34.02800
H  41.27000 43.30800 34.50100
H  43.94700 37.01200 30.35300
H  45.33900 36.71100 29.45900
H  43.81100 35.75900 29.34100
H  43.50800 34.89200 27.34500
H  45.29300 35.30900 27.00400
H  44.41800 34.33200 25.87300
H  42.10000 40.36900 22.47200
H  42.73400 42.96700 22.40800
H  44.11800 41.39400 21.44000
H  44.53700 39.94000 22.28700
H  44.83400 41.58800 23.02600
H  40.98100 41.84200 21.31500
H  40.64900 43.38900 21.84400
H  38.70200 42.52000 22.90500
H  39.54500 41.75200 24.08700
H  39.35900 40.91000 22.45500
H  39.63700 47.48600 26.39100
H  40.06900 46.62300 24.98000
H  41.23700 47.70900 25.89600
H  39.85900 44.97900 31.07500
H  42.35600 45.84200 34.37700
H  41.23800 47.24900 34.53500
H  42.56700 47.42600 33.55200
Mg 27.04200 51.64300 26.03200
C  24.70400 52.76100 28.68000
C  29.14900 50.65800 28.52800
C  29.03500 50.85300 23.67300
C  24.58600 53.00600 23.74500
N  26.91400 51.76700 28.39900
C  25.82500 52.02300 29.19000
C  26.14200 51.56300 30.59900
C  27.70000 51.30000 30.56000
C  27.94600 51.21600 29.05900
C  28.63300 52.32500 31.13200
C  25.23400 50.31600 31.11100
C  24.67400 50.48000 32.49300
H  25.24900 51.38200 33.59600
N  28.86000 50.84200 26.10500
C  29.59500 50.51900 27.21200
C  30.91500 49.90900 26.75700
C  30.87400 49.93300 25.30000
C  29.59400 50.57100 24.94700
C  31.94700 49.38100 27.74300
C  31.91700 49.55500 24.26800
O  31.69200 49.70900 23.06900
C  33.18400 48.92900 24.75800
N  26.79300 51.83100 24.01800
C  27.80300 51.34700 23.24300
C  27.46200 51.48000 21.79000
C  25.98300 52.09000 21.82600
C  25.78400 52.35000 23.29400
C  28.48200 52.44200 21.10200
C  24.81000 51.28200 21.22100
C  24.37400 50.07800 22.02500
N  25.11000 52.72800 26.09000
C  24.28600 53.13600 25.07900
C  23.07700 53.75600 25.69700
C  23.25300 53.67200 27.07600
C  24.46600 52.97600 27.27700
C  21.96000 54.39500 24.88200
C  22.73500 54.00700 28.38500
O  21.77400 54.69900 28.74500
C  23.56300 53.21900 29.48300
C  23.89500 54.23700 30.53200
O  24.82400 55.04400 30.60100
O  22.92500 54.27400 31.45500
C  23.24400 55.06500 32.65300
H  29.86700 50.23100 29.23200
H  29.59800 50.58500 22.77700
H  23.84800 53.38400 23.03400
H  25.97800 52.44800 31.21400
H  27.90300 50.32100 30.99500
H  29.06000 52.81400 30.25700
H  29.46700 51.94300 31.72200
H  28.10500 53.00800 31.79800
H  25.86100 49.44200 30.93200
H  24.42300 50.23300 30.38700
H  24.50600 49.51700 32.97400
H  23.73800 51.00500 32.29700
H  32.50000 50.24100 28.11900
H  32.60600 48.56900 27.43400
H  31.50400 48.91800 28.62500
H  33.68200 48.52400 23.87800
H  33.04000 48.12200 25.47600
H  33.84600 49.68000 25.18900
H  27.44500 50.47200 21.37500
H  26.08300 53.09000 21.40600
H  29.17100 52.80900 21.86300
H  27.98100 53.30800 20.66900
H  29.03400 51.86400 20.36100
H  25.11700 50.98400 20.21900
H  23.93600 51.92500 21.11500
H  25.02800 49.25400 21.74000
H  23.32400 49.95700 21.76000
H  24.40800 50.10400 23.11500
H  22.20700 54.64100 23.84900
H  21.62000 55.36600 25.24400
H  21.11200 53.72100 24.75700
H  22.97300 52.40500 29.90400
H  22.42400 54.96100 33.36300
H  23.34200 56.09800 32.31900
H  24.12500 54.70800 33.18600

