158

Mg 39.84600 9.27000 29.09400
C  41.96700 10.36200 31.70600
C  37.62800 8.18700 31.43100
C  38.03700 7.90600 26.58500
C  42.26000 10.14000 26.82400
N  39.78800 9.33600 31.23400
C  40.74400 9.81300 32.13300
C  40.30200 9.76600 33.57200
C  39.04100 8.93100 33.50300
C  38.72000 8.88500 31.94800
C  39.13500 7.63700 34.31500
C  39.97300 11.21300 34.15000
C  39.07400 11.31200 35.45600
H  39.41100 12.40300 36.47900
N  37.94900 8.41000 28.96700
C  37.23900 7.95200 30.05100
C  36.03100 7.24700 29.62400
C  36.19400 7.12700 28.19000
C  37.39400 7.86800 27.84300
C  34.98900 6.65200 30.56700
C  35.30300 6.30600 27.21700
O  35.61300 6.06000 26.05500
C  34.07200 5.65000 27.71000
N  40.10900 9.03800 26.99900
C  39.25200 8.40500 26.19000
C  39.55200 8.70900 24.72100
C  40.82500 9.55000 24.81800
C  41.11100 9.54000 26.26600
C  39.53000 7.44700 23.84400
C  40.67300 11.04500 24.31500
C  40.02200 12.23600 25.17500
N  41.75900 9.99600 29.21100
C  42.66300 10.38100 28.20400
C  43.81700 10.96800 28.75400
C  43.62700 10.87300 30.11700
C  42.37300 10.33300 30.38200
C  44.94300 11.53200 28.00900
C  44.20900 11.23000 31.31200
O  45.36200 11.55400 31.54400
C  43.20300 10.80100 32.46300
C  43.91100 9.84600 33.29000
O  44.43000 8.79500 32.90100
O  43.87500 10.18200 34.63800
C  44.30100 9.27400 35.67600
H  37.00300 7.82100 32.24800
H  37.43300 7.66700 25.70700
H  42.92100 10.60100 26.08700
H  41.12600 9.32100 34.13000
H  38.25100 9.51500 33.97600
H  38.31300 7.70000 35.02800
H  40.00600 7.64200 34.97000
H  39.08300 6.72100 33.72700
H  39.51300 11.83700 33.38400
H  40.93600 11.70700 34.27900
H  39.14900 10.35700 35.97600
H  38.03600 11.38500 35.13300
H  34.00700 7.05000 30.31100
H  35.07300 6.93100 31.61800
H  34.78500 5.59400 30.40500
H  34.42500 4.89800 28.41500
H  33.50800 5.09800 26.95900
H  33.34300 6.30500 28.18800
H  38.75600 9.40200 24.44900
H  41.68400 9.11700 24.30500
H  40.43800 7.10900 23.34500
H  38.82700 7.60500 23.02600
H  39.18400 6.54100 24.34000
H  40.20500 11.10500 23.33200
H  41.68200 11.36300 24.05300
H  39.73200 12.05600 26.21000
H  39.12200 12.56200 24.65200
H  40.67400 13.10400 25.26600
H  44.69700 11.87800 27.00600
H  45.70900 10.75700 28.01900
H  45.27700 12.42900 28.53100
H  43.09600 11.67100 33.11100
H  43.79100 8.34000 35.44100
H  43.89800 9.56800 36.64600
H  45.36300 9.05200 35.77300
Mg -11.47300 16.00900 41.95200
C  -7.90400 16.13500 41.79800
C  -11.29500 19.43800 41.30600
C  -14.60900 15.78200 41.16800
C  -11.19100 12.42500 42.14200
N  -9.73700 17.60900 41.58300
C  -8.42400 17.40800 41.61200
C  -7.65100 18.69800 41.52300
C  -8.73700 19.75400 41.74300
C  -10.01600 18.92500 41.62900
C  -8.78000 20.45300 43.19000
C  -6.98600 18.95100 40.08600
C  -5.45400 19.07200 40.04400
H  -4.76700 18.45800 38.77000
N  -12.75100 17.41400 41.26700
C  -12.53400 18.75800 41.14000
C  -13.78400 19.42600 40.71100
C  -14.75900 18.38900 40.70900
C  -14.08000 17.12500 41.06700
C  -13.88800 20.90100 40.31100
C  -16.29300 18.59200 40.58400
O  -16.72800 19.71600 40.28600
C  -17.24300 17.54500 40.88400
N  -12.64500 14.30000 41.53500
C  -13.99000 14.55900 41.38200
C  -14.72700 13.22800 41.38500
C  -13.65300 12.13800 41.46300
C  -12.39100 12.95800 41.67600
C  -15.79200 13.18600 42.51200
C  -13.47800 11.15100 40.24900
C  -13.11700 9.62000 40.41800
N  -9.94400 14.54100 42.09100
C  -10.02700 13.17600 42.25800
C  -8.67100 12.71900 42.54900
C  -7.85400 13.84800 42.38700
C  -8.64100 14.90700 42.04100
C  -8.18700 11.32700 42.88700
C  -6.52300 14.31700 42.43400
O  -5.57900 13.61400 42.66100
C  -6.43600 15.84900 42.12200
C  -5.96300 16.41400 43.46200
O  -6.70900 16.70600 44.41200
O  -4.68300 16.96300 43.34500
C  -4.38400 18.04600 44.36200
H  -11.23000 20.52400 41.21800
H  -15.66800 15.54700 41.04400
H  -11.18200 11.34100 42.26900
H  -6.87600 18.80300 42.28200
H  -8.86700 20.48200 40.94200
H  -9.74200 20.28900 43.67400
H  -8.53800 21.50200 43.01800
H  -7.94600 19.93400 43.66300
H  -7.45200 19.78400 39.56000
H  -7.15200 18.07800 39.45500
H  -4.91400 18.68600 40.90900
H  -5.25900 20.14100 40.12500
H  -14.53800 21.05300 39.44900
H  -13.01700 21.50700 40.06100
H  -14.43600 21.35100 41.13800
H  -18.26500 17.92200 40.87200
H  -16.87200 17.06300 41.78800
H  -17.30000 16.81700 40.07500
H  -15.28900 13.04000 40.47000
H  -13.73500 11.54100 42.37100
H  -15.70100 12.29800 43.13600
H  -16.82900 13.25600 42.18200
H  -15.58200 14.08000 43.09900
H  -12.70200 11.62900 39.65100
H  -14.42500 11.22500 39.71600
H  -12.56100 9.38700 41.32700
H  -12.48200 9.41500 39.55600
H  -13.94700 8.91700 40.35500
H  -8.99900 10.63000 43.09800
H  -7.49400 11.47700 43.71500
H  -7.61900 10.84800 42.09000
H  -5.77200 16.15800 41.31500
H  -3.71200 18.82200 43.99500
H  -3.86300 17.52000 45.16200
H  -5.28300 18.56900 44.68600

