158

Mg 9.62300 47.52700 26.49100
C  7.88100 47.54500 29.37300
C  12.33900 48.85300 28.14000
C  11.29000 47.37700 23.58100
C  6.62600 46.78200 24.78200
N  10.07800 48.10300 28.55200
C  9.19600 48.04900 29.53400
C  9.88000 48.33900 30.88500
C  11.02900 49.29800 30.42900
C  11.15900 48.78900 28.95500
C  10.70200 50.78900 30.36200
C  10.41900 47.13700 31.64300
C  10.54000 47.31300 33.13100
H  10.24500 46.22900 34.18000
N  11.55000 48.20700 25.90900
C  12.54800 48.57600 26.75900
C  13.73700 48.72000 25.92100
C  13.43900 48.16200 24.59900
C  12.04800 47.87100 24.65400
C  15.01400 49.33300 26.53300
C  14.42800 47.98400 23.44500
O  14.09300 47.55700 22.36000
C  15.98600 48.29500 23.60100
N  8.98600 47.29700 24.34600
C  9.89700 47.20400 23.38800
C  9.18400 46.79500 22.09900
C  7.78100 46.51400 22.51700
C  7.75000 46.90000 23.93400
C  9.41500 47.88100 21.01600
C  7.33000 45.00000 22.19000
C  7.90600 43.93800 23.15500
N  7.72400 47.03000 26.92200
C  6.54000 46.81100 26.19800
C  5.42200 46.70700 27.05600
C  5.88900 46.97000 28.28300
C  7.24900 47.15500 28.16300
C  3.93700 46.60900 26.74700
C  5.48200 47.14500 29.65100
O  4.31100 47.06100 30.05400
C  6.80400 47.40000 30.46400
C  6.93100 46.04000 31.21400
O  7.49900 45.07000 30.77900
O  6.30700 46.15300 32.37900
C  6.26500 44.94500 33.22200
H  13.17200 49.22700 28.73900
H  11.83500 47.07700 22.68400
H  5.68900 46.55500 24.27000
H  9.28200 48.97900 31.53400
H  11.94300 49.13300 30.99900
H  11.10700 51.30800 31.23000
H  9.64500 50.92800 30.59000
H  10.91500 51.29000 29.41700
H  11.36000 46.76400 31.23900
H  9.74500 46.28600 31.55600
H  9.81300 48.06900 33.43000
H  11.60300 47.52500 33.24600
H  14.73900 50.26900 27.01900
H  15.93200 49.44400 25.95600
H  15.43700 48.72400 27.33100
H  16.34000 47.78100 24.49500
H  16.07100 49.38200 23.59600
H  16.57100 47.90500 22.76900
H  9.58400 45.83000 21.78700
H  7.03100 47.12700 22.01800
H  9.68600 47.37000 20.09200
H  10.22600 48.51200 21.38000
H  8.57000 48.55200 20.86400
H  7.75500 44.71400 21.22800
H  6.24700 44.93000 22.08700
H  7.05100 43.52100 23.68600
H  8.56100 44.31600 23.94000
H  8.51100 43.18700 22.64600
H  3.59300 47.63000 26.91400
H  3.52600 45.95800 27.51900
H  3.68100 46.28900 25.73700
H  6.71000 48.32000 31.04200
H  6.59300 45.34300 34.18300
H  7.06400 44.23800 33.00000
H  5.26200 44.55000 33.37900
Mg -2.36200 34.53600 26.60600
C  -4.21300 32.78600 29.20000
C  -1.20700 36.51400 29.03500
C  -0.84500 36.16000 24.17900
C  -4.04500 32.47300 24.30200
N  -2.79800 34.76600 28.95300
C  -3.42200 33.83300 29.75800
C  -3.21900 34.22000 31.20100
C  -2.39700 35.53400 31.08100
C  -2.06100 35.64200 29.57500
C  -3.13100 36.79200 31.61600
C  -2.54700 33.09600 32.03300
C  -3.34200 32.36200 33.15000
H  -3.39300 33.23500 34.39800
N  -1.20700 36.13900 26.56800
C  -0.74300 36.80000 27.70500
C  0.20300 37.82600 27.32700
C  0.33500 37.72500 25.94300
C  -0.62000 36.64800 25.48000
C  0.91100 38.68900 28.35400
C  1.28000 38.46100 25.01400
O  1.26300 38.34400 23.80600
C  2.34500 39.32900 25.57500
N  -2.73000 34.46700 24.51600
C  -1.72600 35.15400 23.78400
C  -1.68400 34.60800 22.35100
C  -2.61900 33.38700 22.36000
C  -3.19700 33.38300 23.77900
C  -1.98500 35.64500 21.28700
C  -1.87300 32.05900 22.06300
C  -2.69500 30.81000 21.61400
N  -4.03400 33.13500 26.69900
C  -4.54700 32.34200 25.63100
C  -5.42900 31.32900 26.17500
C  -5.32900 31.43900 27.56200
C  -4.45900 32.58800 27.83000
C  -6.18500 30.17800 25.44800
C  -5.72300 30.88600 28.80800
O  -6.59100 30.02000 28.99700
C  -5.06700 31.77900 29.91600
C  -6.25700 32.36700 30.59900
O  -6.73600 33.43800 30.29400
O  -6.63400 31.70300 31.68500
C  -7.59800 32.20600 32.61800
H  -0.80800 37.18600 29.79800
H  -0.14700 36.44000 23.38700
H  -4.41200 31.76900 23.55200
H  -4.23100 34.37200 31.57700
H  -1.44000 35.53600 31.60200
H  -4.08800 36.49100 32.04300
H  -3.32500 37.46700 30.78200
H  -2.54700 37.34200 32.35500
H  -1.64800 33.53800 32.46300
H  -2.12800 32.40800 31.29900
H  -2.75100 31.47500 33.38200
H  -4.31900 32.04400 32.78500
H  1.99200 38.68500 28.21000
H  0.65100 38.51600 29.39800
H  0.56900 39.69700 28.11900
H  3.00100 39.62400 24.75600
H  3.02700 38.70700 26.15500
H  1.94200 40.11400 26.21500
H  -0.64000 34.32600 22.21400
H  -3.39300 33.60800 21.62400
H  -1.15700 35.72800 20.58400
H  -2.08100 36.60200 21.79900
H  -2.97500 35.45600 20.87100
H  -1.39900 31.69400 22.97400
H  -1.01600 32.14800 21.39500
H  -2.38700 30.50800 20.61300
H  -3.74700 31.09500 21.59000
H  -2.56200 30.04400 22.37800
H  -5.91100 29.23600 25.92200
H  -5.91300 30.24300 24.39400
H  -7.25600 30.36300 25.53800
H  -4.49500 31.20400 30.64500
H  -7.03200 32.85000 33.29100
H  -8.12000 31.42100 33.16500
H  -8.32400 32.78900 32.05200

