158

Mg 41.30000 40.42400 26.72100
C  40.11400 42.78100 29.12200
C  41.83600 38.24200 29.37600
C  42.21000 38.04100 24.45900
C  40.86000 42.69600 24.36500
N  41.20800 40.60000 28.92800
C  40.58700 41.57600 29.63800
C  40.44200 41.17200 31.09800
C  41.06100 39.72900 31.19000
C  41.37200 39.49100 29.73000
C  42.12800 39.45500 32.28600
C  39.03900 41.24700 31.78900
C  39.05500 42.10500 33.09200
H  38.32800 41.57600 34.33700
N  41.98300 38.47500 26.88300
C  42.17900 37.78500 28.06700
C  42.83200 36.52000 27.72700
C  42.71500 36.36300 26.31600
C  42.30800 37.66700 25.80500
C  43.41000 35.59000 28.76300
C  42.91900 35.12900 25.41800
O  42.72200 35.10000 24.18100
C  43.50700 33.76700 25.91800
N  41.44100 40.35200 24.65800
C  41.84200 39.28600 23.94500
C  42.07700 39.57900 22.45400
C  41.71100 41.07700 22.41800
C  41.23200 41.44700 23.90700
C  43.46500 39.28900 21.90200
C  40.59200 41.47900 21.42500
C  39.29700 40.60400 21.43800
N  40.72200 42.38000 26.69500
C  40.53000 43.16000 25.59000
C  39.93000 44.46600 26.02700
C  39.72100 44.30700 27.42600
C  40.29300 43.08600 27.79100
C  39.38700 45.53400 25.07400
C  39.16600 44.97500 28.56000
O  38.66200 46.04000 28.57200
C  39.61300 44.03800 29.78100
C  40.54500 44.70800 30.65300
O  41.75100 44.72400 30.45000
O  39.90000 45.35400 31.73000
C  40.93200 45.80000 32.76600
H  42.16500 37.51200 30.11900
H  42.62700 37.36100 23.71400
H  40.69700 43.45200 23.59400
H  41.16000 41.82700 31.59000
H  40.31200 38.99700 31.49200
H  42.97400 38.95300 31.81500
H  41.72700 38.70000 32.96200
H  42.41300 40.38700 32.77400
H  38.68900 40.23600 31.99900
H  38.33600 41.62600 31.04700
H  38.36900 42.90900 32.82700
H  40.00900 42.58800 33.29900
H  42.56900 35.22800 29.35400
H  44.14100 36.09200 29.39600
H  44.03200 34.75000 28.45400
H  44.58500 33.82800 26.06900
H  43.33800 33.05800 25.10700
H  43.05800 33.44600 26.85800
H  41.39000 38.97600 21.86000
H  42.57800 41.73500 22.36300
H  43.86400 40.18600 21.42800
H  43.35900 38.50400 21.15300
H  44.19900 38.89700 22.60600
H  40.96900 41.35600 20.41000
H  40.34400 42.53300 21.55200
H  38.51800 41.26300 21.82300
H  39.45800 39.73300 22.07300
H  39.07900 40.37300 20.39500
H  38.70700 46.19600 25.60900
H  38.75800 45.08500 24.30500
H  40.19600 46.05700 24.56300
H  38.75100 43.82800 30.41500
H  41.97300 45.63100 32.49300
H  40.74400 45.14700 33.61800
H  40.70100 46.84100 32.99400
Mg 29.61100 57.36100 40.97400
C  26.74000 55.42800 39.95000
C  31.51200 54.84100 39.61500
C  32.02200 59.59300 40.80000
C  27.24100 59.94900 41.68300
N  29.14700 55.34700 39.86200
C  27.92000 54.77100 39.60100
C  28.02400 53.54100 38.62200
C  29.57600 53.19300 38.89100
C  30.11600 54.51300 39.44600
C  29.92500 52.10700 39.97000
C  27.88400 53.97300 37.15800
C  26.76700 53.25300 36.34900
H  25.96400 54.14800 35.48000
N  31.54400 57.24300 40.39700
C  32.15500 56.07100 39.95300
C  33.52900 56.39700 39.74500
C  33.77800 57.75600 40.17400
C  32.38900 58.28300 40.47700
C  34.54400 55.28600 39.26500
C  35.14500 58.45900 40.29300
O  36.14600 57.90900 39.87300
C  35.27600 59.73100 40.92300
N  29.63400 59.56100 41.05000
C  30.76600 60.19900 41.04200
C  30.59600 61.68400 41.40400
C  29.02900 61.77900 41.63600
C  28.55200 60.38400 41.46600
C  31.53700 62.26000 42.49600
C  28.23900 62.69900 40.65200
C  27.42800 63.90000 41.22700
N  27.44700 57.62100 41.09800
C  26.69300 58.70700 41.39100
C  25.28400 58.36400 41.17600
C  25.22200 57.06900 40.65300
C  26.59200 56.70500 40.52100
C  24.13100 59.29400 41.26100
C  24.42300 55.98000 40.15900
O  23.23200 55.79100 40.11800
C  25.33300 54.91500 39.59300
C  25.04000 53.67900 40.26000
O  25.19900 53.32600 41.45400
O  24.48400 52.89200 39.37700
C  23.66000 51.69000 39.82600
H  32.13000 53.98400 39.34000
H  32.82900 60.31200 40.64200
H  26.60600 60.77200 42.01700
H  27.35800 52.77900 39.02800
H  30.25300 52.85100 38.10900
H  30.47600 52.61000 40.76400
H  30.49600 51.22100 39.69300
H  28.98600 51.77600 40.41300
H  28.87600 53.83100 36.73000
H  27.60000 55.02300 37.22700
H  26.05500 52.72100 36.97900
H  27.28400 52.52600 35.72200
H  34.36000 54.87200 38.27300
H  34.52300 54.41100 39.91500
H  35.56100 55.65800 39.38200
H  35.20000 60.62500 40.30400
H  36.26800 59.75800 41.37300
H  34.66600 59.86200 41.81700
H  30.77300 62.31800 40.53500
H  28.85600 62.10500 42.66100
H  31.09000 63.06300 43.08100
H  32.54600 62.47600 42.14300
H  31.72900 61.46600 43.21800
H  27.52200 62.11800 40.07200
H  28.86600 63.16900 39.89500
H  27.25800 63.60000 42.26100
H  26.41400 63.93900 40.82800
H  27.88400 64.88300 41.11200
H  24.29300 59.70100 40.26200
H  24.03400 60.01500 42.07100
H  23.21300 58.71300 41.17500
H  25.31500 54.80700 38.50800
H  22.68400 51.99700 39.45100
H  23.53000 51.47500 40.88700
H  23.94600 50.77700 39.30400

