158

Mg 46.97100 25.08400 29.41700
C  48.02800 27.48900 31.86800
C  45.61500 23.35300 32.19300
C  46.46200 22.49900 27.33700
C  48.54000 26.90700 26.99100
N  46.78800 25.49500 31.82800
C  47.24200 26.52300 32.51500
C  46.84700 26.39600 34.06200
C  46.17000 24.93300 34.06900
C  46.21400 24.55500 32.60600
C  46.82100 23.88700 35.05000
C  45.95500 27.59800 34.57700
C  46.42900 28.27900 35.90800
H  46.76300 27.28200 37.01600
N  46.08200 23.19100 29.66100
C  45.56600 22.64200 30.90400
C  45.02000 21.33000 30.62100
C  45.28000 21.00800 29.17200
C  46.01300 22.24300 28.64700
C  44.39100 20.49900 31.62300
C  45.01600 19.75000 28.50100
O  45.44600 19.50300 27.35200
C  44.23000 18.63600 29.19700
N  47.37900 24.80300 27.41600
C  47.02700 23.58600 26.81200
C  47.44200 23.71600 25.25000
C  48.05200 25.15600 25.14100
C  48.06500 25.63800 26.60200
C  48.50400 22.57000 24.80300
C  47.15100 26.01300 24.17300
C  47.90000 27.07700 23.26400
N  48.03500 26.88000 29.38600
C  48.63600 27.46500 28.27900
C  49.25300 28.73200 28.77000
C  49.00500 28.74800 30.16900
C  48.33300 27.58700 30.46900
C  49.92000 29.72700 27.95400
C  49.27800 29.47500 31.39300
O  49.90800 30.52600 31.58200
C  48.65200 28.70100 32.54300
C  49.78000 28.36500 33.53200
O  50.44800 27.33200 33.79700
O  49.75800 29.38500 34.40800
C  50.42300 29.14900 35.70400
H  45.04700 22.95000 33.03300
H  46.28000 21.64600 26.68000
H  48.96700 27.55300 26.22100
H  47.82100 26.36800 34.54900
H  45.15300 25.07400 34.43500
H  46.03000 23.14200 35.13800
H  47.07200 24.40300 35.97600
H  47.66000 23.39400 34.55900
H  44.93300 27.31600 34.83000
H  45.92900 28.32200 33.76300
H  45.73900 28.98300 36.37400
H  47.41200 28.73000 35.77200
H  44.20500 21.03900 32.55100
H  45.10300 19.68100 31.74000
H  43.45200 20.00700 31.36500
H  43.29100 19.08300 29.52500
H  44.84600 18.18100 29.97100
H  44.13000 17.79000 28.51800
H  46.53800 23.62800 24.64800
H  49.09300 25.13300 24.81800
H  48.34200 22.08900 23.83800
H  48.44700 21.75900 25.53000
H  49.48800 22.99800 24.99400
H  46.37400 26.55600 24.71200
H  46.69900 25.27500 23.51000
H  47.61500 26.96000 22.21900
H  48.97600 26.94400 23.37300
H  47.58900 28.05000 23.64400
H  49.82600 30.69900 28.43800
H  49.48500 29.98300 26.98900
H  50.98500 29.57900 27.77700
H  47.95100 29.33700 33.08500
H  51.31000 28.51700 35.75100
H  49.69500 28.72100 36.39400
H  50.68000 30.10100 36.16800
Mg 9.35400 47.69600 26.23500
C  7.51800 47.75700 29.27100
C  11.88600 49.24900 28.01900
C  11.05000 48.00700 23.43400
C  6.50100 46.91500 24.59300
N  9.75100 48.18500 28.53900
C  8.86900 48.09400 29.52200
C  9.47500 48.47900 30.84000
C  10.78000 49.26700 30.41500
C  10.80800 48.95600 28.86900
C  10.78700 50.81600 30.74400
C  9.78200 47.29100 31.79100
C  9.29300 47.40500 33.26100
H  9.29300 46.01400 34.02600
N  11.22400 48.35300 25.77100
C  12.18900 48.82400 26.68200
C  13.49900 48.72300 26.06300
C  13.23200 48.28300 24.71800
C  11.79600 48.23900 24.56300
C  14.78700 49.10400 26.81100
C  14.20200 47.90700 23.68000
O  14.00500 47.61600 22.48600
C  15.70200 47.78300 24.16400
N  8.78000 47.78200 24.32500
C  9.70300 47.85200 23.35300
C  9.01100 47.68700 22.00500
C  7.47200 47.59300 22.38300
C  7.61700 47.29000 23.85400
C  9.27700 48.78000 20.89400
C  6.77500 46.46300 21.61200
C  7.05800 46.27300 20.10400
N  7.33000 47.30000 26.79500
C  6.29100 47.02300 26.00200
C  5.12900 46.99400 26.82300
C  5.55600 47.23900 28.11600
C  6.95700 47.37900 28.07800
C  3.69300 47.03300 26.43200
C  5.09800 47.32700 29.46900
O  3.96800 47.28400 29.97300
C  6.40900 47.54400 30.32700
C  6.58000 46.35800 31.11900
O  7.15500 45.31200 30.79800
O  5.97800 46.58000 32.33100
C  6.07900 45.51400 33.38200
H  12.67000 49.76700 28.57500
H  11.58900 48.09100 22.48800
H  5.63700 46.73400 23.95100
H  8.87700 49.21100 31.38300
H  11.72400 48.89100 30.80800
H  9.76200 51.15600 30.89400
H  11.24600 51.23600 29.84900
H  11.34100 51.03900 31.65500
H  10.86200 47.14300 31.77600
H  9.40700 46.35500 31.37800
H  8.29600 47.84400 33.31000
H  10.04200 47.94400 33.84200
H  15.47500 48.26400 26.91300
H  14.49800 49.44900 27.80400
H  15.26300 49.85100 26.17600
H  15.90700 47.25100 25.09300
H  16.12600 48.78700 24.14700
H  16.37900 47.29600 23.46100
H  9.24700 46.67300 21.68300
H  7.06200 48.58900 22.21900
H  8.39600 49.12300 20.35100
H  10.09900 48.39700 20.28900
H  9.79900 49.62100 21.35000
H  5.70600 46.67100 21.65800
H  6.85400 45.52500 22.16100
H  6.32000 45.61400 19.64700
H  8.09700 46.00300 19.91200
H  6.87400 47.20000 19.56100
H  3.61700 47.22700 25.36200
H  3.21400 47.71500 27.13500
H  3.29000 46.05700 26.70400
H  6.31500 48.45900 30.91200
H  6.33000 46.05700 34.29400
H  6.83300 44.79400 33.06200
H  5.10400 45.02800 33.41100

