158

Mg 1.15200 8.27600 25.54300
C  1.59800 10.04900 28.45100
C  0.94000 5.40500 27.41200
C  1.15400 6.66700 22.68600
C  1.65900 11.32000 23.81000
N  1.39800 7.78000 27.80500
C  1.39400 8.67700 28.77100
C  1.28900 8.03300 30.18600
C  1.41900 6.45800 29.76800
C  1.21900 6.52800 28.28200
C  2.62200 5.75600 30.30100
C  -0.07500 8.30000 30.88100
C  -0.20600 8.56400 32.44600
H  0.98800 8.08500 33.35000
N  0.98700 6.27400 25.09300
C  0.93200 5.25400 25.95700
C  0.88600 4.00300 25.24100
C  0.86200 4.32200 23.85400
C  0.95800 5.79600 23.79900
C  0.90000 2.64600 25.95100
C  0.89100 3.39100 22.71800
O  0.88500 3.83300 21.55600
C  0.97200 1.80800 22.93300
N  1.30400 8.87000 23.51500
C  1.39900 8.07400 22.51600
C  1.74200 8.72900 21.16300
C  1.34400 10.22300 21.55100
C  1.42500 10.14800 23.03900
C  3.18900 8.38400 20.85700
C  -0.10700 10.63200 21.07900
C  -0.30800 12.11100 20.87700
N  1.67900 10.27600 25.96200
C  1.71300 11.42700 25.19700
C  1.94400 12.56700 25.94400
C  1.88000 12.10500 27.29300
C  1.73000 10.72500 27.23300
C  2.05000 13.98200 25.44300
C  1.92400 12.50000 28.68500
O  2.04800 13.63600 29.20900
C  1.62500 11.16800 29.50100
C  2.66300 11.07400 30.59000
O  3.79700 10.63700 30.43900
O  2.11000 11.45200 31.85500
C  2.94200 11.61100 33.02100
H  0.81400 4.45000 27.92600
H  1.17200 6.16700 21.71600
H  1.57700 12.17100 23.13000
H  2.11700 8.31700 30.83500
H  0.58000 5.93000 30.22100
H  2.89100 5.13600 29.44600
H  2.61800 5.06700 31.14600
H  3.41200 6.49800 30.41900
H  -0.81400 7.51500 30.72700
H  -0.47400 9.17600 30.36900
H  -1.07000 8.06000 32.87800
H  -0.43500 9.62300 32.57100
H  1.14700 2.66800 27.01300
H  1.58400 1.99100 25.41200
H  -0.06900 2.14900 25.90900
H  0.92500 1.40700 21.92000
H  0.18400 1.44000 23.59000
H  1.98100 1.64400 23.31100
H  1.19100 8.49700 20.25100
H  2.17100 10.86400 21.24400
H  3.57900 7.54500 21.43400
H  3.88800 9.20000 21.03800
H  3.32600 8.18900 19.79400
H  -0.85800 10.30900 21.79900
H  -0.38500 10.18100 20.12600
H  -0.88900 12.35300 19.98600
H  0.60500 12.70600 20.86100
H  -0.82800 12.47900 21.76200
H  2.44700 14.25300 24.46500
H  2.78800 14.36500 26.14800
H  1.13000 14.55100 25.58200
H  0.68100 11.22900 30.04400
H  3.18300 12.64700 33.25800
H  3.84600 11.00300 32.99800
H  2.45300 11.35600 33.96100
Mg -6.91900 26.05400 25.30700
C  -5.24800 27.29100 28.10400
C  -8.31300 23.70400 27.49000
C  -8.06100 24.35500 22.48900
C  -5.05600 27.95800 23.21700
N  -6.82300 25.62100 27.50100
C  -6.15900 26.35900 28.41700
C  -6.58700 26.01500 29.83500
C  -7.41200 24.67800 29.62100
C  -7.55300 24.66700 28.14600
C  -6.79700 23.34500 30.24400
C  -7.37400 27.19300 30.57400
C  -7.07900 27.40500 32.02800
H  -6.63100 26.17400 32.86200
N  -8.18300 24.31900 25.03400
C  -8.59500 23.52200 26.05700
C  -9.27900 22.40800 25.44400
C  -9.33500 22.53400 23.99900
C  -8.53700 23.78500 23.78700
C  -9.79900 21.30900 26.24000
C  -10.03400 21.71600 22.90000
O  -10.04800 22.17300 21.77800
C  -10.69600 20.41200 23.27900
N  -6.82200 26.32400 23.13600
C  -7.30200 25.41800 22.20600
C  -6.81100 25.82600 20.74900
C  -6.00200 27.15200 21.03100
C  -5.96900 27.18700 22.58700
C  -6.15600 24.72000 19.90400
C  -6.63100 28.46600 20.44300
C  -5.96800 29.04400 19.18200
N  -5.54300 27.51600 25.54700
C  -4.77200 28.14300 24.61100
C  -3.83800 29.03700 25.29800
C  -3.99800 28.74700 26.73400
C  -5.01500 27.77000 26.79500
C  -2.96300 30.06500 24.69900
C  -3.62100 29.12900 28.06300
O  -2.78200 29.95000 28.44700
C  -4.27900 28.03500 28.99100
C  -3.26900 27.11900 29.60700
O  -3.05500 26.01400 29.22900
O  -2.57400 27.73600 30.64500
C  -1.48500 26.92000 31.18200
H  -8.75300 22.97300 28.17200
H  -8.34000 23.82000 21.57900
H  -4.41000 28.53900 22.55600
H  -5.67700 25.86900 30.41700
H  -8.42200 24.81900 30.00400
H  -6.02900 22.98800 29.55800
H  -7.51100 22.54500 30.43800
H  -6.37900 23.60200 31.21700
H  -8.45000 27.18200 30.40100
H  -7.11400 28.14900 30.12000
H  -7.98500 27.79900 32.48700
H  -6.31300 28.17900 32.07800
H  -10.86500 21.47100 26.39600
H  -9.32600 21.20600 27.21700
H  -9.62900 20.33900 25.77300
H  -9.94900 19.70500 23.64000
H  -11.24300 20.07200 22.40000
H  -11.49500 20.61300 23.99200
H  -7.71500 26.05200 20.18300
H  -5.06300 26.97900 20.50500
H  -5.91600 23.88200 20.55900
H  -5.21800 25.03900 19.45000
H  -6.82900 24.27500 19.17200
H  -6.67100 29.37000 21.05100
H  -7.63400 28.31900 20.04300
H  -6.71100 29.40900 18.47300
H  -5.23500 28.37000 18.73900
H  -5.43100 29.92800 19.52700
H  -3.35600 30.40700 23.74200
H  -2.04100 29.54700 24.43400
H  -2.67100 30.82300 25.42600
H  -4.75600 28.71400 29.69700
H  -0.64600 26.97800 30.49000
H  -1.81200 25.88000 31.16700
H  -1.18700 27.34200 32.14200

