158

Mg 41.70900 41.08400 27.17100
C  40.98300 43.36400 29.60300
C  43.15800 39.12700 29.72700
C  42.54500 38.65200 24.96200
C  41.26200 43.38300 24.80700
N  42.11800 41.28100 29.48200
C  41.50100 42.29400 30.20000
C  41.61300 42.02900 31.69300
C  42.51700 40.74000 31.71600
C  42.72000 40.39400 30.23800
C  43.89200 40.87700 32.40700
C  40.25500 41.90100 32.39800
C  39.99500 42.90800 33.48400
H  39.57500 42.53900 34.86500
N  42.53800 39.04200 27.32900
C  43.13700 38.51700 28.37800
C  43.45000 37.13500 28.10100
C  43.15400 36.91600 26.72600
C  42.69600 38.23200 26.30000
C  43.75300 36.09100 29.19300
C  43.29500 35.70800 25.83700
O  43.02500 35.73700 24.65200
C  43.92900 34.46600 26.30200
N  42.04400 41.02700 25.12200
C  42.32500 39.92500 24.41900
C  42.10700 40.28100 22.88200
C  41.67800 41.76900 22.89200
C  41.69200 42.09300 24.37000
C  43.29200 40.01700 21.91800
C  40.31500 42.04100 22.19000
C  40.13900 43.30100 21.41800
N  41.22800 43.01200 27.12400
C  41.07700 43.88600 26.12400
C  40.51700 45.16200 26.59100
C  40.38600 44.90900 28.00300
C  40.83800 43.66200 28.20500
C  40.13700 46.35100 25.76100
C  39.88300 45.48600 29.22800
O  39.36300 46.61100 29.43900
C  40.33500 44.53900 30.31100
C  41.30900 45.30100 31.23400
O  42.49500 45.56000 31.01600
O  40.67800 45.73400 32.33800
C  41.50000 46.51600 33.33800
H  43.34800 38.42100 30.53800
H  42.50500 37.91300 24.16000
H  40.94800 44.03500 23.98900
H  42.27200 42.81700 32.05800
H  42.00600 39.90600 32.19800
H  44.58500 41.07300 31.58900
H  44.17800 39.98700 32.96800
H  43.83900 41.72800 33.08600
H  40.17700 40.91900 32.86300
H  39.44900 41.97900 31.66800
H  39.26300 43.63600 33.13400
H  40.88100 43.54300 33.51900
H  43.02200 35.29600 29.04300
H  43.88500 36.46200 30.21000
H  44.76400 35.76400 28.95200
H  44.91700 34.70400 26.69700
H  43.85600 33.82300 25.42500
H  43.42200 33.89600 27.08000
H  41.23800 39.70700 22.56200
H  42.42600 42.37900 22.38300
H  44.24700 40.07900 22.44100
H  43.16100 40.61400 21.01600
H  43.15100 38.93900 21.83800
H  39.49500 42.08900 22.90600
H  40.05900 41.22700 21.51200
H  39.77400 44.08200 22.08500
H  39.47500 43.16900 20.56400
H  40.99400 43.78400 20.94600
H  40.25600 46.12900 24.70000
H  40.67700 47.27400 25.97500
H  39.11000 46.64900 25.97200
H  39.41400 44.38000 30.87200
H  42.12500 45.88200 33.96700
H  40.74100 46.98300 33.96400
H  42.08100 47.28300 32.82600
Mg 6.20200 53.75200 40.07900
C  5.83300 50.12500 40.20300
C  9.22200 53.20700 38.67200
C  6.15400 56.94000 39.61300
C  2.73200 53.82000 40.85700
N  7.21000 51.86400 39.31400
C  7.00400 50.52200 39.56100
C  8.22900 49.59000 39.14900
C  9.32300 50.69800 39.07700
C  8.52700 52.08300 39.03800
C  10.45600 50.72000 40.24500
C  7.93100 48.69400 37.88800
C  8.29000 49.22500 36.51600
H  7.26800 48.86500 35.41300
N  7.63200 54.95300 39.44000
C  8.80100 54.55400 38.86900
C  9.53800 55.74500 38.62200
C  8.61400 56.83700 38.67900
C  7.41100 56.26200 39.24700
C  10.97400 55.82500 38.23100
C  8.94500 58.28600 38.34200
O  10.07400 58.57400 37.85500
C  8.02900 59.45300 38.68400
N  4.66300 55.18000 40.15800
C  4.93400 56.49700 39.97000
C  3.66400 57.44900 39.92200
C  2.56700 56.42100 40.23500
C  3.35600 55.01000 40.41200
C  3.69100 58.66600 40.84800
C  1.45900 56.31300 39.10000
C  0.27100 57.34900 39.16200
N  4.48000 52.34900 40.49000
C  3.26400 52.53100 40.93000
C  2.70200 51.27200 41.34300
C  3.68700 50.32400 41.11100
C  4.72900 51.00500 40.55600
C  1.29400 50.95200 41.78500
C  3.94700 48.93900 41.21500
O  3.23200 48.02800 41.66900
C  5.39600 48.71900 40.70000
C  5.21600 47.72400 39.62100
O  4.60000 47.93800 38.61400
O  5.81100 46.55400 40.00300
C  5.33500 45.43300 39.17100
H  10.28600 53.10100 38.44900
H  6.10400 58.02600 39.51700
H  1.65700 54.00700 40.84500
H  8.39500 48.90700 39.98100
H  10.00000 50.63200 38.22600
H  11.34700 50.25100 39.82800
H  10.15100 50.26900 41.18900
H  10.70600 51.75500 40.48000
H  6.86500 48.46600 37.92000
H  8.35600 47.70700 38.06900
H  9.12600 48.62300 36.16200
H  8.39600 50.30100 36.65600
H  11.39700 54.83900 38.42500
H  11.53900 56.57900 38.77800
H  10.92900 55.97400 37.15200
H  8.49400 60.39400 38.39000
H  7.97400 59.28800 39.76100
H  7.05300 59.26200 38.23900
H  3.70600 57.74400 38.87400
H  2.04500 56.67100 41.15800
H  3.82400 59.54300 40.21400
H  4.50800 58.57000 41.56300
H  2.76200 58.75200 41.41200
H  0.94500 55.35200 39.09600
H  1.91700 56.39300 38.11400
H  0.42500 58.05200 39.98000
H  -0.65000 56.83600 39.44100
H  0.07700 57.90700 38.24600
H  0.65300 51.79200 41.51900
H  1.20700 50.95600 42.87100
H  0.86200 50.10100 41.25800
H  6.12600 48.25500 41.36300
H  5.21900 45.59400 38.10000
H  4.42200 45.00600 39.58600
H  6.08100 44.65800 39.34900

