158

Mg 16.68700 52.45400 26.39700
C  18.41300 50.90200 29.12400
C  14.11700 53.19400 28.63300
C  14.84600 53.52600 23.75900
C  18.79200 50.69000 24.17300
N  16.28700 51.95700 28.60500
C  17.19100 51.49900 29.53500
C  16.75900 51.74800 30.92800
C  15.23700 52.13800 30.71600
C  15.18900 52.51200 29.19300
C  14.17700 51.10500 31.29000
C  17.65700 52.83300 31.58300
C  18.01300 52.59400 33.10900
H  17.05500 51.68600 33.91000
N  14.77000 53.47600 26.27700
C  13.91800 53.61900 27.27300
C  12.74700 54.41200 26.75200
C  12.96700 54.57400 25.31100
C  14.19300 53.81100 25.07200
C  11.65300 54.87800 27.62100
C  12.09400 55.25000 24.25600
O  12.52000 55.31800 23.08700
C  10.84400 55.91900 24.69600
N  16.81200 52.17700 24.29600
C  16.04100 52.86000 23.40300
C  16.51800 52.63600 21.93700
C  17.91800 52.03200 22.15200
C  17.78000 51.45100 23.61100
C  15.60200 51.76300 21.11300
C  19.15900 52.95600 21.93400
C  20.15900 52.55600 20.80600
N  18.34500 51.13300 26.54000
C  19.10000 50.54100 25.54600
C  20.19300 49.79000 26.20000
C  19.96900 49.89400 27.54800
C  18.80100 50.68400 27.71800
C  21.31600 49.02500 25.53500
C  20.46400 49.58100 28.83400
O  21.41400 48.96000 29.25200
C  19.48900 50.21600 29.91700
C  18.92300 49.03500 30.66700
O  18.26700 48.18500 30.10000
O  19.10500 49.17400 31.99100
C  18.80000 48.04900 32.89400
H  13.33100 53.36000 29.37200
H  14.41900 54.00100 22.87300
H  19.48800 50.29300 23.43100
H  16.81200 50.76300 31.39100
H  15.05200 53.09800 31.19800
H  14.58000 50.18100 31.70400
H  13.56100 50.81100 30.43900
H  13.74600 51.64300 32.13400
H  17.12700 53.78000 31.48700
H  18.60100 52.85900 31.03900
H  17.94000 53.63400 33.42600
H  19.02900 52.22500 33.24400
H  10.65400 54.58200 27.30100
H  11.73200 55.96400 27.67700
H  11.69300 54.52000 28.65000
H  11.04700 56.62700 25.49900
H  10.09400 55.18400 24.98900
H  10.38600 56.43900 23.85400
H  16.59600 53.66900 21.59800
H  18.00500 51.15500 21.51100
H  16.16000 51.26000 20.32300
H  14.83600 52.39100 20.65700
H  14.97000 51.02200 21.60100
H  19.85000 52.80600 22.76300
H  18.97600 54.02700 21.85600
H  20.16700 53.38000 20.09200
H  19.74200 51.67700 20.31500
H  21.15700 52.46900 21.23500
H  21.89100 48.38100 26.20000
H  22.03800 49.75500 25.16800
H  20.95500 48.29300 24.81400
H  20.08400 50.86700 30.55800
H  19.60000 47.95500 33.63000
H  18.89800 47.06900 32.42700
H  17.80700 48.08600 33.34300
Mg 8.74900 48.78300 26.04600
C  7.08500 48.80700 29.09900
C  11.57700 49.87100 27.75900
C  10.51200 48.52200 23.17000
C  5.83900 48.09200 24.38000
N  9.20300 49.28900 28.17100
C  8.41900 49.14200 29.21900
C  9.12000 49.50600 30.43600
C  10.38200 50.29500 29.99700
C  10.41000 49.84400 28.53900
C  10.44700 51.85200 30.26100
C  9.41300 48.35200 31.42900
C  8.69600 48.41400 32.78100
H  8.77300 47.29300 33.74800
N  10.79200 49.30900 25.48100
C  11.78700 49.61800 26.37900
C  13.11100 49.61700 25.66900
C  12.85200 49.10600 24.35000
C  11.33900 48.89300 24.29600
C  14.39600 49.80900 26.47800
C  13.79900 48.69800 23.29500
O  13.48900 48.19900 22.23400
C  15.26800 48.79100 23.46100
N  8.22700 48.47700 24.04900
C  9.13600 48.36900 23.09000
C  8.46500 48.04600 21.75800
C  7.14200 47.48100 22.29200
C  7.02300 48.11000 23.66000
C  8.41900 49.10700 20.58500
C  7.00100 45.95800 22.17800
C  6.64100 45.15600 23.46500
N  6.81400 48.53000 26.58900
C  5.70200 48.24000 25.79500
C  4.50700 48.19400 26.64900
C  4.94900 48.38900 27.98000
C  6.37000 48.66100 27.91700
C  3.17900 47.83000 26.30000
C  4.61800 48.39700 29.38700
O  3.47800 48.24600 29.96200
C  5.99100 48.57100 30.18700
C  6.07600 47.25000 31.01300
O  6.89700 46.37500 30.88600
O  5.09400 47.32000 32.02900
C  5.00100 46.28100 33.01300
H  12.48600 50.08900 28.32300
H  10.96400 48.52600 22.17600
H  5.02500 47.62300 23.82300
H  8.53200 50.28200 30.92600
H  11.27200 49.81500 30.40200
H  10.07300 52.38800 29.38900
H  11.45600 52.20500 30.47800
H  9.75900 51.91800 31.10300
H  10.46700 48.26300 31.69300
H  9.19100 47.45900 30.84400
H  7.67800 48.77800 32.63900
H  9.27800 49.14000 33.34900
H  14.26300 50.66400 27.14100
H  15.23600 50.18900 25.89500
H  14.76200 48.91100 26.97600
H  15.60900 48.18000 24.29600
H  15.69700 49.78700 23.56600
H  15.76300 48.38100 22.58000
H  9.08400 47.22300 21.39900
H  6.29200 47.97000 21.81700
H  7.44000 49.53000 20.36100
H  8.89000 48.66600 19.70700
H  8.90100 50.05200 20.83600
H  7.85400 45.43100 21.75100
H  6.13000 45.80100 21.54300
H  6.90700 45.48900 24.46800
H  6.96600 44.11600 23.43500
H  5.56600 44.98200 23.43800
H  2.82100 46.93000 26.80100
H  3.30400 47.62600 25.23700
H  2.51800 48.67700 26.48200
H  6.04100 49.42500 30.86300
H  5.51400 46.70100 33.87800
H  5.53000 45.38700 32.68200
H  3.94200 46.08000 33.17800

