158

Mg 40.02900 9.47200 29.45900
C  41.91600 10.76800 32.00600
C  37.85300 8.12500 31.68600
C  38.30200 8.17200 26.86500
C  42.69500 10.37200 27.14200
N  40.05000 9.32300 31.66600
C  40.75000 10.14600 32.48200
C  40.17400 10.16100 33.92000
C  38.98600 9.16200 33.83400
C  38.94900 8.84100 32.30500
C  39.08500 7.83100 34.67000
C  39.92300 11.63600 34.46500
C  40.50400 11.91600 35.81000
H  39.56700 12.44100 36.89900
N  38.35400 8.31100 29.26500
C  37.54700 7.97300 30.32800
C  36.35000 7.30500 29.83300
C  36.40800 7.43000 28.43100
C  37.73200 8.03100 28.08900
C  35.23600 6.69000 30.76800
C  35.33500 7.01000 27.37100
O  35.51800 7.04500 26.15400
C  34.04300 6.51700 27.77500
N  40.45200 9.33800 27.30000
C  39.54100 8.82300 26.47100
C  39.98500 8.85000 24.96000
C  41.32300 9.58100 25.15000
C  41.52500 9.76600 26.62900
C  40.20100 7.34500 24.46200
C  41.54500 10.87800 24.27100
C  40.94500 12.13700 24.82700
N  41.92900 10.37700 29.50200
C  42.93200 10.61200 28.52100
C  44.09200 11.19300 29.19000
C  43.69200 11.26900 30.60000
C  42.39400 10.72200 30.69400
C  45.48000 11.44700 28.55900
C  44.16000 11.66800 31.88100
O  45.24200 12.10200 32.31800
C  43.01500 11.35400 32.84600
C  43.53100 10.47200 33.92900
O  43.40800 9.24500 34.00800
O  44.19000 11.21500 34.87000
C  44.71800 10.60400 36.06100
H  37.12000 7.97700 32.48200
H  37.79400 7.67200 26.03800
H  43.47600 10.60000 26.41300
H  40.95300 9.76800 34.57400
H  38.05900 9.68100 34.07700
H  38.23500 7.84800 35.35200
H  39.97600 7.72300 35.28900
H  39.12300 6.96900 34.00400
H  38.83800 11.70600 34.53200
H  40.22100 12.18000 33.56900
H  41.22800 12.72300 35.70200
H  41.10200 11.04900 36.09000
H  35.40100 7.00700 31.79800
H  35.28900 5.60800 30.64800
H  34.27200 7.03500 30.39600
H  33.51200 7.32600 28.27600
H  34.37200 5.65700 28.35800
H  33.62000 6.03900 26.89200
H  39.28900 9.35200 24.28700
H  42.17900 8.98900 24.82500
H  39.98800 6.68800 25.30600
H  41.25900 7.22200 24.23100
H  39.55300 7.06200 23.63200
H  41.14300 10.58200 23.30200
H  42.56500 11.15000 23.99900
H  40.10400 12.36600 24.17200
H  41.66200 12.95700 24.88000
H  40.53000 11.99300 25.82400
H  45.89900 10.62800 27.97300
H  46.26500 11.70800 29.26900
H  45.30800 12.27300 27.86900
H  42.66100 12.23400 33.38200
H  43.90300 10.01100 36.47500
H  44.86800 11.42100 36.76700
H  45.56900 10.05900 35.65000
Mg -2.07700 34.12600 27.08400
C  -3.69100 32.47800 29.73200
C  -0.25500 35.95500 29.31200
C  -0.69400 35.74700 24.44400
C  -3.84300 31.93100 24.80000
N  -2.04600 34.16900 29.27600
C  -2.79700 33.49400 30.19200
C  -2.25100 33.72000 31.66200
C  -1.34200 34.95400 31.50900
C  -1.16300 35.04000 29.91500
C  -1.73700 36.27900 32.20700
C  -1.53200 32.44000 32.16600
C  -0.92700 32.55800 33.62300
H  -1.61400 31.60400 34.64800
N  -0.68900 35.67000 26.90100
C  -0.00800 36.30700 27.90300
C  0.93900 37.31400 27.40600
C  0.82900 37.29200 26.01200
C  -0.25500 36.17200 25.72500
C  1.84600 38.11000 28.29700
C  1.59700 38.07000 24.95500
O  1.31800 37.96400 23.76300
C  2.64600 39.03600 25.36200
N  -2.52600 34.09400 24.87400
C  -1.62500 34.73200 24.02200
C  -1.70800 34.22200 22.58300
C  -2.51500 32.83700 22.78300
C  -3.03300 32.94900 24.21200
C  -2.33800 35.29900 21.60900
C  -1.69100 31.54200 22.56700
C  -0.27400 31.39300 23.13100
N  -3.60600 32.66200 27.19100
C  -4.19300 31.86400 26.18100
C  -4.98900 30.83900 26.82400
C  -4.81100 31.10600 28.19400
C  -3.96300 32.17200 28.39300
C  -5.90500 29.85500 26.17700
C  -5.20600 30.65000 29.49100
O  -5.92400 29.69300 29.80800
C  -4.50900 31.47900 30.53500
C  -5.59400 32.10300 31.32300
O  -6.29900 33.01900 30.94800
O  -5.83900 31.43600 32.49400
C  -7.03700 31.84700 33.22200
H  0.41000 36.42500 30.04000
H  -0.11400 36.30000 23.70200
H  -4.23800 31.05000 24.28900
H  -3.12100 33.91100 32.29100
H  -0.31700 34.74200 31.81400
H  -0.90700 36.82000 32.65900
H  -2.30300 35.90700 33.06100
H  -2.33900 37.00400 31.65900
H  -0.57600 32.36000 31.64800
H  -2.06100 31.51100 31.95300
H  -1.05400 33.56300 34.02500
H  0.15700 32.44100 33.61900
H  2.02000 39.10500 27.88800
H  2.81900 37.62000 28.27600
H  1.42700 38.16400 29.30200
H  2.12300 39.85200 25.85900
H  3.11500 39.41900 24.45600
H  3.42800 38.60200 25.98600
H  -0.72000 33.92300 22.23200
H  -3.30700 32.89700 22.03700
H  -1.56000 35.57800 20.89900
H  -2.73800 36.24000 21.98800
H  -3.17400 34.84400 21.07800
H  -1.59500 31.48400 21.48300
H  -2.28900 30.65000 22.75200
H  0.32700 31.37700 22.22200
H  -0.17400 30.36300 23.47600
H  0.00000 32.15400 23.86100
H  -6.89800 30.29400 26.27600
H  -5.78800 28.96100 26.79000
H  -5.75900 29.58200 25.13200
H  -3.95400 30.83600 31.21800
H  -6.67300 32.18700 34.19100
H  -7.78800 31.07400 33.38200
H  -7.64100 32.65400 32.80600

