158

Mg 44.13800 4.24900 47.76200
C  42.12300 7.10400 47.53900
C  41.23100 2.38800 48.04000
C  45.88500 1.44600 47.16000
C  46.95600 6.22900 47.20500
N  41.86600 4.69800 47.79400
C  41.34200 5.96400 47.64500
C  39.81200 5.91300 47.50200
C  39.52800 4.36300 47.77800
C  40.94900 3.75000 47.85100
C  38.65100 4.00300 48.97500
C  39.14800 6.44800 46.16900
C  39.84300 6.23900 44.77500
H  39.77800 7.42000 43.75800
N  43.66000 2.23300 47.51200
C  42.42900 1.62700 47.77800
C  42.50400 0.25300 47.47000
C  43.89200 -0.04400 47.21800
C  44.52600 1.21500 47.27000
C  41.24900 -0.70000 47.45900
C  44.46700 -1.31300 46.75800
O  43.71900 -2.27400 46.63000
C  45.94100 -1.62400 46.31100
N  46.13000 3.92000 47.23400
C  46.65000 2.62500 47.23200
C  48.16700 2.64200 47.14900
C  48.57800 4.13500 47.07000
C  47.18500 4.82000 47.21600
C  48.83900 2.00100 48.43600
C  49.18500 4.49900 45.68900
C  50.63300 4.97100 45.73000
N  44.49300 6.23100 47.57700
C  45.69900 6.96500 47.33400
C  45.45600 8.39500 47.17900
C  44.05300 8.45000 47.31200
C  43.51900 7.20900 47.54200
C  46.44900 9.47700 46.94900
C  42.93500 9.38000 47.32200
O  43.00500 10.60000 47.15400
C  41.61500 8.52900 47.49500
C  40.97700 8.94200 48.81600
O  40.96700 8.31500 49.85600
O  40.18500 10.11700 48.58600
C  39.25300 10.46600 49.67900
H  40.30300 1.84100 48.22100
H  46.58800 0.61200 47.20600
H  47.84400 6.83800 47.02200
H  39.43600 6.44600 48.37500
H  39.10100 3.96300 46.85800
H  39.09300 3.09300 49.38000
H  37.57100 3.88900 48.88000
H  38.73100 4.67500 49.82900
H  38.79300 7.44500 46.42800
H  38.22500 5.88200 46.04100
H  39.41000 5.38100 44.26000
H  40.89400 5.98300 44.90500
H  40.99000 -0.85300 46.41200
H  40.44100 -0.22100 48.01300
H  41.51100 -1.66300 47.89800
H  46.55200 -1.67300 47.21200
H  46.26800 -0.76000 45.73300
H  46.01300 -2.58200 45.79500
H  48.43800 2.04800 46.27700
H  49.20400 4.39000 47.92500
H  49.12100 0.95100 48.35200
H  48.12500 1.88000 49.25000
H  49.71600 2.46500 48.88800
H  48.65300 5.37200 45.31200
H  49.03200 3.70400 44.95800
H  50.81100 5.42600 44.75500
H  51.34200 4.15300 45.85900
H  50.78500 5.69600 46.52900
H  46.67700 9.98200 47.88700
H  46.08700 10.20800 46.22500
H  47.45900 9.11900 46.74800
H  40.92300 8.64800 46.66200
H  39.62900 11.24300 50.34500
H  39.09200 9.58500 50.30100
H  38.34900 10.86000 49.21500
Mg 47.38000 25.41700 29.02200
C  47.91000 28.00900 31.35200
C  46.00800 23.58000 31.51100
C  47.01600 23.10100 26.77700
C  48.94500 27.51600 26.53300
N  47.01500 25.73700 31.20200
C  47.35000 26.88500 31.96500
C  46.83100 26.76800 33.38300
C  46.42500 25.28100 33.44700
C  46.47800 24.81400 31.96600
C  47.16900 24.38500 34.48500
C  45.72600 27.85400 33.81900
C  45.89900 28.33500 35.30400
H  46.73100 27.49400 36.31500
N  46.58100 23.61800 29.11600
C  46.10000 23.00100 30.26100
C  45.65900 21.66800 29.92000
C  45.95300 21.45300 28.49400
C  46.57800 22.70300 28.09700
C  44.96700 20.71800 30.91200
C  45.75500 20.27400 27.62200
O  46.24800 20.19200 26.50000
C  44.94600 19.13900 28.15800
N  47.77300 25.41100 26.85500
C  47.53100 24.24800 26.14900
C  48.02000 24.26700 24.64800
C  48.42400 25.85300 24.63800
C  48.40000 26.32400 26.04400
C  49.22600 23.30000 24.43500
C  47.60300 26.72100 23.62500
C  48.45600 27.40900 22.57500
N  48.23600 27.41400 28.82900
C  48.82600 28.13400 27.80300
C  49.18600 29.50400 28.25600
C  48.75700 29.52000 29.63300
C  48.25000 28.19900 29.96200
C  49.97100 30.67100 27.49900
C  48.68700 30.30600 30.85500
O  49.07200 31.45300 31.08900
C  48.34300 29.29700 32.06100
C  49.67600 29.12000 32.74800
O  50.70000 28.91000 32.15100
O  49.45300 29.05700 34.13000
C  50.55900 28.70900 34.88600
H  45.61000 22.94400 32.30500
H  46.91300 22.30900 26.03200
H  49.14700 28.23700 25.73800
H  47.73100 27.02800 33.94000
H  45.36600 25.33600 33.70000
H  46.42200 23.90800 35.12000
H  47.91500 24.96600 35.02700
H  47.69000 23.56400 33.99400
H  44.72000 27.48000 33.62600
H  45.76700 28.76600 33.22400
H  44.90600 28.29000 35.75100
H  46.30600 29.34300 35.22200
H  43.90900 20.58300 30.68500
H  44.90600 21.09600 31.93200
H  45.43300 19.73400 30.87900
H  45.27500 18.80800 29.14300
H  45.07700 18.24400 27.55000
H  43.89300 19.40800 28.23800
H  47.19400 24.11400 23.95400
H  49.49400 25.93400 24.45100
H  49.28600 22.66200 25.31600
H  50.14400 23.88600 24.48600
H  49.15000 22.76800 23.48600
H  47.16100 27.54000 24.19300
H  46.88500 25.97600 23.28100
H  49.51300 27.14100 22.56700
H  48.46200 28.48700 22.73000
H  48.19400 27.18500 21.54000
H  49.49100 31.56500 27.89700
H  49.94300 30.52400 26.41900
H  50.98600 30.86100 27.84700
H  47.62700 29.76200 32.73900
H  50.97600 29.63200 35.29000
H  51.42000 28.26100 34.39100
H  50.31500 27.99100 35.66800

