158

Mg 3.07700 -0.31100 44.99500
C  6.57200 0.35400 44.68700
C  2.60300 2.44100 42.89400
C  -0.04500 -1.10300 44.95400
C  3.99700 -3.49900 46.43200
N  4.40400 1.16600 43.89400
C  5.78000 1.16600 43.90300
C  6.36900 2.26300 42.98200
C  5.08500 3.08300 42.71100
C  3.95900 2.16600 43.11600
C  4.90200 4.52700 43.26800
C  7.14300 1.59600 41.81200
C  8.59700 2.07200 41.48200
H  9.05200 2.00700 40.07700
N  1.49000 0.61700 44.16700
C  1.48500 1.69500 43.39300
C  0.06600 2.01900 43.08900
C  -0.74100 0.97300 43.55300
C  0.19200 0.11800 44.35000
C  -0.35600 3.29000 42.35800
C  -2.24500 0.79800 43.27800
O  -2.77700 1.63400 42.57300
C  -2.97900 -0.34200 43.76500
N  2.18100 -2.07600 45.52600
C  0.82800 -2.12900 45.42800
C  0.35700 -3.52000 45.78500
C  1.57000 -4.30500 46.41600
C  2.67000 -3.28300 46.03800
C  -0.81100 -3.55900 46.76100
C  1.94600 -5.72400 45.83800
C  0.74000 -6.65900 45.37700
N  4.87500 -1.40600 45.51900
C  5.03600 -2.61900 46.15300
C  6.45800 -2.73200 46.49100
C  7.06400 -1.60400 45.92600
C  6.09100 -0.80900 45.33800
C  7.14300 -3.76300 47.25900
C  8.32900 -0.91200 45.73600
O  9.45300 -1.17600 46.05800
C  8.06700 0.33300 44.91700
C  8.49300 1.47000 45.79400
O  7.88500 1.83300 46.83000
O  9.68300 1.99800 45.28800
C  9.93700 3.36800 45.80600
H  2.35100 3.25700 42.21300
H  -1.08400 -1.44100 44.95600
H  4.17000 -4.43500 46.96600
H  7.04900 2.84800 43.60100
H  5.06300 3.07100 41.62100
H  4.93400 5.20600 42.41500
H  5.78700 4.76100 43.86100
H  3.94800 4.64900 43.78100
H  6.58200 1.85600 40.91500
H  7.05400 0.51600 41.69200
H  9.34200 1.59000 42.11400
H  8.76800 3.10900 41.77200
H  -0.90400 3.07500 41.44100
H  0.48700 3.93800 42.11900
H  -1.12100 3.71000 43.01000
H  -4.04500 -0.16700 43.61900
H  -2.71900 -0.49000 44.81300
H  -2.71000 -1.26800 43.25800
H  0.13800 -3.90600 44.79000
H  1.57700 -4.26200 47.50500
H  -0.89400 -2.66700 47.38100
H  -0.81900 -4.48000 47.34400
H  -1.70800 -3.68500 46.15500
H  2.56300 -6.27100 46.55200
H  2.60800 -5.72400 44.97200
H  0.96800 -7.69400 45.63100
H  0.60300 -6.72200 44.29700
H  -0.25500 -6.38400 45.72700
H  7.20200 -4.71700 46.73500
H  6.56500 -3.78900 48.18400
H  8.12400 -3.40800 47.57500
H  8.57100 0.38200 43.95200
H  10.35500 4.02100 45.03900
H  10.62500 3.43400 46.64800
H  9.03600 3.91100 46.09000
Mg 24.54000 -5.48200 45.86600
C  27.00500 -3.71300 44.30300
C  22.18600 -4.20900 43.66700
C  22.50500 -8.01700 46.80600
C  27.06800 -6.83100 48.01400
N  24.58000 -4.03700 44.27300
C  25.73700 -3.52800 43.72800
C  25.51600 -2.61400 42.50100
C  23.91800 -2.60800 42.43400
C  23.51800 -3.73800 43.50400
C  23.26300 -1.20700 42.77900
C  26.14400 -3.00800 41.16500
C  26.87600 -1.93800 40.43700
H  27.27200 -2.06200 38.92300
N  22.58900 -5.98800 45.40600
C  21.76300 -5.24900 44.49100
C  20.47900 -5.95500 44.49700
C  20.41500 -6.95800 45.49700
C  21.89100 -7.02500 45.97800
C  19.50800 -5.51800 43.47800
C  19.30800 -7.65300 45.98600
O  18.20100 -7.52500 45.48700
C  19.27100 -8.53100 47.30500
N  24.86700 -7.28100 47.02300
C  23.77100 -8.11800 47.36500
C  24.15500 -9.14000 48.39800
C  25.55000 -8.60600 48.97900
C  25.86400 -7.45700 48.00700
C  23.05900 -9.42000 49.49400
C  26.74500 -9.64900 49.06500
C  27.20000 -10.01600 50.48800
N  26.59200 -5.23500 46.18300
C  27.48700 -5.87900 47.03500
C  28.75300 -5.25700 46.97100
C  28.68100 -4.38200 45.87900
C  27.35500 -4.48600 45.41300
C  30.02900 -5.67200 47.70400
C  29.42100 -3.46400 44.97000
O  30.57000 -3.15100 44.89100
C  28.26900 -2.82500 44.09200
C  28.18000 -1.39500 44.49300
O  28.18700 -0.95100 45.62700
O  28.43800 -0.70500 43.35200
C  28.90500 0.65100 43.46800
H  21.48000 -3.63600 43.06200
H  21.84900 -8.83400 47.11600
H  27.76700 -7.04800 48.82400
H  25.76400 -1.61300 42.85400
H  23.54200 -3.04500 41.51000
H  22.46500 -1.13200 42.04100
H  23.79000 -0.25500 42.70600
H  22.72100 -1.23600 43.72400
H  25.38600 -3.31300 40.44300
H  26.83300 -3.82500 41.37600
H  27.83000 -1.81100 40.94700
H  26.33500 -1.00100 40.57500
H  20.00900 -5.37600 42.52000
H  19.16000 -4.53300 43.79000
H  18.64000 -6.15800 43.32300
H  18.25000 -8.63800 47.67400
H  19.98200 -8.18300 48.05400
H  19.65700 -9.52300 47.07100
H  24.39900 -10.04300 47.83800
H  25.29700 -8.04600 49.87900
H  22.60900 -10.41200 49.48000
H  22.25900 -8.68100 49.44300
H  23.42800 -9.26600 50.50800
H  27.64400 -9.27200 48.57600
H  26.42200 -10.51100 48.48200
H  27.01300 -11.08900 50.53700
H  26.64600 -9.44300 51.23100
H  28.20800 -9.69200 50.74400
H  30.65300 -6.31100 47.07900
H  29.73500 -6.17700 48.62400
H  30.60200 -4.74700 47.77400
H  28.58100 -2.91300 43.05100
H  29.69100 0.66500 44.22300
H  28.18100 1.43000 43.71100
H  29.33700 0.83500 42.48400

