158

Mg 0.19500 43.84700 26.93600
C  2.62700 43.83500 29.55900
C  -2.12100 43.11800 29.33800
C  -1.89800 43.25400 24.42200
C  2.88100 44.47200 24.66100
N  0.34800 43.63900 29.24300
C  1.34600 43.63000 30.10300
C  0.79300 43.62600 31.56100
C  -0.63700 43.06600 31.36800
C  -0.83400 43.16600 29.89500
C  -1.00800 41.70300 31.94000
C  0.88600 45.02300 32.27700
C  1.41300 44.99800 33.66400
H  0.93000 43.78700 34.53300
N  -1.79000 43.42200 26.87700
C  -2.54200 43.19800 27.97600
C  -3.93400 43.10500 27.50100
C  -3.89700 42.88400 26.04800
C  -2.49100 43.20700 25.73600
C  -5.12900 42.92600 28.44700
C  -5.03400 42.44000 25.21700
O  -4.85100 42.09200 24.06000
C  -6.47500 42.17800 25.72300
N  0.50100 43.90400 24.89300
C  -0.55300 43.60400 24.03300
C  -0.18100 43.62100 22.58200
C  1.25400 44.38400 22.67400
C  1.62800 44.22500 24.14900
C  -0.29800 42.27000 21.88400
C  1.17600 45.95300 22.27800
C  2.03200 46.34600 21.06000
N  2.29900 44.07000 27.05200
C  3.24300 44.28000 26.03600
C  4.56600 44.31100 26.59700
C  4.30300 44.15700 27.98000
C  2.98900 44.09400 28.17900
C  5.82300 44.44900 25.86500
C  4.99500 44.00600 29.26100
O  6.18100 43.90100 29.49000
C  3.94100 43.94900 30.35100
C  4.16000 42.79500 31.27800
O  4.07900 41.64900 30.86600
O  4.65000 43.09600 32.52600
C  4.95900 41.89400 33.36200
H  -2.91000 42.81500 30.02900
H  -2.55500 42.93600 23.60900
H  3.65900 44.74300 23.94400
H  1.43800 42.91000 32.07100
H  -1.32600 43.80400 31.78000
H  -0.50600 40.93800 31.34800
H  -2.09800 41.70600 31.91500
H  -0.61300 41.70600 32.95600
H  -0.06100 45.56000 32.31200
H  1.46800 45.63900 31.59100
H  1.27500 45.91800 34.23300
H  2.47800 44.78000 33.59100
H  -5.85900 43.73500 28.41700
H  -4.82200 42.65200 29.45700
H  -5.60000 42.02000 28.06600
H  -6.42300 41.24200 26.27900
H  -7.07500 42.14900 24.81400
H  -6.90800 42.99100 26.30600
H  -0.90200 44.25300 22.06400
H  1.94700 43.86900 22.00800
H  -0.63200 42.47800 20.86800
H  -0.91900 41.54100 22.40500
H  0.71300 41.93100 21.65800
H  1.49700 46.54100 23.13800
H  0.14800 46.19100 22.00400
H  1.32500 46.78700 20.35600
H  2.50000 45.46800 20.61600
H  2.76000 47.12100 21.29800
H  5.77100 43.95500 24.89500
H  6.68900 44.22300 26.48800
H  5.79200 45.51000 25.61900
H  4.01400 44.83900 30.97600
H  5.84700 41.32800 33.08000
H  4.08700 41.24100 33.35700
H  5.00200 42.25400 34.39000
Mg -9.95100 17.02200 40.74900
C  -6.59600 16.78400 40.88200
C  -9.51500 20.39900 39.68900
C  -13.34800 17.45000 40.16800
C  -10.28000 13.65000 41.13600
N  -8.28500 18.46200 40.43200
C  -6.97100 18.02600 40.55000
C  -6.00800 19.13500 39.93300
C  -6.93400 20.39300 40.00100
C  -8.31100 19.67700 39.98700
C  -6.82200 21.10100 41.43200
C  -5.54500 18.73500 38.49300
C  -4.07700 18.71300 38.13900
H  -3.58200 17.68600 37.17800
N  -11.29400 18.72800 40.00600
C  -10.89500 19.95800 39.59700
C  -12.03300 20.72600 39.12700
C  -13.14500 20.01800 39.52300
C  -12.65600 18.65800 39.93700
C  -12.05400 22.03500 38.48500
C  -14.57100 20.46100 39.47300
O  -14.88300 21.63300 39.20700
C  -15.66500 19.58000 39.59500
N  -11.50800 15.61300 40.31700
C  -12.84100 16.11000 40.32400
C  -13.80300 14.89400 40.46700
C  -12.76600 13.69900 40.79100
C  -11.41200 14.31000 40.74100
C  -14.86200 15.23100 41.56300
C  -12.81200 12.53900 39.81500
C  -13.83400 11.37600 40.14200
N  -8.68600 15.51200 40.96500
C  -8.94500 14.18500 41.13100
C  -7.72600 13.42600 41.44900
C  -6.66000 14.43200 41.30800
C  -7.36800 15.64100 41.09900
C  -7.64700 11.91600 41.63000
C  -5.24700 14.66400 41.31000
O  -4.33700 13.79500 41.42200
C  -5.11900 16.25800 41.03500
C  -4.43100 16.88200 42.21200
O  -3.58300 17.76300 42.21500
O  -4.92700 16.27800 43.36800
C  -4.29800 16.68700 44.57900
H  -9.32700 21.40000 39.29600
H  -14.43800 17.52300 40.16900
H  -10.37600 12.60000 41.42300
H  -5.15100 19.30300 40.58500
H  -6.83400 21.03500 39.12600
H  -7.80600 21.33400 41.83900
H  -6.39600 22.08200 41.22100
H  -6.18500 20.49500 42.07600
H  -5.96600 19.50600 37.84800
H  -5.96700 17.77700 38.18800
H  -3.48400 18.64600 39.05100
H  -3.75400 19.64400 37.67400
H  -11.14800 22.25800 37.92300
H  -12.22200 22.83900 39.20200
H  -12.90900 21.99400 37.81000
H  -15.57300 18.77200 38.86900
H  -16.61100 20.04400 39.31600
H  -15.86400 19.24200 40.61200
H  -14.37700 14.89200 39.54100
H  -12.93300 13.32400 41.80100
H  -14.63900 16.18200 42.04600
H  -14.77700 14.57500 42.43000
H  -15.80100 15.26400 41.01000
H  -11.87000 12.03100 39.60800
H  -13.04400 12.91800 38.81900
H  -14.73900 11.59800 39.57800
H  -13.93300 11.17400 41.20900
H  -13.47400 10.46900 39.65700
H  -6.69400 11.67000 42.09800
H  -7.51400 11.50900 40.62800
H  -8.53000 11.39600 42.00100
H  -4.54200 16.48100 40.13700
H  -4.68700 17.52700 45.15500
H  -3.22400 16.86500 44.62800
H  -4.55100 15.85300 45.23200

