158

Mg 44.22500 5.10000 46.18700
C  42.44700 8.08900 45.92100
C  41.25100 3.42200 45.09200
C  45.91900 2.33700 45.61500
C  47.20000 6.91200 46.34300
N  42.06500 5.74700 45.44800
C  41.55200 7.01000 45.62100
C  40.07500 7.06300 45.51100
C  39.75400 5.52100 45.38400
C  41.07200 4.80600 45.29500
C  38.88900 4.79300 46.47000
C  39.46600 7.93600 44.41400
C  40.29600 8.07600 43.15000
H  39.62100 7.81100 41.79700
N  43.68300 3.08300 45.67500
C  42.44500 2.62700 45.25300
C  42.47400 1.21600 45.10000
C  43.82200 0.80200 45.26500
C  44.54900 2.07100 45.54400
C  41.31700 0.40900 44.82700
C  44.35800 -0.68100 45.17800
O  43.58600 -1.56700 44.79500
C  45.78000 -1.03300 45.56600
N  46.27900 4.71000 45.69300
C  46.72200 3.43800 45.70400
C  48.27100 3.37000 45.71500
C  48.64700 4.95600 45.72300
C  47.28700 5.56900 45.95800
C  48.87300 2.54200 46.91500
C  49.28400 5.47100 44.40700
C  50.87700 5.52300 44.41000
N  44.73300 7.11600 46.21700
C  45.98600 7.63900 46.39500
C  45.83500 9.02500 46.60700
C  44.48700 9.27000 46.47800
C  43.82400 8.06800 46.11200
C  46.91500 10.08500 46.82000
C  43.40200 10.27400 46.47300
O  43.43800 11.49700 46.62900
C  42.07100 9.58600 46.13100
C  41.10400 9.78300 47.19300
O  40.94300 9.03400 48.12000
O  40.24800 10.77200 46.91400
C  39.08600 10.92800 47.75900
H  40.34000 2.82000 45.08900
H  46.58100 1.47100 45.54200
H  48.13800 7.41000 46.59700
H  39.74700 7.40500 46.49300
H  39.14300 5.47800 44.48300
H  39.45200 4.74700 47.40200
H  38.74900 3.75300 46.17400
H  37.97300 5.38100 46.41200
H  39.19900 8.88200 44.88600
H  38.49900 7.56300 44.07600
H  41.16400 7.41800 43.11400
H  40.60000 9.11900 43.05600
H  41.44200 -0.15700 43.90400
H  40.35400 0.91400 44.90200
H  41.40400 -0.32500 45.62800
H  45.92000 -2.10800 45.67100
H  46.06700 -0.48600 46.46400
H  46.55000 -0.83300 44.82000
H  48.58800 2.87400 44.79800
H  49.27400 5.10100 46.60200
H  49.69200 3.07800 47.39500
H  49.37600 1.64100 46.56500
H  48.09700 2.33800 47.65200
H  48.92000 6.47700 44.20000
H  49.06100 4.72800 43.64100
H  51.13200 6.51900 44.04900
H  51.42000 4.84700 43.75100
H  51.21000 5.38200 45.43900
H  46.55900 11.11200 46.91000
H  47.49000 10.30700 45.92000
H  47.61800 9.78500 47.59700
H  41.72000 10.04700 45.20800
H  39.17400 11.68300 48.54000
H  38.79400 9.95000 48.14400
H  38.25300 11.32100 47.17600
Mg 34.83300 2.14100 29.30400
C  32.62900 3.13100 31.82100
C  37.35900 2.14800 31.56600
C  36.92100 1.77300 26.80900
C  32.18000 2.67100 26.93900
N  34.98200 2.81200 31.40800
C  33.94500 3.05700 32.26400
C  34.45100 3.26100 33.72700
C  36.01600 3.07700 33.59700
C  36.16500 2.60800 32.09100
C  36.84800 4.34300 33.93700
C  33.76300 2.29900 34.76200
C  33.78100 2.68500 36.26800
H  34.49100 3.98600 36.74700
N  36.82500 1.84400 29.21300
C  37.71800 1.84800 30.23100
C  39.06400 1.45900 29.81200
C  38.95200 1.21200 28.42100
C  37.55600 1.59800 28.07100
C  40.17600 1.25400 30.78700
C  39.91000 0.60300 27.47300
O  39.70600 0.55600 26.24900
C  41.17900 0.00000 27.90700
N  34.62200 2.26800 27.20900
C  35.66900 1.93800 26.39100
C  35.22900 1.79000 24.88600
C  33.71400 1.76200 24.96600
C  33.45700 2.27200 26.49500
C  35.92500 2.77600 23.89400
C  32.96300 0.43600 24.82700
C  31.51000 0.60100 24.29400
N  32.76900 2.72200 29.27900
C  31.80200 2.90800 28.28300
C  30.55900 3.21400 28.88100
C  30.82900 3.22000 30.26300
C  32.18400 2.99000 30.43700
C  29.28100 3.55500 28.21400
C  30.15700 3.48400 31.60400
O  28.96800 3.69100 31.86600
C  31.34600 3.40300 32.70700
C  31.46600 4.75600 33.26300
O  32.03000 5.73600 32.75900
O  30.78000 4.85200 34.50400
C  30.94300 6.02800 35.25900
H  38.14900 1.98200 32.30100
H  37.51700 1.57000 25.91700
H  31.35700 2.58800 26.22600
H  34.21400 4.29400 33.98200
H  36.36000 2.27900 34.25400
H  37.80300 4.21600 34.44700
H  36.20800 5.13400 34.32800
H  37.17400 4.77300 32.99100
H  34.29300 1.34700 34.71900
H  32.72300 2.08600 34.51400
H  34.06100 1.83800 36.89400
H  32.74400 2.75700 36.59600
H  41.12200 1.44900 30.28200
H  40.09100 0.30800 31.32100
H  40.09000 1.94300 31.62700
H  41.93700 0.76000 28.09500
H  41.44900 -0.69300 27.11100
H  40.97500 -0.38800 28.90500
H  35.50800 0.78500 24.57100
H  33.36100 2.58100 24.33900
H  36.54700 2.15500 23.24900
H  36.55800 3.42300 24.50000
H  35.20000 3.24000 23.22500
H  32.89700 0.00100 25.82400
H  33.64100 -0.13400 24.19100
H  31.22400 -0.10700 23.51600
H  31.42200 1.60100 23.86900
H  30.88300 0.50600 25.18100
H  29.24100 2.84200 27.39100
H  29.25300 4.51800 27.70500
H  28.37600 3.41800 28.80500
H  31.03500 2.62900 33.40900
H  31.90300 6.52100 35.10400
H  30.71400 5.78800 36.29700
H  30.16800 6.66400 34.83100

