158

Mg 3.02200 -1.15400 43.58200
C  6.43500 -0.43500 43.30000
C  2.34900 1.83400 42.06800
C  -0.04600 -2.30300 43.09900
C  3.98100 -4.32000 44.93900
N  4.29800 0.45600 42.67200
C  5.65200 0.58200 42.72300
C  6.16400 1.85500 42.14900
C  4.79000 2.61000 41.89300
C  3.71600 1.57600 42.22600
C  4.59300 4.01900 42.60100
C  7.06300 1.71600 40.84800
C  6.56700 0.93000 39.69400
H  6.33700 1.67900 38.41500
N  1.35400 -0.33200 42.81600
C  1.33000 0.91500 42.26000
C  -0.12300 1.17800 41.91200
C  -0.81800 -0.02900 42.12600
C  0.15900 -0.94400 42.70900
C  -0.51400 2.59700 41.45200
C  -2.35200 -0.20200 41.93500
O  -2.95500 0.83200 41.63900
C  -3.12900 -1.47400 42.28600
N  2.15000 -3.04300 43.94500
C  0.81600 -3.26800 43.75100
C  0.37000 -4.63000 44.31200
C  1.68700 -5.16300 44.97700
C  2.67000 -4.13800 44.52600
C  -0.94400 -4.56700 45.16700
C  2.17100 -6.61700 44.59100
C  2.58000 -7.54900 45.71600
N  4.80500 -2.22700 44.11600
C  5.04500 -3.44900 44.66000
C  6.42600 -3.62500 44.90400
C  7.02100 -2.41800 44.41100
C  5.98600 -1.60800 43.94600
C  7.02800 -4.75800 45.63400
C  8.30500 -1.75300 44.30500
O  9.40000 -2.20200 44.64500
C  7.94600 -0.33400 43.63700
C  8.26700 0.69600 44.58800
O  7.96500 0.78800 45.73700
O  9.14000 1.64200 43.98100
C  9.62400 2.76600 44.75800
H  2.09200 2.76900 41.56500
H  -1.03700 -2.70900 42.88400
H  4.28900 -5.23100 45.45600
H  6.70200 2.35500 42.95500
H  4.73300 2.91500 40.84900
H  3.67500 4.07100 43.18600
H  4.55700 4.87400 41.92600
H  5.40900 4.23800 43.28900
H  8.06900 1.38200 41.10200
H  7.15400 2.76200 40.55800
H  5.62600 0.43200 39.92500
H  7.30300 0.12700 39.68200
H  0.13500 2.96400 40.65600
H  -0.42500 3.28500 42.29200
H  -1.53200 2.55900 41.06300
H  -2.83400 -2.26000 41.59200
H  -4.18400 -1.20500 42.33900
H  -2.76500 -1.70900 43.28600
H  0.09100 -5.20400 43.42900
H  1.69700 -4.89800 46.03400
H  -0.93300 -5.21300 46.04500
H  -1.81100 -4.79700 44.54800
H  -1.07700 -3.52900 45.47400
H  3.03800 -6.51500 43.93800
H  1.41300 -7.10900 43.98200
H  3.54700 -7.97400 45.45000
H  1.87700 -8.38200 45.72900
H  2.55300 -6.99300 46.65300
H  7.39500 -5.52800 44.95500
H  6.33500 -5.18100 46.36200
H  7.92500 -4.44800 46.17000
H  8.44800 -0.20600 42.67800
H  10.54000 2.47600 45.27200
H  8.93100 3.05000 45.55000
H  9.69000 3.67400 44.15800
Mg -2.01900 34.44800 27.13700
C  -3.39700 32.61600 29.87400
C  -0.48500 36.57400 29.30800
C  -1.05500 36.30800 24.34200
C  -3.88700 32.40800 25.05800
N  -2.06200 34.60800 29.34500
C  -2.63400 33.75300 30.29900
C  -2.20200 34.16600 31.71400
C  -1.34500 35.46900 31.47900
C  -1.24600 35.58300 29.92300
C  -1.87900 36.75700 32.22100
C  -1.56900 33.03300 32.49800
C  -2.33300 32.58000 33.77600
H  -1.64700 32.28900 35.05600
N  -0.70000 36.11100 26.84400
C  -0.22000 36.86400 27.89200
C  0.57500 37.92700 27.27900
C  0.32900 37.90500 25.88200
C  -0.49000 36.70600 25.62300
C  1.37000 38.92600 28.19400
C  0.82300 38.75700 24.77700
O  0.60400 38.66300 23.59600
C  1.70600 39.86400 25.15600
N  -2.42300 34.41500 25.01100
C  -1.85100 35.16200 24.06000
C  -2.46600 34.87900 22.69600
C  -2.99200 33.44800 22.94700
C  -3.07600 33.33800 24.42300
C  -3.60700 35.92400 22.29500
C  -2.02100 32.29300 22.44900
C  -0.62400 32.10900 23.01200
N  -3.27100 32.80300 27.33000
C  -4.00800 32.12600 26.37800
C  -4.69900 31.06800 26.96100
C  -4.52400 31.22400 28.33900
C  -3.65900 32.27100 28.51700
C  -5.70000 30.03200 26.37900
C  -4.85100 30.72900 29.57800
O  -5.58400 29.78600 29.84800
C  -4.12500 31.56100 30.69700
C  -5.22000 32.08000 31.61500
O  -6.06500 32.92200 31.25900
O  -5.21700 31.45900 32.84300
C  -6.07900 32.14000 33.82600
H  0.02600 37.23100 30.01400
H  -0.88800 36.87300 23.42300
H  -4.31300 31.74700 24.30100
H  -3.10200 34.50200 32.22800
H  -0.34800 35.30000 31.88500
H  -2.38200 36.40900 33.12300
H  -2.70100 37.18200 31.64400
H  -1.07000 37.42000 32.52800
H  -0.54000 33.27700 32.76500
H  -1.56500 32.12500 31.89500
H  -2.90000 31.69100 33.49800
H  -3.03200 33.37000 34.05200
H  0.87800 39.88900 28.06100
H  2.39600 38.87600 27.82700
H  1.35600 38.59400 29.23200
H  1.25000 40.36900 26.00800
H  1.71500 40.67700 24.43000
H  2.74900 39.62800 25.36600
H  -1.67000 34.91400 21.95200
H  -3.93900 33.33600 22.41900
H  -3.65000 36.64800 23.10800
H  -4.60000 35.48800 22.18700
H  -3.31400 36.44800 21.38500
H  -2.00200 32.47500 21.37500
H  -2.48200 31.31700 22.60400
H  -0.17000 33.01900 23.40400
H  -0.05300 31.71000 22.17400
H  -0.66700 31.46500 23.89000
H  -5.43400 28.97600 26.43800
H  -5.97800 30.24500 25.34700
H  -6.54900 30.23300 27.03300
H  -3.45700 30.93300 31.28700
H  -5.98300 31.60900 34.77300
H  -7.08100 32.09500 33.39900
H  -5.76100 33.17400 33.95900

