158

Mg 16.70500 -1.49700 28.18700
C  15.47700 0.22100 31.01100
C  18.99600 -2.95400 30.32200
C  18.23000 -2.73300 25.48200
C  15.01900 0.87300 26.08600
N  17.09700 -1.31100 30.39700
C  16.49000 -0.60400 31.34500
C  16.96800 -0.95000 32.69800
C  18.15500 -1.92700 32.48900
C  18.05100 -2.10800 30.93200
C  19.54300 -1.47500 33.04500
C  15.85100 -1.50300 33.59100
C  15.63200 -0.94100 34.99400
H  16.86700 -0.29000 35.64400
N  18.30100 -2.77900 27.92600
C  19.09300 -3.31700 28.98600
C  19.86600 -4.37400 28.37600
C  19.65800 -4.35000 26.93000
C  18.70400 -3.26800 26.68800
C  20.68600 -5.28000 29.24300
C  20.27100 -5.22500 25.84500
O  20.01400 -5.18200 24.61700
C  21.31500 -6.22100 26.19300
N  16.61600 -0.97600 25.99900
C  17.34200 -1.68600 25.10600
C  17.35100 -1.02200 23.68800
C  16.10400 -0.06400 23.82100
C  15.90200 0.02400 25.34600
C  18.60100 -0.16900 23.52700
C  14.82800 -0.66900 23.17900
C  13.93200 0.32900 22.43000
N  15.33000 -0.02400 28.40900
C  14.78300 0.85000 27.51300
C  13.83000 1.63900 28.20200
C  14.11500 1.55400 29.54400
C  15.04200 0.48600 29.65100
C  12.83500 2.60200 27.62200
C  13.82400 2.03500 30.85600
O  13.00100 2.92600 31.23700
C  14.73600 1.24200 31.80200
C  15.58400 2.17100 32.52500
O  16.63400 2.52900 32.06400
O  15.18700 2.33300 33.81100
C  16.06100 3.38300 34.45800
H  19.64000 -3.36600 31.10200
H  18.73500 -3.11300 24.59100
H  14.49700 1.70700 25.61100
H  17.47500 -0.05600 33.06100
H  17.87400 -2.92700 32.81700
H  19.44200 -0.79700 33.89200
H  20.14100 -1.07100 32.22800
H  19.89300 -2.42900 33.43900
H  15.97900 -2.58500 33.62400
H  14.87300 -1.40300 33.12000
H  15.30900 -1.75200 35.64700
H  14.81000 -0.23000 35.06900
H  20.14300 -6.20900 29.41500
H  20.94800 -4.89000 30.22600
H  21.65600 -5.44300 28.77300
H  20.87900 -6.93200 26.89500
H  21.98300 -5.49500 26.65600
H  21.50600 -6.78400 25.28000
H  17.30500 -1.82500 22.95200
H  16.29200 0.98600 23.59900
H  19.05300 0.22900 24.43500
H  18.30800 0.76100 23.03900
H  19.34900 -0.70100 22.93900
H  14.30800 -1.15000 24.00800
H  15.12400 -1.42100 22.44800
H  13.64400 -0.01100 21.43500
H  14.44800 1.28600 22.34700
H  13.01700 0.49700 22.99900
H  12.03000 2.11200 27.07400
H  13.31900 3.12900 26.80000
H  12.50800 3.25200 28.43400
H  14.07500 0.70900 32.48500
H  15.97600 3.36200 35.54500
H  15.69300 4.35500 34.12900
H  17.13200 3.30800 34.27300
Mg 47.59700 25.85100 27.75700
C  48.54600 27.87900 30.30500
C  46.25700 23.67300 30.00100
C  46.86500 23.73100 25.11300
C  49.28300 27.94800 25.61600
N  47.53200 25.74800 29.93200
C  47.93100 26.76000 30.74000
C  47.59300 26.46900 32.20000
C  46.98400 25.05700 32.05400
C  46.87400 24.78400 30.58600
C  47.57000 23.87500 32.92200
C  46.67900 27.54000 32.93400
C  45.65500 27.08700 34.04200
H  45.50900 27.97700 35.27100
N  46.77300 23.89100 27.66600
C  46.25900 23.18400 28.70700
C  45.67000 22.02400 28.17700
C  45.79200 22.05500 26.76600
C  46.48700 23.25600 26.42300
C  45.03000 20.93000 29.00000
C  45.36200 20.97200 25.75900
O  45.43500 21.06300 24.55900
C  44.91200 19.61700 26.32600
N  48.01500 25.89800 25.67000
C  47.61100 24.91200 24.73100
C  47.90100 25.30400 23.26800
C  48.62200 26.73200 23.54600
C  48.68900 26.86300 25.05000
C  48.70900 24.24500 22.47500
C  48.03100 27.80600 22.62500
C  48.61400 27.76500 21.20800
N  48.67300 27.66500 27.87300
C  49.28500 28.42000 26.91200
C  49.80100 29.64700 27.45100
C  49.48000 29.52500 28.84000
C  48.85600 28.32600 29.02800
C  50.38900 30.67200 26.56800
C  49.55400 30.16800 30.16700
O  49.94900 31.27900 30.46900
C  48.98500 29.07500 31.16200
C  50.11500 28.65600 31.94400
O  51.04800 27.97400 31.55500
O  49.99200 29.09200 33.24900
C  50.99700 28.85000 34.22400
H  45.91700 22.97500 30.76900
H  46.62300 23.06600 24.28100
H  49.71500 28.55200 24.81600
H  48.52900 26.45100 32.75800
H  45.93200 25.05000 32.33800
H  46.99700 23.77700 33.84400
H  48.58900 24.00700 33.28700
H  47.54600 22.87000 32.50000
H  46.25600 28.07400 32.08300
H  47.32500 28.20200 33.51100
H  45.75800 26.08600 34.46200
H  44.66800 27.20500 33.59600
H  45.69700 20.07400 29.10200
H  44.05400 20.59800 28.64700
H  44.91500 21.30600 30.01700
H  45.44700 19.16500 27.16100
H  44.87500 18.91000 25.49800
H  43.84600 19.80800 26.44900
H  47.01400 25.34300 22.63600
H  49.66700 26.57500 23.27900
H  48.38900 23.24300 22.76100
H  49.76800 24.31000 22.72400
H  48.75400 24.38300 21.39500
H  48.05600 28.84300 22.96000
H  46.95600 27.63200 22.61000
H  49.31600 26.94300 21.07500
H  48.99900 28.72500 20.86200
H  47.75100 27.55100 20.57700
H  50.37300 31.50700 27.26800
H  49.79400 30.95200 25.69800
H  51.38500 30.34000 26.27400
H  48.21000 29.40100 31.85500
H  51.91500 28.41100 33.83300
H  50.57600 28.20200 34.99200
H  51.22300 29.76600 34.77100

