158

Mg -1.94600 16.96100 26.97100
C  -2.52600 14.63100 29.64400
C  -2.29500 19.44800 29.24700
C  -1.63600 18.88400 24.43900
C  -2.24400 14.14700 24.67100
N  -2.29500 16.93500 29.17100
C  -2.31500 15.93500 30.12100
C  -2.54600 16.40200 31.59300
C  -2.59400 17.98000 31.28500
C  -2.41700 18.14800 29.79100
C  -3.86700 18.60700 31.85000
C  -1.30800 15.94100 32.43900
C  -0.80400 16.73200 33.57600
H  -0.25000 16.05200 34.90400
N  -1.84200 18.97300 26.84000
C  -2.04500 19.84600 27.90700
C  -1.94500 21.13700 27.33900
C  -1.71800 21.02400 25.94400
C  -1.75600 19.60900 25.69300
C  -2.01300 22.36700 28.27100
C  -1.49300 22.09500 24.87100
O  -1.28100 21.83800 23.70300
C  -1.51000 23.47300 25.27500
N  -2.09600 16.57800 24.84700
C  -1.89500 17.63600 24.05700
C  -1.89400 17.24900 22.58600
C  -1.71100 15.68000 22.66100
C  -2.06800 15.41900 24.13100
C  -3.21400 17.70000 21.82900
C  -0.26600 15.10500 22.31500
C  0.85000 15.55900 23.18600
N  -2.27700 14.85400 27.08500
C  -2.37000 13.90900 26.04500
C  -2.43000 12.65400 26.70400
C  -2.59100 12.89500 28.10600
C  -2.48500 14.20900 28.24600
C  -2.45800 11.34600 26.03900
C  -2.89000 12.23900 29.41300
O  -3.24000 11.10500 29.67800
C  -2.70100 13.35300 30.44500
C  -1.49400 12.94500 31.21300
O  -0.31700 13.26800 31.00200
O  -1.86400 12.30600 32.38000
C  -0.99700 12.24500 33.56900
H  -2.35400 20.21400 30.02300
H  -1.61500 19.61000 23.62400
H  -2.38800 13.28800 24.01300
H  -3.43700 15.97500 32.05300
H  -1.80300 18.62300 31.67300
H  -4.09500 18.07400 32.77400
H  -4.62500 18.62500 31.06600
H  -3.71800 19.66200 32.07900
H  -0.44300 15.69200 31.82400
H  -1.61600 15.03900 32.96700
H  -1.71900 17.30900 33.70800
H  0.05800 17.31000 33.24300
H  -2.80300 23.05500 27.97100
H  -1.09700 22.95400 28.20100
H  -2.10200 22.14700 29.33400
H  -2.41200 23.72900 25.83000
H  -1.53300 23.99600 24.31900
H  -0.62800 23.67700 25.88200
H  -1.00900 17.65700 22.09800
H  -2.58100 15.24000 22.17300
H  -2.92400 18.24700 20.93100
H  -3.87600 18.32700 22.42600
H  -3.66400 16.78600 21.44200
H  -0.02900 15.50800 21.33100
H  -0.34100 14.02400 22.43600
H  1.47900 16.11400 22.49100
H  1.28900 14.67300 23.64500
H  0.45200 16.21500 23.96000
H  -3.20400 11.41800 25.24700
H  -2.86100 10.58100 26.70300
H  -1.50100 10.99200 25.65800
H  -3.40400 13.56800 31.24900
H  -0.93100 13.27600 33.91800
H  0.01100 11.92200 33.30800
H  -1.37100 11.68400 34.42500
Mg 36.15900 49.22900 24.67500
C  36.29300 47.41700 27.79100
C  35.13100 51.94200 26.50900
C  35.40800 50.68500 21.76500
C  36.83900 46.19500 23.08700
N  35.68700 49.60800 26.99700
C  35.89000 48.77200 28.06400
C  35.57200 49.41900 29.34300
C  34.95400 50.83600 28.89500
C  35.21000 50.79000 27.37300
C  33.36800 51.06800 29.22300
C  36.83900 49.57100 30.27300
C  36.64800 49.29700 31.73400
H  35.23600 49.25700 32.23700
N  35.46000 51.04600 24.18600
C  35.27000 52.11100 25.07500
C  35.09400 53.27300 24.33600
C  35.06900 52.94800 22.92300
C  35.33900 51.50700 22.91200
C  34.94100 54.63200 25.06600
C  34.84000 53.82900 21.72000
O  34.96400 53.39300 20.60400
C  34.47900 55.31100 21.70900
N  35.99100 48.54000 22.61500
C  35.79800 49.36700 21.57700
C  36.06600 48.64300 20.27400
C  36.66100 47.27900 20.77200
C  36.40700 47.29900 22.24600
C  34.77000 48.62200 19.44100
C  38.18000 47.03200 20.36300
C  39.29800 47.72400 21.17500
N  36.47500 47.25100 25.24600
C  36.84900 46.13900 24.49600
C  37.41300 45.10100 25.31700
C  37.13900 45.53400 26.64600
C  36.54400 46.81800 26.52700
C  37.97000 43.68900 24.88100
C  37.21100 45.09800 28.04100
O  37.55300 44.02600 28.51700
C  36.73600 46.36700 28.85200
C  35.60700 45.79300 29.59200
O  34.50800 45.60000 29.11600
O  35.97800 45.57100 30.91200
C  34.93200 44.89000 31.71600
H  34.91600 52.83300 27.10400
H  35.18700 51.16700 20.81000
H  37.19700 45.35500 22.48800
H  34.84600 48.76200 29.82200
H  35.59100 51.66300 29.21000
H  32.93900 51.44000 28.29300
H  33.31900 51.78700 30.04200
H  32.93700 50.14300 29.60600
H  37.20300 50.58500 30.10800
H  37.67100 48.92200 29.99900
H  37.25200 49.99700 32.31200
H  37.12600 48.34300 31.95700
H  35.50900 54.55300 25.99300
H  33.91700 54.74600 25.42200
H  35.18500 55.56400 24.55600
H  33.79900 55.51100 22.53700
H  33.94500 55.51000 20.78000
H  35.47200 55.75000 21.80200
H  36.86200 49.20900 19.79000
H  36.10400 46.39800 20.45200
H  34.59700 47.69600 18.89400
H  34.75300 49.37000 18.64800
H  33.93100 48.89700 20.08100
H  38.41800 47.37500 19.35600
H  38.40900 45.97700 20.51300
H  39.95300 48.32100 20.54100
H  39.90700 46.98100 21.69000
H  38.76000 48.27900 21.94300
H  37.67700 42.93300 25.60900
H  39.05100 43.62700 24.75300
H  37.53400 43.53900 23.89300
H  37.48300 46.69200 29.57500
H  34.05500 45.49600 31.48800
H  35.15100 44.95000 32.78200
H  34.77900 43.84800 31.43700

