158

Mg 2.22900 -1.68200 44.48800
C  5.75600 -1.12600 44.28700
C  1.81700 0.93700 42.35700
C  -0.98000 -2.57100 44.20100
C  2.91500 -4.75500 46.04000
N  3.69400 -0.28700 43.47200
C  5.05600 -0.25200 43.50800
C  5.57600 0.74500 42.37100
C  4.23800 1.53800 41.92700
C  3.14700 0.64700 42.62200
C  4.16500 3.04700 42.43100
C  6.16800 -0.09500 41.16800
C  7.58600 0.25700 40.76400
H  7.91400 0.69200 39.36300
N  0.66700 -0.82200 43.62700
C  0.64500 0.16700 42.70300
C  -0.71900 0.47100 42.27800
C  -1.59100 -0.39100 42.92000
C  -0.65100 -1.30900 43.66600
C  -1.10300 1.64800 41.27900
C  -3.05000 -0.41200 42.84000
O  -3.58200 0.44500 42.15200
C  -3.96900 -1.36300 43.59800
N  1.16700 -3.48400 44.90500
C  -0.18200 -3.61800 44.76800
C  -0.75000 -5.03600 45.19800
C  0.49200 -5.61100 45.90700
C  1.57100 -4.57400 45.60900
C  -1.98600 -4.86800 46.15300
C  0.93600 -7.04300 45.41100
C  1.50700 -7.10500 44.05000
N  3.95200 -2.65300 45.17800
C  4.02400 -3.91600 45.78700
C  5.39300 -4.16300 46.10300
C  6.11000 -3.10000 45.53800
C  5.17300 -2.22400 45.00400
C  5.94300 -5.33000 46.82200
C  7.49200 -2.56100 45.42600
O  8.49100 -3.03500 45.92400
C  7.23900 -1.29500 44.46400
C  7.85500 -0.09900 45.17200
O  7.38100 0.50600 46.13200
O  9.03000 0.32800 44.49700
C  9.49000 1.69400 44.95400
H  1.62200 1.85300 41.79700
H  -1.99300 -2.97700 44.16500
H  3.04600 -5.64400 46.66100
H  6.31400 1.34500 42.90300
H  4.08500 1.44300 40.85200
H  3.26700 3.06100 43.04800
H  3.97800 3.70700 41.58400
H  5.02700 3.31300 43.04100
H  5.58300 0.08000 40.26500
H  6.03600 -1.14000 41.44900
H  8.16100 -0.66000 40.89500
H  7.95400 0.99600 41.47600
H  -1.78800 2.33200 41.77900
H  -1.69700 1.23900 40.46200
H  -0.20000 2.10900 40.87700
H  -3.70200 -1.25500 44.64900
H  -3.72000 -2.38400 43.30900
H  -5.00100 -1.25500 43.26500
H  -1.05100 -5.57200 44.29800
H  0.32900 -5.55000 46.98300
H  -1.85200 -5.35100 47.12100
H  -2.91800 -5.20800 45.70200
H  -2.01900 -3.79300 46.33100
H  0.03600 -7.65300 45.49600
H  1.75300 -7.29900 46.08600
H  2.59000 -7.18900 44.14900
H  1.38300 -6.21600 43.43200
H  1.09500 -7.91900 43.45400
H  6.45300 -6.06200 46.19600
H  5.13300 -5.80800 47.37200
H  6.56200 -5.03100 47.66800
H  7.76600 -1.45700 43.52300
H  10.26200 2.19000 44.36600
H  9.78800 1.64600 46.00200
H  8.66100 2.40100 45.00700
Mg 43.45000 4.89800 47.01300
C  41.20200 7.56900 47.12900
C  40.75700 2.80200 47.01400
C  45.66700 2.31600 46.64500
C  46.10300 7.13300 46.27400
N  41.23300 5.21000 47.08200
C  40.54000 6.32000 47.10400
C  39.02600 6.07100 47.19300
C  38.92700 4.55800 47.43300
C  40.40300 4.14200 47.11300
C  38.69100 4.23200 48.92500
C  38.23500 6.56500 45.92200
C  39.05600 6.61300 44.64500
H  38.30200 7.01100 43.36400
N  43.18500 2.81300 46.91700
C  42.01600 2.14600 46.87100
C  42.33600 0.73100 46.84100
C  43.78100 0.52800 46.98100
C  44.29500 1.94800 46.91600
C  41.24200 -0.30100 46.92400
C  44.51000 -0.76400 47.18500
O  43.85000 -1.76900 47.07800
C  46.08200 -0.85100 47.44400
N  45.52500 4.76300 46.43900
C  46.21900 3.60500 46.50400
C  47.73300 3.79700 46.20000
C  47.77200 5.38800 45.80800
C  46.37400 5.81900 46.19200
C  48.79300 3.46600 47.30500
C  48.16700 5.63700 44.27800
C  49.68000 5.91500 44.02500
N  43.67000 6.95000 46.62500
C  44.80900 7.70900 46.51200
C  44.37100 9.16300 46.59000
C  42.95400 9.13500 46.84200
C  42.65100 7.75300 46.87100
C  45.35100 10.28800 46.46900
C  41.81400 9.97600 47.15900
O  41.65300 11.22000 47.16900
C  40.63000 8.98300 47.21700
C  39.95200 9.23200 48.55000
O  40.37700 8.75100 49.58400
O  38.73900 9.76900 48.35000
C  37.69400 9.49000 49.40100
H  39.96000 2.08400 47.21900
H  46.44400 1.54900 46.66300
H  46.94600 7.81100 46.12700
H  38.55500 6.43500 48.10700
H  38.28400 4.09000 46.68700
H  38.09100 4.93400 49.50300
H  39.69100 4.08400 49.33400
H  38.25600 3.23300 48.89400
H  37.94800 7.55100 46.28800
H  37.33000 5.96000 45.85600
H  39.58800 5.67500 44.48800
H  39.88300 7.31300 44.76200
H  40.26600 0.11700 46.67700
H  41.17600 -0.57200 47.97700
H  41.45300 -1.23600 46.40500
H  46.31100 -0.17200 48.26500
H  46.72600 -0.73300 46.57300
H  46.33200 -1.84000 47.83000
H  47.85500 3.13100 45.34500
H  48.50600 5.90800 46.42400
H  49.47500 4.28300 47.54100
H  49.44600 2.64500 47.00800
H  48.24500 3.05500 48.15200
H  47.48300 6.37100 43.85000
H  47.92600 4.68400 43.80700
H  49.60500 6.68400 43.25500
H  50.21900 5.08900 43.56100
H  50.11700 6.39600 44.90000
H  45.58200 10.64100 47.47400
H  44.99100 11.19300 45.98000
H  46.24300 10.03600 45.89500
H  39.90500 9.08100 46.40900
H  36.96800 10.30100 49.34800
H  38.06200 9.29500 50.40800
H  37.20700 8.55100 49.13800

