158

Mg 1.05200 -0.89800 42.47200
C  4.51500 -0.43500 41.70100
C  0.36800 1.95300 41.08400
C  -2.12400 -1.90600 42.65900
C  1.97300 -4.22700 43.53400
N  2.32200 0.56400 41.47500
C  3.66300 0.60800 41.20600
C  4.11600 1.95300 40.67900
C  2.81500 2.80600 40.84300
C  1.77700 1.69800 41.07600
C  2.88400 3.86300 41.94700
C  4.56000 1.71600 39.18400
C  5.85300 2.38900 38.73500
H  5.89400 3.50400 37.69200
N  -0.64100 -0.01800 42.03700
C  -0.73200 1.13800 41.37800
C  -2.12500 1.49000 41.23500
C  -2.90300 0.41500 41.78000
C  -1.90400 -0.62000 42.14000
C  -2.51900 2.85100 40.72200
C  -4.39700 0.41500 42.00900
O  -5.10100 1.26500 41.55900
C  -5.06600 -0.66400 42.75800
N  0.05900 -2.88300 43.07600
C  -1.24500 -2.91300 43.11000
C  -1.79500 -4.27600 43.45600
C  -0.40800 -5.01500 43.89800
C  0.64400 -4.03300 43.47400
C  -2.78700 -4.20900 44.65000
C  -0.10200 -6.43700 43.33600
C  -1.22200 -7.21300 42.67100
N  2.81100 -2.14000 42.51100
C  3.01100 -3.39200 43.06400
C  4.41400 -3.75300 43.08500
C  5.01300 -2.65200 42.44300
C  4.03600 -1.66200 42.24100
C  4.99200 -4.91700 43.80400
C  6.29700 -2.14700 41.99300
O  7.31000 -2.81600 42.09600
C  6.03300 -0.63400 41.56100
C  6.81500 0.43100 42.28000
O  6.46000 1.01100 43.33100
O  7.88000 0.90100 41.52400
C  8.56800 2.07800 42.07500
H  0.07100 2.86500 40.56100
H  -3.19500 -2.11600 42.62200
H  2.27700 -5.11300 44.09500
H  4.96100 2.36400 41.23200
H  2.56600 3.28100 39.89400
H  2.39100 3.44600 42.82500
H  2.48100 4.78700 41.53100
H  3.95100 3.96600 42.14700
H  3.80300 2.20800 38.57300
H  4.51100 0.65100 38.95900
H  6.40400 1.54900 38.31300
H  6.45200 2.69000 39.59400
H  -3.52500 2.89100 40.30500
H  -1.80300 3.26600 40.01300
H  -2.51000 3.49500 41.60100
H  -5.15000 -1.58100 42.17400
H  -6.05900 -0.40900 43.12800
H  -4.50300 -0.72500 43.68900
H  -2.19100 -4.70500 42.53500
H  -0.42500 -5.03200 44.98800
H  -3.64500 -4.81500 44.35900
H  -3.17600 -3.20300 44.80800
H  -2.52100 -4.63100 45.61900
H  0.11800 -7.06000 44.20300
H  0.77300 -6.56200 42.69800
H  -1.23600 -8.28000 42.89000
H  -1.05800 -7.20300 41.59300
H  -2.20700 -6.80200 42.89300
H  4.66800 -5.84000 43.32300
H  4.59500 -5.03600 44.81300
H  6.06700 -4.84400 43.97200
H  6.29800 -0.46100 40.51800
H  9.04600 1.94400 43.04600
H  8.02600 3.02000 41.98100
H  9.39000 2.23400 41.37700
Mg 6.78400 53.82400 41.16000
C  6.29400 50.33200 41.66600
C  9.89700 53.10100 39.78800
C  7.08900 56.99900 40.32700
C  3.70800 54.31500 42.73700
N  7.84300 51.98500 40.53300
C  7.49800 50.66500 41.02400
C  8.65400 49.75100 40.69300
C  9.88900 50.71000 40.53700
C  9.15000 52.04400 40.31200
C  10.90500 50.75200 41.71300
C  8.37200 48.91000 39.44600
C  7.34100 49.31300 38.40400
H  6.70800 48.23700 37.45500
N  8.20700 54.89400 40.05500
C  9.39000 54.40300 39.53700
C  10.14100 55.49200 39.03100
C  9.40000 56.70400 39.21600
C  8.18300 56.24200 39.89600
C  11.48600 55.29500 38.33000
C  9.88100 58.08000 38.77900
O  10.88800 58.12200 38.06000
C  9.22100 59.30600 39.27300
N  5.41900 55.41400 41.30200
C  5.87200 56.66700 40.98300
C  4.78100 57.68200 41.34500
C  3.84200 56.87000 42.30400
C  4.36300 55.42100 42.16200
C  5.34800 58.97600 41.89000
C  2.32100 56.96700 42.01600
C  1.32600 57.01200 43.14900
N  5.31200 52.59900 42.04500
C  4.09700 52.92900 42.68300
C  3.40500 51.71200 43.23100
C  4.31200 50.67900 42.89300
C  5.33300 51.29400 42.04800
C  2.20400 51.68400 44.03500
C  4.61600 49.21900 43.00300
O  3.97900 48.31900 43.56700
C  5.84800 48.93100 42.07800
C  5.68600 47.90700 41.00700
O  5.02900 48.11400 39.99300
O  6.30700 46.68900 41.36700
C  6.26700 45.63000 40.38600
H  10.90600 52.81900 39.47800
H  7.17900 58.08300 40.22600
H  2.72000 54.38400 43.19700
H  8.88400 49.08600 41.52500
H  10.38700 50.43200 39.60800
H  11.92500 50.54100 41.39500
H  10.56200 50.05700 42.47900
H  10.84500 51.77300 42.09200
H  8.05700 47.93500 39.81900
H  9.31500 48.86700 38.90100
H  7.96900 49.89000 37.72500
H  6.46600 49.78700 38.85000
H  11.57100 55.47700 37.25800
H  11.93000 54.31600 38.50600
H  12.16000 56.04500 38.74300
H  9.37000 59.43100 40.34600
H  8.18100 59.30300 38.94500
H  9.68000 60.16500 38.78400
H  4.03400 57.92800 40.59000
H  3.87500 57.17700 43.34900
H  6.40800 58.99400 42.14100
H  4.81300 59.12700 42.82800
H  5.16900 59.87200 41.29600
H  2.03000 56.04500 41.51400
H  2.11900 57.71000 41.24400
H  0.45800 57.60500 42.86200
H  1.84500 57.37800 44.03500
H  0.96200 56.03700 43.47500
H  1.87700 50.66500 44.24200
H  1.34800 52.26500 43.69100
H  2.40700 52.22700 44.95800
H  6.51300 48.38500 42.74700
H  6.36500 44.66700 40.88800
H  7.19900 45.79300 39.84400
H  5.40400 45.64900 39.72100

