158

Mg 36.98400 50.18400 25.71300
C  37.32600 47.87500 28.42200
C  35.82800 52.52100 27.70400
C  36.27400 51.91500 22.89800
C  37.87800 47.40500 23.62900
N  36.53900 50.15900 27.81900
C  36.81500 49.13900 28.77200
C  36.79600 49.73400 30.15900
C  36.05900 51.09500 29.90400
C  36.15200 51.29600 28.35100
C  34.58400 51.15000 30.41800
C  38.12800 49.89800 30.96400
C  38.21400 50.29300 32.41400
H  36.83000 50.27500 33.19300
N  36.20100 52.01300 25.34500
C  35.72200 52.87100 26.32800
C  35.37400 54.13000 25.65700
C  35.48500 53.89600 24.23900
C  36.07600 52.59200 24.08200
C  35.00000 55.36000 26.39600
C  35.15900 54.83900 23.06800
O  35.27400 54.46100 21.90500
C  34.48800 56.22900 23.27500
N  37.03900 49.69500 23.60500
C  36.67600 50.60200 22.62700
C  36.74600 50.03400 21.18400
C  37.43200 48.65500 21.40900
C  37.55700 48.60700 22.94600
C  35.31200 49.86600 20.73300
C  38.71500 48.27500 20.63000
C  40.09200 48.42600 21.37600
N  37.56100 48.09300 25.91100
C  37.90100 47.11700 25.00800
C  38.29000 45.88000 25.73000
C  38.11100 46.15300 27.01100
C  37.56500 47.44700 27.07700
C  38.94700 44.66200 25.02200
C  38.12800 45.52900 28.35700
O  38.38500 44.46300 28.81400
C  37.74700 46.71600 29.35500
C  36.61300 46.26700 30.23500
O  35.46900 46.02500 29.86000
O  36.97400 46.37400 31.54200
C  35.93300 46.08000 32.53000
H  35.65200 53.30500 28.44400
H  36.19900 52.42000 21.93300
H  38.33900 46.65800 22.98000
H  36.17900 49.06000 30.75400
H  36.48000 51.89200 30.51800
H  34.59600 51.63400 31.39500
H  34.08000 50.19000 30.53300
H  33.94600 51.80300 29.82400
H  38.71800 50.59200 30.36500
H  38.56300 48.91100 30.80900
H  38.71400 51.25300 32.54700
H  38.76500 49.47500 32.87800
H  35.57500 56.14300 25.90300
H  35.24500 55.15100 27.43800
H  33.95000 55.64600 26.33200
H  34.89500 56.70300 24.16900
H  33.40900 56.09000 23.34900
H  34.75800 56.90000 22.45900
H  37.36500 50.63900 20.52200
H  36.72000 47.86900 21.15700
H  35.08600 50.58400 19.94500
H  34.58500 50.02000 21.53100
H  35.18400 48.89800 20.24900
H  38.74300 48.93900 19.76600
H  38.70000 47.26000 20.23400
H  40.54700 47.43800 21.45200
H  40.26900 48.85900 22.36000
H  40.59300 49.13700 20.71900
H  39.38400 44.99600 24.08100
H  38.18900 43.88800 24.90800
H  39.71800 44.26500 25.68200
H  38.61000 47.04500 29.93400
H  34.90400 46.19900 32.18900
H  36.02700 46.69500 33.42600
H  35.96900 45.05100 32.88900
Mg -11.99800 37.48400 43.32300
C  -9.82100 35.08200 42.18900
C  -10.08300 39.77800 41.54400
C  -14.37900 39.89800 43.76700
C  -14.07900 35.03300 44.38200
N  -10.22300 37.37600 41.88600
C  -9.45500 36.30100 41.60800
C  -8.28600 36.56300 40.61800
C  -8.35900 38.12000 40.62700
C  -9.69200 38.48900 41.31300
C  -7.06000 38.77900 41.25700
C  -8.57900 35.84300 39.28900
C  -7.30500 35.27600 38.56800
H  -6.80200 36.06500 37.35500
N  -12.14800 39.58800 42.88600
C  -11.25800 40.30700 42.19000
C  -11.64800 41.71100 42.40700
C  -12.89100 41.77700 43.04300
C  -13.20700 40.35400 43.28500
C  -10.76900 42.83700 41.74500
C  -13.67700 43.02100 43.31600
O  -13.20000 44.11800 43.02000
C  -15.03200 43.11400 43.94600
N  -14.00800 37.49300 43.90300
C  -14.80100 38.58100 43.95400
C  -16.18200 38.22300 44.67100
C  -16.09400 36.63700 44.70600
C  -14.66900 36.30500 44.21200
C  -16.40500 38.86200 46.07800
C  -17.17000 35.86100 43.98500
C  -16.85900 35.03200 42.68900
N  -11.94900 35.51400 43.37700
C  -12.79100 34.66900 44.02200
C  -12.22400 33.38400 44.00800
C  -11.01100 33.52500 43.38100
C  -10.92500 34.82400 42.98500
C  -12.76500 32.12100 44.67100
C  -9.77100 32.85400 42.98700
O  -9.38800 31.71400 43.25700
C  -8.94700 33.80600 42.07900
C  -7.65200 34.01000 42.87700
O  -7.48600 34.70500 43.85800
O  -6.62700 33.37300 42.21800
C  -5.32500 33.48400 42.89100
H  -9.50200 40.57700 41.07900
H  -15.15600 40.66100 43.83700
H  -14.75200 34.27400 44.78600
H  -7.42800 36.12400 41.12700
H  -8.29500 38.53300 39.62000
H  -7.37200 39.42100 42.08000
H  -6.71200 39.48100 40.49900
H  -6.26300 38.11600 41.59300
H  -9.13300 36.54500 38.66500
H  -9.20700 34.99000 39.54400
H  -7.62000 34.27600 38.27200
H  -6.51300 35.07200 39.28900
H  -11.40700 43.54000 41.20900
H  -10.13900 42.45400 40.94200
H  -10.13900 43.35400 42.46800
H  -15.22100 44.17300 44.11900
H  -15.12600 42.36700 44.73500
H  -15.81200 42.82400 43.24200
H  -16.97200 38.56900 44.00500
H  -16.04200 36.32500 45.75000
H  -16.96000 39.76500 45.82400
H  -15.40000 39.10400 46.42500
H  -17.01000 38.26800 46.76200
H  -18.08100 36.43900 43.83300
H  -17.54700 35.19300 44.76000
H  -16.70200 33.99600 42.98700
H  -15.95300 35.40000 42.20900
H  -17.70900 35.12500 42.01200
H  -13.47700 32.40900 45.44400
H  -11.98100 31.61100 45.23000
H  -13.19400 31.51000 43.87700
H  -8.81700 33.37900 41.08400
H  -4.49600 33.20500 42.24000
H  -5.28900 32.66500 43.60900
H  -5.09000 34.40900 43.41800

