158

Mg 16.13300 -1.93300 27.42800
C  15.50500 0.13000 30.14500
C  18.50400 -3.59600 29.46400
C  17.59200 -3.35900 24.81900
C  14.76500 0.39500 25.32600
N  16.80600 -1.83900 29.66300
C  16.31900 -0.95000 30.58100
C  16.96300 -1.24400 31.95900
C  18.09900 -2.32000 31.61100
C  17.80000 -2.62600 30.14200
C  19.56900 -1.78000 31.84700
C  15.86100 -1.87400 32.86600
C  15.54700 -1.23600 34.23800
H  16.66100 -0.31700 34.90500
N  17.58600 -3.49200 27.15800
C  18.44500 -4.02900 28.13000
C  19.15700 -5.12200 27.49700
C  18.75800 -5.17800 26.13900
C  17.93600 -4.00600 25.95000
C  20.24400 -5.94600 28.17200
C  19.20200 -6.04000 24.96800
O  18.79300 -5.88300 23.84100
C  20.27600 -7.09100 25.21000
N  16.20300 -1.53400 25.39800
C  16.78400 -2.30100 24.48900
C  16.68700 -1.75300 23.09500
C  15.64400 -0.63100 23.30400
C  15.49700 -0.60100 24.76900
C  17.99300 -1.21700 22.52300
C  14.23400 -0.93800 22.69000
C  13.44400 0.28600 22.13000
N  15.19100 -0.12200 27.64400
C  14.59900 0.66500 26.70000
C  13.87900 1.79100 27.41700
C  14.17400 1.52700 28.74800
C  15.04400 0.42700 28.83900
C  13.04100 2.77700 26.72800
C  13.94700 2.02200 30.05400
O  13.26500 2.93600 30.45300
C  14.76200 1.14600 30.98700
C  15.75600 2.03600 31.70500
O  16.95200 2.20000 31.36700
O  15.12800 2.66100 32.72200
C  15.89600 3.72800 33.36100
H  19.30400 -4.11000 30.00000
H  17.87600 -3.81500 23.86800
H  14.32300 1.13200 24.65200
H  17.39300 -0.30000 32.29400
H  18.04500 -3.24900 32.17800
H  19.51700 -0.78600 32.29100
H  20.07000 -1.71400 30.88100
H  20.08900 -2.53600 32.43600
H  16.15100 -2.92200 32.94600
H  14.91800 -1.70100 32.34700
H  15.17200 -2.04400 34.86600
H  14.64900 -0.63000 34.11700
H  21.09800 -5.91700 27.49600
H  19.89200 -6.97700 28.20700
H  20.55200 -5.68000 29.18400
H  19.91700 -7.72800 26.01900
H  21.24200 -6.61900 25.38800
H  20.42000 -7.67700 24.30300
H  16.29500 -2.47500 22.37900
H  15.99400 0.30800 22.87600
H  18.09600 -0.13300 22.54800
H  18.06200 -1.51200 21.47600
H  18.94400 -1.38800 23.02700
H  13.61200 -1.36400 23.47700
H  14.22300 -1.71500 21.92500
H  13.14900 0.24600 21.08100
H  14.07200 1.14500 22.36400
H  12.57300 0.47900 22.75700
H  12.46500 2.15600 26.04200
H  13.66500 3.34400 26.03800
H  12.42500 3.34000 27.42800
H  14.14400 0.80000 31.81500
H  15.94000 4.64700 32.77700
H  16.93300 3.43900 33.53300
H  15.52900 3.90800 34.37200
Mg 42.26600 41.52100 26.95300
C  41.14500 43.87200 29.37800
C  43.06800 39.49500 29.54600
C  43.50200 39.43400 24.67000
C  42.26200 44.08600 24.60200
N  42.22700 41.73300 29.29200
C  41.61100 42.67400 29.95200
C  41.43200 42.25100 31.42000
C  42.17400 40.84300 31.47400
C  42.55200 40.69200 30.01400
C  43.37000 40.70400 32.44900
C  39.96900 42.05200 31.90000
C  39.39300 43.10100 32.89900
H  38.94700 42.61200 34.27500
N  43.10500 39.65500 27.08100
C  43.34100 39.01900 28.26500
C  43.88600 37.65200 27.94100
C  43.96500 37.65600 26.44600
C  43.46100 38.93200 25.95600
C  44.31000 36.69600 29.01300
C  44.42800 36.55600 25.57400
O  44.64400 36.70100 24.34400
C  44.57400 35.16600 26.12100
N  42.61800 41.62400 24.87500
C  43.16900 40.65700 24.15200
C  43.50700 41.05500 22.70900
C  42.91500 42.52900 22.66800
C  42.61500 42.79000 24.17600
C  44.90600 40.97600 22.26900
C  41.67000 42.71200 21.75700
C  40.34200 42.03900 22.17400
N  41.73400 43.55600 26.94800
C  41.77200 44.44800 25.87400
C  41.20800 45.70800 26.30800
C  40.83800 45.49500 27.64900
C  41.18400 44.13900 27.99300
C  41.07500 46.97200 25.45400
C  40.17900 46.09800 28.74100
O  39.78200 47.27200 28.90200
C  40.43900 45.08200 30.01400
C  41.28600 45.74900 31.05200
O  42.50100 45.82100 30.96800
O  40.50700 46.29900 32.08800
C  41.25300 46.95900 33.10600
H  43.26600 38.78900 30.35500
H  43.79600 38.74500 23.87600
H  42.18700 44.90500 23.88400
H  42.08700 42.86400 32.03900
H  41.58900 39.96500 31.74600
H  44.26500 40.96100 31.88400
H  43.55000 39.67000 32.74400
H  43.14000 41.25300 33.36200
H  39.89400 41.05100 32.32600
H  39.27400 42.03700 31.06000
H  38.50300 43.56200 32.47100
H  40.01700 43.99200 32.96400
H  43.53500 35.93000 29.04200
H  44.55200 37.25900 29.91500
H  45.22600 36.31000 28.56600
H  45.56400 35.21500 26.57500
H  44.60900 34.36000 25.38700
H  43.81900 34.81400 26.82500
H  42.98500 40.46800 21.95400
H  43.62300 43.31000 22.39100
H  45.35800 41.96400 22.34800
H  44.96200 40.61000 21.24400
H  45.43800 40.29200 22.93100
H  41.91600 42.37300 20.75100
H  41.38800 43.75400 21.60700
H  40.49900 41.51800 23.11800
H  39.95300 41.21400 21.57700
H  39.53700 42.75400 22.34300
H  40.19200 46.94400 24.81600
H  41.92900 47.08100 24.78500
H  40.95800 47.82700 26.12000
H  39.56900 44.78600 30.60200
H  41.66900 46.23200 33.80400
H  40.58800 47.57200 33.71500
H  41.92400 47.67900 32.63800

