158

Mg 18.01200 -1.22600 27.15700
C  17.00000 0.79400 29.86600
C  19.81800 -3.14800 29.29700
C  19.09200 -2.82100 24.46900
C  16.25800 0.96400 25.02700
N  18.46800 -1.04400 29.33300
C  17.84800 -0.28800 30.25600
C  18.28100 -0.62300 31.68400
C  19.26800 -1.82200 31.47400
C  19.24600 -2.06200 29.93200
C  20.67100 -1.60500 32.08000
C  17.12900 -0.92200 32.68600
C  17.09000 -0.23800 34.08600
H  18.42900 0.21800 34.64700
N  19.20300 -2.76500 26.88400
C  19.86600 -3.47600 27.92200
C  20.59000 -4.66900 27.37200
C  20.33400 -4.57300 25.92200
C  19.45900 -3.39300 25.69800
C  21.46400 -5.74600 28.18100
C  20.97200 -5.38900 24.83100
O  20.97100 -5.17600 23.67500
C  21.96600 -6.41800 25.17100
N  17.91500 -0.84000 24.99900
C  18.38700 -1.70400 24.13300
C  18.05300 -1.45200 22.65800
C  16.98100 -0.30000 22.90200
C  17.05500 -0.03500 24.43600
C  19.27300 -0.84900 21.81400
C  15.48700 -0.69100 22.40700
C  14.63100 -1.36900 23.45400
N  16.94200 0.49200 27.39200
C  16.31400 1.26100 26.38900
C  15.59200 2.36500 27.02200
C  15.81900 2.22100 28.38300
C  16.59700 1.05700 28.57900
C  14.82300 3.38000 26.33800
C  15.52600 2.76100 29.72000
O  14.74000 3.65700 30.14300
C  16.33600 1.86700 30.72700
C  17.15400 2.76500 31.64000
O  18.36400 2.93700 31.57900
O  16.29500 3.28400 32.61000
C  16.92300 4.16700 33.59900
H  20.40900 -3.84100 29.90000
H  19.40100 -3.40600 23.60000
H  15.66700 1.50500 24.28500
H  18.88200 0.22400 32.01500
H  18.96200 -2.71700 32.01600
H  20.74400 -0.69900 32.68100
H  21.34400 -1.43600 31.23900
H  20.96200 -2.53000 32.57900
H  17.02300 -2.00200 32.78600
H  16.24800 -0.51300 32.19100
H  16.57200 -0.94200 34.73600
H  16.40800 0.59600 33.91600
H  22.51500 -5.87600 27.92400
H  20.94800 -6.70300 28.24600
H  21.46600 -5.47500 29.23700
H  21.46700 -7.04700 25.90800
H  22.94800 -6.10400 25.52500
H  22.17200 -7.09300 24.34000
H  17.60000 -2.36200 22.26400
H  17.27300 0.63700 22.42700
H  20.16600 -0.89200 22.43700
H  19.13900 0.13700 21.36800
H  19.63300 -1.52900 21.04200
H  15.51300 -1.28800 21.49500
H  15.14800 0.31400 22.15700
H  14.16100 -0.61100 24.08000
H  15.16100 -2.14000 24.01400
H  13.82300 -1.88700 22.93700
H  13.79500 3.06400 26.16000
H  15.31600 3.50200 25.37300
H  14.92200 4.29300 26.92600
H  15.59600 1.38400 31.36500
H  16.95000 5.19700 33.24300
H  17.96000 3.84400 33.69800
H  16.27400 4.10900 34.47300
Mg 47.84000 34.05900 27.08300
C  45.91100 32.97500 29.93600
C  48.74600 36.84300 28.85500
C  49.05400 35.44500 24.25700
C  46.74900 31.24500 25.41600
N  47.37800 34.76900 29.09000
C  46.56700 34.25800 30.09600
C  46.61100 35.11000 31.36900
C  47.13800 36.41700 30.74600
C  47.82600 35.98800 29.45300
C  46.05400 37.52500 30.57000
C  47.50800 34.56600 32.56100
C  46.91800 34.91500 33.90100
H  47.87200 35.42000 35.00400
N  48.78600 35.90600 26.58000
C  49.20600 36.78400 27.54800
C  50.07400 37.76600 26.85200
C  50.26200 37.43300 25.49200
C  49.32300 36.22300 25.36900
C  50.66900 38.99700 27.52600
C  51.15500 38.05400 24.37500
O  51.11000 37.61600 23.20800
C  52.15700 39.18600 24.77800
N  47.74300 33.49200 25.20100
C  48.37300 34.20500 24.22600
C  48.09600 33.61500 22.82500
C  47.43500 32.27300 23.14200
C  47.21600 32.35900 24.68600
C  47.23100 34.48100 21.93200
C  48.47600 31.15300 22.80700
C  49.66200 30.74700 23.70200
N  46.74100 32.40600 27.51700
C  46.37600 31.27400 26.75800
C  45.55500 30.37500 27.48900
C  45.33100 31.02900 28.70200
C  46.05700 32.22800 28.69000
C  44.99700 29.08900 27.00600
C  44.55000 30.91400 30.01300
O  43.80800 29.99600 30.43200
C  44.82000 32.19900 30.70800
C  44.96600 32.00200 32.19500
O  45.97600 31.70800 32.73200
O  43.74800 31.92700 32.73100
C  43.81200 31.68900 34.23500
H  49.08400 37.65300 29.50500
H  49.52500 35.69600 23.30400
H  46.35900 30.38600 24.86400
H  45.58400 35.27800 31.69400
H  47.95300 36.84700 31.32700
H  45.99900 37.89400 29.54600
H  46.19900 38.43000 31.15900
H  45.10200 37.03100 30.76800
H  48.50000 35.01300 32.49000
H  47.75700 33.50800 32.48000
H  46.42500 34.00300 34.24000
H  46.05900 35.57800 33.79700
H  51.75500 38.92200 27.55800
H  50.27400 38.92500 28.53900
H  50.36700 39.95300 27.09600
H  52.92300 39.34300 24.01900
H  52.63900 38.83600 25.69100
H  51.79500 40.20100 24.94200
H  49.10200 33.51000 22.41900
H  46.50000 32.11000 22.60500
H  47.24200 35.50100 22.31800
H  46.22400 34.07000 21.86500
H  47.65400 34.47200 20.92800
H  49.01900 31.41900 21.90000
H  47.88000 30.25000 22.67800
H  49.74000 31.42900 24.54900
H  50.62800 30.89100 23.21900
H  49.42300 29.76500 24.11000
H  44.62600 28.43900 27.79800
H  45.68000 28.55100 26.34800
H  44.12600 29.24000 26.36800
H  43.91800 32.80600 30.63800
H  42.92600 32.20200 34.60900
H  44.61600 32.09400 34.85100
H  43.89100 30.61600 34.40900

