158

Mg 36.33900 49.97800 25.54700
C  36.35300 48.28200 28.51600
C  35.17500 52.82600 27.17400
C  36.00700 51.44900 22.49800
C  37.32400 47.12700 23.98500
N  35.74400 50.42500 27.57300
C  35.91500 49.60500 28.60900
C  35.77400 50.49800 29.91700
C  35.27700 51.89700 29.47300
C  35.39300 51.74600 27.98800
C  34.05500 52.43400 30.17500
C  37.10300 50.47000 30.70900
C  37.04000 50.21000 32.18000
H  35.75400 50.17200 33.04300
N  35.77800 51.85300 24.91300
C  35.34500 52.89700 25.71200
C  35.01800 54.04800 24.89700
C  35.22800 53.61400 23.55600
C  35.72900 52.26700 23.58900
C  34.31200 55.29100 25.41100
C  34.94900 54.50200 22.29500
O  35.10400 54.16000 21.16300
C  34.31900 55.88800 22.35600
N  36.67400 49.39800 23.59400
C  36.46600 50.17400 22.49800
C  36.80900 49.50200 21.18100
C  37.66800 48.30800 21.72500
C  37.21100 48.25200 23.17400
C  35.70400 49.01400 20.17600
C  39.23100 48.44200 21.65500
C  40.06700 47.15400 21.28800
N  36.68100 48.02200 26.06400
C  37.11000 46.91900 25.36200
C  37.29900 45.71400 26.17100
C  37.08400 46.22600 27.44600
C  36.73000 47.62900 27.29700
C  37.87800 44.35200 25.74300
C  37.21800 45.97100 28.91100
O  37.67100 45.01800 29.48200
C  36.66200 47.22400 29.63400
C  35.51400 46.87700 30.44200
O  34.36000 46.80900 29.99900
O  35.90100 46.43300 31.66000
C  34.82300 45.88000 32.56800
H  34.77000 53.65200 27.76300
H  35.99100 51.80600 21.46600
H  37.59900 46.17100 23.53500
H  34.99900 50.00000 30.49800
H  36.05000 52.63300 29.69100
H  34.39700 53.29200 30.75400
H  33.55000 51.74200 30.84900
H  33.32200 52.76200 29.43700
H  37.50600 51.47200 30.56500
H  37.85700 49.88400 30.18300
H  37.76100 50.87300 32.65600
H  37.50500 49.22800 32.27200
H  33.29900 55.25700 25.00800
H  34.85100 56.21900 25.22000
H  34.26800 55.14500 26.49000
H  34.43300 56.30800 21.35700
H  34.92300 56.58800 22.93400
H  33.29000 55.82900 22.71200
H  37.50900 50.17000 20.67900
H  37.35600 47.40000 21.20800
H  34.77200 49.56900 20.28500
H  35.45300 47.97600 20.39200
H  36.05300 49.10600 19.14700
H  39.64300 49.01200 22.48800
H  39.51700 49.18700 20.91200
H  40.47900 46.76300 22.21700
H  40.86200 47.41000 20.58800
H  39.29800 46.52600 20.83700
H  38.45600 44.02500 26.60700
H  38.55300 44.38000 24.88700
H  37.07400 43.64700 25.53500
H  37.39900 47.55100 30.36700
H  33.91100 46.47700 32.58200
H  35.14600 45.73800 33.59900
H  34.61500 44.89000 32.16300
Mg -2.68100 33.70600 26.09400
C  -4.44000 32.15600 28.77700
C  -1.32800 35.93300 28.55400
C  -1.52400 35.66500 23.75600
C  -4.29900 31.66400 23.92700
N  -2.90900 34.00800 28.42500
C  -3.58200 33.19500 29.26400
C  -3.41200 33.57900 30.73200
C  -2.53300 34.92300 30.57000
C  -2.19900 34.98000 29.08100
C  -3.12100 36.20800 31.20300
C  -2.77300 32.40900 31.57000
C  -3.58600 31.76500 32.64700
H  -2.91100 31.87900 34.01200
N  -1.45200 35.46200 26.08500
C  -1.01100 36.21600 27.17700
C  -0.15200 37.35200 26.72000
C  -0.18700 37.25100 25.28900
C  -1.04500 36.07600 24.95500
C  0.35200 38.42400 27.68100
C  0.53000 38.06600 24.18600
O  0.61500 37.84500 22.97100
C  1.40600 39.20500 24.69000
N  -3.08300 33.78100 24.10400
C  -2.36300 34.63800 23.32100
C  -2.51000 34.29000 21.84100
C  -3.02800 32.86000 21.99100
C  -3.53900 32.73900 23.43300
C  -3.41900 35.30600 21.07400
C  -1.89400 31.75600 21.62000
C  -1.19600 30.86800 22.62000
N  -4.07700 32.18600 26.28700
C  -4.65900 31.41800 25.27300
C  -5.45100 30.34100 25.78100
C  -5.45100 30.58300 27.17900
C  -4.57400 31.74200 27.44400
C  -6.20100 29.32100 25.08100
C  -5.86700 30.15400 28.44900
O  -6.47900 29.12900 28.70300
C  -5.25000 31.14700 29.56200
C  -6.40300 31.63700 30.29200
O  -7.20800 32.44600 29.81700
O  -6.46200 31.02000 31.59700
C  -7.59600 31.15300 32.45400
H  -0.66300 36.49500 29.21400
H  -1.16800 36.22400 22.88800
H  -4.79100 30.90100 23.31900
H  -4.41000 33.79000 31.11700
H  -1.57600 34.71900 31.05000
H  -2.41400 36.60300 31.93300
H  -3.98500 35.99800 31.83300
H  -3.31600 36.96500 30.44300
H  -1.81500 32.72800 31.98200
H  -2.47700 31.57900 30.92900
H  -3.83500 30.74200 32.36700
H  -4.63700 32.05300 32.64600
H  1.35600 38.77300 27.43600
H  0.25500 38.31300 28.76100
H  -0.27100 39.24700 27.33200
H  0.72800 39.89800 25.18800
H  1.99500 39.71100 23.92600
H  2.07900 38.77700 25.43400
H  -1.54300 34.41000 21.35200
H  -3.85500 32.71000 21.29800
H  -3.47400 36.16800 21.73900
H  -4.42300 34.90100 20.94800
H  -2.92200 35.73200 20.20200
H  -1.10000 32.33100 21.14400
H  -2.21300 31.10300 20.80800
H  -1.82300 30.95500 23.50800
H  -0.16000 31.12600 22.83700
H  -1.26000 29.83800 22.27000
H  -5.47700 29.13600 24.28800
H  -7.08200 29.77800 24.63100
H  -6.40100 28.40200 25.63200
H  -4.64900 30.54000 30.23900
H  -7.25600 31.76000 33.29300
H  -8.06300 30.30500 32.95500
H  -8.40200 31.79300 32.09500

