158

Mg 45.17600 4.78100 46.87300
C  43.04300 7.46800 46.04800
C  42.50700 2.75600 46.13300
C  47.28200 2.15700 46.89400
C  47.90500 6.97900 46.52400
N  43.08800 5.11900 46.18000
C  42.41300 6.22900 45.95100
C  41.01600 6.02000 45.33700
C  40.76400 4.62000 45.89500
C  42.25300 4.08700 46.14900
C  39.82600 4.41700 47.09700
C  40.87700 6.39300 43.78700
C  39.61200 7.06200 43.29900
H  39.43500 7.64500 41.88600
N  44.87500 2.72000 46.79100
C  43.72700 2.06700 46.40300
C  44.01200 0.63400 46.36700
C  45.33100 0.43200 46.81700
C  45.88600 1.77300 46.90400
C  42.87800 -0.39600 46.02600
C  45.98800 -0.82900 47.00700
O  45.41800 -1.91900 46.75500
C  47.27800 -0.98400 47.57800
N  47.26700 4.66700 46.60500
C  47.85600 3.40400 46.68700
C  49.37500 3.59900 46.43000
C  49.63100 5.11400 46.72300
C  48.25700 5.62900 46.56800
C  50.37300 2.64200 47.27800
C  50.52600 5.83000 45.71900
C  51.39300 6.89800 46.33800
N  45.48300 6.79700 46.61200
C  46.63300 7.54500 46.48200
C  46.24200 8.94500 46.28700
C  44.87900 8.92800 46.17100
C  44.41900 7.61100 46.31000
C  47.13300 10.13800 46.14000
C  43.76100 9.81700 45.88500
O  43.60200 11.05300 45.77600
C  42.47500 8.80600 45.86600
C  41.57800 9.06500 46.98700
O  41.79100 9.01300 48.19400
O  40.27600 9.10800 46.45700
C  39.24300 9.13900 47.46000
H  41.65500 2.10600 45.92100
H  48.06200 1.39900 46.80100
H  48.79800 7.60700 46.47800
H  40.43300 6.81900 45.79400
H  40.52800 3.90700 45.10600
H  40.26200 3.76200 47.85200
H  38.83500 4.12400 46.74900
H  39.61200 5.27400 47.73600
H  40.86300 5.46000 43.22300
H  41.78600 6.92300 43.50200
H  39.38800 7.84700 44.02100
H  38.74100 6.44400 43.52200
H  43.23200 -1.03000 45.21300
H  42.00500 0.10600 45.61000
H  42.68300 -0.96500 46.93600
H  48.07900 -1.02900 46.84000
H  47.37200 -1.91400 48.13700
H  47.36500 -0.16100 48.28800
H  49.36100 3.44600 45.35100
H  49.95700 5.21100 47.75900
H  49.86700 1.76100 47.67100
H  50.64500 3.21800 48.16300
H  51.28400 2.26600 46.81300
H  49.98200 6.26300 44.88000
H  51.21900 5.09100 45.31700
H  52.39900 6.68300 45.97800
H  51.28500 6.89200 47.42300
H  51.08800 7.90700 46.06000
H  48.04100 9.89600 46.69200
H  46.62800 11.01400 46.54600
H  47.36600 10.34800 45.09600
H  41.85900 8.94700 44.97800
H  39.43900 8.42800 48.26300
H  38.27700 8.80900 47.07700
H  39.16100 10.12800 47.90900
Mg 17.18100 53.23900 26.92900
C  19.12600 51.65700 29.28400
C  15.04100 54.17800 29.45800
C  14.97900 54.32900 24.62700
C  19.11000 51.70600 24.39400
N  17.04500 52.76400 29.07100
C  17.93300 52.13300 29.86500
C  17.53800 52.28800 31.26900
C  16.02800 52.69900 31.18100
C  16.02200 53.30800 29.79100
C  15.04300 51.54300 31.27200
C  18.53700 53.35100 31.90100
C  18.91800 53.11700 33.30700
H  17.87100 52.44200 34.14700
N  15.36800 54.18900 26.98900
C  14.67400 54.59800 28.15000
C  13.50600 55.27000 27.81600
C  13.33600 55.21900 26.37400
C  14.62900 54.53000 25.88200
C  12.70800 55.94100 28.86100
C  12.19400 55.62300 25.52600
O  12.08800 55.37900 24.33800
C  11.14000 56.50300 26.16500
N  17.12500 53.02800 24.92400
C  16.08200 53.65500 24.14700
C  16.39600 53.53500 22.58200
C  17.86200 52.93900 22.59600
C  18.03900 52.49300 24.02000
C  15.44500 52.51600 21.86500
C  18.97800 53.88000 22.12300
C  19.98900 53.33500 21.12700
N  18.82900 51.88300 26.80800
C  19.54400 51.45400 25.71000
C  20.74900 50.71800 26.15800
C  20.66400 50.81700 27.57500
C  19.46700 51.59500 27.90200
C  21.76300 50.03000 25.26800
C  21.26800 50.42400 28.85100
O  22.17100 49.65200 29.11800
C  20.40700 51.07000 30.00400
C  20.07600 49.96900 30.92900
O  19.34300 49.05500 30.61700
O  20.60500 50.17700 32.16900
C  19.97000 49.34100 33.26500
H  14.36900 54.39500 30.29000
H  14.33800 54.75400 23.85200
H  19.81600 51.29300 23.67100
H  17.64500 51.33300 31.78400
H  15.80600 53.47100 31.91800
H  15.56100 50.58700 31.34600
H  14.40700 51.58000 30.38700
H  14.35500 51.57800 32.11700
H  18.09900 54.34700 31.84100
H  19.51400 53.35100 31.41700
H  19.02100 54.09100 33.78500
H  19.76900 52.43600 33.27900
H  12.24900 56.85700 28.48700
H  13.30200 56.23600 29.72600
H  11.83900 55.31700 29.07200
H  11.62100 57.46700 26.33000
H  10.78900 55.96600 27.04500
H  10.31400 56.61300 25.46200
H  16.40300 54.50600 22.08700
H  17.92800 51.99100 22.06100
H  16.00200 51.59100 21.71400
H  15.11900 52.96900 20.92900
H  14.51700 52.34800 22.41100
H  19.48700 54.24700 23.01400
H  18.66000 54.83600 21.70700
H  19.71000 53.61100 20.11000
H  20.01000 52.25000 21.22000
H  20.98800 53.70300 21.36200
H  22.38200 50.82500 24.85300
H  21.25300 49.55100 24.43200
H  22.45100 49.34100 25.75700
H  21.03700 51.85700 30.41800
H  20.48900 48.38400 33.20300
H  18.90700 49.31200 33.02700
H  20.09500 49.72900 34.27600

