158

Mg 25.67200 1.31200 29.02800
C  27.52100 1.06700 32.04900
C  22.77900 1.35300 30.88800
C  24.03500 1.57700 26.12900
C  28.68400 0.71400 27.28000
N  25.26500 1.29600 31.16100
C  26.13800 1.24700 32.20400
C  25.46400 1.44800 33.60300
C  24.00500 1.22700 33.15800
C  23.96000 1.25600 31.64000
C  23.59800 -0.29500 33.53400
C  25.82700 2.84500 34.16600
C  26.44100 2.97300 35.62500
H  26.07700 4.09800 36.56200
N  23.63200 1.56800 28.57800
C  22.53900 1.57400 29.48100
C  21.34700 1.65700 28.77300
C  21.73600 1.74500 27.40300
C  23.20800 1.67700 27.30500
C  19.98600 1.47500 29.38800
C  20.81100 1.73900 26.12400
O  21.16000 1.54300 24.95400
C  19.27500 1.79400 26.36900
N  26.32100 1.19100 26.96200
C  25.42300 1.31500 25.92800
C  26.07700 1.05400 24.55200
C  27.63600 1.07800 24.98100
C  27.58000 0.87900 26.51100
C  25.53900 -0.25400 23.84100
C  28.42100 2.33500 24.51700
C  28.15600 3.68000 25.25700
N  27.66600 0.98700 29.50400
C  28.70900 0.64700 28.67700
C  29.83900 0.47000 29.53200
C  29.47900 0.72100 30.82900
C  28.09800 0.94000 30.75600
C  31.20500 0.08000 29.09400
C  29.98700 0.90300 32.20800
O  31.14200 0.92300 32.70100
C  28.69000 1.09500 33.02200
C  28.63000 0.05800 34.07700
O  28.17400 -1.06600 33.97300
O  29.21900 0.57500 35.20700
C  29.08500 -0.17200 36.48400
H  21.83400 1.28000 31.43000
H  23.43000 1.70400 25.22800
H  29.72800 0.69000 26.96200
H  25.95900 0.77500 34.30300
H  23.25400 1.86400 33.62400
H  23.21900 -0.38900 34.55200
H  24.31500 -1.03400 33.17700
H  22.68300 -0.48800 32.97200
H  24.85900 3.33800 34.26100
H  26.40900 3.34700 33.39300
H  27.51400 3.14700 35.53900
H  26.39400 2.05400 36.20900
H  19.33500 2.25600 28.99400
H  19.87200 1.52800 30.47000
H  19.59800 0.50600 29.07200
H  18.90600 0.82400 26.70100
H  18.78400 2.00000 25.41800
H  18.92500 2.63900 26.96200
H  25.74800 1.84100 23.87300
H  28.15500 0.22300 24.54700
H  24.45400 -0.18100 23.90200
H  25.92200 -1.14400 24.34000
H  25.91700 -0.23800 22.81800
H  27.99300 2.41200 23.51700
H  29.48800 2.18600 24.35500
H  29.15000 4.10400 25.40100
H  27.62900 3.50300 26.19400
H  27.40000 4.30100 24.77600
H  31.82400 0.19000 29.98500
H  31.58400 0.72000 28.29700
H  31.20800 -0.98900 28.88000
H  28.66700 2.05200 33.54300
H  29.36400 -1.22400 36.41500
H  28.07800 -0.19400 36.90000
H  29.82800 0.27600 37.14300
Mg 48.10100 15.51600 29.07100
C  45.90600 15.37100 31.72700
C  50.19700 17.34600 31.20600
C  50.26100 15.92100 26.62000
C  45.69400 14.19700 27.01800
N  48.06500 16.27700 31.20000
C  47.12100 15.93700 32.09900
C  47.52600 16.36900 33.52300
C  48.71800 17.32700 33.30600
C  49.01700 16.93300 31.80600
C  48.46800 18.89100 33.43000
C  47.80000 15.12400 34.38000
C  47.53500 15.16600 35.89100
H  47.19900 16.52800 36.57700
N  50.09300 16.29700 28.96500
C  50.78700 16.99200 29.94800
C  52.10000 17.09800 29.51600
C  52.18400 16.52700 28.26000
C  50.80300 16.30800 27.82800
C  53.19400 17.61200 30.38000
C  53.36700 16.33100 27.25100
O  53.20500 15.77600 26.15100
C  54.80700 16.72900 27.59400
N  47.98900 15.16300 27.11700
C  49.00900 15.51200 26.22900
C  48.47200 15.23400 24.82300
C  47.11200 14.50700 24.96200
C  46.90600 14.65400 26.48800
C  48.61800 16.51700 23.93800
C  47.15200 12.99600 24.55600
C  46.05900 12.46100 23.67300
N  46.10800 14.89200 29.22000
C  45.22300 14.25300 28.37700
C  43.92600 14.01400 28.96800
C  44.16100 14.42400 30.31700
C  45.48400 14.93600 30.41100
C  42.76400 13.25200 28.42200
C  43.56700 14.36200 31.69600
O  42.54100 13.90000 32.06600
C  44.66700 15.15100 32.56800
C  44.03100 16.37200 33.14500
O  43.97100 17.46300 32.57100
O  43.48500 16.16100 34.40300
C  42.82700 17.29600 34.97900
H  50.87100 18.00800 31.75400
H  50.88800 16.06500 25.73800
H  44.89800 13.83000 26.36600
H  46.67800 16.92100 33.92700
H  49.48300 16.90800 33.95900
H  47.39300 19.01300 33.56500
H  48.69600 19.33100 32.45900
H  49.11000 19.23600 34.24000
H  48.81900 14.78100 34.19800
H  47.16900 14.34900 33.94700
H  48.36400 14.70900 36.43200
H  46.71100 14.48300 36.09600
H  53.83100 16.77800 30.67500
H  52.76900 17.97400 31.31600
H  53.69900 18.46400 29.92500
H  54.65700 17.74900 27.94900
H  55.41800 16.63200 26.69700
H  55.32100 16.14800 28.36000
H  49.11200 14.53000 24.29100
H  46.37100 15.01000 24.34100
H  48.49700 17.44700 24.49400
H  47.83900 16.65400 23.18800
H  49.58800 16.61100 23.45100
H  47.06700 12.49100 25.51800
H  48.13700 12.78600 24.13900
H  46.41000 12.11500 22.70000
H  45.36100 13.27500 23.47400
H  45.37000 11.78800 24.18300
H  43.15700 12.66000 27.59600
H  42.01900 13.94400 28.03100
H  42.20300 12.75000 29.21000
H  44.97800 14.50400 33.38900
H  43.47900 18.11900 35.27100
H  42.44400 16.90200 35.92100
H  41.96800 17.56500 34.36400

