158

Mg -2.11900 17.57100 26.62100
C  -2.31900 15.12400 29.19700
C  -2.59300 19.92300 29.01200
C  -2.34200 19.85700 23.99800
C  -2.47100 15.03600 24.30500
N  -2.22500 17.53600 28.94600
C  -2.27900 16.47500 29.77400
C  -2.39500 16.85300 31.26500
C  -2.80400 18.34500 31.08300
C  -2.53200 18.68200 29.57500
C  -4.24200 18.62200 31.53300
C  -1.17200 16.54400 32.17900
C  -1.01300 17.30500 33.47000
H  -0.64400 16.57500 34.80400
N  -2.31900 19.58100 26.61700
C  -2.47800 20.41200 27.68000
C  -2.60500 21.75800 27.26700
C  -2.70100 21.66200 25.82800
C  -2.47100 20.29600 25.44400
C  -2.67600 22.99100 28.20700
C  -2.92700 22.82500 24.88400
O  -2.87900 22.71400 23.63100
C  -3.06100 24.22500 25.35900
N  -2.29200 17.41500 24.52900
C  -2.22300 18.50200 23.64500
C  -2.21300 18.00700 22.19700
C  -2.52400 16.46900 22.27200
C  -2.33800 16.27200 23.77000
C  -3.13900 18.81300 21.18600
C  -1.50900 15.60800 21.42200
C  -2.16100 14.59200 20.45300
N  -2.19800 15.54900 26.69100
C  -2.37300 14.67100 25.66500
C  -2.41300 13.31600 26.15000
C  -2.46000 13.50500 27.57300
C  -2.36000 14.83100 27.83400
C  -2.45100 12.12900 25.29400
C  -2.59600 12.74800 28.79400
O  -2.68300 11.55100 28.96600
C  -2.50300 13.78300 29.93300
C  -1.33300 13.45000 30.76800
O  -0.22500 13.84700 30.52200
O  -1.64600 12.60300 31.85300
C  -0.50100 12.16800 32.67300
H  -2.81700 20.63200 29.81200
H  -2.57100 20.51200 23.15500
H  -2.60700 14.33300 23.48000
H  -3.19500 16.23000 31.66700
H  -2.22000 19.03500 31.69200
H  -4.60300 17.95200 32.31300
H  -5.00300 18.52900 30.75800
H  -4.34600 19.64300 31.90100
H  -0.28600 16.56800 31.54400
H  -1.22800 15.49600 32.47400
H  -1.92900 17.87900 33.60500
H  -0.14200 17.93600 33.29000
H  -3.66800 23.43300 28.10500
H  -1.95000 23.79000 28.05700
H  -2.53600 22.50300 29.17100
H  -4.01400 24.18300 25.88600
H  -2.98900 24.97100 24.56700
H  -2.18600 24.38000 25.99000
H  -1.18100 18.16200 21.88000
H  -3.54800 16.25900 21.96200
H  -3.79400 19.49300 21.73100
H  -3.65500 18.07100 20.57800
H  -2.47500 19.48900 20.64700
H  -0.77500 15.25000 22.14500
H  -1.09900 16.30300 20.69000
H  -2.02000 15.04300 19.47100
H  -3.23000 14.55500 20.66100
H  -1.62300 13.66300 20.64700
H  -1.69500 12.18500 24.51100
H  -3.46500 11.98000 24.92500
H  -2.24000 11.24800 25.90000
H  -3.41000 13.77300 30.53700
H  -0.90400 11.68600 33.56400
H  0.16800 13.02100 32.78500
H  0.06600 11.41500 32.12600
Mg 25.59400 2.19500 29.93000
C  27.65400 1.22300 32.61800
C  22.86100 2.11800 32.08500
C  23.44300 2.68900 27.35300
C  28.15200 1.62600 27.74600
N  25.29000 1.84100 32.09900
C  26.29300 1.55300 33.05000
C  25.80100 1.79900 34.49200
C  24.24900 1.77500 34.28400
C  24.14800 1.95300 32.71900
C  23.58800 0.46200 34.81200
C  26.35900 3.01400 35.20200
C  27.34200 2.63600 36.34700
H  27.47200 3.65300 37.49400
N  23.42800 2.45700 29.77100
C  22.53100 2.37600 30.78100
C  21.19700 2.57200 30.27000
C  21.32000 2.64500 28.83900
C  22.78500 2.58200 28.60500
C  20.00700 2.63200 31.19000
C  20.29600 2.81500 27.78800
O  20.57400 2.95500 26.56700
C  18.97500 2.90800 28.20200
N  25.77900 2.20400 27.87200
C  24.83600 2.57900 27.01200
C  25.38000 2.74600 25.54700
C  26.92800 2.42100 25.71000
C  26.95300 2.03400 27.18700
C  24.58600 1.99300 24.43900
C  27.76600 3.68000 25.40600
C  28.98800 3.27100 24.57700
N  27.50800 1.57000 30.10600
C  28.41900 1.26800 29.04600
C  29.55900 0.68500 29.61100
C  29.33300 0.76900 31.04000
C  28.08000 1.23000 31.27500
C  30.82000 0.37300 28.82200
C  30.00600 0.62300 32.34400
O  31.13500 0.28100 32.66100
C  28.93100 0.91800 33.41700
C  28.80100 -0.16900 34.44400
O  28.21900 -1.25900 34.26500
O  29.46800 0.20000 35.62500
C  29.27300 -0.65200 36.79700
H  22.09000 2.03100 32.85400
H  22.85600 2.99500 26.48500
H  28.96000 1.67600 27.01300
H  26.03200 0.90100 35.06600
H  23.66600 2.56100 34.76500
H  22.55500 0.60000 35.13000
H  24.16000 0.27000 35.71900
H  23.68100 -0.37500 34.11900
H  25.51900 3.54100 35.65400
H  26.84800 3.66200 34.47500
H  28.34800 2.63900 35.92700
H  27.20400 1.59800 36.65000
H  20.11100 2.14600 32.16000
H  19.21100 2.02400 30.76000
H  19.70500 3.65700 31.40400
H  18.64600 2.05100 28.78800
H  18.36500 3.22900 27.35700
H  19.01600 3.73800 28.90700
H  25.16600 3.79300 25.33300
H  27.30200 1.52400 25.21700
H  25.31100 1.37400 23.91100
H  24.06400 2.70600 23.80100
H  23.81500 1.40700 24.93900
H  28.09700 4.11700 26.34800
H  27.16800 4.38200 24.82400
H  29.05800 4.05700 23.82500
H  28.89200 2.30000 24.09100
H  29.88800 3.26800 25.19200
H  30.85100 -0.64600 28.43600
H  31.67600 0.37100 29.49700
H  30.88200 1.07400 27.98900
H  29.31800 1.82600 33.88000
H  28.30900 -0.38500 37.23100
H  30.09800 -0.41900 37.47000
H  29.39600 -1.73300 36.72400

