158

Mg 47.33300 15.81900 27.33300
C  45.56100 16.07600 30.35700
C  49.94500 17.68500 28.90000
C  49.10200 15.89400 24.50400
C  44.68000 14.33400 25.80600
N  47.80100 16.52500 29.56400
C  46.84700 16.56200 30.56100
C  47.49200 17.11400 31.82600
C  48.79000 17.83200 31.23200
C  48.88600 17.31500 29.79000
C  48.84100 19.42500 31.30500
C  47.69700 16.10400 33.01300
C  47.24400 16.54200 34.42600
H  47.23300 18.04600 34.85700
N  49.31600 16.71500 26.77300
C  50.13900 17.40500 27.54800
C  51.37300 17.59700 26.85700
C  51.15100 17.17600 25.50900
C  49.81400 16.60600 25.48500
C  52.53600 18.28700 27.51300
C  52.08900 17.21800 24.31400
O  51.77900 16.72900 23.21800
C  53.40900 17.96500 24.41500
N  46.97800 15.03700 25.45700
C  47.93300 15.20600 24.45300
C  47.33700 14.49100 23.16300
C  45.90500 13.89900 23.54500
C  45.84100 14.38100 25.03500
C  47.16900 15.32600 21.85500
C  45.84200 12.34400 23.54800
C  45.34000 11.71000 22.23600
N  45.50200 15.30300 27.89100
C  44.50500 14.73300 27.14800
C  43.27900 14.68800 27.96000
C  43.67000 15.05500 29.25600
C  45.02100 15.53100 29.15400
C  41.88800 14.24400 27.48600
C  43.25500 15.29600 30.56700
O  42.16200 14.99300 31.04700
C  44.48300 15.80500 31.35200
C  44.10500 16.93200 32.22400
O  44.16600 18.11100 31.92000
O  43.54700 16.46500 33.38300
C  43.36400 17.50100 34.42100
H  50.63900 18.39500 29.35500
H  49.66100 15.86500 23.56600
H  43.78100 13.97600 25.30100
H  46.94200 17.95600 32.24700
H  49.66800 17.60000 31.83500
H  47.97000 19.80700 31.83800
H  48.91600 19.80800 30.28700
H  49.76400 19.79900 31.74700
H  48.74000 15.78800 33.00700
H  47.10400 15.26100 32.66000
H  47.84100 15.98000 35.14400
H  46.25500 16.17900 34.70700
H  52.77600 17.55200 28.28200
H  52.27900 19.27500 27.89500
H  53.43500 18.59200 26.97800
H  53.31300 18.98200 24.79500
H  53.80600 18.04900 23.40400
H  54.14400 17.36200 24.95000
H  47.95000 13.64800 22.84600
H  45.06400 14.39700 23.06200
H  47.87300 16.15800 21.89400
H  46.23200 15.88200 21.85400
H  47.40300 14.77400 20.94400
H  45.22900 11.99300 24.37800
H  46.83900 11.94100 23.72500
H  44.40600 11.18400 22.43400
H  46.07900 11.04300 21.79100
H  45.06900 12.47300 21.50600
H  41.06600 14.50800 28.15100
H  42.03400 13.16400 27.44400
H  41.66100 14.66500 26.50700
H  44.76100 14.96900 31.99400
H  44.20200 17.25800 35.07300
H  42.40900 17.41900 34.94000
H  43.42500 18.56700 34.20100
Mg 1.47100 42.91900 26.04900
C  2.94800 43.13600 29.17400
C  -1.30300 41.79300 27.55500
C  0.28300 42.41900 22.96400
C  4.62900 43.54100 24.53900
N  0.88300 42.57500 28.25100
C  1.59000 42.83700 29.32600
C  0.78000 42.77400 30.63700
C  -0.53800 42.16800 30.07800
C  -0.35600 42.17100 28.57900
C  -0.89600 40.80200 30.70600
C  0.58800 44.17700 31.33800
C  1.02100 44.29200 32.78700
H  0.76200 43.12200 33.71600
N  -0.31900 42.21000 25.37000
C  -1.33500 41.76200 26.17600
C  -2.34400 41.24000 25.30000
C  -2.01800 41.58400 23.99200
C  -0.65000 42.08600 24.05400
C  -3.53200 40.47500 25.82800
C  -2.70500 41.40200 22.72600
O  -2.27900 41.80200 21.64900
C  -4.09200 40.74100 22.80800
N  2.34500 42.99200 24.04000
C  1.60700 42.77200 22.95900
C  2.50900 42.86700 21.67300
C  3.86400 43.23500 22.24400
C  3.63000 43.20200 23.71800
C  2.47900 41.58600 20.79700
C  4.36500 44.62200 21.78800
C  3.78200 45.84700 22.52500
N  3.41300 43.23200 26.62900
C  4.63100 43.46400 25.93300
C  5.66000 43.77700 26.96200
C  4.98200 43.54500 28.12800
C  3.66700 43.27100 27.94200
C  7.08700 44.22500 26.70900
C  5.22800 43.55400 29.57400
O  6.29400 43.87400 30.18800
C  3.90500 43.37700 30.31700
C  3.98500 42.36600 31.35000
O  3.67100 41.20900 31.20700
O  4.51300 42.94700 32.51600
C  4.82200 42.05200 33.64900
H  -2.25400 41.50300 28.00600
H  -0.04500 42.21500 21.94300
H  5.61600 43.81600 24.16400
H  1.25200 42.08900 31.34100
H  -1.36300 42.81200 30.38300
H  -0.02100 40.47500 31.26800
H  -1.21300 40.10400 29.93100
H  -1.78800 40.93900 31.31800
H  -0.41100 44.60900 31.27200
H  1.23500 44.87100 30.80200
H  0.38600 45.04100 33.26200
H  2.00000 44.76400 32.86800
H  -3.60200 39.48900 25.36900
H  -4.47700 40.92000 25.51800
H  -3.67300 40.21500 26.87700
H  -3.87100 39.70100 23.04800
H  -4.56200 40.86500 21.83300
H  -4.75200 41.30100 23.47100
H  2.07300 43.67000 21.07900
H  4.67000 42.59400 21.88800
H  2.96400 40.78600 21.35700
H  2.95200 41.77600 19.83300
H  1.46100 41.29000 20.54300
H  4.07500 44.76900 20.74700
H  5.45200 44.62000 21.70000
H  3.39100 45.75200 23.53800
H  2.97900 46.23200 21.89600
H  4.51200 46.64700 22.64200
H  7.01100 44.88100 25.84200
H  7.80600 43.44800 26.44500
H  7.46600 44.79300 27.55800
H  3.69900 44.28200 30.88900
H  4.70700 42.84800 34.38500
H  5.81200 41.60500 33.56200
H  3.99100 41.34800 33.66800

