158

Mg -2.11600 17.36400 25.73300
C  -2.48900 14.90000 28.35400
C  -2.98000 19.73500 27.90000
C  -2.10900 19.35700 23.14400
C  -2.54900 14.57700 23.50700
N  -2.32500 17.35400 27.96100
C  -2.41100 16.24100 28.79600
C  -2.44900 16.73400 30.29300
C  -2.86400 18.28100 30.12600
C  -2.74800 18.49800 28.57800
C  -4.06700 18.81100 30.83200
C  -1.14300 16.43500 31.13200
C  -0.72000 17.29100 32.31100
H  -0.35800 16.68000 33.66900
N  -2.24500 19.30100 25.57700
C  -2.60500 20.14100 26.63800
C  -2.68000 21.47800 26.14600
C  -2.50600 21.46300 24.73100
C  -2.25800 19.96500 24.39300
C  -2.91400 22.65200 27.13200
C  -2.68700 22.59300 23.73500
O  -2.61100 22.39900 22.50400
C  -3.03600 23.95500 24.28100
N  -2.10300 16.95100 23.60300
C  -2.14300 18.02600 22.76300
C  -2.07600 17.59200 21.29300
C  -2.43000 16.10700 21.41200
C  -2.26300 15.83700 22.96800
C  -2.81400 18.50100 20.30100
C  -1.58100 15.15300 20.47900
C  -2.48900 14.12000 19.73600
N  -2.36200 15.16500 25.79100
C  -2.51500 14.16600 24.83100
C  -2.69700 12.86600 25.43600
C  -2.65100 13.12100 26.80900
C  -2.42400 14.51900 26.98300
C  -2.83200 11.59900 24.73000
C  -2.78200 12.57400 28.10400
O  -3.05700 11.42100 28.45100
C  -2.63600 13.68600 29.16000
C  -1.41600 13.33900 30.05400
O  -0.28400 13.75600 29.91900
O  -1.68000 12.49500 31.11900
C  -0.56700 12.11000 32.00200
H  -3.20900 20.45700 28.68700
H  -1.91800 20.11500 22.38200
H  -2.75800 13.81300 22.75500
H  -3.23900 16.09400 30.68600
H  -2.08300 18.87400 30.60300
H  -4.74700 19.12600 30.04100
H  -3.67600 19.57200 31.50700
H  -4.38200 17.97100 31.45100
H  -0.31800 16.59100 30.43700
H  -1.26200 15.41700 31.50400
H  -1.63000 17.85200 32.52600
H  0.11700 17.90500 31.97900
H  -2.97900 22.50300 28.21000
H  -3.70200 23.34600 26.83900
H  -2.03900 23.29900 27.06600
H  -4.06900 23.99300 24.62600
H  -2.83200 24.66200 23.47700
H  -2.38400 24.21600 25.11500
H  -1.01800 17.51500 21.04300
H  -3.49800 15.91300 21.30800
H  -3.36400 19.28200 20.82500
H  -3.49700 17.82200 19.79100
H  -2.01100 18.84500 19.64800
H  -0.74800 14.74400 21.05200
H  -1.13300 15.75700 19.69100
H  -2.19500 13.92100 18.70600
H  -3.55200 14.32800 19.62000
H  -2.49200 13.13100 20.19500
H  -2.93900 10.82500 25.49000
H  -1.96200 11.34600 24.12300
H  -3.80900 11.59400 24.24600
H  -3.54000 13.63300 29.76600
H  -0.33000 13.01300 32.56300
H  0.32400 11.84400 31.43300
H  -0.91800 11.45000 32.79600
Mg 48.02800 35.09900 27.83900
C  46.30400 33.42700 30.33200
C  48.60500 37.54800 30.08200
C  49.27000 37.01200 25.22200
C  47.59900 32.44700 25.67900
N  47.45400 35.47600 29.90500
C  46.96000 34.55800 30.85200
C  47.11000 35.05000 32.23600
C  47.36200 36.54100 32.03500
C  47.87300 36.54000 30.59200
C  46.09800 37.41100 32.22300
C  48.41200 34.25100 32.78200
C  48.74500 34.44800 34.27600
H  47.67500 35.07900 35.22100
N  48.91100 36.99500 27.67900
C  49.10100 37.82000 28.70900
C  49.75600 39.02200 28.21500
C  49.77000 39.04900 26.79700
C  49.24300 37.64600 26.52000
C  50.37000 40.06500 29.16000
C  50.44400 40.07200 25.81600
O  50.38600 39.93300 24.60800
C  51.18300 41.31100 26.35500
N  48.49100 34.72800 25.77200
C  48.91500 35.65700 24.87400
C  48.97200 35.08400 23.36600
C  48.75800 33.51900 23.64100
C  48.31000 33.53600 25.13300
C  47.97400 35.86100 22.52700
C  49.99300 32.63000 23.41700
C  49.77100 31.18400 23.21100
N  47.16200 33.21300 27.95300
C  46.98500 32.30000 26.99700
C  46.32300 31.20400 27.54300
C  45.84000 31.69800 28.84100
C  46.42300 32.88400 29.02600
C  45.96200 29.92700 26.76600
C  45.11500 31.35500 30.07200
O  44.46000 30.38600 30.38600
C  45.28200 32.50700 31.06400
C  45.61500 31.95700 32.32700
O  46.57500 31.19300 32.55000
O  44.64000 32.29300 33.28200
C  44.93100 31.80700 34.63400
H  48.64400 38.35300 30.81900
H  49.55500 37.57100 24.32800
H  47.27300 31.70900 24.94200
H  46.20600 34.81700 32.80000
H  48.14600 36.84000 32.73000
H  46.28500 37.98000 33.13300
H  45.31300 36.72200 32.53400
H  45.77400 38.09000 31.43400
H  49.29100 34.68100 32.30200
H  48.34400 33.18000 32.58700
H  49.69600 34.97600 34.34100
H  48.90000 33.44400 34.67100
H  50.54900 39.60400 30.13200
H  49.72000 40.92300 29.33100
H  51.39100 40.32200 28.87600
H  50.43500 41.88400 26.90300
H  51.56100 42.04400 25.64300
H  52.04300 40.94700 26.91700
H  49.96300 35.22200 22.93400
H  48.00700 33.03900 23.01300
H  47.30600 35.15000 22.04200
H  48.39000 36.49000 21.74000
H  47.47700 36.44000 23.30600
H  50.64400 32.69600 24.29000
H  50.65100 32.95300 22.61100
H  50.01400 31.16200 22.14800
H  48.77000 30.77900 23.35400
H  50.39900 30.53800 23.82500
H  45.66200 30.27200 25.77600
H  45.19500 29.37500 27.30800
H  46.69000 29.13000 26.61200
H  44.32900 33.03000 31.14900
H  45.98600 31.62800 34.84300
H  44.37100 30.89500 34.84100
H  44.49800 32.52400 35.33100

