158

Mg -11.70600 38.73000 42.32600
C  -9.45100 36.17400 41.25800
C  -9.87500 40.91900 40.36500
C  -14.08200 40.99600 43.00600
C  -13.81800 36.22000 43.35700
N  -9.92200 38.54500 40.99100
C  -9.10300 37.43600 40.71600
C  -7.98400 37.72200 39.77200
C  -8.05800 39.28000 39.72500
C  -9.39300 39.59000 40.32800
C  -6.94200 40.29300 40.08100
C  -8.18800 36.89900 38.41700
C  -7.12400 35.76800 38.13500
H  -6.25500 35.93400 36.91000
N  -11.87000 40.73300 41.87300
C  -11.01400 41.42100 41.01400
C  -11.49300 42.76500 40.98000
C  -12.59300 42.88600 41.85800
C  -12.86300 41.51500 42.35000
C  -10.89800 43.73900 40.06600
C  -13.33500 44.20400 42.10300
O  -12.95200 45.27600 41.62900
C  -14.57100 44.28900 42.97500
N  -13.65200 38.58700 43.16600
C  -14.39200 39.67000 43.37900
C  -15.80800 39.36800 43.67800
C  -15.80600 37.78100 43.51600
C  -14.34200 37.47700 43.35400
C  -16.40200 40.03300 45.00000
C  -16.71300 37.25400 42.35100
C  -18.19700 37.06900 42.72400
N  -11.66700 36.63700 42.46800
C  -12.57900 35.73300 42.91400
C  -12.07700 34.40000 42.98400
C  -10.80900 34.53000 42.32900
C  -10.59900 35.90200 42.08100
C  -12.67100 33.22600 43.65800
C  -9.64000 33.83900 41.89300
O  -9.37100 32.65800 41.92000
C  -8.69500 34.84400 41.21900
C  -7.32100 34.80200 41.82300
O  -6.43100 34.00300 41.69200
O  -7.18900 35.91400 42.69500
C  -6.03000 35.91300 43.56300
H  -9.28800 41.66100 39.81900
H  -14.88900 41.70500 43.20200
H  -14.59100 35.53500 43.71100
H  -7.07600 37.29500 40.19800
H  -8.15300 39.48800 38.65900
H  -6.13600 39.66100 40.45400
H  -7.31600 41.08800 40.72600
H  -6.73700 40.69900 39.09100
H  -8.20600 37.59400 37.57700
H  -9.14100 36.37200 38.45800
H  -7.65100 34.82400 37.99500
H  -6.53500 35.65200 39.04500
H  -10.29200 43.31200 39.26600
H  -10.15600 44.28400 40.64900
H  -11.52300 44.46400 39.54400
H  -15.34800 43.79500 42.39200
H  -14.71000 45.34700 43.20000
H  -14.49200 43.79700 43.94400
H  -16.42200 39.76300 42.86900
H  -16.15500 37.31100 44.43600
H  -16.94000 39.23300 45.50900
H  -17.08500 40.83000 44.70700
H  -15.52400 40.27500 45.59900
H  -16.23900 36.41400 41.84400
H  -16.63900 37.96200 41.52600
H  -18.57800 37.79300 43.44400
H  -18.34100 36.02900 43.01600
H  -18.78200 37.27000 41.82600
H  -13.35000 32.65600 43.02400
H  -13.23700 33.68500 44.46900
H  -11.83800 32.58400 43.94300
H  -8.51000 34.35400 40.26200
H  -6.28700 36.48700 44.45300
H  -5.19200 36.47100 43.14400
H  -5.54400 35.02400 43.96300
Mg 1.42000 42.47000 25.84500
C  2.98800 42.58700 29.02900
C  -1.51800 41.56000 27.59800
C  0.16000 41.56100 22.94700
C  4.51500 43.06700 24.39200
N  0.79700 42.09900 28.04700
C  1.65200 42.27300 29.14600
C  0.96900 41.83300 30.48500
C  -0.44600 41.42700 29.99300
C  -0.40700 41.75500 28.45500
C  -0.83800 39.91300 30.34500
C  0.89400 43.12000 31.46500
C  0.93200 42.94900 32.95700
H  0.80800 41.48200 33.52900
N  -0.49700 41.80200 25.29500
C  -1.56600 41.61500 26.17000
C  -2.69900 41.27600 25.28900
C  -2.24500 41.19200 23.88500
C  -0.84700 41.50700 23.99900
C  -4.08800 40.95400 25.75900
C  -2.93200 40.80000 22.64400
O  -2.39600 40.77400 21.52200
C  -4.41000 40.54100 22.62500
N  2.18100 42.47500 23.96100
C  1.46200 41.96700 22.89600
C  2.38300 41.77900 21.62900
C  3.52800 42.83900 21.98700
C  3.43900 42.77500 23.55300
C  2.89600 40.30200 21.54800
C  3.42500 44.26400 21.47200
C  4.36400 44.62200 20.30800
N  3.33700 42.80200 26.51700
C  4.48000 43.08200 25.80100
C  5.56700 43.16000 26.71300
C  5.06300 42.98900 27.96800
C  3.68600 42.76700 27.82400
C  6.94500 43.25800 26.21100
C  5.38700 42.77500 29.36800
O  6.50300 42.66600 29.89200
C  4.00900 42.64000 30.18900
C  4.13200 41.37200 31.03300
O  4.19100 40.21700 30.61600
O  4.33100 41.82100 32.31700
C  4.77500 40.72700 33.28100
H  -2.42200 41.24700 28.12400
H  -0.13700 41.22000 21.95300
H  5.51300 43.29000 24.00800
H  1.52300 41.09100 31.06000
H  -1.23300 42.01800 30.46100
H  -0.83900 39.35000 29.41100
H  -1.78500 39.78500 30.86800
H  -0.07900 39.40500 30.94000
H  -0.10400 43.44000 31.16700
H  1.53500 43.87300 31.00700
H  0.01300 43.45700 33.24900
H  1.83300 43.41700 33.35400
H  -4.12900 39.87600 25.60300
H  -4.78500 41.57100 25.19200
H  -4.19100 41.02100 26.84200
H  -4.55300 39.51300 22.95600
H  -4.60800 40.59000 21.55500
H  -4.89800 41.37100 23.13600
H  1.72600 42.05800 20.80500
H  4.47100 42.45300 21.60000
H  2.65200 39.91600 22.53700
H  3.96400 40.17100 21.36900
H  2.44700 39.72700 20.73900
H  3.58000 44.96200 22.29400
H  2.42000 44.30600 21.05300
H  3.80000 44.92500 19.42600
H  5.18700 43.91100 20.23400
H  4.82100 45.57400 20.58300
H  7.17900 42.50800 25.45600
H  7.57000 43.25400 27.10400
H  7.04900 44.19000 25.65600
H  3.88300 43.54300 30.78700
H  5.86400 40.75000 33.31600
H  4.47800 39.72800 32.96100
H  4.23600 40.91300 34.21000

