158

Mg 43.65900 2.90900 47.59400
C  41.51200 5.57700 47.25800
C  40.97900 0.72100 47.71000
C  45.88300 0.31000 47.56400
C  46.36800 5.06600 46.79200
N  41.46800 3.11100 47.22800
C  40.84000 4.34700 47.14200
C  39.37100 4.13000 47.03600
C  39.19400 2.57100 47.45000
C  40.62800 2.05900 47.48000
C  38.46900 2.46400 48.84100
C  38.95200 4.43800 45.55900
C  37.94200 5.65000 45.24300
H  38.24300 6.53100 43.95800
N  43.41600 0.72400 47.66200
C  42.28300 0.04200 47.80700
C  42.54100 -1.25500 47.97900
C  43.93900 -1.42300 47.79300
C  44.49400 -0.08600 47.66800
C  41.43700 -2.24600 48.20000
C  44.64400 -2.79300 47.78800
O  43.92500 -3.80000 47.71100
C  46.17200 -2.86800 47.91800
N  45.74400 2.69200 47.05100
C  46.47600 1.52900 47.10300
C  47.99400 1.82300 47.08800
C  48.10100 3.30900 46.61500
C  46.62500 3.68500 46.74000
C  48.76300 1.57400 48.43600
C  48.64000 3.45500 45.17300
C  50.10300 3.77700 45.14000
N  43.94600 4.92100 47.28000
C  45.09700 5.63700 47.04300
C  44.70700 7.11500 46.92200
C  43.29200 7.12400 47.18200
C  42.92000 5.75500 47.26800
C  45.55900 8.22400 46.64000
C  42.11600 7.93600 47.32900
O  41.97800 9.19300 47.17400
C  40.95200 6.97100 47.45800
C  40.41400 7.05800 48.85000
O  40.99000 6.62600 49.86700
O  39.19700 7.68600 48.85300
C  38.62000 8.11000 50.14800
H  40.04800 0.19900 47.94100
H  46.70400 -0.41000 47.56100
H  47.24100 5.72100 46.74900
H  38.82900 4.71800 47.77600
H  38.73600 1.86000 46.76200
H  38.21700 3.43200 49.27300
H  38.98800 1.87400 49.59700
H  37.53700 1.91500 48.70700
H  38.42700 3.57800 45.14200
H  39.85600 4.40100 44.95200
H  38.04100 6.39700 46.03100
H  36.88200 5.39300 45.25200
H  40.43500 -1.82300 48.13500
H  41.52900 -2.65700 49.20500
H  41.51300 -3.15800 47.60800
H  46.37500 -2.61100 48.95700
H  46.65800 -2.27000 47.14700
H  46.56600 -3.88400 47.93000
H  48.49800 1.11900 46.42600
H  48.67100 3.89500 47.33600
H  49.20000 0.57900 48.35900
H  48.07600 1.73900 49.26700
H  49.54500 2.32800 48.52400
H  48.15100 4.28600 44.66300
H  48.60800 2.50700 44.63700
H  50.67400 2.86000 44.99500
H  50.43000 4.28400 46.04800
H  50.38000 4.50800 44.38100
H  46.18800 8.02300 45.77300
H  46.29900 8.35400 47.43000
H  45.01300 9.16300 46.55500
H  40.20600 7.06900 46.67000
H  39.08500 7.67600 51.03400
H  37.56700 7.83200 50.10300
H  38.69700 9.19700 50.14300
Mg 46.48800 35.24600 28.79000
C  45.00300 33.46400 31.11300
C  46.66600 37.92800 31.15000
C  48.10200 37.16200 26.48300
C  46.11100 32.75000 26.42800
N  46.00100 35.63100 30.91900
C  45.43700 34.65200 31.65600
C  45.55200 35.03900 33.11100
C  45.58200 36.60100 33.06000
C  46.15700 36.76200 31.64000
C  44.13000 37.17400 33.29100
C  46.91500 34.43800 33.65300
C  46.86700 34.09200 35.13300
H  45.89900 34.70300 36.09100
N  47.09200 37.23300 28.73900
C  47.07700 38.11600 29.79300
C  47.58700 39.41400 29.29600
C  48.03700 39.21600 27.97600
C  47.74300 37.77700 27.61900
C  47.54300 40.56700 30.20700
C  48.55900 40.24000 26.98600
O  48.94900 39.92300 25.85800
C  48.75700 41.58400 27.40400
N  46.99100 34.95700 26.68500
C  47.73200 35.89900 25.98700
C  48.22300 35.29500 24.64900
C  47.57100 33.89000 24.67000
C  46.81600 33.86100 25.98000
C  47.78800 36.20900 23.54200
C  48.56600 32.67000 24.42400
C  48.26200 31.79300 23.14800
N  45.83200 33.48700 28.74500
C  45.58900 32.54700 27.72300
C  45.09000 31.27400 28.30500
C  44.79800 31.62100 29.64900
C  45.25800 32.95200 29.82400
C  44.86400 29.91600 27.56700
C  44.23900 31.17100 30.85700
O  43.83200 30.06200 31.13100
C  44.27200 32.33000 31.85400
C  44.98100 31.76000 32.97500
O  46.14900 31.41400 33.01800
O  44.12800 31.73000 33.97200
C  44.59100 30.80700 35.01300
H  46.69500 38.74500 31.87400
H  48.76200 37.69800 25.79800
H  45.85500 31.88800 25.80900
H  44.67900 34.64000 33.62800
H  46.29600 36.97400 33.79500
H  43.93500 37.20600 34.36300
H  43.43900 36.55600 32.71800
H  44.11100 38.22100 32.99000
H  47.65800 35.22500 33.52600
H  47.30800 33.64100 33.02100
H  47.84300 34.42900 35.48200
H  46.72100 33.01200 35.11400
H  47.75800 41.53000 29.74500
H  48.19700 40.34000 31.04900
H  46.49500 40.53200 30.50400
H  49.30100 42.12500 26.63000
H  49.38100 41.40100 28.27800
H  47.78800 42.03400 27.62400
H  49.31300 35.29500 24.61000
H  46.77200 33.96200 23.93100
H  47.01700 36.90600 23.87200
H  47.37500 35.57800 22.75500
H  48.54200 36.70200 22.92900
H  48.47400 32.07600 25.33200
H  49.62800 32.91700 24.40700
H  48.12400 30.76100 23.47100
H  49.04100 31.83500 22.38700
H  47.39500 32.15200 22.59400
H  44.95500 29.04700 28.21700
H  45.54900 29.92400 26.71900
H  43.86200 29.92200 27.13800
H  43.24000 32.64600 32.00600
H  44.98700 29.89400 34.56900
H  43.67400 30.61000 35.56900
H  45.29700 31.26200 35.70700

