158

Mg -1.67200 17.61200 26.69600
C  -2.06600 15.31900 29.21600
C  -2.16400 20.25600 28.98200
C  -1.94500 19.83700 24.04400
C  -2.19700 15.01200 24.32000
N  -2.03300 17.71600 28.86600
C  -2.09300 16.66600 29.67600
C  -2.13500 17.10300 31.16600
C  -2.28600 18.70600 31.03400
C  -2.23200 18.87300 29.55200
C  -3.32300 19.37300 31.86700
C  -0.85400 16.70900 32.00200
C  -0.40700 17.66400 33.22900
H  -0.00600 16.98400 34.44000
N  -1.87600 19.68900 26.55100
C  -2.06600 20.60100 27.59300
C  -2.09300 21.97300 27.06000
C  -2.11900 21.81500 25.66800
C  -2.01800 20.39200 25.37400
C  -2.29200 23.21600 27.92000
C  -2.32400 22.89500 24.59200
O  -2.44500 22.65500 23.37600
C  -2.27600 24.33200 25.05800
N  -1.88100 17.47500 24.45100
C  -1.96100 18.56200 23.61700
C  -1.88700 18.03700 22.14900
C  -2.01200 16.50000 22.27700
C  -2.08500 16.28700 23.76300
C  -2.82700 18.65300 21.09400
C  -0.96900 15.59000 21.44700
C  -1.43900 14.90300 20.15400
N  -1.96900 15.62400 26.73100
C  -2.17000 14.69600 25.72600
C  -2.25100 13.36000 26.24600
C  -2.15300 13.53100 27.66600
C  -2.09000 14.91400 27.85600
C  -2.55500 12.09800 25.50300
C  -2.20100 12.87000 28.97000
O  -2.24700 11.66600 29.21900
C  -2.19900 14.05700 30.05600
C  -1.16400 13.81300 31.09900
O  0.04700 13.91700 31.02300
O  -1.82200 13.35700 32.25900
C  -0.92900 12.65200 33.24700
H  -2.35700 21.11700 29.62500
H  -1.88000 20.52500 23.19800
H  -2.35800 14.20700 23.59900
H  -2.98500 16.62200 31.65000
H  -1.31600 19.15200 31.25600
H  -4.04800 19.89900 31.24500
H  -2.82600 20.00900 32.60000
H  -3.82500 18.62900 32.48400
H  0.07800 16.55200 31.45900
H  -1.22700 15.86600 32.58200
H  -1.23500 18.32600 33.48300
H  0.47700 18.21800 32.91400
H  -1.49200 23.93300 27.73400
H  -2.30200 23.15300 29.00800
H  -3.21800 23.73900 27.68200
H  -3.24600 24.73100 25.35400
H  -2.09500 24.82600 24.10400
H  -1.47000 24.36800 25.79200
H  -0.83900 18.14600 21.86900
H  -3.03000 16.24600 21.97900
H  -2.71300 19.73200 20.98500
H  -3.86700 18.38200 21.27500
H  -2.54100 18.20600 20.14200
H  -0.47700 14.87000 22.10200
H  -0.08000 16.13000 21.12300
H  -1.40100 13.83200 20.35400
H  -0.72900 15.20300 19.38300
H  -2.43600 15.17600 19.80800
H  -3.36900 12.37600 24.83300
H  -2.79800 11.33400 26.24100
H  -1.64800 11.92000 24.92500
H  -3.11800 14.03900 30.64300
H  0.15000 12.58700 33.11000
H  -1.26500 11.61900 33.33200
H  -1.06500 13.15100 34.20700
Mg 48.57200 45.08200 43.69000
C  45.18600 45.25700 42.48400
C  48.55100 41.82000 43.06400
C  51.82600 45.24700 44.26000
C  48.33200 48.65400 43.93500
N  46.97800 43.69900 42.77800
C  45.67200 43.94100 42.46000
C  44.90100 42.63200 42.18200
C  45.93600 41.60600 42.78900
C  47.29500 42.39200 42.85300
C  45.51700 41.04300 44.12400
C  44.67600 42.55000 40.68100
C  43.22300 42.25100 40.28300
H  42.80100 42.86800 38.90600
N  50.06300 43.74300 43.44600
C  49.86300 42.41700 43.28400
C  51.08700 41.68700 43.38600
C  52.06700 42.61000 43.81000
C  51.35400 43.95900 43.81500
C  51.21500 40.14400 43.07300
C  53.48200 42.29900 44.00000
O  53.91200 41.18800 43.75100
C  54.49000 43.38800 44.41800
N  49.99200 46.80000 43.74900
C  51.23100 46.53000 44.24000
C  51.97700 47.81900 44.67900
C  50.79700 48.90900 44.67400
C  49.63100 48.13200 44.06600
C  52.63000 47.56800 46.09000
C  50.87500 50.18500 43.77100
C  50.45700 51.51700 44.44100
N  47.09400 46.68500 43.48200
C  47.17100 48.04600 43.56300
C  45.85200 48.67000 43.27600
C  45.03800 47.59000 42.90000
C  45.85900 46.40300 42.98300
C  45.50500 50.13400 43.29300
C  43.70800 47.28900 42.45200
O  42.71800 48.01400 42.43500
C  43.73400 45.76600 42.13500
C  42.69600 45.05000 42.88800
O  41.76400 44.44000 42.36400
O  42.89100 45.15400 44.24900
C  41.85000 44.65000 45.15500
H  48.64300 40.74600 42.89100
H  52.86200 45.28100 44.60300
H  48.30800 49.71500 44.19200
H  43.97800 42.63700 42.76000
H  46.00400 40.81500 42.04100
H  44.70000 41.55000 44.63700
H  46.37300 41.13300 44.79300
H  45.22400 39.99300 44.09300
H  45.29200 41.71800 40.34100
H  45.00300 43.48400 40.22400
H  42.50500 42.62800 41.01200
H  43.08600 41.17300 40.19500
H  50.32900 39.74500 42.58000
H  51.36300 39.70000 44.05800
H  52.03600 39.95700 42.38100
H  54.42800 44.23600 43.73500
H  55.51100 43.01000 44.37500
H  54.17600 43.66200 45.42500
H  52.64700 47.94900 43.82900
H  50.54700 49.26600 45.67300
H  52.25900 46.62800 46.49800
H  52.35400 48.36600 46.77900
H  53.71900 47.57600 46.03600
H  50.19600 49.98400 42.94300
H  51.94800 50.26400 43.59800
H  51.24600 52.22400 44.18500
H  50.23800 51.48400 45.50900
H  49.49600 51.82300 44.02700
H  45.01800 50.40900 42.35700
H  46.46400 50.62800 43.44800
H  44.83500 50.33300 44.12900
H  43.46400 45.65400 41.08400
H  42.15000 44.99200 46.14600
H  41.76100 43.56400 45.14000
H  40.85700 45.07100 45.00000

