158

Mg 26.02300 1.49600 29.32900
C  27.91900 1.00600 32.25300
C  23.26300 1.91100 31.40300
C  24.07200 1.57200 26.62800
C  28.81100 0.66500 27.41000
N  25.63600 1.62300 31.57300
C  26.56600 1.43100 32.51200
C  26.04200 1.65300 33.88800
C  24.46700 1.71700 33.70300
C  24.46100 1.80300 32.14300
C  23.72500 0.51400 34.19600
C  26.70200 2.80800 34.78300
C  27.12600 2.48100 36.27900
H  27.03500 3.60200 37.40700
N  23.91800 1.63000 29.07000
C  22.97100 1.86500 30.01100
C  21.67300 1.90900 29.35100
C  21.80900 1.82900 27.93900
C  23.30000 1.65900 27.85600
C  20.37000 2.02700 30.13200
C  20.89000 1.89600 26.76700
O  21.29900 1.72900 25.61200
C  19.45400 2.36000 26.85900
N  26.32900 1.05100 27.26800
C  25.38900 1.27800 26.33900
C  25.95400 1.17000 24.94000
C  27.51000 0.95200 25.15700
C  27.57500 0.85600 26.69700
C  25.34900 0.19500 23.92400
C  28.46200 2.04300 24.52800
C  28.89900 3.34300 25.32700
N  27.99900 0.81500 29.71400
C  29.00200 0.51300 28.83400
C  30.20200 0.25800 29.60400
C  29.81800 0.33100 30.92600
C  28.45100 0.74800 30.94500
C  31.57200 -0.06800 29.06000
C  30.19300 0.35200 32.29300
O  31.30000 0.20400 32.78900
C  28.99700 0.70700 33.19000
C  28.69700 -0.45400 34.11900
O  28.01400 -1.47200 33.79600
O  29.18400 -0.22400 35.35400
C  28.58500 -1.11000 36.36900
H  22.45200 2.14400 32.09500
H  23.57300 1.86100 25.70000
H  29.68300 0.51800 26.77000
H  26.23100 0.70500 34.39200
H  24.05500 2.56800 34.24500
H  23.16400 -0.00300 33.41700
H  22.97500 0.85400 34.91000
H  24.23700 -0.28800 34.72700
H  25.94300 3.59000 34.82800
H  27.57200 3.17800 34.24000
H  28.18600 2.28700 36.11500
H  26.65800 1.58400 36.68400
H  20.39000 1.74500 31.18500
H  19.60700 1.34600 29.75600
H  19.99100 3.04700 30.18300
H  19.04600 1.58200 27.50300
H  18.95500 2.33700 25.89000
H  19.39800 3.34500 27.32400
H  25.92500 2.19000 24.55700
H  27.76600 -0.01300 24.72000
H  25.97100 -0.68800 23.77600
H  25.33000 0.67400 22.94400
H  24.35200 -0.11400 24.23400
H  28.09000 2.32000 23.54200
H  29.31300 1.38800 24.33700
H  28.40700 3.37100 26.30000
H  28.69300 4.29500 24.83800
H  29.97000 3.14300 25.33400
H  31.72800 0.65800 28.26200
H  31.65400 -1.13200 28.84000
H  32.39100 0.18700 29.73300
H  29.29300 1.59600 33.74600
H  28.74500 -2.18000 36.23200
H  27.50300 -0.97900 36.40300
H  29.14300 -0.85400 37.27000
Mg 41.99200 40.71500 27.49700
C  41.08000 43.27400 29.86900
C  43.22700 38.93700 30.07900
C  43.02200 38.61500 25.27500
C  41.49800 43.13600 24.96400
N  42.18800 41.16000 29.73200
C  41.53900 42.07700 30.47100
C  41.59700 41.78900 31.98000
C  42.45400 40.42300 32.01000
C  42.65800 40.18600 30.52000
C  43.78400 40.40500 32.78400
C  40.18300 41.66200 32.64200
C  39.89300 42.52900 33.80800
H  39.22400 41.88200 34.98100
N  42.75600 38.91600 27.65500
C  43.28200 38.32500 28.80100
C  43.74400 37.01600 28.50200
C  43.67100 36.85200 27.07400
C  43.17200 38.15200 26.59600
C  44.24600 36.03500 29.60100
C  44.17900 35.72100 26.21700
O  44.14600 35.63700 25.03600
C  44.84800 34.65600 26.85900
N  42.28400 40.91000 25.42400
C  42.67800 39.84600 24.70800
C  42.66600 40.06000 23.16000
C  42.07500 41.47400 23.05300
C  41.97600 41.91400 24.52500
C  43.98200 39.83400 22.45200
C  40.67900 41.45400 22.33700
C  39.38800 41.06300 23.08100
N  41.43000 42.81400 27.37300
C  41.23100 43.63400 26.28300
C  41.01000 45.04100 26.75300
C  40.83200 44.90000 28.14100
C  41.13800 43.54200 28.46200
C  40.88900 46.16100 25.78800
C  40.38400 45.59200 29.39800
O  40.12100 46.73500 29.63600
C  40.50500 44.53500 30.56100
C  41.51000 45.10000 31.49800
O  42.72200 45.06000 31.45500
O  40.79500 45.70200 32.47200
C  41.52500 46.08200 33.67900
H  43.72600 38.31400 30.82500
H  43.20600 37.90500 24.46500
H  41.19600 43.73200 24.10000
H  42.15100 42.55000 32.53000
H  41.85200 39.56100 32.29800
H  43.91500 41.40200 33.20700
H  44.69200 40.14900 32.23800
H  43.80000 39.72500 33.63600
H  39.99200 40.65500 33.01200
H  39.50000 41.92900 31.83500
H  39.20800 43.29800 33.45200
H  40.74200 43.07700 34.21900
H  45.33100 35.95000 29.54000
H  43.94600 35.00300 29.42000
H  43.89900 36.26900 30.60800
H  44.04800 34.19700 27.44000
H  45.67700 35.11600 27.39600
H  45.35000 34.00300 26.14500
H  41.97900 39.27500 22.84500
H  42.63500 42.19600 22.45800
H  44.87900 39.72000 23.05900
H  44.19100 40.62800 21.73500
H  43.96000 38.89600 21.89800
H  40.72700 40.65200 21.60100
H  40.47100 42.31300 21.69800
H  39.57400 40.65800 24.07600
H  38.77800 40.25300 22.68100
H  38.87200 42.00700 23.25300
H  39.99400 46.07700 25.17100
H  41.73300 46.01200 25.11500
H  40.91000 47.21600 26.06300
H  39.54000 44.37500 31.04300
H  41.78200 45.20900 34.28000
H  40.91700 46.72500 34.31600
H  42.47300 46.60800 33.57000

