158

Mg 1.69200 -1.82200 44.17300
C  4.98500 -0.62700 43.62800
C  0.50500 0.93500 42.34500
C  -1.33000 -3.06200 44.36200
C  3.12700 -4.80600 45.28000
N  2.63500 -0.21800 42.92100
C  3.99500 0.09300 42.86800
C  4.28700 1.26400 41.94800
C  2.83600 1.95600 41.78800
C  1.92400 0.88800 42.40900
C  2.77300 3.21000 42.66500
C  4.87000 0.75500 40.61700
C  5.99100 1.67100 40.02200
H  5.73500 2.25200 38.65700
N  -0.18600 -1.11900 43.43600
C  -0.47600 -0.01900 42.75700
C  -1.88400 0.12200 42.58500
C  -2.46100 -1.06200 43.10000
C  -1.33200 -1.81000 43.71200
C  -2.59000 1.21700 41.89600
C  -3.93200 -1.34400 43.02900
O  -4.74200 -0.54700 42.49800
C  -4.48000 -2.63600 43.58300
N  1.02200 -3.78600 44.47600
C  -0.30000 -3.96600 44.80900
C  -0.60600 -5.18700 45.47400
C  0.81500 -5.82500 45.74500
C  1.79900 -4.78400 45.05100
C  -1.41400 -5.05100 46.80500
C  1.01000 -7.23900 45.21400
C  0.97800 -7.32700 43.69000
N  3.71000 -2.59700 44.42200
C  4.05800 -3.83800 44.86200
C  5.46400 -3.87000 45.09000
C  5.95300 -2.59500 44.63900
C  4.80100 -1.93100 44.21400
C  6.22600 -5.03400 45.71400
C  7.08800 -1.71300 44.39500
O  8.28800 -1.84500 44.51000
C  6.46500 -0.37800 43.79000
C  6.78600 0.81300 44.57400
O  6.12000 1.20800 45.50800
O  7.92200 1.34900 44.06300
C  8.36200 2.69700 44.55700
H  0.16400 1.89700 41.95600
H  -2.28900 -3.54400 44.56300
H  3.71900 -5.62300 45.69900
H  4.94500 1.87300 42.56800
H  2.57900 2.13700 40.74500
H  3.75100 3.68800 42.72400
H  2.47400 3.13900 43.71100
H  2.08900 3.95500 42.26000
H  4.11400 0.44500 39.89600
H  5.48900 -0.07000 40.97100
H  6.93200 1.12100 40.04400
H  6.18800 2.53200 40.66000
H  -3.23200 0.77800 41.13200
H  -1.95700 1.92600 41.36200
H  -3.21300 1.75300 42.61200
H  -4.10100 -3.48100 43.00900
H  -5.56100 -2.67200 43.44700
H  -4.29800 -2.86000 44.63400
H  -1.13700 -5.72400 44.68700
H  1.04700 -5.96800 46.80000
H  -1.36300 -4.00200 47.09500
H  -0.93700 -5.67100 47.56400
H  -2.44500 -5.40400 46.76200
H  0.31800 -8.01900 45.53100
H  1.96400 -7.66100 45.52900
H  0.31900 -8.04500 43.20300
H  1.99700 -7.52700 43.35800
H  0.66400 -6.43500 43.14800
H  5.78500 -5.25300 46.68700
H  7.28700 -4.78100 45.72400
H  6.09300 -5.83400 44.98600
H  6.93700 -0.23400 42.81800
H  7.68200 3.35900 44.01900
H  9.41800 2.83500 44.32500
H  8.21500 2.75400 45.63500
Mg 0.64800 42.63400 25.75500
C  1.87500 42.68600 29.03400
C  -2.31300 41.46700 27.01500
C  -0.48100 42.18900 22.64600
C  3.85000 43.40700 24.58400
N  -0.17500 42.35500 27.78700
C  0.53500 42.58800 28.97400
C  -0.38600 42.27200 30.16600
C  -1.77600 41.81500 29.50400
C  -1.42500 41.88900 27.98900
C  -2.33500 40.39400 29.90100
C  -0.54900 43.63500 31.02900
C  -0.97900 43.49000 32.47200
H  -1.41000 42.07100 33.05600
N  -1.21800 42.01500 24.94400
C  -2.28700 41.57600 25.62900
C  -3.37100 41.36600 24.66000
C  -2.84200 41.41100 23.32100
C  -1.42400 41.81200 23.54900
C  -4.67400 40.71800 25.03200
C  -3.43100 41.08900 22.05300
O  -2.92300 41.15700 20.95600
C  -4.79900 40.49300 22.00400
N  1.60000 42.63200 23.91500
C  0.84500 42.61900 22.77900
C  1.64500 43.03000 21.52400
C  3.00300 43.45500 22.19000
C  2.78700 43.23300 23.67300
C  1.72300 41.89900 20.45900
C  3.65500 44.78900 21.73900
C  2.89300 46.14700 21.59000
N  2.52900 42.96600 26.62300
C  3.76300 43.21800 26.02200
C  4.74500 43.15900 27.06700
C  4.09800 43.01600 28.27600
C  2.72000 42.91000 27.94600
C  6.18300 43.40600 26.89100
C  4.25900 42.99800 29.75600
O  5.25300 43.26500 30.35500
C  2.84400 42.59200 30.30000
C  2.91900 41.24100 30.74400
O  3.42600 40.31500 30.10800
O  2.33700 41.10200 31.96200
C  1.98700 39.76600 32.47400
H  -3.23700 41.03400 27.40500
H  -0.83100 42.05800 21.62000
H  4.87600 43.65900 24.30600
H  -0.15500 41.40600 30.78700
H  -2.59600 42.48900 29.75300
H  -1.61600 39.91300 30.56500
H  -2.51300 39.79200 29.01000
H  -3.18700 40.53000 30.56800
H  -1.29400 44.32100 30.62900
H  0.37500 44.21300 31.06200
H  -1.81700 44.10500 32.80000
H  -0.11500 43.72100 33.09500
H  -5.02900 39.94700 24.34900
H  -5.46300 41.47100 25.02700
H  -4.59800 40.09200 25.92100
H  -5.55600 41.08000 22.52400
H  -4.88600 39.44400 22.28800
H  -5.12100 40.48700 20.96300
H  1.15100 43.93000 21.16000
H  3.76500 42.71100 21.95500
H  1.13100 42.25200 19.61400
H  1.28600 41.00100 20.89400
H  2.77000 41.69600 20.23200
H  4.08900 44.49600 20.78300
H  4.47500 44.95100 22.43900
H  2.92600 46.42800 20.53800
H  3.44500 46.95800 22.06600
H  1.86300 46.05000 21.93200
H  6.33900 44.48000 26.98300
H  6.63200 43.11400 25.94200
H  6.65200 42.81400 27.67800
H  2.50700 43.24500 31.10500
H  2.26800 39.57100 33.50900
H  2.47500 38.95900 31.92800
H  0.89900 39.72000 32.45100

