158

Mg 2.48400 -0.48000 43.89800
C  5.86000 0.58000 43.91300
C  1.45700 2.60000 42.85800
C  -0.61400 -1.73100 43.65700
C  3.67600 -3.72400 44.80800
N  3.62700 1.40200 43.45000
C  4.97400 1.62900 43.54200
C  5.30800 3.06600 43.18500
C  3.84500 3.70000 43.01500
C  2.89800 2.49200 43.10700
C  3.54100 4.92000 43.97200
C  6.19500 3.29100 41.90700
C  5.65200 2.76200 40.56800
H  5.65400 3.72000 39.42000
N  0.66000 0.30000 43.21400
C  0.44100 1.62700 42.87400
C  -0.97100 1.74000 42.40800
C  -1.58900 0.48900 42.65700
C  -0.51900 -0.41200 43.25600
C  -1.52700 3.03500 41.86100
C  -3.04700 0.22400 42.46400
O  -3.77300 1.10600 42.07000
C  -3.61600 -1.08900 42.87700
N  1.68000 -2.64000 43.66200
C  0.32100 -2.75800 43.83000
C  0.05000 -4.05200 44.63200
C  1.38700 -4.64400 44.98800
C  2.34500 -3.66800 44.31100
C  -0.98200 -4.09400 45.71800
C  1.72100 -6.17300 44.66800
C  1.75400 -7.13400 45.85500
N  4.30500 -1.42000 44.31000
C  4.66800 -2.69600 44.70600
C  6.10100 -2.81100 44.94400
C  6.62600 -1.55200 44.59800
C  5.46800 -0.75900 44.26400
C  6.85500 -4.10500 45.42900
C  7.77700 -0.83100 44.51100
O  8.96100 -1.12400 44.73700
C  7.40700 0.57000 43.96900
C  8.05100 1.65700 44.74900
O  8.90700 2.44900 44.35100
O  7.46200 1.75700 45.92700
C  7.63300 3.07900 46.59700
H  1.10700 3.63400 42.83600
H  -1.61400 -2.03100 43.97800
H  4.00600 -4.62200 45.33500
H  5.74100 3.47300 44.09900
H  3.62900 4.03600 42.00100
H  3.38900 5.88300 43.48400
H  4.31100 5.02100 44.73700
H  2.62200 4.69500 44.51400
H  7.16000 2.80500 42.05200
H  6.20500 4.37300 41.77500
H  4.62500 2.41900 40.68900
H  6.26400 1.88900 40.34700
H  -0.69900 3.56700 41.39200
H  -1.95600 3.64100 42.65900
H  -2.34400 2.90200 41.15200
H  -3.53600 -1.18600 43.95900
H  -3.02300 -1.83900 42.35300
H  -4.65800 -1.01400 42.56700
H  -0.35000 -4.81000 43.95900
H  1.44900 -4.53200 46.07000
H  -1.10200 -3.01700 45.83900
H  -0.63100 -4.53000 46.65300
H  -1.86900 -4.62100 45.36700
H  2.61100 -6.15700 44.04000
H  0.91300 -6.60800 44.08000
H  1.08400 -7.98600 45.73900
H  1.54500 -6.56700 46.76200
H  2.75300 -7.57100 45.84600
H  7.24800 -4.67200 44.58500
H  6.36000 -4.80300 46.10400
H  7.69700 -3.67400 45.97100
H  7.88200 0.57000 42.98700
H  7.43900 3.99200 46.03400
H  8.68800 3.22000 46.83000
H  7.18200 3.14400 47.58700
Mg -6.23500 24.72100 26.06800
C  -4.49100 26.21800 28.72500
C  -7.41000 22.34700 28.42400
C  -7.68700 23.13800 23.51900
C  -4.54100 26.80600 23.87300
N  -5.92500 24.31800 28.28100
C  -5.32800 25.20500 29.18700
C  -5.69600 24.87700 30.66600
C  -6.19300 23.40800 30.45800
C  -6.56800 23.34700 28.96900
C  -5.23400 22.27400 30.80700
C  -6.80200 25.86700 31.22900
C  -6.34200 26.56600 32.53200
H  -5.61400 25.78300 33.65000
N  -7.35200 22.90600 25.94100
C  -7.69000 22.12100 26.99400
C  -8.42900 20.97900 26.39000
C  -8.56900 21.15900 24.97600
C  -7.91600 22.45600 24.74400
C  -8.95600 19.80900 27.29700
C  -9.29700 20.35600 23.84600
O  -9.36600 20.74000 22.69400
C  -10.21600 19.21600 24.29500
N  -6.17400 24.97900 24.00200
C  -6.99700 24.30800 23.15700
C  -6.92000 24.78600 21.69200
C  -5.81200 25.87600 21.87100
C  -5.53600 25.92500 23.34400
C  -6.69700 23.84000 20.49600
C  -6.09700 27.28900 21.27400
C  -4.97200 27.72900 20.25600
N  -4.73700 26.16500 26.15700
C  -4.10300 26.98300 25.20200
C  -3.17800 27.84000 25.81200
C  -3.21000 27.55500 27.17100
C  -4.17400 26.53200 27.34900
C  -2.34800 28.83900 25.03400
C  -2.74500 27.94000 28.41800
O  -1.81600 28.73600 28.79400
C  -3.58900 27.14700 29.50200
C  -2.52100 26.52300 30.37800
O  -1.74000 25.65000 30.07800
O  -2.60000 27.02800 31.66100
C  -1.68000 26.40000 32.68300
H  -7.64000 21.59600 29.18200
H  -8.12400 22.66400 22.63700
H  -4.16900 27.48000 23.09800
H  -4.83800 24.81800 31.33500
H  -7.05300 23.32200 31.12300
H  -5.87800 21.70800 31.48200
H  -4.43100 22.69700 31.41000
H  -4.96500 21.75800 29.88600
H  -7.75300 25.38100 31.44700
H  -6.87700 26.66200 30.48700
H  -7.22300 27.04900 32.95500
H  -5.74500 27.43700 32.26200
H  -8.82600 18.84300 26.81100
H  -10.01700 20.05900 27.29700
H  -8.57600 19.67600 28.31100
H  -9.47300 18.46800 24.57100
H  -10.70100 18.78600 23.41900
H  -10.98100 19.51200 25.01300
H  -7.87400 25.26800 21.47700
H  -4.95100 25.54800 21.28800
H  -6.31100 22.92200 20.93700
H  -5.98300 24.21000 19.76000
H  -7.64300 23.59400 20.01300
H  -6.16300 28.07800 22.02400
H  -7.03600 27.20700 20.72800
H  -4.83600 28.80400 20.37100
H  -5.48600 27.61400 19.30200
H  -4.03200 27.17700 20.29400
H  -2.29500 29.75000 25.63000
H  -2.78100 29.06300 24.05900
H  -1.36100 28.44700 24.79000
H  -4.20500 27.84800 30.06600
H  -1.87100 25.32800 32.72300
H  -1.84400 26.95200 33.60900
H  -0.65500 26.48700 32.32200

