158

Mg 49.10300 35.32200 27.06600
C  46.98300 33.93200 29.51700
C  49.30300 38.06400 29.05000
C  50.86700 36.67000 24.70100
C  48.37700 32.57900 25.04800
N  48.12100 35.92600 29.09000
C  47.50800 35.13600 29.98900
C  47.55400 35.69700 31.41300
C  47.95300 37.16600 31.06100
C  48.58300 37.01200 29.64200
C  46.68800 38.15700 30.97500
C  48.56500 34.93000 32.35800
C  48.12700 34.86400 33.84400
H  49.04100 35.79800 34.75100
N  49.92600 37.21600 26.88300
C  49.96100 38.17600 27.83800
C  50.76600 39.32700 27.35400
C  51.19300 38.91500 26.05600
C  50.70000 37.53100 25.84700
C  50.90600 40.61000 28.12900
C  52.15300 39.63900 25.12700
O  52.48900 39.12800 24.07400
C  52.72700 40.95500 25.45400
N  49.50000 34.72000 25.07200
C  50.35700 35.48400 24.35500
C  50.46100 34.88400 22.95100
C  49.88800 33.41400 23.07500
C  49.17300 33.59400 24.41000
C  49.79600 35.76300 21.86000
C  50.89000 32.26500 23.12300
C  50.50200 31.03700 22.33600
N  47.86100 33.59000 27.18500
C  47.63200 32.63900 26.27800
C  46.79500 31.61200 26.84700
C  46.45700 32.17400 28.05000
C  47.15700 33.34400 28.24200
C  46.54400 30.21800 26.25500
C  45.71700 31.96300 29.16700
O  44.96700 31.05900 29.43800
C  45.96300 33.07000 30.13600
C  46.28700 32.59200 31.55900
O  47.29200 31.95500 31.87600
O  45.15600 32.97600 32.36600
C  45.25000 32.43300 33.76900
H  49.38800 38.87100 29.78000
H  51.43700 37.15300 23.90400
H  48.13000 31.71200 24.43100
H  46.49600 35.67400 31.67300
H  48.63400 37.49100 31.84800
H  45.73400 37.71900 31.26900
H  46.50200 38.55400 29.97700
H  46.87800 39.00100 31.63700
H  49.57900 35.32700 32.30600
H  48.67400 33.92800 31.94300
H  48.18200 33.85100 34.24300
H  47.10000 35.21600 33.94600
H  50.59000 40.61700 29.17200
H  50.19100 41.37800 27.83600
H  51.98300 40.77100 28.15200
H  52.02500 41.77300 25.61700
H  53.32000 41.24900 24.58800
H  53.45800 40.87300 26.25800
H  51.54100 34.90600 22.80000
H  49.08000 33.24100 22.36500
H  50.55800 36.43800 21.47200
H  48.93200 36.28400 22.27300
H  49.53000 35.03900 21.09000
H  51.08900 31.90800 24.13300
H  51.84900 32.67200 22.80000
H  51.39600 30.46700 22.08400
H  50.11300 31.13800 21.32300
H  49.80400 30.37000 22.84300
H  47.20700 30.02400 25.41200
H  45.54500 30.15000 25.82400
H  46.85400 29.55700 27.06400
H  45.06200 33.67600 30.22100
H  44.25100 32.21500 34.14700
H  45.49500 33.27400 34.41800
H  45.95700 31.63900 34.00700
Mg 1.78600 42.17500 25.70500
C  2.97500 42.27900 29.06100
C  -1.17400 41.10300 26.83800
C  0.93500 41.74000 22.46700
C  4.92500 43.31900 24.66100
N  1.03000 41.91300 27.75200
C  1.63200 41.95000 28.95800
C  0.63400 41.78000 30.08400
C  -0.63600 41.25600 29.34700
C  -0.27400 41.49200 27.84200
C  -0.91500 39.76300 29.65400
C  0.51100 43.05000 30.96300
C  -0.38500 43.03900 32.21100
H  -0.82100 41.70700 32.81300
N  0.12000 41.52800 24.76700
C  -1.09700 41.17400 25.42600
C  -2.07900 40.75400 24.39400
C  -1.46000 40.85200 23.11500
C  -0.08800 41.44600 23.44500
C  -3.52500 40.31800 24.77300
C  -1.98000 40.49600 21.80400
O  -1.25500 40.44400 20.82500
C  -3.38300 39.81200 21.72100
N  2.77900 42.43400 23.83300
C  2.17900 42.26700 22.60900
C  3.11000 42.56700 21.44700
C  4.25700 43.30500 22.14300
C  4.02800 43.02900 23.62200
C  3.50900 41.30800 20.62900
C  4.45300 44.80900 21.66100
C  5.55200 45.12400 20.71100
N  3.54800 42.78900 26.60400
C  4.73700 43.20000 26.07700
C  5.71800 43.46600 27.15000
C  5.10800 43.05000 28.33800
C  3.79000 42.71400 27.98200
C  7.15300 43.86000 26.94200
C  5.24100 42.82400 29.73300
O  6.21500 42.97000 30.50700
C  3.86800 42.37200 30.24400
C  4.05000 41.01400 30.86900
O  4.31100 39.92000 30.29600
O  3.98000 41.12000 32.19900
C  4.15200 39.89900 32.96100
H  -2.14800 40.70500 27.13200
H  0.64500 41.68600 21.41600
H  5.77800 43.82700 24.20600
H  1.09900 41.04800 30.74400
H  -1.46900 41.85000 29.72100
H  -1.93500 39.57800 29.99100
H  -0.24400 39.30400 30.38100
H  -0.60300 39.27600 28.73000
H  0.08000 43.82000 30.32300
H  1.54200 43.38300 31.08100
H  -1.19800 43.74900 32.05800
H  0.23200 43.51700 32.97200
H  -4.22100 40.93500 24.20500
H  -3.82400 40.63400 25.77200
H  -3.72900 39.24800 24.72900
H  -4.08200 40.64200 21.61600
H  -3.49400 39.04300 22.48500
H  -3.50200 39.26700 20.78500
H  2.54300 43.30000 20.87300
H  5.17100 42.86100 21.74800
H  3.44000 40.39800 21.22500
H  4.52500 41.34300 20.23800
H  2.75300 41.05900 19.88400
H  4.52300 45.36000 22.59800
H  3.47500 45.18500 21.35800
H  6.12800 44.23100 20.46900
H  6.12500 45.93000 21.17100
H  5.13400 45.40300 19.74300
H  7.78200 42.97000 26.94900
H  7.48100 44.61700 27.65500
H  7.24500 44.29800 25.94800
H  3.48700 43.03300 31.02200
H  5.20200 39.62300 33.05800
H  3.67600 39.05000 32.47000
H  3.73300 39.82500 33.96500

