158

Mg 8.30400 3.20900 27.39500
C  9.47200 1.71700 30.32100
C  6.44400 5.35500 29.27000
C  6.85600 4.42200 24.59500
C  9.75700 0.74400 25.48100
N  7.91800 3.36800 29.63700
C  8.62100 2.80800 30.61200
C  8.48800 3.62900 31.96900
C  7.40500 4.72500 31.57100
C  7.28700 4.45900 30.05700
C  6.07800 4.73100 32.45800
C  9.76400 4.27800 32.46500
C  9.55300 4.85100 33.89600
H  10.48800 4.49700 35.09900
N  6.87200 4.74300 27.01200
C  6.25400 5.54800 27.87500
C  5.41900 6.53200 27.23100
C  5.47700 6.22000 25.82500
C  6.47500 5.08700 25.77400
C  4.57600 7.58900 27.94700
C  4.90700 6.84500 24.57600
O  5.21300 6.52700 23.41900
C  4.04800 8.12200 24.78000
N  8.36700 2.70800 25.30200
C  7.69400 3.36600 24.31700
C  8.20700 2.87100 22.94100
C  9.01600 1.60800 23.30300
C  9.08600 1.73400 24.79500
C  7.04200 2.56000 21.88200
C  10.33400 1.66500 22.41100
C  10.17100 1.19000 20.94600
N  9.36300 1.53200 27.75400
C  9.87800 0.55800 26.88200
C  10.66400 -0.37600 27.62200
C  10.61300 0.12700 28.97700
C  9.71300 1.18000 28.98500
C  11.49900 -1.56600 27.14700
C  11.13200 0.01900 30.31800
O  12.07400 -0.67100 30.73800
C  10.48100 1.05100 31.22700
C  9.92100 0.52100 32.51200
O  8.78200 0.18600 32.66100
O  10.79900 0.72100 33.58400
C  10.32400 0.48300 34.93800
H  6.05300 6.16600 29.88800
H  6.66200 4.98700 23.68200
H  10.21900 0.04200 24.78400
H  8.07000 3.10700 32.83000
H  7.97500 5.64600 31.69400
H  5.20000 4.73000 31.81100
H  6.32200 5.68700 32.91900
H  6.07500 4.00500 33.27100
H  10.09300 5.06900 31.79200
H  10.50900 3.48400 32.52800
H  8.52300 4.68400 34.20900
H  9.68500 5.92800 33.79400
H  4.98500 8.53300 27.58800
H  4.73700 7.76300 29.01100
H  3.51100 7.67300 27.73200
H  4.56500 8.94500 25.27300
H  3.21200 7.79700 25.40000
H  3.72100 8.58300 23.84700
H  8.89600 3.56700 22.46400
H  8.50600 0.67100 23.08100
H  6.93900 1.51200 21.60300
H  7.01300 3.09500 20.93200
H  6.13900 2.80200 22.44200
H  11.16600 1.12800 22.86700
H  10.71700 2.68300 22.35400
H  9.29200 1.69400 20.54400
H  10.02600 0.11100 20.99300
H  11.14100 1.35400 20.47600
H  11.60200 -1.61800 26.06300
H  11.11500 -2.52100 27.50500
H  12.50500 -1.38900 27.52600
H  11.34000 1.69100 31.43100
H  9.56100 1.25200 35.05800
H  11.15200 0.83400 35.55500
H  10.07400 -0.50900 35.31300
Mg 29.93500 58.91000 39.88200
C  27.53900 56.59700 38.95400
C  32.39400 56.82500 38.67900
C  32.16700 61.50000 40.08600
C  27.22900 61.18800 40.66500
N  29.96500 56.92000 38.98900
C  28.81900 56.17800 38.69200
C  29.28400 54.77600 38.02300
C  30.81300 54.77200 38.23500
C  31.07500 56.27500 38.68100
C  31.36200 53.60300 39.03700
C  28.74000 54.75600 36.57500
C  27.93300 53.50200 36.12400
H  27.10400 53.85900 34.86900
N  32.05000 59.16600 39.44400
C  32.86000 58.13600 38.98700
C  34.21000 58.71600 38.81900
C  34.18500 60.08800 39.26700
C  32.73400 60.26000 39.63000
C  35.34500 57.92200 38.32100
C  35.33500 61.02300 39.29700
O  36.43300 60.59000 38.92600
C  35.36900 62.36000 40.07300
N  29.71100 61.04100 40.28200
C  30.85100 61.82200 40.41800
C  30.42000 63.24100 40.86800
C  28.89000 63.16000 41.11800
C  28.55000 61.74900 40.65100
C  31.28500 63.84100 41.97800
C  28.08900 64.23400 40.38100
C  27.09600 65.02500 41.30200
N  27.83100 58.92600 39.93600
C  26.92400 59.90800 40.15800
C  25.58200 59.37500 39.97500
C  25.77700 58.12400 39.45700
C  27.13200 57.90200 39.43800
C  24.29900 60.13600 40.19100
C  25.08400 57.01700 38.88100
O  23.87200 56.81900 38.63500
C  26.21700 55.93000 38.61100
C  25.99100 54.76000 39.45600
O  26.44700 54.63900 40.56500
O  25.15300 53.84800 38.87600
C  24.69800 52.58700 39.60300
H  33.17700 56.09000 38.48300
H  32.85200 62.33200 40.26000
H  26.46300 61.92700 40.91200
H  28.80200 53.92800 38.50900
H  31.29500 54.67600 37.26200
H  31.48700 53.92400 40.07100
H  32.26000 53.18300 38.58200
H  30.74400 52.70900 39.11600
H  29.49800 54.82500 35.79400
H  28.21800 55.70200 36.42900
H  27.22600 53.31700 36.93200
H  28.55000 52.64200 35.86700
H  35.02900 56.88000 38.28800
H  36.16200 57.96300 39.04000
H  35.67500 58.21400 37.32400
H  34.74900 62.25000 40.96400
H  34.83500 63.09800 39.47500
H  36.38100 62.66800 40.33500
H  30.55500 63.97300 40.07200
H  28.72800 63.27900 42.18900
H  32.23500 63.30800 42.01200
H  30.74900 63.69200 42.91500
H  31.37700 64.91300 41.80700
H  27.55700 63.78500 39.54200
H  28.77500 64.99800 40.01700
H  26.40000 65.51000 40.61800
H  27.55400 65.77300 41.95000
H  26.60000 64.27700 41.92000
H  24.18300 60.43700 41.23200
H  23.41000 59.61100 39.84200
H  24.50600 61.05900 39.64900
H  26.11000 55.60000 37.57800
H  25.05600 52.65500 40.63000
H  25.24800 51.72900 39.21600
H  23.62500 52.45500 39.46300

