158

Mg 1.90400 7.71800 26.55100
C  2.49100 9.51000 29.45900
C  2.01200 4.85100 28.37700
C  2.07100 6.20800 23.67400
C  2.39400 10.83100 24.71600
N  2.03000 7.25900 28.82000
C  2.35200 8.13700 29.81100
C  2.35200 7.39700 31.18900
C  2.27600 5.91100 30.68500
C  2.08900 5.99700 29.18600
C  3.49800 5.00900 31.02900
C  1.09900 7.88600 32.05900
C  1.39800 7.97900 33.57600
H  2.36000 7.06100 34.09700
N  1.94400 5.77600 26.09200
C  1.89300 4.72200 26.96000
C  1.98800 3.54600 26.15100
C  1.86200 3.90500 24.81600
C  1.98900 5.38400 24.79500
C  2.06400 2.17700 26.77300
C  1.77100 2.99900 23.64400
O  1.71200 3.46600 22.53500
C  1.91800 1.45500 23.78800
N  1.89900 8.42100 24.40400
C  2.00900 7.53100 23.45200
C  2.34700 8.21500 22.08100
C  2.08800 9.69700 22.39900
C  2.10600 9.69500 23.93400
C  3.76300 7.86600 21.60900
C  0.71900 10.36000 21.95300
C  0.93800 11.76200 21.33600
N  2.38200 9.68500 26.89200
C  2.50200 10.86900 26.11000
C  2.80800 11.99800 26.94600
C  2.88500 11.53700 28.22700
C  2.54400 10.14700 28.20000
C  2.83000 13.54400 26.57500
C  3.10000 11.92800 29.59700
O  3.56600 12.98400 30.04800
C  2.68800 10.66100 30.47800
C  3.81100 10.40300 31.37600
O  4.63800 9.55500 31.17700
O  3.79500 11.36800 32.40400
C  4.94500 11.40500 33.36300
H  2.07400 3.88600 28.88400
H  2.27600 5.62000 22.77700
H  2.54200 11.74400 24.13400
H  3.29300 7.61400 31.69400
H  1.47400 5.39000 31.20900
H  4.30500 5.58900 31.47600
H  3.92200 4.37400 30.25100
H  3.18500 4.37100 31.85600
H  0.22400 7.28800 31.80700
H  0.82100 8.89200 31.74500
H  0.48600 7.88400 34.16500
H  1.77500 8.96400 33.85000
H  2.23400 2.23400 27.84800
H  2.80300 1.47300 26.38900
H  1.04700 1.78900 26.71900
H  2.89400 1.12700 24.14500
H  1.71200 1.09200 22.78100
H  1.02500 1.14400 24.33000
H  1.66600 7.96300 21.26800
H  2.87400 10.24100 21.87500
H  3.97600 6.79800 21.57200
H  4.47300 8.32400 22.29800
H  3.84900 8.30900 20.61700
H  0.00800 10.55500 22.75600
H  0.22400 9.79500 21.16300
H  1.12500 11.60500 20.27400
H  1.83700 12.26800 21.68700
H  0.10600 12.45100 21.48000
H  3.01300 13.57600 25.50100
H  3.72700 13.95300 27.04100
H  1.94600 14.13600 26.81100
H  1.73300 10.82200 30.97900
H  4.79900 10.85400 34.29300
H  5.03900 12.45700 33.63400
H  5.83800 11.08000 32.83000
Mg 17.47100 -2.98100 27.80800
C  16.30800 -0.96200 30.36800
C  19.39300 -4.64800 29.95400
C  18.72300 -4.77500 25.16800
C  16.01200 -0.67900 25.53500
N  17.86600 -2.74400 29.89100
C  17.18900 -1.98400 30.75300
C  17.67800 -2.21800 32.21700
C  18.83000 -3.24700 32.04500
C  18.78100 -3.54700 30.51800
C  20.21800 -2.81100 32.51200
C  16.51000 -2.71100 33.17400
C  16.52100 -2.12600 34.55100
H  17.84800 -1.50200 35.12500
N  18.68300 -4.59900 27.59700
C  19.33200 -5.16700 28.59500
C  20.04500 -6.32500 28.11500
C  19.83700 -6.34900 26.74600
C  18.96200 -5.27000 26.44400
C  20.72700 -7.26400 29.07600
C  20.39900 -7.35600 25.73900
O  20.22600 -7.26600 24.50500
C  21.22400 -8.46200 26.20000
N  17.43600 -2.72500 25.66900
C  18.08400 -3.54900 24.84000
C  18.12700 -2.97200 23.39500
C  16.97600 -1.92800 23.52300
C  16.83600 -1.71600 25.02900
C  19.51000 -2.37700 23.02200
C  15.59400 -2.30600 22.80700
C  14.40400 -2.66600 23.70200
N  16.22400 -1.25400 27.89600
C  15.77000 -0.36100 26.86100
C  15.07500 0.68700 27.47000
C  15.20900 0.45900 28.82400
C  15.95500 -0.66900 29.02500
C  14.38700 1.79000 26.81100
C  14.78700 0.95100 30.12200
O  14.02000 1.94100 30.30700
C  15.58200 0.02800 31.13100
C  16.32900 0.97400 31.97900
O  17.45600 1.35700 31.76000
O  15.43700 1.33600 32.90200
C  15.98200 2.09300 34.01800
H  19.94900 -5.23300 30.69000
H  19.23300 -5.18100 24.29100
H  15.38400 -0.05500 24.89700
H  18.02100 -1.28000 32.65300
H  18.61200 -4.18200 32.56100
H  21.05600 -2.84100 31.81500
H  20.49800 -3.44000 33.35700
H  20.24500 -1.77800 32.85900
H  16.44500 -3.79700 33.25200
H  15.56400 -2.48000 32.68400
H  16.32200 -2.98200 35.19500
H  15.76400 -1.34300 34.58500
H  21.75500 -7.44400 28.76200
H  20.19400 -8.20500 28.94600
H  20.86300 -6.97800 30.11900
H  20.60800 -8.90000 26.98600
H  22.18000 -8.10900 26.58800
H  21.39200 -9.08500 25.32100
H  17.79600 -3.73600 22.69100
H  17.28800 -0.94700 23.16400
H  20.23700 -2.20100 23.81500
H  19.44500 -1.36000 22.63600
H  19.94700 -3.06200 22.29600
H  15.78800 -3.20000 22.21400
H  15.34100 -1.44600 22.18700
H  14.01700 -1.81600 24.26300
H  14.75900 -3.41100 24.41300
H  13.52300 -3.06200 23.19700
H  14.75600 2.76800 27.12000
H  13.34900 1.74800 27.14000
H  14.44500 1.66900 25.72900
H  14.90100 -0.55700 31.75000
H  17.00400 1.86200 34.31700
H  15.57200 1.95300 35.01900
H  15.77300 3.13600 33.78300

