158

Mg 26.59300 0.34200 29.27700
C  28.39600 -0.33200 32.25200
C  23.80600 0.86700 31.14900
C  24.91900 0.56900 26.44700
C  29.45000 -0.50900 27.34100
N  26.08300 0.06500 31.52800
C  27.03900 0.00500 32.51000
C  26.44500 0.37100 33.88400
C  24.93100 0.52800 33.49100
C  24.91000 0.59400 31.93900
C  23.91700 -0.46100 34.16300
C  27.05900 1.69400 34.52400
C  26.23700 2.20800 35.80600
H  26.95500 2.32700 37.15500
N  24.59900 0.78700 28.86700
C  23.62800 0.96600 29.75400
C  22.38400 1.20200 28.99000
C  22.69700 1.00700 27.59600
C  24.14900 0.80400 27.58500
C  21.06500 1.41200 29.66200
C  21.69900 1.02300 26.44000
O  22.13300 0.89200 25.26500
C  20.19700 1.15700 26.69100
N  27.10300 -0.09200 27.02100
C  26.17100 0.12100 26.10000
C  26.80600 -0.07600 24.69100
C  28.28900 -0.16000 24.99500
C  28.28600 -0.31400 26.54700
C  26.09500 -1.18000 23.85800
C  29.26200 0.97500 24.55100
C  30.09600 0.75700 23.25600
N  28.49500 -0.36500 29.64000
C  29.58900 -0.48900 28.76800
C  30.75700 -0.80500 29.54200
C  30.36000 -0.76400 30.87100
C  28.97600 -0.46700 30.91500
C  32.08700 -1.04700 28.95400
C  30.83700 -0.78000 32.24800
O  31.91300 -0.99600 32.73800
C  29.55700 -0.30900 33.14400
C  29.49200 -1.21900 34.22900
O  29.29000 -2.44200 34.12200
O  29.82300 -0.62000 35.47400
C  29.87000 -1.46100 36.63100
H  22.94700 1.09500 31.78300
H  24.38400 0.58800 25.49500
H  30.32400 -0.70800 26.71700
H  26.58100 -0.46300 34.57200
H  24.72700 1.56900 33.74000
H  24.48700 -0.93900 34.96000
H  23.55600 -1.17000 33.41800
H  22.95500 -0.09500 34.52200
H  27.17600 2.51800 33.82100
H  28.01300 1.37700 34.94600
H  25.31500 1.63500 35.90100
H  25.89600 3.15900 35.39600
H  21.15600 1.54800 30.73900
H  20.51400 0.48400 29.51400
H  20.54000 2.24000 29.18500
H  19.86000 2.04500 27.22500
H  19.90400 0.37500 27.39100
H  19.65500 1.02200 25.75500
H  26.63900 0.86600 24.17000
H  28.64700 -1.10700 24.59300
H  25.97300 -0.86200 22.82200
H  25.08400 -1.25600 24.25600
H  26.55500 -2.16600 23.78700
H  29.90600 1.28700 25.37300
H  28.54100 1.77400 24.37300
H  30.17100 -0.31800 23.08700
H  31.07700 1.20600 23.40700
H  29.57300 1.24300 22.43200
H  32.65500 -0.11700 28.98100
H  32.12100 -1.39500 27.92200
H  32.66800 -1.81400 29.46800
H  29.76700 0.67600 33.56100
H  29.86500 -2.55000 36.58300
H  29.09300 -1.19400 37.34700
H  30.83100 -1.23800 37.09300
Mg 48.65400 45.15800 43.70100
C  45.60700 46.18500 42.19300
C  48.54600 42.26500 41.96500
C  51.83300 44.95900 44.33300
C  48.80900 48.60200 44.86000
N  47.13800 44.37500 42.37000
C  46.04100 44.91700 41.85800
C  45.40600 44.00000 40.90000
C  46.27000 42.69800 41.00800
C  47.44200 43.11900 41.87000
C  45.51100 41.41500 41.59100
C  45.35100 44.46600 39.39600
C  44.00200 44.19600 38.65600
H  44.07600 43.06700 37.60200
N  49.93200 43.71900 43.30300
C  49.70300 42.55200 42.59900
C  50.91600 41.82200 42.48600
C  51.93000 42.55100 43.20800
C  51.25300 43.87200 43.62100
C  51.03800 40.64100 41.61500
C  53.33300 42.03700 43.49400
O  53.72300 40.95800 43.06300
C  54.42200 42.77500 44.14100
N  50.17300 46.60800 44.53400
C  51.44800 46.23200 44.65900
C  52.38600 47.39300 45.03300
C  51.39400 48.59100 45.36200
C  50.02600 47.92400 44.83400
C  53.47600 47.11300 46.19200
C  51.67200 49.99800 44.68200
C  51.41400 51.17500 45.68700
N  47.44300 46.93300 43.75800
C  47.65600 48.19100 44.26600
C  46.51700 49.04700 44.03200
C  45.68900 48.25100 43.25400
C  46.25400 46.99400 43.11600
C  46.27300 50.45400 44.48000
C  44.41300 48.24200 42.54800
O  43.60600 49.20000 42.51600
C  44.36400 46.95500 41.73100
C  43.01900 46.31200 42.04900
O  42.79700 45.53200 42.91800
O  42.12900 46.59800 41.02800
C  40.92300 45.75800 41.06500
H  48.51800 41.31000 41.43600
H  52.91700 44.90800 44.45400
H  48.76800 49.62500 45.23900
H  44.38000 43.90800 41.25600
H  46.62600 42.48400 40.00100
H  44.43200 41.41100 41.43400
H  45.72600 41.36200 42.65800
H  45.71300 40.47300 41.08200
H  46.16600 44.07100 38.78900
H  45.44500 45.55200 39.37900
H  43.69600 45.14500 38.21500
H  43.10700 43.92200 39.21500
H  51.11100 40.93900 40.56900
H  50.13500 40.03900 41.70500
H  51.77600 39.85200 41.76100
H  54.14400 43.08500 45.14800
H  54.49300 43.68600 43.54700
H  55.38200 42.26100 44.09600
H  52.96500 47.67900 44.15500
H  51.28200 48.62900 46.44600
H  54.52000 47.16600 45.88000
H  53.20000 46.12500 46.56100
H  53.37200 47.80800 47.02500
H  51.02000 50.27300 43.85300
H  52.69100 49.99400 44.29400
H  52.34100 51.74000 45.78500
H  51.25700 50.73600 46.67200
H  50.61900 51.83000 45.33100
H  46.47400 51.18600 43.69800
H  46.90900 50.60300 45.35400
H  45.21800 50.55200 44.73600
H  44.40300 47.31100 40.70200
H  40.38900 45.70200 42.01400
H  41.14600 44.70000 40.93000
H  40.20700 45.89800 40.25600

