158

Mg 17.34200 -2.48900 27.88000
C  16.51200 -0.81800 30.81200
C  19.24500 -4.70800 29.73900
C  18.32500 -3.83800 24.92500
C  15.42000 -0.20200 26.16300
N  17.76200 -2.74900 30.04100
C  17.20300 -2.05000 31.10200
C  17.61100 -2.58800 32.43400
C  18.66000 -3.68600 32.02600
C  18.52100 -3.79500 30.50400
C  20.15400 -3.39800 32.51000
C  16.41100 -3.06000 33.32600
C  16.52600 -2.47000 34.76100
H  17.92200 -2.44000 35.37600
N  18.42200 -4.14000 27.49600
C  19.17000 -4.92400 28.32500
C  19.93900 -5.94000 27.63300
C  19.66100 -5.64800 26.22400
C  18.78200 -4.48000 26.17800
C  20.71300 -7.07000 28.32200
C  20.22000 -6.38900 25.01900
O  20.01900 -6.08300 23.85300
C  21.09200 -7.60500 25.18100
N  16.94600 -2.07300 25.77900
C  17.33100 -2.84600 24.74400
C  16.81100 -2.42900 23.43800
C  15.65000 -1.35800 23.87600
C  16.00700 -1.16100 25.36200
C  17.90900 -1.91200 22.57300
C  14.10400 -1.69400 23.70300
C  13.62600 -3.08600 23.98900
N  16.40600 -0.65600 28.23100
C  15.52600 0.08900 27.49800
C  14.95500 1.15300 28.25400
C  15.35300 0.84300 29.57800
C  16.20000 -0.24800 29.55200
C  14.02100 2.15200 27.87500
C  15.31300 1.28000 30.94100
O  14.92400 2.37100 31.49500
C  15.98100 0.13400 31.81100
C  17.06200 0.74700 32.67200
O  18.17800 0.99400 32.34000
O  16.52300 1.12500 33.82100
C  17.28900 1.91900 34.80700
H  20.03200 -5.26600 30.25200
H  18.62900 -4.35800 24.01500
H  14.76000 0.55400 25.73400
H  18.12800 -1.68200 32.74800
H  18.39800 -4.67000 32.41500
H  20.22500 -2.68300 33.32900
H  20.82300 -3.10500 31.70100
H  20.55300 -4.26200 33.04200
H  16.34200 -4.13700 33.47500
H  15.46100 -2.66100 32.96800
H  15.81100 -3.03500 35.35900
H  16.15000 -1.45000 34.67700
H  20.37000 -8.05000 27.99200
H  20.62000 -7.04900 29.40800
H  21.73500 -6.92100 27.97300
H  22.05200 -7.19400 25.49300
H  21.31700 -8.09200 24.23100
H  20.61600 -8.30900 25.86300
H  16.29600 -3.19600 22.85900
H  15.86200 -0.34300 23.54000
H  18.75200 -1.64900 23.21200
H  17.60300 -1.05500 21.97300
H  18.23500 -2.61300 21.80400
H  13.83600 -1.43200 22.67900
H  13.47200 -1.04500 24.30800
H  12.82700 -3.14900 24.72700
H  14.42600 -3.72500 24.36300
H  13.34000 -3.64300 23.09600
H  14.43900 2.79600 27.10200
H  13.62200 2.75300 28.69300
H  13.11300 1.72200 27.45200
H  15.23200 -0.40400 32.39200
H  18.36400 1.99000 34.64300
H  17.28200 1.37200 35.74900
H  17.01800 2.97500 34.79400
Mg 46.93500 16.70400 27.85900
C  45.05500 15.99700 30.72900
C  49.08100 18.62100 29.97500
C  48.57400 17.88200 25.18100
C  44.43900 15.49500 26.00700
N  47.25000 17.07800 30.12100
C  46.27200 16.70600 30.99200
C  46.61600 17.20300 32.31300
C  47.74000 18.27700 32.12200
C  47.98600 18.13500 30.67900
C  47.45600 19.76500 32.61800
C  46.95800 15.97500 33.26600
C  46.38300 15.99200 34.73500
H  45.89200 17.34600 35.26700
N  48.72100 17.83600 27.60200
C  49.42800 18.49600 28.60500
C  50.61200 19.07000 27.97600
C  50.38600 19.08700 26.58100
C  49.22000 18.25800 26.39400
C  51.70600 19.61600 28.83800
C  51.23400 19.72300 25.45500
O  51.15600 19.51600 24.23100
C  52.35700 20.49800 25.89900
N  46.47600 16.70600 25.86300
C  47.36900 17.27500 24.95100
C  46.73100 17.06500 23.56700
C  45.38100 16.28600 23.76700
C  45.42700 16.15700 25.29100
C  46.62600 18.40800 22.72000
C  45.50800 14.90900 23.02900
C  46.24500 13.76000 23.72700
N  45.16600 15.87300 28.21200
C  44.23500 15.32100 27.37500
C  43.13000 14.69100 28.06000
C  43.37500 14.89700 29.37200
C  44.60800 15.62600 29.44600
C  41.90500 14.12400 27.39000
C  42.94700 14.69900 30.67000
O  41.97600 14.04600 31.04600
C  43.90900 15.49200 31.64100
C  43.08700 16.58300 32.36900
O  42.75400 17.69900 31.98600
O  42.83800 16.20100 33.73000
C  41.86300 17.06000 34.43400
H  49.61600 19.38800 30.53900
H  49.05200 18.20800 24.25400
H  43.64200 15.18300 25.32900
H  45.70600 17.62000 32.74400
H  48.62300 17.94100 32.66600
H  48.22500 20.04100 33.34000
H  46.50800 19.86200 33.14600
H  47.46200 20.49900 31.81200
H  48.04700 15.93500 33.28100
H  46.67500 15.09000 32.69600
H  47.06600 15.48400 35.41500
H  45.53700 15.30700 34.68300
H  51.72500 19.25000 29.86500
H  51.61500 20.70200 28.87500
H  52.66500 19.37100 28.38300
H  53.22300 20.01200 26.34800
H  51.97800 21.28100 26.55500
H  52.73300 21.03600 25.02900
H  47.42000 16.52300 22.92000
H  44.65100 16.95800 23.31700
H  46.45900 19.16800 23.48300
H  45.82900 18.38000 21.97700
H  47.51800 18.73600 22.18600
H  45.97000 15.06800 22.05500
H  44.48000 14.60500 22.83300
H  46.72200 14.10800 24.64300
H  47.02200 13.35800 23.07800
H  45.60200 12.93700 24.03900
H  41.92800 13.04100 27.26900
H  42.04400 14.49700 26.37500
H  40.92800 14.46900 27.73000
H  44.26600 14.76300 32.36900
H  41.36500 16.31100 35.05000
H  41.12000 17.55900 33.81100
H  42.29900 17.77400 35.13300

