158

Mg 53.52600 23.33800 45.29700
C  51.02000 25.49900 44.30600
C  51.61700 20.70200 44.20900
C  56.39000 21.27800 45.13200
C  55.65200 26.02500 46.06700
N  51.50700 23.11700 44.22700
C  50.69900 24.15700 44.08200
C  49.34500 23.59600 43.53600
C  49.41400 22.12800 44.05800
C  50.94200 21.91400 44.21600
C  48.62400 21.82500 45.38700
C  49.41000 23.65400 41.94800
C  48.07400 24.02700 41.28500
H  47.95400 23.76100 39.73700
N  53.87500 21.26800 44.86700
C  52.93300 20.41400 44.42100
C  53.50900 19.10200 44.41100
C  54.93700 19.17400 44.77400
C  55.13700 20.58900 44.91700
C  52.66600 17.84400 43.94200
C  55.84000 17.99000 45.08900
O  55.41100 16.91500 44.75900
C  57.18400 18.07900 45.80600
N  55.84400 23.59800 45.53700
C  56.74500 22.64100 45.52000
C  58.14500 23.18000 45.83700
C  57.88200 24.72500 46.17100
C  56.40000 24.80800 45.82800
C  58.77700 22.32400 46.98900
C  58.78700 25.73700 45.39700
C  59.47700 26.80500 46.31000
N  53.41900 25.34900 45.29800
C  54.24700 26.32600 45.77000
C  53.56700 27.66200 45.74300
C  52.31100 27.37600 45.13900
C  52.25700 25.92600 44.87700
C  54.09500 28.96200 46.24200
C  51.08100 27.95900 44.69900
O  50.63300 29.11100 44.71500
C  50.16500 26.77100 44.11200
C  49.87900 27.03600 42.64800
O  50.82200 27.20200 41.87000
O  48.58700 27.19600 42.42400
C  48.20600 27.84400 41.14600
H  50.85600 19.92300 44.13200
H  57.29400 20.67500 45.03100
H  56.35200 26.82500 46.31800
H  48.48600 24.13600 43.93400
H  48.93200 21.41700 43.38700
H  48.21600 22.72800 45.84100
H  49.31500 21.34900 46.08200
H  47.86400 21.06600 45.19900
H  49.69400 22.68900 41.52900
H  50.12300 24.34300 41.49400
H  47.87600 25.07100 41.52700
H  47.23400 23.49500 41.73200
H  52.20000 17.39500 44.81900
H  53.30300 17.04000 43.57500
H  51.86000 18.06300 43.24100
H  56.93100 18.62300 46.71600
H  57.99400 18.56500 45.26300
H  57.44900 17.04900 46.04500
H  58.66500 23.06800 44.88600
H  57.99000 24.78600 47.25400
H  59.40300 22.96700 47.60800
H  59.32700 21.49700 46.53800
H  57.97400 21.88200 47.57900
H  58.29500 26.36900 44.65900
H  59.60200 25.33600 44.79400
H  58.67300 27.51700 46.50000
H  60.34800 27.35100 45.94700
H  59.90900 26.29700 47.17100
H  55.11900 28.71500 46.52200
H  53.60900 29.33500 47.14300
H  53.97900 29.78600 45.53700
H  49.25100 26.83700 44.70300
H  49.03200 27.88600 40.43500
H  47.92400 28.85500 41.44000
H  47.31200 27.40200 40.70700
Mg 42.09600 40.76200 25.77300
C  41.19400 43.13700 28.22400
C  43.03000 38.62200 28.21600
C  43.21400 38.75500 23.36800
C  41.29000 43.14200 23.31300
N  42.11700 40.90900 27.98800
C  41.56600 41.90700 28.83100
C  41.64300 41.50100 30.35600
C  42.41400 40.08600 30.26900
C  42.53100 39.86100 28.72600
C  43.78500 39.98000 30.97900
C  40.20900 41.47200 31.01400
C  40.16700 40.78500 32.32900
H  39.74300 41.60700 33.53100
N  42.90000 38.86300 25.80800
C  43.14500 38.12400 26.93200
C  43.67000 36.82000 26.53600
C  43.77900 36.84800 25.16700
C  43.35600 38.23500 24.71300
C  44.08600 35.72500 27.57100
C  44.19700 35.72400 24.14500
O  44.27600 35.91000 22.92400
C  44.50200 34.27400 24.60400
N  42.33900 41.03700 23.59800
C  42.69000 39.92700 22.82100
C  42.45700 40.20500 21.38700
C  41.60200 41.45300 21.46500
C  41.59300 41.87100 22.91100
C  43.74200 40.21000 20.54400
C  40.13600 41.39800 20.94600
C  39.00400 40.63000 21.70300
N  41.56800 42.75300 25.75200
C  41.28200 43.55500 24.65900
C  41.06100 44.92200 25.13000
C  40.94700 44.75200 26.52700
C  41.21100 43.37800 26.87200
C  40.66000 46.15600 24.31800
C  40.71000 45.56200 27.74600
O  40.55500 46.73500 27.93400
C  40.73800 44.48000 28.87900
C  41.71200 44.90200 29.85800
O  42.87700 45.07100 29.60100
O  41.01600 45.30500 31.02800
C  41.93800 45.81100 32.06300
H  43.24000 37.89200 29.00000
H  43.46700 38.19300 22.46700
H  40.86700 43.80700 22.55700
H  42.30200 42.27400 30.75100
H  41.78600 39.32300 30.72800
H  44.60100 39.52200 30.42000
H  43.62700 39.42300 31.90200
H  44.09500 40.94900 31.37000
H  39.49400 41.08600 30.28800
H  39.90000 42.49600 31.22600
H  41.13900 40.33000 32.52300
H  39.41600 39.99500 32.35000
H  43.49800 34.82900 27.37600
H  43.94300 36.01500 28.61200
H  45.15900 35.54900 27.49500
H  43.64000 33.93400 25.17900
H  45.35800 34.14600 25.26600
H  44.76000 33.75100 23.68400
H  41.88400 39.35200 21.02300
H  42.03500 42.23900 20.84700
H  43.81400 41.16700 20.02700
H  43.60000 39.49600 19.73200
H  44.63700 39.90300 21.08500
H  40.20900 40.97000 19.94600
H  39.82500 42.41900 20.72500
H  38.46200 39.93600 21.06000
H  38.36900 41.27900 22.30700
H  39.52400 40.02300 22.44400
H  39.65000 46.00200 23.93900
H  41.44500 46.36300 23.59000
H  40.68100 46.93700 25.07800
H  39.72500 44.36200 29.26600
H  42.42300 45.15800 32.78900
H  41.16800 46.32700 32.63600
H  42.59300 46.59800 31.69000

