158

Mg 26.89000 50.68200 26.60800
C  24.92900 51.77900 29.23300
C  29.21500 49.56500 28.87000
C  29.08000 50.17600 24.09200
C  24.54600 51.93800 24.24200
N  26.98700 50.64200 28.83300
C  26.06800 51.11800 29.69700
C  26.44300 50.83600 31.17500
C  27.88200 50.23600 31.06600
C  28.01300 50.09700 29.49400
C  29.01400 51.26100 31.64500
C  25.43400 49.86500 31.89000
C  24.51200 50.55900 32.88200
H  24.52000 49.95200 34.25600
N  28.85700 50.03900 26.53500
C  29.58300 49.57300 27.54300
C  30.86300 49.10200 27.14000
C  30.96500 49.37200 25.74000
C  29.61100 49.89900 25.31800
C  31.92700 48.60200 28.11300
C  32.09200 49.14800 24.80800
O  31.98400 49.35800 23.59900
C  33.32600 48.58300 25.26000
N  26.79300 51.06000 24.43000
C  27.82400 50.57700 23.68000
C  27.43100 50.61000 22.12600
C  25.91300 51.15100 22.20100
C  25.69100 51.33900 23.74700
C  28.23300 51.45400 21.18100
C  24.77100 50.29600 21.60500
C  24.08200 50.91800 20.39600
N  25.10800 51.63900 26.65300
C  24.22800 52.05400 25.65700
C  23.07100 52.64700 26.28800
C  23.32500 52.62000 27.66000
C  24.52200 51.93900 27.85900
C  21.91300 53.24800 25.51900
C  22.80700 53.01400 29.00000
O  21.82500 53.53900 29.29600
C  23.90700 52.53500 29.98200
C  24.45600 53.72200 30.65000
O  25.19200 54.54700 30.16500
O  23.87800 53.81500 31.89100
C  23.92400 55.19700 32.55200
H  29.92200 49.31300 29.66300
H  29.86100 50.15200 23.32900
H  23.85200 52.12300 23.41900
H  26.40400 51.82300 31.63700
H  28.02000 49.26700 31.54600
H  28.63800 52.02300 32.32800
H  29.59500 51.68500 30.82600
H  29.68900 50.75300 32.33300
H  26.05100 49.07300 32.31400
H  24.75200 49.53300 31.10700
H  23.49800 50.45700 32.49600
H  24.75600 51.61500 33.00200
H  31.92500 49.07500 29.09500
H  32.93600 48.84000 27.77700
H  31.86900 47.51300 28.10600
H  33.95400 49.25600 25.84300
H  33.83500 48.18900 24.38100
H  33.04200 47.71900 25.86200
H  27.40800 49.59600 21.72700
H  25.72300 52.14300 21.79000
H  29.28200 51.40700 21.47400
H  27.97800 52.51200 21.12000
H  28.10100 50.92900 20.23500
H  24.02300 50.18600 22.39100
H  25.22800 49.33000 21.39000
H  22.99500 50.95700 20.47000
H  24.40100 50.27600 19.57500
H  24.35600 51.96100 20.23800
H  21.47000 52.61000 24.75400
H  22.13000 54.09700 24.87100
H  21.14000 53.44300 26.26200
H  23.54100 51.87800 30.77100
H  23.84500 55.86800 31.69700
H  24.84700 55.37400 33.10500
H  23.03700 55.20500 33.18600
Mg 0.18700 42.87800 26.74300
C  2.39700 42.92700 29.45200
C  -2.32800 42.26800 29.01500
C  -1.87800 42.38900 24.12900
C  2.86300 43.15200 24.56600
N  0.02800 42.58100 29.00800
C  1.09300 42.74600 29.84400
C  0.63600 42.74700 31.27000
C  -0.88400 42.29700 31.20300
C  -1.09000 42.37100 29.66300
C  -1.07600 40.79600 31.61600
C  0.69900 44.20900 31.94500
C  1.08900 44.34200 33.38400
H  0.94300 43.19900 34.33500
N  -1.86600 42.28100 26.58100
C  -2.74800 42.28600 27.69200
C  -4.12400 42.11300 27.15300
C  -3.95700 42.14700 25.70900
C  -2.51300 42.27700 25.38400
C  -5.23200 41.87300 28.11600
C  -5.01500 42.04300 24.60400
O  -4.83600 42.05600 23.37700
C  -6.46700 41.95900 25.06200
N  0.43000 42.74900 24.66000
C  -0.54500 42.54500 23.78100
C  -0.04400 42.47000 22.23400
C  1.35700 43.27600 22.47600
C  1.59500 43.06200 24.00700
C  -0.01400 41.09200 21.59100
C  1.21800 44.78500 22.06300
C  1.27400 45.92500 23.12700
N  2.19200 43.03000 26.89900
C  3.18400 43.11700 25.93200
C  4.47500 43.14800 26.55800
C  4.22200 43.09500 27.93200
C  2.83500 42.98100 28.13000
C  5.86300 43.29700 25.84300
C  4.87800 43.03700 29.22100
O  6.04400 42.98200 29.62400
C  3.59800 43.00700 30.23600
C  3.85900 41.86100 31.12100
O  3.79900 40.70000 30.75700
O  4.12600 42.30500 32.41800
C  4.63200 41.34800 33.43100
H  -3.13800 42.33100 29.74500
H  -2.58200 42.32500 23.29700
H  3.67400 43.35400 23.86200
H  1.20300 42.04800 31.88500
H  -1.51300 42.96000 31.79600
H  -1.40700 40.24800 30.73500
H  -1.87800 40.74700 32.35200
H  -0.26300 40.25600 32.10200
H  -0.20100 44.74300 31.64000
H  1.46900 44.78200 31.42900
H  0.42800 45.10400 33.79800
H  2.13200 44.64600 33.48100
H  -4.97000 40.91800 28.57000
H  -6.20400 41.68000 27.66300
H  -5.36200 42.52700 28.97800
H  -6.39600 41.09900 25.72800
H  -7.25700 41.76300 24.33700
H  -6.70500 42.75900 25.76200
H  -0.74600 43.05600 21.64100
H  2.17600 42.90400 21.86000
H  -0.41300 40.30200 22.22700
H  1.01600 40.81200 21.37300
H  -0.50400 41.03700 20.61800
H  0.42200 44.94100 21.33400
H  2.09300 44.99700 21.44800
H  0.39700 46.54100 22.92800
H  2.15300 46.55200 22.98200
H  1.11100 45.48600 24.11100
H  5.73300 42.87000 24.84800
H  6.55800 42.73300 26.46500
H  6.22000 44.32100 25.72900
H  3.56000 43.91200 30.84200
H  5.21100 40.56900 32.93400
H  3.83000 40.86300 33.98700
H  5.31000 41.91800 34.06700

