158

Mg -2.21400 16.36900 26.80400
C  -2.67500 14.02400 29.30200
C  -2.59400 18.84400 29.35300
C  -2.21500 18.76700 24.38100
C  -2.19900 13.79300 24.43700
N  -2.67100 16.42800 29.05300
C  -2.60300 15.35200 29.84400
C  -2.75700 15.80000 31.30700
C  -2.99300 17.31000 31.22600
C  -2.73800 17.55200 29.80700
C  -4.48000 17.74200 31.66800
C  -1.65500 15.28900 32.37700
C  -1.29900 16.13100 33.64900
H  -0.93900 15.33300 34.97200
N  -2.15300 18.44700 26.90400
C  -2.31300 19.26200 27.99600
C  -2.09900 20.57500 27.55700
C  -2.07900 20.60500 26.13900
C  -2.13600 19.20700 25.76900
C  -2.20600 21.76600 28.51000
C  -2.04800 21.74800 25.25900
O  -2.02300 21.67800 24.05100
C  -2.17400 23.06800 25.81000
N  -2.22000 16.23800 24.71900
C  -2.16700 17.35900 23.89200
C  -2.07900 17.07200 22.36800
C  -1.94300 15.48500 22.44300
C  -2.14800 15.11100 23.96100
C  -3.38300 17.48300 21.60300
C  -0.64700 14.91900 21.70800
C  0.64300 14.82600 22.59300
N  -2.54100 14.39300 26.81100
C  -2.42100 13.45100 25.76800
C  -2.60900 12.02700 26.18300
C  -2.65100 12.24400 27.61300
C  -2.58000 13.68200 27.93600
C  -2.85800 10.85300 25.35000
C  -2.74200 11.58700 28.89600
O  -2.95100 10.39200 29.11100
C  -2.76500 12.67700 30.02400
C  -1.68200 12.41100 30.90900
O  -0.49100 12.65700 30.61800
O  -2.09100 11.61600 31.92200
C  -1.11200 11.42300 32.95000
H  -2.62400 19.59100 30.14800
H  -2.29200 19.47900 23.55600
H  -2.11200 12.95500 23.74200
H  -3.68900 15.34100 31.63600
H  -2.29800 17.85800 31.86200
H  -4.91100 16.87900 32.17500
H  -5.13100 18.08400 30.86300
H  -4.40200 18.63900 32.28200
H  -0.70800 15.04600 31.89500
H  -2.12500 14.36700 32.71800
H  -2.10200 16.83500 33.86500
H  -0.34500 16.60600 33.41700
H  -1.27300 22.32800 28.49700
H  -2.32700 21.53600 29.56900
H  -3.06300 22.38500 28.24500
H  -3.05800 23.20700 26.43300
H  -2.12100 23.80100 25.00500
H  -1.29000 23.14200 26.44400
H  -1.21200 17.56600 21.92700
H  -2.84400 15.05300 22.00500
H  -3.11500 18.41100 21.09800
H  -4.10300 17.68800 22.39500
H  -3.78500 16.81500 20.84200
H  -0.35400 15.66900 20.97400
H  -0.90600 14.07500 21.06800
H  0.58300 14.33400 23.56400
H  1.16900 15.77100 22.73300
H  1.34500 14.22100 22.02000
H  -2.30000 11.04800 24.43400
H  -3.90800 10.80200 25.06200
H  -2.55700 9.95600 25.89100
H  -3.73700 12.53400 30.49500
H  -1.64200 10.68400 33.55200
H  -0.91000 12.33800 33.50600
H  -0.17600 10.96200 32.63600
Mg 10.05100 47.88100 26.10400
C  7.92600 48.05100 28.94900
C  12.53200 49.33300 27.81400
C  11.84000 47.82200 23.43400
C  7.09000 47.19800 24.24200
N  10.12500 48.81800 28.04900
C  9.29400 48.53300 29.09800
C  10.01800 48.93500 30.41300
C  11.15000 49.73100 29.93900
C  11.28100 49.29000 28.48800
C  10.98600 51.24100 29.98400
C  10.44400 47.67100 31.23800
C  9.76900 47.49000 32.60600
H  10.17800 46.32100 33.47600
N  11.98600 48.43800 25.70100
C  12.92600 48.89800 26.56100
C  14.26700 48.92400 25.91500
C  14.03600 48.44400 24.59900
C  12.55400 48.23400 24.50300
C  15.60200 49.26100 26.73100
C  15.02500 48.27200 23.45500
O  14.75000 47.90800 22.27200
C  16.52000 48.43100 23.72300
N  9.48500 47.82300 24.03700
C  10.54700 47.66000 23.21100
C  9.99700 47.30700 21.78900
C  8.46000 46.94700 22.06000
C  8.32300 47.30000 23.51600
C  10.16300 48.38900 20.68300
C  8.08300 45.44500 21.69100
C  8.33300 44.26200 22.65300
N  7.96300 47.62800 26.49800
C  6.90400 47.34400 25.64800
C  5.65000 47.28800 26.33100
C  6.06500 47.48400 27.67200
C  7.42000 47.70100 27.65900
C  4.32300 47.00000 25.79600
C  5.49900 47.51500 29.02000
O  4.31600 47.48700 29.29900
C  6.69300 47.71500 29.87500
C  6.94700 46.45800 30.60700
O  7.65700 45.55600 30.26900
O  6.08200 46.56400 31.70100
C  6.23400 45.45400 32.66800
H  13.37200 49.76300 28.36400
H  12.41500 47.74200 22.50900
H  6.18400 46.95100 23.68500
H  9.27700 49.49600 30.98200
H  12.11200 49.59000 30.43400
H  11.76900 51.62300 30.63900
H  10.02600 51.49600 30.43400
H  11.24500 51.76000 29.06100
H  11.52000 47.68500 31.41000
H  10.11100 46.73800 30.78200
H  8.70400 47.56900 32.38800
H  9.99000 48.41200 33.14400
H  16.19300 48.35200 26.61800
H  15.35900 49.50200 27.76600
H  15.99400 50.16400 26.26200
H  16.81100 47.81700 24.57500
H  16.82200 49.47800 23.67700
H  16.99400 48.01600 22.83400
H  10.57300 46.43500 21.48100
H  7.83500 47.63100 21.48500
H  9.28300 49.00200 20.48800
H  10.28600 47.78700 19.78300
H  11.02700 49.00400 20.93400
H  8.76200 45.20700 20.87300
H  7.08300 45.46800 21.25700
H  7.43400 43.99600 23.20800
H  9.02900 44.52400 23.44900
H  8.70600 43.40800 22.08700
H  3.66700 46.63300 26.58500
H  4.34100 46.37500 24.90300
H  3.91100 47.94600 25.44300
H  6.58100 48.58300 30.52500
H  6.07000 46.01900 33.58500
H  7.26800 45.11100 32.63900
H  5.52900 44.62300 32.63300

