158

Mg 8.62500 3.10000 27.36400
C  9.63700 1.61900 30.31200
C  6.53400 5.11400 29.31900
C  7.34700 4.27300 24.58900
C  10.12400 0.50100 25.57200
N  8.11500 3.28000 29.61900
C  8.79900 2.67400 30.58000
C  8.40600 3.23200 31.98600
C  7.33400 4.39800 31.65900
C  7.27400 4.23500 30.12600
C  6.09200 4.35500 32.46800
C  9.59700 3.80900 32.84000
C  9.98300 3.18200 34.15200
H  10.13800 4.09300 35.36800
N  7.22600 4.53600 27.01900
C  6.42900 5.27400 27.90700
C  5.72300 6.23400 27.21600
C  5.98600 6.03400 25.83300
C  6.90300 4.93300 25.73500
C  4.91700 7.26900 27.94200
C  5.54500 6.81800 24.61100
O  5.75300 6.57700 23.41500
C  4.57400 7.94400 24.86100
N  8.58800 2.37500 25.39900
C  8.08600 3.12000 24.43600
C  8.12200 2.42800 23.11500
C  9.35700 1.56600 23.34100
C  9.35400 1.43900 24.85300
C  6.80500 1.61100 22.85600
C  10.72700 2.03400 22.82600
C  11.61900 0.92000 22.23000
N  9.66000 1.34800 27.74600
C  10.24800 0.44300 26.92300
C  11.02400 -0.44900 27.75000
C  10.90900 0.00000 29.07400
C  9.99700 1.10300 29.05500
C  11.85400 -1.50300 27.23500
C  11.30100 -0.26900 30.46300
O  12.06600 -1.11800 30.92500
C  10.40600 0.71000 31.30700
C  9.53200 0.06400 32.23100
O  8.45100 -0.41300 31.98900
O  10.17300 -0.18700 33.48100
C  9.41700 -0.89200 34.53700
H  6.06200 5.90400 29.90700
H  7.10500 4.77400 23.64900
H  10.67100 -0.22800 24.97000
H  7.84400 2.43200 32.46800
H  7.81500 5.37600 31.67600
H  5.95000 3.46200 33.07600
H  5.19300 4.40300 31.85400
H  6.05100 5.29800 33.01300
H  9.38400 4.85900 33.04100
H  10.54500 3.83800 32.30400
H  10.97600 2.73500 34.11800
H  9.20400 2.46400 34.41000
H  5.36700 8.20500 27.61100
H  4.98700 7.30100 29.02900
H  3.86700 7.30200 27.65100
H  3.68400 7.54800 25.35000
H  4.21200 8.34200 23.91300
H  5.21100 8.59100 25.46500
H  8.24600 3.14000 22.29900
H  9.15700 0.59600 22.88400
H  6.17400 1.84500 23.71300
H  7.09700 0.56900 22.73000
H  6.32400 2.01700 21.96500
H  11.14600 2.50800 23.71400
H  10.63700 2.87400 22.13600
H  12.46800 0.79900 22.90300
H  11.93200 1.30400 21.25900
H  11.00100 0.04300 22.03900
H  11.25800 -2.29900 26.78800
H  12.55300 -1.83400 28.00300
H  12.46500 -1.05500 26.45100
H  11.04900 1.43200 31.81000
H  8.71100 -1.57200 34.05900
H  8.82400 -0.19300 35.12700
H  10.02100 -1.53400 35.17800
Mg 35.39900 2.89900 29.87000
C  33.19400 3.50300 32.52200
C  38.05800 3.03100 32.18400
C  37.37200 2.28900 27.44100
C  32.68800 3.25200 27.63300
N  35.56900 3.44100 31.98300
C  34.56300 3.47600 32.91100
C  35.04100 3.50200 34.38500
C  36.56100 3.83400 34.10600
C  36.82300 3.42300 32.66300
C  37.05200 5.24700 34.59800
C  34.79700 2.19000 35.18500
C  34.01400 2.34000 36.45400
H  34.41800 3.51100 37.38000
N  37.44300 2.58700 29.80800
C  38.35200 2.59600 30.86200
C  39.62000 2.17600 30.34800
C  39.52700 2.05400 28.93200
C  38.08500 2.26800 28.65400
C  40.83500 2.01600 31.24300
C  40.64000 1.81700 27.87100
O  40.37900 1.90500 26.67800
C  42.04700 1.55600 28.39900
N  35.06400 2.92800 27.87200
C  36.04700 2.53200 27.09800
C  35.71200 2.60900 25.59600
C  34.20800 2.89500 25.58900
C  33.95600 3.03200 27.17600
C  36.58800 3.67400 24.82300
C  33.28900 1.92300 24.76200
C  32.79100 0.64800 25.56200
N  33.36600 3.33200 30.03600
C  32.39700 3.40300 29.03900
C  31.13900 3.67400 29.60300
C  31.35600 3.69500 31.03100
C  32.74700 3.49100 31.24400
C  29.84300 3.87300 29.00200
C  30.77400 3.84700 32.38100
O  29.64400 4.07500 32.72600
C  31.95700 3.74300 33.38400
C  31.86300 5.04000 34.18700
O  32.42000 6.08100 33.92700
O  31.12000 4.85800 35.30000
C  31.10700 5.92500 36.35300
H  38.85900 3.04300 32.92500
H  37.96900 2.16400 26.53500
H  31.83300 3.19400 26.95600
H  34.58400 4.37900 34.84400
H  37.14100 3.23500 34.80800
H  36.27100 5.71600 35.19600
H  37.20700 5.83300 33.69200
H  38.00200 5.06400 35.10100
H  35.69800 1.65200 35.47800
H  34.24800 1.54300 34.50100
H  34.01900 1.47300 37.11500
H  32.94700 2.49100 36.28600
H  40.55400 1.95900 32.29500
H  41.61500 2.77200 31.15200
H  41.35800 1.06000 31.19700
H  42.03000 0.54900 28.81500
H  42.47400 2.21200 29.15800
H  42.72100 1.64500 27.54700
H  35.83400 1.59700 25.21200
H  34.16500 3.85400 25.07200
H  37.57000 3.26900 24.58100
H  36.65800 4.58400 25.41700
H  36.06300 3.88800 23.89100
H  33.85100 1.51400 23.92200
H  32.50600 2.49900 24.26800
H  33.27800 -0.22100 25.11900
H  31.70900 0.69700 25.43600
H  33.06200 0.51500 26.60900
H  29.65400 3.15600 28.20200
H  29.71900 4.91200 28.69800
H  29.02500 3.67600 29.69400
H  31.88300 2.99300 34.17300
H  31.96400 6.59200 36.44900
H  30.89000 5.40800 37.28800
H  30.38800 6.69100 36.06500

