158

Mg 28.59400 56.68400 40.37800
C  26.76200 53.66000 39.82000
C  31.33400 55.03500 39.43100
C  30.10900 59.62400 40.29300
C  25.42500 58.21300 40.62300
N  28.91300 54.64400 39.44400
C  28.09400 53.53300 39.50100
C  28.88400 52.25600 39.16600
C  30.40100 52.78600 39.51400
C  30.23600 54.29500 39.36200
C  30.98000 52.29900 40.88900
C  28.58800 51.82300 37.66200
C  29.28600 52.51200 36.48700
H  28.28600 53.09500 35.44600
N  30.53300 57.30400 40.01200
C  31.54700 56.41400 39.63300
C  32.73600 57.17400 39.48100
C  32.46500 58.55600 39.84700
C  31.01600 58.54300 40.02400
C  34.12100 56.60600 39.05800
C  33.34900 59.75100 39.98500
O  34.56900 59.72600 39.76700
C  32.82800 61.16200 40.33100
N  27.83500 58.72700 40.36300
C  28.69100 59.77200 40.36700
C  27.85300 61.07700 40.57800
C  26.37400 60.57600 40.66200
C  26.55600 59.05900 40.51700
C  28.37800 62.04600 41.69100
C  25.38100 61.32300 39.71500
C  24.28300 62.21500 40.43900
N  26.45200 56.07500 40.26400
C  25.33600 56.81800 40.57200
C  24.18200 55.85000 40.66800
C  24.70700 54.62400 40.47700
C  26.05500 54.83200 40.12300
C  22.81700 56.24200 41.03300
C  24.41800 53.20000 40.46000
O  23.42200 52.60200 40.71900
C  25.81600 52.50700 39.98100
C  26.06500 51.54400 41.11300
O  26.93900 51.65400 41.96900
O  25.20000 50.51000 40.92800
C  25.37600 49.34600 41.79000
H  32.25000 54.45800 39.28600
H  30.59700 60.60000 40.26600
H  24.45900 58.70900 40.74200
H  28.70900 51.42800 39.85400
H  31.10700 52.47400 38.74400
H  31.51900 51.37100 40.69800
H  30.18000 51.99000 41.56200
H  31.53400 53.15500 41.27500
H  27.52800 52.04600 37.53900
H  28.82500 50.76700 37.53000
H  29.79200 51.76600 35.87400
H  30.14400 53.09900 36.81700
H  34.61700 57.33200 38.41300
H  33.94200 55.74800 38.41000
H  34.69500 56.36500 39.95300
H  32.32200 61.56400 39.45300
H  33.70800 61.76200 40.56700
H  32.20400 61.01000 41.21200
H  27.92300 61.64600 39.65000
H  26.05700 60.57700 41.70500
H  27.59700 62.40800 42.36000
H  28.91900 62.82300 41.15200
H  29.06300 61.58400 42.40200
H  24.92200 60.72700 38.92700
H  25.96100 62.03100 39.12300
H  23.27000 61.85000 40.26900
H  24.23100 63.18700 39.94800
H  24.40600 62.39500 41.50700
H  22.22400 55.38300 41.34800
H  22.27900 56.65100 40.17700
H  22.75400 56.93500 41.87300
H  25.68600 52.02100 39.01500
H  25.39200 49.77200 42.79300
H  26.28800 48.79300 41.56100
H  24.57100 48.61200 41.75700
Mg 1.58000 41.77600 25.54000
C  3.69300 41.83300 28.31500
C  -1.09000 41.12300 27.48500
C  -0.04700 41.06000 22.68200
C  4.53700 42.40300 23.60900
N  1.37500 41.59000 27.64100
C  2.35100 41.59700 28.66400
C  1.75100 41.57000 30.10800
C  0.27400 41.14700 29.76400
C  0.13400 41.42300 28.23200
C  -0.23500 39.64800 30.17400
C  1.99600 42.92500 30.76800
C  2.10400 42.85900 32.31700
H  0.73100 43.00600 32.97300
N  -0.32000 41.28300 25.10800
C  -1.25800 41.07600 26.08100
C  -2.51300 40.67700 25.42500
C  -2.29500 40.65100 24.03800
C  -0.84200 40.94500 23.84800
C  -3.81400 40.37600 26.19000
C  -3.28200 40.27200 22.93300
O  -2.77500 40.14500 21.83300
C  -4.72100 40.06000 23.14700
N  2.09100 41.88100 23.42600
C  1.30000 41.38100 22.51800
C  2.02300 41.54200 21.15000
C  3.32300 42.31400 21.42500
C  3.36500 42.14300 22.86300
C  2.35700 40.11200 20.65100
C  3.20600 43.75800 21.03900
C  4.25400 44.44000 20.16400
N  3.64500 41.95300 25.81900
C  4.69800 42.27600 24.96500
C  5.97300 42.35200 25.65900
C  5.61800 42.12200 26.96700
C  4.21200 42.04900 27.01400
C  7.35000 42.63600 25.14500
C  6.11200 41.98900 28.33800
O  7.29000 41.86600 28.70800
C  4.86500 41.86000 29.31300
C  5.04900 40.67800 30.28900
O  4.86000 39.52500 30.04500
O  5.52800 41.17400 31.51300
C  5.33000 40.30000 32.69600
H  -1.95300 40.96400 28.13400
H  -0.56100 40.70400 21.78600
H  5.46900 42.59100 23.07200
H  2.28800 40.91500 30.79400
H  -0.37600 41.80800 30.33800
H  -0.92700 39.72300 31.01300
H  0.54800 38.95100 30.47200
H  -0.85100 39.25100 29.36600
H  1.10100 43.51900 30.58300
H  2.89300 43.44700 30.43400
H  2.78300 43.65000 32.63200
H  2.51200 41.88100 32.57200
H  -4.52900 41.13000 25.86300
H  -3.60100 40.43400 27.25800
H  -4.11900 39.36000 25.94000
H  -5.07100 41.06200 23.39600
H  -4.91500 39.27400 23.87700
H  -5.11400 39.73500 22.18400
H  1.39100 42.05200 20.42300
H  4.02500 41.77800 20.78600
H  2.99900 39.57500 21.34900
H  2.95200 40.21600 19.74400
H  1.56200 39.46500 20.27900
H  3.11500 44.40800 21.90900
H  2.19700 43.88000 20.64500
H  5.02700 43.73900 19.84900
H  4.62800 45.34400 20.64600
H  3.76700 44.82800 19.27000
H  7.38500 42.65100 24.05600
H  7.95300 41.93200 25.71900
H  7.63600 43.58500 25.59800
H  4.76900 42.81300 29.83500
H  4.66900 40.83300 33.37900
H  6.33500 40.20900 33.10900
H  4.90800 39.29600 32.65600

