158

Mg 53.93600 24.41300 43.90100
C  51.16800 26.55400 43.31900
C  52.23800 21.85700 42.57800
C  56.88300 22.70200 43.53000
C  55.79100 27.40600 44.72300
N  52.04200 24.35600 42.82300
C  50.98000 25.22600 42.89600
C  49.68500 24.58500 42.36600
C  50.02000 23.10700 42.39400
C  51.53100 23.08700 42.70300
C  49.27000 22.21700 43.39700
C  49.04300 25.04800 41.03300
C  49.99800 25.58300 39.90000
H  50.04500 24.73000 38.65400
N  54.50000 22.42500 43.21400
C  53.63200 21.55700 42.68700
C  54.29200 20.27000 42.45300
C  55.66600 20.42900 42.87700
C  55.74800 21.90400 43.28900
C  53.53500 19.10100 41.88900
C  56.75900 19.38600 42.80000
O  56.53800 18.29500 42.30900
C  58.07900 19.59200 43.42600
N  55.96100 24.96700 43.94900
C  56.98800 24.08300 43.83400
C  58.41900 24.72700 44.04600
C  58.02300 26.25900 44.23500
C  56.45000 26.20600 44.34100
C  59.13500 24.03800 45.32300
C  58.73500 27.26800 43.16400
C  59.22100 28.63300 43.73900
N  53.57400 26.53000 44.25900
C  54.36400 27.57600 44.65500
C  53.52000 28.66800 44.96100
C  52.30700 28.29400 44.39300
C  52.37200 27.05400 43.95500
C  53.88100 29.92400 45.41900
C  50.96900 28.85800 44.16600
O  50.49800 29.93800 44.45900
C  50.30200 27.77600 43.32200
C  49.98200 28.38800 42.07200
O  50.82400 28.71700 41.26100
O  48.63500 28.44800 41.79200
C  48.21700 28.90200 40.43100
H  51.59000 20.99000 42.43300
H  57.85100 22.20700 43.42700
H  56.33400 28.33100 44.92800
H  49.03200 24.81100 43.20900
H  49.95500 22.72800 41.37500
H  48.21300 22.48000 43.41800
H  49.67500 22.28300 44.40700
H  49.20000 21.15900 43.14600
H  48.44100 25.90900 41.32200
H  48.39500 24.30000 40.57700
H  51.00800 25.65600 40.30400
H  49.56900 26.52600 39.56300
H  53.38600 18.99900 40.81400
H  52.58500 19.00300 42.41400
H  54.14400 18.24900 42.19000
H  58.60300 18.63900 43.49600
H  57.95900 20.02600 44.41800
H  58.57000 20.20000 42.66600
H  59.01800 24.64200 43.13900
H  58.39400 26.59200 45.20400
H  60.10600 24.49900 45.50900
H  59.28000 22.96800 45.17800
H  58.47000 23.94500 46.18100
H  57.92000 27.47500 42.47000
H  59.51500 26.72700 42.62800
H  58.73400 28.87800 44.68400
H  58.88500 29.45100 43.10100
H  60.30600 28.55600 43.80400
H  53.11700 30.70000 45.36700
H  54.76800 30.30200 44.91100
H  54.17700 29.76700 46.45600
H  49.33800 27.55100 43.78100
H  48.49700 29.95300 40.34900
H  47.14700 28.70100 40.38500
H  48.71800 28.37800 39.61700
Mg 42.04100 41.97800 27.42100
C  40.80600 44.04600 30.09300
C  43.00800 39.76200 29.90400
C  43.39000 40.14500 25.01100
C  41.24100 44.49700 25.18500
N  41.95600 41.96100 29.76900
C  41.36700 42.89700 30.59100
C  41.57000 42.55000 32.06100
C  42.40100 41.22900 31.97000
C  42.45100 40.90100 30.46600
C  43.77700 41.32200 32.69200
C  40.24800 42.41000 32.90300
C  40.16700 43.15000 34.24700
H  39.65800 42.24100 35.36200
N  42.97400 40.14800 27.45700
C  43.28300 39.41600 28.58100
C  43.97700 38.24800 28.12500
C  43.86200 38.18900 26.72800
C  43.44500 39.58400 26.34600
C  44.54300 37.25900 29.13200
C  44.07100 37.01600 25.85600
O  43.97000 37.08400 24.63600
C  44.49200 35.57700 26.28600
N  42.29200 42.29500 25.38900
C  42.86900 41.31800 24.60300
C  42.80500 41.75300 23.16200
C  41.87600 42.97800 23.12500
C  41.76300 43.30900 24.64600
C  44.18100 41.97200 22.47600
C  40.47100 42.76400 22.46400
C  39.43400 41.83000 23.05300
N  41.28900 43.94200 27.57700
C  41.01100 44.82700 26.55200
C  40.48800 46.04000 27.11700
C  40.33900 45.74000 28.48800
C  40.85600 44.45900 28.73300
C  39.98200 47.21300 26.45600
C  39.93400 46.32400 29.72400
O  39.49300 47.47000 29.99300
C  40.34300 45.27300 30.83100
C  41.39100 45.91100 31.60900
O  42.54200 46.03400 31.31000
O  40.88700 46.18300 32.88800
C  41.86100 46.90600 33.83600
H  43.46000 39.20100 30.72400
H  43.65500 39.46000 24.20300
H  41.04800 45.26400 24.43300
H  42.18900 43.37300 32.41900
H  41.87300 40.45700 32.52900
H  44.61100 41.18100 32.00500
H  43.79800 40.58500 33.49500
H  43.77100 42.32700 33.11400
H  39.98700 41.35600 32.99000
H  39.41700 42.82000 32.32800
H  39.71800 44.14200 34.20800
H  41.25300 43.22400 34.31600
H  45.08200 37.82400 29.89200
H  45.22500 36.51300 28.72500
H  43.68300 36.73300 29.54700
H  43.80500 35.36800 27.10600
H  45.54300 35.59800 26.57500
H  44.44200 34.93600 25.40500
H  42.37300 40.93700 22.58200
H  42.32800 43.90700 22.78000
H  44.93400 41.77500 23.23900
H  44.42700 42.95700 22.08000
H  44.31000 41.16700 21.75300
H  40.72500 42.32400 21.49900
H  39.87400 43.67300 22.38700
H  38.98100 41.16200 22.32000
H  38.60900 42.42400 23.44700
H  39.86600 41.25500 23.87200
H  38.92100 47.18900 26.20800
H  40.58900 47.56600 25.62300
H  40.22300 48.09400 27.05000
H  39.51000 45.03100 31.49200
H  41.31200 47.77600 34.19800
H  42.79100 47.18800 33.34100
H  42.09100 46.23500 34.66300

