158

Mg 0.37400 8.03800 26.66400
C  1.36000 9.82200 29.49900
C  0.75800 5.11000 28.45700
C  0.46900 6.30900 23.74000
C  0.71900 10.99900 24.84100
N  1.05300 7.59300 28.80000
C  1.19000 8.41700 29.81300
C  1.10900 7.69200 31.21600
C  1.22400 6.23500 30.74800
C  0.85600 6.29200 29.23700
C  2.50300 5.43900 30.98700
C  -0.22400 7.90300 32.00900
C  -0.19300 8.35500 33.45800
H  0.95000 7.90300 34.33800
N  0.41100 5.93900 26.20600
C  0.48700 4.89600 27.08700
C  0.40900 3.67700 26.35800
C  0.30000 4.02300 24.98900
C  0.34500 5.50600 24.92600
C  0.47500 2.28900 26.97800
C  -0.14300 3.07100 23.82900
O  -0.38600 3.54000 22.76200
C  -0.32900 1.54000 23.96800
N  0.40900 8.59900 24.60900
C  0.41400 7.67600 23.53400
C  0.50400 8.36300 22.25700
C  0.03700 9.76800 22.65000
C  0.38600 9.84500 24.14800
C  1.89600 8.31200 21.67700
C  -1.54300 9.92100 22.41500
C  -1.94100 10.41400 21.05100
N  0.87200 10.00200 27.02900
C  1.02400 11.08700 26.18800
C  1.30900 12.24600 26.93200
C  1.50300 11.75000 28.23700
C  1.13500 10.42800 28.23900
C  1.54200 13.71400 26.43600
C  1.96500 12.15200 29.57200
O  2.44300 13.20400 30.01100
C  1.65600 10.87600 30.51800
C  2.78800 10.57300 31.26400
O  3.90900 10.18100 30.90200
O  2.51400 11.08200 32.54900
C  3.72100 11.44100 33.33000
H  0.91400 4.21100 29.05700
H  0.60500 5.72700 22.82600
H  0.86400 11.80100 24.11400
H  1.93200 8.03100 31.84400
H  0.46400 5.72400 31.34000
H  3.22500 5.46700 30.17100
H  2.19300 4.47400 31.38800
H  2.95800 5.91900 31.85400
H  -0.86400 7.02500 32.09000
H  -0.78000 8.59900 31.38000
H  -1.09600 8.18100 34.04400
H  -0.18400 9.44400 33.50400
H  0.91600 2.39700 27.96800
H  0.98000 1.52100 26.39300
H  -0.53300 1.93500 27.19600
H  -0.86800 1.29500 23.05300
H  -0.89200 1.18700 24.83300
H  0.65900 1.10400 23.82300
H  -0.22900 7.88800 21.60500
H  0.50000 10.62200 22.15500
H  2.12200 9.32200 21.33400
H  1.95800 7.71800 20.76600
H  2.57800 8.00900 22.47100
H  -1.93300 10.67100 23.10300
H  -2.14700 9.04600 22.65500
H  -1.06600 10.47500 20.40300
H  -2.47700 11.36300 21.08800
H  -2.59600 9.62200 20.69000
H  1.82800 13.74900 25.38500
H  2.25900 14.25700 27.05200
H  0.56400 14.17600 26.57400
H  0.73400 11.08000 31.06300
H  4.28900 12.21400 32.81000
H  4.52800 10.73100 33.51400
H  3.46500 11.92500 34.27200
Mg 26.45400 50.42500 26.83600
C  24.60100 51.80600 29.50300
C  28.84500 49.55900 29.23500
C  28.47500 49.40900 24.37200
C  24.26000 51.92100 24.58300
N  26.68800 50.68200 29.14000
C  25.68300 51.02300 29.98200
C  26.12700 50.73800 31.47100
C  27.65200 50.47700 31.27200
C  27.76600 50.17700 29.79400
C  28.58800 51.70800 31.75000
C  25.31600 49.55900 32.06400
C  24.64000 49.75200 33.44600
H  25.32300 50.66000 34.48400
N  28.33600 49.45400 26.80800
C  29.14000 49.19600 27.91300
C  30.27300 48.41400 27.44800
C  30.17400 48.38700 25.97800
C  28.98400 49.15000 25.64600
C  31.26300 47.71400 28.39200
C  31.14300 47.71200 24.94600
O  30.91600 47.72400 23.73200
C  32.39700 46.92700 25.39400
N  26.34700 50.58900 24.71800
C  27.30100 50.06500 23.93200
C  26.90600 50.15900 22.41400
C  25.57400 51.05100 22.51200
C  25.38100 51.22200 24.00500
C  28.00000 50.74000 21.44400
C  24.23300 50.36000 21.92800
C  23.79500 49.04500 22.54000
N  24.81400 51.59400 26.95100
C  23.96800 52.13100 25.95900
C  22.92800 52.92300 26.52800
C  23.11900 52.79500 27.90600
C  24.23700 51.97100 28.12000
C  21.93600 53.69700 25.83700
C  22.61500 53.23200 29.18400
O  21.61500 53.86600 29.40400
C  23.54100 52.53900 30.29600
C  24.24700 53.60800 31.07200
O  25.43700 53.92300 31.08900
O  23.33900 54.10300 31.92800
C  23.89100 55.08200 32.82700
H  29.56200 49.14600 29.94700
H  29.00700 49.06200 23.48300
H  23.58600 52.37900 23.85600
H  26.03300 51.62500 32.09700
H  27.91800 49.64700 31.92600
H  29.22200 51.54200 32.62100
H  28.01700 52.63200 31.83800
H  29.27900 51.93800 30.94000
H  25.93300 48.67800 32.24000
H  24.51400 49.32200 31.36500
H  24.55500 48.83300 34.02600
H  23.62100 50.09600 33.26700
H  32.26900 48.10900 28.25000
H  31.25000 46.66900 28.08300
H  31.05900 47.70500 29.46200
H  32.94800 47.57800 26.07200
H  33.08000 46.72000 24.56900
H  32.16900 46.04000 25.98500
H  26.60200 49.17500 22.05600
H  25.69900 52.04800 22.08900
H  27.69900 51.67200 20.96600
H  28.18500 49.94400 20.72400
H  28.92200 50.99300 21.96800
H  24.46800 50.13500 20.88800
H  23.42400 51.09000 21.97300
H  24.26800 48.94500 23.51800
H  23.99700 48.21100 21.86700
H  22.73500 49.02300 22.79200
H  21.79300 54.64200 26.36000
H  21.01700 53.13200 25.68000
H  22.37400 53.85200 24.85100
H  23.10400 51.80300 30.97000
H  24.04500 56.07600 32.40700
H  24.83800 54.72600 33.23100
H  23.42300 55.16500 33.80800

