158

Mg 35.20900 3.00600 29.19000
C  33.26800 4.01200 32.06900
C  37.95700 3.14100 31.36700
C  37.31400 2.65700 26.65200
C  32.52300 3.68900 27.21500
N  35.54200 3.53100 31.48600
C  34.58100 3.84400 32.42400
C  35.13700 3.93400 33.79300
C  36.68200 3.91500 33.50700
C  36.76200 3.54200 31.97600
C  37.54600 5.19700 33.76700
C  34.76700 2.61600 34.60600
C  34.51500 2.82800 36.10100
H  35.38500 3.68700 37.05500
N  37.30200 2.69000 29.02600
C  38.19900 2.68200 30.07100
C  39.51700 2.21200 29.55200
C  39.41400 2.07300 28.17100
C  37.95800 2.43900 27.87900
C  40.66900 1.80700 30.39400
C  40.29900 1.64100 27.11500
O  39.98700 1.62600 25.88400
C  41.73500 1.26600 27.47500
N  34.97200 3.26600 27.30400
C  35.96200 3.01200 26.35000
C  35.48400 3.15200 24.97800
C  33.93000 3.18200 25.09100
C  33.78100 3.37200 26.65800
C  36.10700 4.28900 24.14500
C  33.20900 1.92600 24.43200
C  32.72900 0.87800 25.40400
N  33.30200 3.76800 29.54200
C  32.19600 3.87100 28.60300
C  30.97000 4.10400 29.29500
C  31.35800 4.18500 30.68200
C  32.78200 3.99500 30.74200
C  29.65200 4.26300 28.48300
C  30.84400 4.33300 32.01600
O  29.74200 4.67600 32.42000
C  32.06000 4.19800 33.00300
C  32.28400 5.39400 33.79600
O  32.54500 6.50600 33.34200
O  32.01400 4.99700 35.09200
C  32.13900 6.00400 36.11500
H  38.82200 3.11900 32.03300
H  37.82700 2.53100 25.69700
H  31.69300 3.57500 26.51500
H  34.89000 4.86600 34.30100
H  37.28600 3.12300 33.94900
H  38.47700 4.91600 34.26000
H  37.05100 5.99000 34.32800
H  37.75200 5.58900 32.77100
H  35.68600 2.03100 34.63600
H  33.96500 1.94800 34.29300
H  34.47200 1.83500 36.54900
H  33.54100 3.27200 36.30700
H  40.75100 0.72600 30.28500
H  40.49000 2.13400 31.41900
H  41.52600 2.35700 30.00400
H  42.34100 2.07100 27.89100
H  42.19800 0.92700 26.54800
H  41.74400 0.38700 28.11900
H  35.84900 2.23900 24.50800
H  33.52200 4.02400 24.53300
H  35.41400 5.11500 23.98500
H  36.47100 3.88100 23.20300
H  36.92200 4.67400 24.75800
H  33.85600 1.49300 23.66900
H  32.39300 2.39300 23.88100
H  32.58600 -0.01800 24.80100
H  31.72200 1.02600 25.79400
H  33.38600 0.75000 26.26500
H  29.50300 5.34200 28.54200
H  28.94000 3.73900 29.12100
H  29.65500 3.97400 27.43200
H  31.95800 3.31000 33.62700
H  32.68000 5.58700 36.96400
H  31.15000 6.30700 36.46000
H  32.59100 6.93000 35.75900
Mg 5.66200 54.83300 39.74500
C  3.44600 52.19400 40.28500
C  7.99800 52.51400 38.58400
C  7.74000 57.40900 38.87700
C  3.09700 57.07000 40.33100
N  5.60900 52.67300 39.27700
C  4.63600 51.79400 39.62600
C  4.93700 50.33500 39.10300
C  6.50200 50.48400 38.82300
C  6.74900 52.03100 38.91500
C  7.41200 49.61500 39.75900
C  4.15800 50.04600 37.75200
C  4.14200 48.59800 37.24500
H  4.79200 48.45000 35.83400
N  7.62800 54.96800 38.99500
C  8.40000 53.90500 38.61200
C  9.72400 54.40100 38.42600
C  9.75900 55.82300 38.41400
C  8.32300 56.13500 38.79200
C  10.84400 53.41500 38.18300
C  10.93900 56.74600 38.13500
O  12.02400 56.18700 37.98500
C  10.77900 58.22400 38.01900
N  5.44900 56.88300 39.51300
C  6.42200 57.77400 39.16100
C  5.86300 59.21800 39.07600
C  4.39100 59.07200 39.54700
C  4.30100 57.55600 39.78600
C  6.71900 60.36400 39.67500
C  3.43200 59.78600 38.59700
C  2.92600 61.18000 39.05400
N  3.62300 54.72600 40.24400
C  2.73600 55.76200 40.56900
C  1.43200 55.14200 40.93900
C  1.72300 53.78400 40.98600
C  2.98800 53.55700 40.47500
C  0.12100 55.86900 41.17000
C  1.16400 52.50000 41.27800
O  0.03800 52.15600 41.67300
C  2.23000 51.45300 40.83200
C  1.59100 50.53800 40.02900
O  1.00300 50.81300 39.01300
O  1.71700 49.27300 40.49300
C  1.21200 48.23100 39.65400
H  8.71400 51.72200 38.35600
H  8.36700 58.29500 38.75400
H  2.39400 57.85200 40.62600
H  4.65400 49.68000 39.92700
H  6.78500 50.13600 37.83000
H  7.62100 50.26600 40.60800
H  8.27400 49.33300 39.15400
H  6.92600 48.69900 40.09500
H  4.32800 50.86000 37.04700
H  3.13700 50.18900 38.10700
H  3.13200 48.21400 37.10200
H  4.58900 47.87800 37.93100
H  10.45800 52.48600 37.76200
H  11.35500 53.14700 39.10800
H  11.47300 53.87100 37.41900
H  10.19400 58.41100 37.11800
H  11.80000 58.54200 37.81100
H  10.50500 58.76200 38.92600
H  5.80900 59.39900 38.00300
H  4.27700 59.52700 40.53100
H  7.51900 59.86600 40.22300
H  6.13700 60.93900 40.39400
H  7.09400 61.00800 38.87900
H  2.55800 59.18700 38.34200
H  3.94300 59.95100 37.64900
H  2.66900 61.80100 38.19600
H  3.75600 61.66700 39.56500
H  2.04300 61.08200 39.68500
H  0.18300 56.95000 41.28900
H  -0.31700 55.43000 42.06600
H  -0.60700 55.61700 40.40000
H  2.57900 50.86500 41.68200
H  1.21200 48.34100 38.57000
H  0.14000 48.17000 39.84000
H  1.68300 47.30200 39.97600

