158

Mg 7.56500 53.70200 41.59600
C  7.02900 50.22500 41.51400
C  10.77400 53.18300 40.49900
C  7.79800 57.01900 41.04900
C  4.35000 53.98000 42.72700
N  8.65500 51.89700 40.99200
C  8.29400 50.58300 40.95700
C  9.48300 49.63900 40.73000
C  10.64500 50.64300 40.81100
C  10.00200 52.03600 40.80800
C  11.60400 50.43700 42.00100
C  9.46100 49.00300 39.32700
C  9.08900 49.88100 38.16100
H  7.84300 49.39700 37.36300
N  9.01400 54.93100 40.66900
C  10.33700 54.52000 40.40100
C  11.13400 55.64200 40.09600
C  10.36800 56.82300 40.42100
C  8.99300 56.31400 40.70000
C  12.51100 55.58200 39.63800
C  10.91700 58.26300 40.37700
O  12.06900 58.49200 40.06600
C  9.97900 59.36900 40.55500
N  6.19400 55.21600 41.63200
C  6.45800 56.56100 41.41500
C  5.35600 57.43600 41.93200
C  4.17900 56.44000 42.08400
C  4.97700 55.11800 42.23800
C  5.78100 58.06800 43.22600
C  3.24800 56.47700 40.84900
C  1.98900 57.19900 41.10000
N  6.04900 52.40800 42.23400
C  4.77400 52.66000 42.70900
C  4.08100 51.42200 43.01300
C  4.92600 50.43400 42.65400
C  6.07200 51.08700 42.03200
C  2.75300 51.35000 43.68200
C  5.15900 49.02100 42.59500
O  4.42500 48.07200 42.89900
C  6.41200 48.89900 41.64500
C  6.07300 48.24500 40.36100
O  5.51000 48.75700 39.43000
O  6.48600 46.97300 40.50100
C  6.28500 46.10300 39.39700
H  11.84500 53.16000 40.28700
H  7.72500 58.10800 41.06200
H  3.30800 54.04900 43.04800
H  9.39800 48.81000 41.43200
H  11.30300 50.66100 39.94200
H  11.75500 51.36500 42.55200
H  12.52600 50.20900 41.46400
H  11.23900 49.54300 42.50700
H  8.75700 48.17000 39.34500
H  10.44000 48.57700 39.10700
H  9.94900 49.74600 37.50500
H  8.88400 50.92900 38.38400
H  12.64100 55.85300 38.59100
H  12.92200 54.57200 39.64900
H  13.18000 56.10900 40.31800
H  9.08400 59.30500 39.93600
H  10.56000 60.25000 40.28500
H  9.65000 59.32400 41.59400
H  5.27500 58.22900 41.18900
H  3.58400 56.58700 42.98500
H  5.54700 59.13200 43.18400
H  6.83500 57.83600 43.37700
H  5.19800 57.67000 44.05700
H  3.08700 55.49800 40.39700
H  3.73600 57.01500 40.03700
H  1.99300 57.65900 42.08800
H  1.21200 56.45300 40.93500
H  1.95800 58.02500 40.38900
H  2.50900 52.10000 44.43500
H  2.66800 50.33700 44.07500
H  1.92600 51.47700 42.98300
H  7.09800 48.20800 42.13500
H  6.64500 46.52700 38.46000
H  5.26100 45.91500 39.07400
H  6.82500 45.18400 39.62600
Mg -10.92100 16.19100 42.80600
C  -7.37600 16.88900 42.50100
C  -11.24800 19.60100 42.53800
C  -14.01800 15.60600 42.49900
C  -10.11200 12.78700 42.78100
N  -9.40400 18.01300 42.46300
C  -8.10300 18.03500 42.37900
C  -7.49400 19.42100 42.25100
C  -8.74900 20.22200 42.37300
C  -9.84800 19.22600 42.53500
C  -8.92000 21.30100 43.53300
C  -6.73300 19.50900 40.85600
C  -5.19100 19.93200 40.84800
H  -4.32500 19.08800 39.94200
N  -12.53200 17.40100 42.51600
C  -12.40500 18.78300 42.47600
C  -13.74300 19.26500 42.25100
C  -14.69900 18.27900 42.13100
C  -13.80300 17.03000 42.41400
C  -14.04400 20.76300 41.94700
C  -16.12400 18.35800 41.94500
O  -16.73500 19.40100 41.77200
C  -16.95000 17.09000 42.00300
N  -11.85800 14.47800 42.46200
C  -13.23100 14.49500 42.52800
C  -13.81800 13.09100 42.90700
C  -12.62600 12.21300 42.56400
C  -11.43600 13.19700 42.60300
C  -14.46800 12.73800 44.26900
C  -12.76300 11.30600 41.27200
C  -12.84200 9.75900 41.48000
N  -9.09200 14.94100 42.74300
C  -8.91800 13.57000 42.89700
C  -7.55200 13.24100 43.17400
C  -6.87400 14.55100 42.94000
C  -7.88500 15.53900 42.73300
C  -6.89500 11.90100 43.36400
C  -5.59600 15.19300 42.99000
O  -4.49000 14.72700 43.10900
C  -5.83400 16.74300 42.78400
C  -5.50900 17.26500 44.11600
O  -5.70000 16.78100 45.21200
O  -4.65200 18.36500 43.97400
C  -4.18400 19.18100 45.14200
H  -11.33600 20.68900 42.50000
H  -15.06700 15.33300 42.36600
H  -9.96700 11.71300 42.91300
H  -6.84500 19.63300 43.10100
H  -9.03500 20.67500 41.42400
H  -9.56100 20.97800 44.35300
H  -9.27300 22.25200 43.13500
H  -7.90500 21.43700 43.90600
H  -7.28900 20.19700 40.22000
H  -6.95100 18.54800 40.38900
H  -4.79000 19.80500 41.85400
H  -5.14200 20.98900 40.58500
H  -14.75700 21.08500 42.70600
H  -14.38900 20.99500 40.93900
H  -13.22200 21.47000 42.06000
H  -17.95000 17.30200 41.62400
H  -17.03800 16.79300 43.04800
H  -16.39600 16.42900 41.33600
H  -14.62600 12.90700 42.19900
H  -12.29400 11.60500 43.40600
H  -15.54900 12.65700 44.15200
H  -14.49000 13.63300 44.89000
H  -14.03600 11.88800 44.79900
H  -11.95900 11.45500 40.55200
H  -13.66000 11.52900 40.69300
H  -13.68600 9.34500 40.92900
H  -12.84400 9.49000 42.53600
H  -12.01100 9.22100 41.02400
H  -5.96400 11.85200 42.80000
H  -7.44400 11.02200 43.02500
H  -6.85300 11.76400 44.44500
H  -5.19800 17.12300 41.98400
H  -3.42300 18.70600 45.75900
H  -5.00200 19.48300 45.79600
H  -3.84900 20.09800 44.65600

