158

Mg 8.73000 3.57900 27.34700
C  9.85200 2.07600 30.31700
C  7.25500 5.89800 29.23800
C  7.35500 4.70700 24.56700
C  10.23500 0.86000 25.57500
N  8.51200 3.83700 29.52100
C  9.15100 3.22100 30.65300
C  8.83900 3.86900 32.02800
C  7.82800 4.98400 31.58500
C  7.78900 4.87700 30.02800
C  6.38100 4.70900 32.14200
C  10.12100 4.48600 32.66100
C  9.96300 5.10100 34.06600
H  10.34100 4.27100 35.24400
N  7.63200 5.19100 26.91400
C  7.10200 6.11200 27.84800
C  6.31900 7.11900 27.16200
C  6.28700 6.70300 25.77200
C  7.17300 5.48500 25.70400
C  5.75800 8.32300 27.84700
C  5.57800 7.37500 24.57800
O  5.64500 6.95000 23.44400
C  4.68300 8.52300 24.86200
N  8.82700 2.93600 25.38200
C  8.14700 3.59700 24.35400
C  8.36800 2.85500 22.97300
C  9.38600 1.64200 23.31700
C  9.60400 1.88300 24.80500
C  6.99500 2.31000 22.30500
C  10.63800 1.64400 22.48300
C  11.04300 0.41100 21.65100
N  9.87400 1.80700 27.83000
C  10.35400 0.79000 27.02400
C  10.98000 -0.23600 27.75900
C  10.87700 0.28200 29.06000
C  10.17100 1.50200 29.07500
C  11.43100 -1.54900 27.30700
C  11.24200 0.04800 30.42300
O  11.72100 -0.96700 30.92900
C  10.65800 1.18200 31.22400
C  9.81500 0.61400 32.30300
O  8.85300 -0.14300 32.09500
O  10.31500 0.94700 33.57300
C  9.29400 0.53700 34.60800
H  6.71200 6.53200 29.94200
H  6.85100 4.93500 23.62500
H  10.76900 0.10500 24.99400
H  8.54600 3.04300 32.67600
H  8.15200 5.98200 31.88300
H  6.07300 5.66300 32.57100
H  6.41700 3.98000 32.95100
H  5.66500 4.33400 31.41100
H  10.47500 5.20800 31.92400
H  10.88400 3.71000 32.71900
H  8.93600 5.35800 34.32500
H  10.53300 6.02700 34.15000
H  6.15900 8.36900 28.85900
H  4.68800 8.32400 28.05300
H  6.16600 9.22600 27.39300
H  5.32000 9.40700 24.85100
H  4.03900 8.37100 25.72800
H  3.90100 8.58900 24.10500
H  8.87200 3.58200 22.33700
H  8.87500 0.69700 23.12800
H  7.19300 1.35200 21.82500
H  6.44200 2.90500 21.57800
H  6.21500 2.14200 23.04800
H  11.51400 1.86400 23.09400
H  10.50700 2.49100 21.81100
H  12.10200 0.19500 21.79100
H  10.78500 0.65400 20.62000
H  10.44200 -0.42500 22.00800
H  12.47900 -1.46000 27.02100
H  10.78900 -1.78500 26.45900
H  11.25400 -2.40800 27.95400
H  11.50900 1.75700 31.58900
H  9.52200 1.02800 35.55400
H  9.56600 -0.50600 34.76900
H  8.24600 0.58300 34.31200
Mg -2.04900 34.70000 26.99500
C  -3.70600 32.79300 29.45000
C  -1.00200 36.84500 29.27500
C  -1.16900 36.62000 24.38100
C  -3.22300 32.33800 24.62100
N  -2.36900 34.85400 29.06600
C  -2.93800 33.89900 29.91300
C  -2.56300 34.14300 31.34300
C  -1.63900 35.39600 31.25900
C  -1.74400 35.79300 29.78400
C  -1.94700 36.48600 32.28200
C  -1.75500 32.96600 31.98500
C  -2.17200 32.47000 33.35500
H  -1.18300 32.61200 34.57900
N  -1.13400 36.54500 26.85100
C  -0.75600 37.26400 27.95500
C  -0.08400 38.49100 27.55100
C  -0.27600 38.49100 26.10900
C  -0.91500 37.19700 25.66900
C  0.55000 39.50900 28.54700
C  0.20100 39.52400 25.10800
O  0.14200 39.34300 23.88800
C  0.86200 40.81100 25.62900
N  -2.27100 34.51700 24.76000
C  -1.68000 35.44400 23.93600
C  -1.62200 34.94800 22.49600
C  -2.14100 33.53100 22.67800
C  -2.51900 33.37600 24.11600
C  -2.55400 35.80200 21.64800
C  -1.09800 32.50400 22.18400
C  -0.02000 32.11300 23.18400
N  -3.24200 32.93900 26.99500
C  -3.67800 32.10100 25.93300
C  -4.53200 31.05300 26.39600
C  -4.52800 31.27800 27.80400
C  -3.69700 32.42100 28.05400
C  -5.30400 30.04100 25.61200
C  -5.05400 30.79300 29.11400
O  -5.79400 29.86800 29.42200
C  -4.40300 31.71500 30.25900
C  -5.45800 32.24300 31.16000
O  -6.16900 33.17300 30.87900
O  -5.53500 31.46700 32.34200
C  -6.49600 31.97200 33.33700
H  -0.54400 37.48300 30.03500
H  -0.75000 37.12600 23.50900
H  -3.45700 31.57600 23.87400
H  -3.51000 34.28500 31.86300
H  -0.60000 35.09700 31.39700
H  -2.36100 37.35800 31.77600
H  -1.05100 36.63800 32.88400
H  -2.69700 36.04500 32.93900
H  -0.71000 33.25300 32.10700
H  -1.70600 32.08600 31.34400
H  -2.35500 31.40100 33.24000
H  -3.14700 32.94300 33.47200
H  1.42100 39.96200 28.07300
H  0.90500 39.06000 29.47500
H  -0.15900 40.29500 28.80800
H  0.90600 41.50600 24.79000
H  1.83700 40.56500 26.05000
H  0.19700 41.23100 26.38300
H  -0.59700 35.03300 22.13500
H  -3.04200 33.44600 22.07100
H  -3.25500 36.33600 22.28800
H  -3.14700 35.25000 20.91900
H  -1.99400 36.59800 21.15700
H  -0.63100 32.87600 21.27200
H  -1.68800 31.70000 21.74500
H  0.10900 32.94000 23.88300
H  0.93100 31.95400 22.67600
H  -0.19200 31.11100 23.57700
H  -5.04400 30.05900 24.55400
H  -6.36400 30.23200 25.77900
H  -5.12400 29.05100 26.03100
H  -3.65500 31.06800 30.71600
H  -7.38600 32.42100 32.89500
H  -6.13600 32.69500 34.06900
H  -6.73800 31.20300 34.07000

