158

Mg 46.35800 17.09400 27.94100
C  44.96800 16.24000 30.97000
C  48.99500 18.59500 29.77500
C  47.99500 17.84900 25.00500
C  43.91100 15.49900 26.29300
N  46.91600 17.30900 30.16800
C  46.11000 16.97300 31.22000
C  46.68200 17.37300 32.56800
C  47.88100 18.32600 32.15600
C  47.99100 18.10400 30.61100
C  47.58100 19.79300 32.46500
C  47.11600 16.17400 33.41100
C  46.67300 16.22400 34.88800
H  46.60600 17.63800 35.43200
N  48.12500 18.13100 27.47300
C  49.09600 18.63500 28.35800
C  50.22400 19.12400 27.57700
C  49.84700 19.14800 26.20300
C  48.61400 18.37000 26.17700
C  51.42100 19.84300 28.28000
C  50.53000 19.68200 24.84900
O  50.11800 19.45900 23.69300
C  51.84300 20.45500 24.88000
N  45.99100 16.68400 25.83900
C  46.80000 17.02700 24.85100
C  46.15100 16.66100 23.47300
C  45.05400 15.66600 24.01800
C  45.00600 15.89100 25.47800
C  45.67300 17.91400 22.61400
C  45.27400 14.17700 23.59700
C  45.94800 13.09100 24.53500
N  44.67700 16.22300 28.43400
C  43.77300 15.55500 27.66300
C  42.68200 14.98900 28.48100
C  43.18800 15.20200 29.78200
C  44.37100 15.98300 29.73200
C  41.52800 14.23600 28.06600
C  42.82700 15.09100 31.16700
O  41.70900 14.66000 31.52000
C  43.92500 15.69800 32.00200
C  43.31200 16.81000 32.75500
O  43.08500 17.92700 32.26000
O  42.91200 16.38800 34.07800
C  42.32100 17.36600 35.01400
H  49.82400 19.06500 30.30800
H  48.28900 18.07400 23.97700
H  43.17800 14.89600 25.75300
H  45.95600 17.95200 33.13800
H  48.79900 17.97500 32.62800
H  48.42900 20.16700 33.04000
H  46.68500 20.01600 33.04500
H  47.47900 20.20600 31.46200
H  48.20200 16.11400 33.48300
H  46.73200 15.25400 32.97000
H  47.48200 15.77800 35.46600
H  45.72300 15.70500 35.01700
H  51.03100 20.77700 28.68300
H  52.24600 19.96100 27.57900
H  51.90500 19.25600 29.06100
H  51.61200 21.43100 25.30800
H  52.25700 20.62700 23.88700
H  52.59600 19.97600 25.50600
H  46.87500 16.18600 22.81100
H  44.11600 15.94100 23.53500
H  44.58900 17.83400 22.53900
H  46.15200 17.83100 21.63900
H  46.04600 18.81900 23.09400
H  45.88600 14.17200 22.69500
H  44.33500 13.66500 23.38700
H  47.02700 13.24400 24.58000
H  45.62800 12.08400 24.27000
H  45.57300 13.20700 25.55200
H  40.60200 14.79900 27.94500
H  41.41400 13.45600 28.81800
H  41.66200 13.66200 27.14900
H  44.23000 14.95400 32.73800
H  41.25000 17.40100 34.81300
H  42.73000 18.36800 34.88400
H  42.65000 16.94600 35.96400
Mg 26.98600 50.39300 26.20000
C  24.66800 51.31100 28.70100
C  29.13900 49.40200 28.74700
C  29.22000 49.89700 23.89900
C  24.81800 51.96300 23.75400
N  26.92300 50.41600 28.50900
C  25.78600 50.67700 29.27400
C  26.02100 50.51600 30.76100
C  27.47500 49.90200 30.73400
C  27.85500 49.78800 29.26100
C  28.55000 50.66100 31.60000
C  24.89200 49.50200 31.40000
C  24.23600 49.86000 32.72700
H  25.15300 50.57000 33.77800
N  28.93000 49.75400 26.25900
C  29.59900 49.39900 27.39100
C  30.99100 49.07100 26.98900
C  31.04000 49.18200 25.58500
C  29.72500 49.61400 25.16400
C  32.07000 48.63700 27.97300
C  32.21500 48.88600 24.64000
O  32.14100 49.07600 23.41500
C  33.43600 48.26400 25.07800
N  27.03700 51.02700 24.13800
C  28.08200 50.58200 23.39100
C  27.77500 50.65800 21.91100
C  26.24000 50.98300 21.86700
C  25.97500 51.31400 23.35800
C  28.66800 51.66300 21.13700
C  25.28800 49.84200 21.34900
C  23.98100 50.43300 20.85200
N  25.16100 51.50100 26.16200
C  24.42800 52.09200 25.10900
C  23.18100 52.55000 25.62300
C  23.28000 52.31800 27.08800
C  24.46400 51.61600 27.34600
C  22.09000 53.21200 24.88300
C  22.60000 52.60300 28.25800
O  21.59200 53.30900 28.44800
C  23.35600 51.83600 29.31000
C  23.49000 52.77200 30.57100
O  24.51400 53.42400 30.79900
O  22.33500 52.66200 31.28400
C  22.39700 53.32200 32.63100
H  29.80100 49.09600 29.56100
H  29.94900 49.48400 23.20000
H  24.04000 52.22300 23.03400
H  26.01300 51.51300 31.20300
H  27.41600 48.85800 31.03900
H  29.32300 51.18700 31.04000
H  28.98300 49.92700 32.28000
H  28.08600 51.38000 32.27600
H  25.40200 48.55100 31.55500
H  24.08700 49.39000 30.67300
H  23.90800 48.93100 33.19300
H  23.27900 50.34700 32.54100
H  32.51100 47.67200 27.72300
H  31.58700 48.68400 28.94900
H  32.87400 49.36900 27.90500
H  33.31600 47.31300 25.59600
H  33.84900 48.97700 25.79100
H  34.06300 48.21800 24.18700
H  27.82100 49.66800 21.45700
H  26.08100 51.87800 21.26600
H  29.62200 51.78000 21.65000
H  28.18500 52.61700 20.92900
H  28.83600 51.22200 20.15500
H  25.04300 49.11400 22.12300
H  25.68600 49.31600 20.48100
H  23.99100 51.51500 20.72400
H  23.20300 50.17100 21.57000
H  23.80200 50.07100 19.84000
H  22.63300 53.79700 24.14000
H  21.54900 54.00300 25.40300
H  21.36300 52.53400 24.43600
H  22.78200 50.98500 29.67800
H  22.89700 52.59700 33.27300
H  21.41300 53.53700 33.04800
H  22.95300 54.25800 32.59500

