158

Mg 8.30000 4.37800 27.41500
C  9.62200 2.57300 30.21700
C  6.44200 6.15100 29.54300
C  7.23900 5.84400 24.74700
C  9.84500 1.72500 25.40600
N  7.82100 4.08100 29.64400
C  8.64100 3.54000 30.56400
C  8.22100 3.91800 32.00100
C  7.04800 4.96100 31.72900
C  7.05200 5.06200 30.16700
C  5.66900 4.69000 32.29400
C  9.38200 4.53100 32.80500
C  8.94300 5.29200 34.12900
H  9.87100 5.20100 35.37500
N  7.08500 5.89800 27.20000
C  6.38100 6.60200 28.21500
C  5.70700 7.74000 27.59700
C  5.91000 7.58500 26.19100
C  6.74800 6.38800 25.97900
C  4.77400 8.64500 28.41600
C  5.25600 8.44900 25.11600
O  5.34100 8.16700 23.91600
C  4.55200 9.71000 25.42200
N  8.50200 3.78900 25.38000
C  7.86000 4.59600 24.52500
C  8.05800 4.04900 23.05900
C  9.10600 2.84900 23.26100
C  9.16200 2.75200 24.79500
C  6.62800 3.72100 22.47400
C  10.54300 2.95300 22.60100
C  11.10700 1.63100 21.98800
N  9.50300 2.56700 27.71700
C  9.94700 1.60700 26.81800
C  10.74800 0.59800 27.53400
C  10.66700 0.99700 28.80600
C  9.84000 2.12100 28.91300
C  11.70500 -0.43500 26.94700
C  11.16500 0.66900 30.17100
O  11.84000 -0.21200 30.62500
C  10.56600 1.80600 31.09800
C  9.70600 1.02000 32.10500
O  8.52000 0.66500 32.00400
O  10.54100 0.65500 33.17400
C  9.83400 0.21300 34.39800
H  5.90200 6.69100 30.32400
H  6.75000 6.23700 23.85300
H  10.42600 0.99200 24.84200
H  7.74500 3.04800 32.45500
H  7.40700 5.93000 32.07700
H  5.63500 3.68200 32.70700
H  5.03500 4.56100 31.41600
H  5.21100 5.46300 32.91100
H  10.13000 5.05600 32.21300
H  9.92000 3.64500 33.14100
H  7.95000 5.06100 34.51300
H  8.95100 6.32900 33.79300
H  3.74500 8.71600 28.06200
H  5.17400 9.65800 28.37500
H  4.69800 8.34600 29.46100
H  4.37600 10.43600 24.62900
H  5.25600 10.16300 26.12000
H  3.62100 9.49400 25.94500
H  8.56000 4.79900 22.44800
H  8.76000 1.88600 22.88600
H  5.86000 3.95400 23.21200
H  6.46000 2.67300 22.22700
H  6.29100 4.29400 21.61000
H  11.13700 3.26700 23.45900
H  10.60500 3.63500 21.75300
H  11.51000 1.89300 21.01000
H  10.33700 0.86100 22.03400
H  11.98600 1.34500 22.56600
H  11.75800 -1.31200 27.59200
H  12.66000 0.07200 26.81000
H  11.37600 -0.88400 26.00900
H  11.27800 2.43800 31.63000
H  9.13200 -0.60200 34.22300
H  9.34100 1.05100 34.89000
H  10.58200 -0.24700 35.04400
Mg -9.66000 40.27400 39.30300
C  -8.87900 36.99900 38.43500
C  -6.44100 41.15400 38.27200
C  -10.68400 43.54600 39.07100
C  -13.04600 39.36700 39.67200
N  -7.93200 39.20500 38.33700
C  -7.82700 37.84100 38.16700
C  -6.39000 37.50800 37.65500
C  -5.60200 38.80500 37.90200
C  -6.70800 39.80700 38.22100
C  -4.48200 38.63500 38.93800
C  -6.36700 36.93000 36.17800
C  -7.14900 37.75600 35.18900
H  -8.29400 37.00700 34.46200
N  -8.65800 42.04000 38.82500
C  -7.34100 42.23700 38.49600
C  -7.02000 43.64000 38.32900
C  -8.23300 44.35900 38.59700
C  -9.30000 43.30000 38.83200
C  -5.60300 44.03100 38.20300
C  -8.28900 45.85600 38.68900
O  -7.36800 46.58200 38.39100
C  -9.50600 46.61000 39.27600
N  -11.61500 41.31300 39.36100
C  -11.77900 42.67100 39.30800
C  -13.31200 43.11400 39.46800
C  -13.99300 41.73000 39.57700
C  -12.84500 40.71800 39.48300
C  -13.60100 44.18800 40.57200
C  -15.19100 41.34900 38.65900
C  -16.65100 41.28100 39.35600
N  -10.79300 38.58000 39.29100
C  -12.13900 38.36400 39.46600
C  -12.35100 36.94600 39.47100
C  -11.10800 36.39400 39.16700
C  -10.14600 37.42200 38.97300
C  -13.61900 36.26400 39.37400
C  -10.38300 35.15100 38.84500
O  -10.85500 33.97000 38.90200
C  -8.93100 35.46700 38.32500
C  -7.87900 34.74700 39.11300
O  -8.02100 34.32500 40.25500
O  -6.82800 34.45400 38.23900
C  -5.73600 33.81600 38.91300
H  -5.40100 41.39300 38.03900
H  -11.04200 44.57100 38.95500
H  -14.07600 39.03300 39.81300
H  -6.17800 36.73800 38.39600
H  -5.12900 39.25700 37.03000
H  -4.26900 37.58300 39.12700
H  -4.78400 39.12600 39.86300
H  -3.50500 38.99000 38.61000
H  -6.72200 35.90500 36.28200
H  -5.38000 36.80900 35.73000
H  -6.33400 38.01100 34.51100
H  -7.63600 38.67600 35.51200
H  -5.36300 45.08100 38.03500
H  -5.08500 43.42800 37.45800
H  -5.12900 43.83400 39.16400
H  -9.77600 45.97000 40.11500
H  -10.31200 46.70600 38.54800
H  -9.15700 47.54300 39.71900
H  -13.61100 43.49100 38.49000
H  -14.37500 41.60400 40.58900
H  -12.71500 44.77500 40.81700
H  -13.98500 43.69800 41.46700
H  -14.35700 44.91100 40.26400
H  -15.04000 40.37100 38.20100
H  -15.27700 42.04100 37.82200
H  -17.12300 40.37700 38.97000
H  -17.29700 42.02500 38.88900
H  -16.56500 41.22300 40.44100
H  -14.46100 36.94900 39.27600
H  -13.78700 35.66400 40.26900
H  -13.67900 35.67900 38.45600
H  -8.95000 35.09000 37.30300
H  -5.92800 32.77100 39.15600
H  -5.35300 34.38300 39.76200
H  -4.91400 33.93300 38.20700

