158

Mg 26.13600 0.34200 29.69000
C  27.97300 0.17400 32.55500
C  23.10900 0.43900 31.62200
C  24.17500 0.64500 26.85700
C  28.82600 -0.28000 27.73100
N  25.58000 0.23500 31.78900
C  26.56600 0.43300 32.76100
C  25.92800 0.74300 34.07700
C  24.40800 0.38300 33.83800
C  24.36200 0.47000 32.30700
C  24.02900 -1.02000 34.39900
C  26.25000 2.12000 34.71000
C  26.89100 2.10100 36.13700
H  26.91300 3.29400 37.08500
N  24.01200 0.43600 29.36200
C  22.93600 0.42400 30.25000
C  21.70300 0.73000 29.50100
C  21.99300 0.84500 28.16300
C  23.50000 0.62200 28.11700
C  20.46300 0.85200 30.24900
C  21.04700 0.99900 26.92200
O  21.46100 0.95800 25.79300
C  19.51000 1.19200 27.16700
N  26.49800 0.13900 27.60600
C  25.57600 0.38900 26.61300
C  26.09600 0.16700 25.17600
C  27.55600 -0.32600 25.45700
C  27.66400 -0.13300 26.98500
C  25.20600 -0.86100 24.39700
C  28.64700 0.44100 24.65600
C  29.27300 -0.50500 23.56400
N  28.00800 -0.03600 30.01000
C  29.08300 -0.15900 29.15600
C  30.24300 -0.50900 29.89400
C  29.91000 -0.32000 31.26700
C  28.57300 -0.00500 31.22500
C  31.56400 -1.07000 29.45600
C  30.33000 -0.20400 32.69100
O  31.48700 -0.36200 33.20400
C  29.09400 0.03600 33.51900
C  28.88800 -0.93000 34.67900
O  28.59300 -2.13400 34.48500
O  29.25800 -0.43100 35.93600
C  29.08700 -1.45200 36.98700
H  22.34600 0.45700 32.40400
H  23.57500 0.75500 25.95200
H  29.74100 -0.54900 27.19800
H  26.28500 0.04300 34.83200
H  23.76000 1.19900 34.15700
H  23.67000 -0.95700 35.42600
H  24.88700 -1.68900 34.46200
H  23.21600 -1.44200 33.80800
H  25.24500 2.53900 34.67500
H  26.84900 2.70100 34.00900
H  27.96300 1.93100 36.04500
H  26.38600 1.27500 36.63900
H  20.56300 0.81100 31.33300
H  19.82500 -0.01200 30.06300
H  20.04000 1.81500 29.96300
H  19.00300 1.69600 26.34400
H  19.33900 1.94500 27.93600
H  18.98200 0.25900 27.36000
H  26.04800 1.17500 24.76500
H  27.60600 -1.40500 25.31500
H  24.57600 -1.53600 24.97600
H  25.70300 -1.41700 23.60200
H  24.47300 -0.18000 23.96500
H  29.47000 0.85000 25.24200
H  28.21200 1.27100 24.10000
H  29.49100 0.13100 22.70600
H  28.64600 -1.33300 23.23300
H  30.22700 -0.76700 24.02200
H  31.62700 -0.97400 28.37200
H  31.64900 -2.07700 29.86300
H  32.31700 -0.47200 29.97000
H  29.33100 1.00600 33.95700
H  29.67400 -2.35000 36.79100
H  28.05600 -1.72200 37.21700
H  29.44800 -1.19400 37.98300
Mg 50.55200 45.13700 42.99000
C  47.54500 46.36800 41.69700
C  49.99800 42.18500 41.29300
C  53.74100 44.41000 43.27900
C  51.31000 48.48700 43.85100
N  48.86500 44.40700 41.59300
C  47.74600 45.04500 41.25000
C  46.83300 44.08900 40.42900
C  47.59700 42.71900 40.41100
C  48.91100 43.12900 41.08800
C  46.93600 41.61700 41.33200
C  46.51500 44.69700 39.07300
C  44.97300 44.62400 38.71100
H  44.49100 43.42000 37.77600
N  51.63700 43.35900 42.67000
C  51.24900 42.26200 41.98800
C  52.31500 41.30400 41.97700
C  53.40900 41.92100 42.62100
C  52.95900 43.28900 42.92000
C  52.18100 39.84700 41.48000
C  54.80700 41.26000 42.91500
O  55.12300 40.23800 42.34800
C  55.89000 41.97400 43.79800
N  52.24900 46.27300 43.38400
C  53.46400 45.73100 43.52300
C  54.55400 46.70700 43.84300
C  53.75500 48.01300 44.01800
C  52.33700 47.60000 43.72800
C  55.47100 46.56400 45.07600
C  54.33300 49.17400 43.19600
C  54.80900 50.37600 43.97500
N  49.58100 47.03400 42.98300
C  50.02200 48.24300 43.41000
C  48.88200 49.21100 43.37900
C  47.81300 48.50000 42.66700
C  48.40100 47.20700 42.42400
C  48.82600 50.48800 44.14500
C  46.41100 48.47300 42.27600
O  45.54600 49.36100 42.35800
C  46.25200 47.14300 41.49900
C  44.93700 46.59900 41.98900
O  44.86600 45.82800 42.97800
O  43.88800 46.92700 41.24400
C  42.50300 46.44000 41.65200
H  49.70200 41.20600 40.91200
H  54.78200 44.09400 43.18400
H  51.55000 49.51500 44.13100
H  45.94800 43.94600 41.04900
H  47.69800 42.28600 39.41600
H  45.85600 41.72100 41.44200
H  47.36400 41.60400 42.33400
H  47.28700 40.73600 40.79500
H  46.95000 44.10400 38.26800
H  46.98800 45.67100 38.95300
H  44.66500 45.48000 38.11000
H  44.40200 44.61700 39.64000
H  52.81000 39.55300 40.63900
H  51.16400 39.77500 41.09500
H  52.29200 39.04900 42.21400
H  55.45900 42.43000 44.68900
H  56.42100 42.64700 43.12500
H  56.59000 41.22500 44.16800
H  55.24700 46.61100 43.00700
H  53.83700 48.24900 45.07900
H  55.97900 47.49100 45.34000
H  56.07700 45.66600 44.95600
H  54.87400 46.29400 45.94700
H  53.51300 49.55000 42.58400
H  55.09000 48.71300 42.56100
H  54.21300 51.26700 43.77700
H  55.86200 50.57300 43.77500
H  54.68500 50.26800 45.05300
H  48.00800 50.42700 44.86300
H  48.67200 51.33900 43.48200
H  49.77300 50.70400 44.63900
H  46.08400 47.59500 40.52100
H  41.87500 47.24200 41.26300
H  42.40300 46.29300 42.72700
H  42.12800 45.58000 41.09800

