158

Mg 8.65300 3.51000 27.97500
C  10.11500 2.03300 30.82800
C  6.93600 5.66500 30.11800
C  6.95700 4.89400 25.23400
C  9.99200 1.15500 25.90300
N  8.54800 3.82700 30.18500
C  9.29600 3.12000 31.14400
C  9.09900 3.66500 32.55000
C  7.94600 4.78200 32.33200
C  7.80100 4.76200 30.78000
C  6.63200 4.62100 33.05700
C  10.40800 4.33900 33.13000
C  10.98400 3.77500 34.43700
H  10.88100 4.79400 35.67900
N  7.14800 5.10300 27.69600
C  6.59600 5.88300 28.67600
C  5.65700 6.84300 28.14500
C  5.63900 6.57900 26.71300
C  6.60900 5.47600 26.48300
C  4.85300 7.72700 28.95800
C  4.77400 7.19700 25.64100
O  4.63300 6.78100 24.48500
C  3.97400 8.45200 25.97600
N  8.66400 3.18000 25.91300
C  7.94000 3.83000 25.00800
C  8.23700 3.30300 23.58600
C  9.31400 2.26300 23.76900
C  9.30400 2.16600 25.30500
C  6.95700 2.90200 22.78700
C  10.70800 2.65600 23.15200
C  11.54600 1.48100 22.54800
N  9.78200 1.88300 28.23700
C  10.21400 1.01900 27.27700
C  11.14400 0.13300 27.93100
C  11.18700 0.48500 29.30300
C  10.29400 1.55300 29.45300
C  11.74400 -1.07900 27.21000
C  11.66500 0.14000 30.59400
O  12.40700 -0.79700 30.94400
C  11.17000 1.30500 31.60000
C  10.52600 0.64800 32.76200
O  9.34900 0.22200 32.77600
O  11.42100 0.51900 33.76000
C  11.12200 0.09500 35.09400
H  6.40500 6.38900 30.73900
H  6.46800 5.30500 24.34800
H  10.58100 0.40300 25.37300
H  8.70000 2.88400 33.19800
H  8.30200 5.75100 32.68300
H  6.36200 5.45600 33.70300
H  6.60600 3.63900 33.52900
H  5.91200 4.55700 32.24000
H  10.16000 5.36300 33.41100
H  11.18200 4.32500 32.36200
H  12.00600 3.42000 34.29800
H  10.39600 2.88800 34.67100
H  4.59300 7.31800 29.93400
H  3.89900 7.83900 28.44400
H  5.26100 8.73700 28.98000
H  3.89800 9.13700 25.13200
H  4.60000 9.01700 26.66700
H  3.05400 8.17900 26.49400
H  8.56300 4.16800 23.00800
H  9.15200 1.28600 23.31400
H  6.01900 2.92900 23.34100
H  7.04300 1.87800 22.42500
H  6.66300 3.67600 22.07700
H  11.33500 3.10600 23.92200
H  10.63800 3.34200 22.30800
H  11.84000 1.58200 21.50300
H  11.04900 0.51500 22.63200
H  12.44100 1.35800 23.15900
H  12.56100 -0.72400 26.58200
H  11.02700 -1.56400 26.54900
H  12.08400 -1.85500 27.89600
H  11.95300 1.97900 31.94800
H  10.36500 0.74700 35.52900
H  11.95000 0.06500 35.80200
H  10.62900 -0.87400 35.00900
Mg 48.65300 44.86400 43.14400
C  45.47400 44.89700 41.63000
C  48.61100 41.37800 42.47200
C  52.03300 44.86100 43.11200
C  48.64400 48.28600 43.46400
N  47.19600 43.36500 42.08700
C  45.92400 43.57900 41.72300
C  45.27600 42.29800 41.14100
C  46.11900 41.22100 41.85800
C  47.37700 41.99900 42.13200
C  45.44700 40.64200 43.12300
C  45.35800 42.30400 39.53300
C  44.37600 41.32500 38.85200
H  44.07100 41.37400 37.28800
N  50.07900 43.24500 42.97900
C  49.90400 41.94100 42.68700
C  51.10700 41.21100 42.81000
C  52.09000 42.21700 43.09300
C  51.43800 43.52200 43.05700
C  51.26700 39.76000 42.52500
C  53.49700 41.82100 43.39400
O  53.88000 40.60200 43.53000
C  54.55600 42.83400 43.78200
N  50.11900 46.34400 43.26400
C  51.47400 46.10600 43.28900
C  52.27100 47.38300 43.47400
C  51.17800 48.30100 44.06000
C  49.88100 47.64000 43.57700
C  53.58800 47.31400 44.23000
C  51.41100 49.84900 43.92900
C  51.44200 50.56100 45.32700
N  47.26200 46.34500 42.89500
C  47.36400 47.69000 43.08800
C  46.13400 48.32800 42.67800
C  45.36500 47.26500 42.05700
C  46.12000 46.05900 42.19000
C  45.89900 49.84100 42.78500
C  44.06000 46.97800 41.37300
O  43.16800 47.73800 40.97700
C  44.17500 45.41700 41.00700
C  43.04300 44.69500 41.51900
O  42.23200 44.18100 40.78500
O  42.89400 44.85800 42.86400
C  41.79600 44.14400 43.45200
H  48.34900 40.31900 42.45300
H  53.10100 44.84400 42.88300
H  48.51600 49.28900 43.87700
H  44.24400 42.16200 41.46300
H  46.31300 40.40400 41.16200
H  46.20700 40.52100 43.89500
H  45.15600 39.67400 42.71500
H  44.46400 41.00100 43.42800
H  46.38100 42.11300 39.20900
H  45.08400 43.30500 39.20100
H  43.38500 41.46100 39.28400
H  44.56700 40.29200 39.14300
H  51.15200 39.31100 43.51200
H  52.19500 39.52700 42.00300
H  50.44700 39.48900 41.86000
H  55.40800 42.33700 44.24600
H  54.23300 43.49600 44.58600
H  54.76600 43.40100 42.87500
H  52.58100 47.78500 42.51000
H  51.25700 47.94400 45.08700
H  53.62400 46.39200 44.81100
H  53.71600 48.16000 44.90500
H  54.45600 47.21800 43.57700
H  50.60400 50.20200 43.28700
H  52.32600 50.08500 43.38400
H  50.78000 51.42500 45.27200
H  52.42900 51.02200 45.36700
H  51.25600 49.87100 46.15000
H  46.45200 50.19900 43.65300
H  44.83500 50.00500 42.95500
H  46.30800 50.32700 41.89900
H  44.17800 45.40800 39.91700
H  40.81900 44.48500 43.11000
H  41.78000 44.34900 44.52200
H  41.83600 43.09200 43.16600

