158

Mg 47.17400 15.40100 27.60600
C  45.18100 15.59300 30.54600
C  49.41500 17.63900 29.24200
C  48.67300 15.81200 24.78600
C  44.60900 13.60900 26.11200
N  47.39100 16.35100 29.75300
C  46.37100 16.30900 30.72800
C  46.78900 17.12500 31.95200
C  47.94300 18.06300 31.36800
C  48.31700 17.30800 30.07100
C  47.57300 19.56000 31.31800
C  47.39900 16.12800 33.08700
C  47.12100 16.68000 34.51500
H  48.16600 16.40800 35.57600
N  48.87700 16.35700 27.14500
C  49.69900 17.13100 27.94700
C  50.98600 17.42200 27.20100
C  50.76300 16.92300 25.88000
C  49.33800 16.32400 25.89600
C  52.08500 18.18500 27.77000
C  51.76700 16.90300 24.65900
O  51.45700 16.31100 23.66700
C  53.20200 17.42500 24.79000
N  46.63100 14.78200 25.69600
C  47.44300 15.15800 24.66500
C  46.98600 14.46900 23.39700
C  45.68300 13.74000 23.86100
C  45.58500 14.10500 25.26500
C  46.71500 15.58900 22.23700
C  45.65800 12.16800 23.59700
C  46.31900 11.23500 24.53900
N  45.30700 14.68500 28.12400
C  44.40400 13.92200 27.46000
C  43.33600 13.55600 28.31600
C  43.59400 14.10700 29.54300
C  44.78700 14.84200 29.39300
C  42.28800 12.45400 27.95600
C  43.21100 14.20400 30.90500
O  42.26700 13.73600 31.54400
C  44.19800 15.20100 31.60400
C  43.50700 16.40700 32.13500
O  43.11000 17.29900 31.41000
O  43.60600 16.42800 33.50300
C  43.54000 17.81400 34.01000
H  50.12400 18.24400 29.81100
H  49.14900 16.06100 23.83500
H  43.82500 12.98500 25.67700
H  45.95400 17.73700 32.29200
H  48.87700 18.07500 31.92900
H  47.63900 20.04600 30.34500
H  48.24600 20.00800 32.04900
H  46.55600 19.81900 31.61300
H  48.47500 16.01000 32.95400
H  46.91800 15.15800 32.96400
H  46.19300 16.20700 34.83600
H  46.89400 17.74600 34.53100
H  53.01700 17.75700 27.40000
H  52.09800 18.23000 28.85900
H  51.99400 19.18600 27.35000
H  53.67400 17.58000 23.81900
H  53.83700 16.74300 25.35600
H  53.23800 18.35900 25.35000
H  47.70800 13.73500 23.04000
H  44.92100 14.24300 23.26500
H  45.70100 15.99000 22.23800
H  46.95200 15.20300 21.24600
H  47.46100 16.36700 22.39500
H  46.07600 11.95700 22.61300
H  44.59600 11.93100 23.53400
H  46.86400 11.62600 25.39800
H  47.06600 10.74700 23.91300
H  45.59400 10.55100 24.98100
H  42.25600 11.91500 28.90200
H  42.80200 11.68200 27.38400
H  41.32900 12.81100 27.58200
H  44.78400 14.75800 32.41000
H  42.53700 18.08800 34.33700
H  43.72200 18.57400 33.25100
H  44.22000 17.96600 34.84800
Mg 36.91300 49.78700 25.32800
C  36.69300 47.93400 28.36200
C  36.22800 52.69700 27.02300
C  36.45100 51.26400 22.35200
C  37.24500 46.60200 23.67700
N  36.49800 50.22200 27.46300
C  36.52400 49.28700 28.49200
C  36.27600 50.06400 29.82000
C  35.82500 51.56200 29.31100
C  36.26500 51.50500 27.85200
C  34.35300 52.07600 29.58700
C  37.48700 50.04100 30.80500
C  37.23700 49.51900 32.23400
H  35.86000 49.78400 32.90300
N  36.56400 51.72900 24.77800
C  36.39600 52.81100 25.60400
C  36.43300 54.03700 24.82300
C  36.36400 53.59300 23.43400
C  36.41400 52.12000 23.49300
C  36.43700 55.39400 25.42300
C  36.27000 54.41300 22.08700
O  36.24000 53.91600 20.95500
C  36.30600 56.01700 22.22500
N  36.71300 49.07300 23.27100
C  36.61700 49.91600 22.23500
C  36.73500 49.06400 20.88200
C  37.19100 47.66800 21.38400
C  37.10400 47.79500 22.85800
C  35.49000 49.12100 19.97100
C  38.66500 47.30100 20.91400
C  38.73200 45.99000 20.28700
N  36.98900 47.70400 25.84500
C  37.11800 46.54700 25.07000
C  37.28900 45.45900 25.92800
C  37.07100 45.97200 27.23500
C  36.82600 47.31600 27.08700
C  37.63900 44.09400 25.53700
C  37.07300 45.59200 28.63100
O  37.39200 44.50700 29.19100
C  36.77600 46.84900 29.35700
C  35.55400 46.56200 30.08200
O  34.44800 46.72600 29.63800
O  35.83300 46.04300 31.29600
C  34.70600 45.67800 32.17600
H  36.02800 53.55900 27.66200
H  36.34800 51.80100 21.40600
H  37.51900 45.66600 23.18800
H  35.38100 49.62500 30.26200
H  36.51800 52.26000 29.78000
H  34.02800 52.37700 28.59200
H  34.51700 52.95200 30.21500
H  33.63700 51.38700 30.03600
H  37.93600 51.03500 30.80600
H  38.15500 49.29500 30.37500
H  37.96100 49.96500 32.91700
H  37.40000 48.44400 32.15600
H  37.49500 55.62200 25.55000
H  36.03200 55.52600 26.42600
H  35.89900 56.11400 24.80600
H  35.36800 56.33700 22.67900
H  36.19700 56.27500 21.17200
H  37.14700 56.56200 22.65300
H  37.46200 49.46100 20.17200
H  36.45500 46.91300 21.10800
H  35.17700 50.13600 19.72400
H  34.63900 48.72900 20.52800
H  35.72500 48.51000 19.10000
H  39.39400 47.22300 21.72000
H  39.07500 47.99900 20.18400
H  39.39700 45.21900 20.67700
H  39.08700 46.24000 19.28700
H  37.75000 45.55700 20.10000
H  36.83000 43.71300 24.91400
H  37.95100 43.54700 26.42700
H  38.48500 44.11900 24.85000
H  37.50000 47.01800 30.15500
H  33.79800 45.62800 31.57500
H  34.61600 46.45400 32.93600
H  34.79000 44.69600 32.64000

