158

Mg 48.50800 16.67200 29.61500
C  46.19000 16.07000 32.17200
C  50.33800 18.64400 31.89100
C  50.64400 17.39500 27.18100
C  46.25300 15.25900 27.37000
N  48.18800 17.39700 31.69600
C  47.32400 16.74200 32.54900
C  47.78700 17.03300 33.99800
C  48.72900 18.27700 33.89600
C  49.13500 18.08600 32.39500
C  47.95200 19.68300 34.09700
C  48.41600 15.72700 34.63100
C  48.12400 15.36900 36.07800
H  48.11800 16.54600 37.05300
N  50.27400 17.68500 29.57700
C  50.90100 18.47900 30.63000
C  52.21200 18.96100 30.18300
C  52.39200 18.48200 28.85600
C  51.03700 17.88200 28.44500
C  53.05600 19.80300 31.13600
C  53.57800 18.72200 27.88400
O  53.55300 18.39000 26.70000
C  54.84000 19.28000 28.40700
N  48.48100 16.47000 27.59700
C  49.48000 16.74300 26.73000
C  49.28400 16.18800 25.31500
C  47.97800 15.41000 25.47500
C  47.54200 15.66900 26.91300
C  49.20300 17.34500 24.20600
C  48.09900 13.82800 25.19200
C  47.03300 13.19300 24.26500
N  46.49800 15.87600 29.72900
C  45.76100 15.31000 28.69100
C  44.54500 14.78700 29.24500
C  44.67000 15.07500 30.63400
C  45.84400 15.70200 30.82100
C  43.46800 14.08500 28.51300
C  44.09500 14.84800 31.95600
O  43.05200 14.33300 32.35300
C  45.03900 15.56300 33.00100
C  44.38100 16.64900 33.73600
O  43.99200 17.71600 33.22900
O  44.31900 16.31800 35.06200
C  43.71000 17.27100 35.95700
H  50.89900 19.22600 32.62500
H  51.33400 17.43000 26.33500
H  45.55000 14.71500 26.73600
H  46.87300 17.28900 34.53300
H  49.56500 18.19000 34.59100
H  47.94500 20.22200 33.15000
H  48.44500 20.29100 34.85600
H  46.96400 19.42300 34.47800
H  49.49100 15.90200 34.59000
H  48.24300 14.87500 33.97400
H  48.99400 14.77500 36.35700
H  47.20100 14.79700 36.17600
H  54.02500 19.99100 30.67300
H  53.28100 19.27700 32.06400
H  52.51000 20.69900 31.43200
H  54.56400 20.32200 28.57200
H  55.60200 19.24300 27.62900
H  55.03700 18.60500 29.24000
H  50.14400 15.56300 25.07400
H  47.14900 15.85300 24.92300
H  49.29400 18.36400 24.58100
H  48.32300 17.15500 23.59300
H  50.00400 17.24600 23.47300
H  48.06900 13.27800 26.13300
H  49.09100 13.70900 24.75700
H  47.50500 12.84700 23.34600
H  46.31400 13.96400 23.98700
H  46.54400 12.29500 24.64200
H  43.83800 13.41700 27.73500
H  42.67300 14.65800 28.03700
H  42.99100 13.47200 29.27800
H  45.31300 14.82000 33.75100
H  43.62900 18.33500 35.73400
H  44.19500 17.18600 36.92900
H  42.68600 16.95300 36.15300
Mg 48.21000 35.09900 27.15200
C  46.25000 33.43800 29.75500
C  48.19600 37.77800 29.06300
C  49.60100 36.61300 24.63900
C  47.41100 32.27000 25.12700
N  47.35700 35.51700 29.19600
C  46.81100 34.68200 30.11300
C  46.79000 35.22500 31.54300
C  47.01600 36.77900 31.21900
C  47.51700 36.74000 29.76800
C  45.93000 37.65500 31.71600
C  47.96300 34.61600 32.45500
C  47.53900 34.15800 33.87500
H  46.37200 35.00200 34.44100
N  48.99200 36.92100 26.92900
C  48.84500 37.94800 27.81400
C  49.38200 39.19500 27.22300
C  49.81500 38.83400 25.94800
C  49.49400 37.42500 25.78500
C  49.43300 40.53800 27.94600
C  50.52200 39.67600 24.92400
O  50.94900 39.26200 23.85600
C  50.73200 41.18200 25.14100
N  48.22100 34.58000 25.10000
C  49.12000 35.31000 24.34000
C  49.53200 34.56600 23.10900
C  48.92200 33.14900 23.36300
C  48.15000 33.30300 24.62700
C  48.95700 35.16200 21.80300
C  50.00800 31.95800 23.48200
C  50.23300 31.08200 22.20400
N  47.05200 33.21500 27.30300
C  46.87000 32.19600 26.42900
C  46.05000 31.21100 27.03500
C  45.80000 31.65200 28.33900
C  46.47000 32.87900 28.50700
C  45.55400 30.00600 26.37500
C  45.02600 31.34100 29.50600
O  44.24900 30.43100 29.81700
C  45.36100 32.55400 30.45400
C  46.04900 31.93600 31.70000
O  47.16200 31.47800 31.78400
O  45.09700 31.83800 32.68500
C  45.34700 30.94400 33.76700
H  48.17400 38.74200 29.57600
H  50.15400 37.09400 23.82900
H  47.41800 31.37900 24.49600
H  45.81400 35.11000 32.01600
H  47.81400 37.11500 31.88000
H  45.78400 38.43400 30.96800
H  46.01400 38.12600 32.69500
H  45.00100 37.09400 31.82400
H  48.67100 35.40100 32.71900
H  48.48900 33.87900 31.84700
H  48.38100 34.38000 34.53000
H  47.40400 33.07600 33.85800
H  50.45600 40.90400 28.03500
H  49.14700 40.51800 28.99800
H  48.88500 41.36200 27.49000
H  51.21400 41.59200 24.25300
H  51.50700 41.06900 25.89900
H  49.77300 41.62800 25.40500
H  50.61100 34.66200 22.98300
H  48.15900 32.98900 22.60100
H  49.54500 36.00200 21.43300
H  47.92800 35.51100 21.88200
H  49.00600 34.44600 20.98200
H  49.82000 31.26600 24.30200
H  50.97100 32.44000 23.64600
H  50.35300 30.04700 22.52500
H  51.09900 31.31000 21.58300
H  49.33200 31.06000 21.59100
H  44.78300 29.53100 26.98100
H  46.49500 29.45700 26.40400
H  45.20800 30.22400 25.36400
H  44.43900 33.07800 30.70700
H  44.60200 31.04900 34.55600
H  46.33600 31.08500 34.20300
H  45.41500 29.92200 33.39300

