158

Mg 50.68200 47.28400 43.70300
C  47.46900 47.57400 42.19100
C  50.90100 44.10400 42.25100
C  53.79100 47.22900 44.51800
C  50.67500 50.80700 44.10600
N  49.42000 46.09900 42.18300
C  48.06000 46.32200 41.97500
C  47.25300 45.17100 41.28100
C  48.41600 44.11200 41.38700
C  49.64100 44.78200 42.02600
C  47.94700 42.75100 42.04100
C  46.81700 45.61900 39.83700
C  45.38200 45.25500 39.42000
H  45.25200 44.13400 38.34400
N  52.23000 45.89200 43.40000
C  52.09400 44.60500 42.90800
C  53.42100 43.89400 43.05400
C  54.27800 44.86500 43.70600
C  53.48300 46.07300 43.88900
C  53.71700 42.53100 42.49700
C  55.81100 44.65700 44.00500
O  56.35900 43.61100 43.68700
C  56.65700 45.80100 44.46900
N  51.97700 48.86600 44.13100
C  53.16000 48.45800 44.66500
C  53.88700 49.62000 45.47900
C  53.01600 50.85800 45.12300
C  51.82300 50.14500 44.39700
C  53.95000 49.39100 47.01800
C  53.61000 51.93400 44.10200
C  53.09900 53.34800 44.34000
N  49.30300 48.86000 43.49200
C  49.46600 50.23400 43.61100
C  48.23000 50.86700 43.28000
C  47.44900 49.88100 42.71000
C  48.15700 48.71200 42.80500
C  48.00000 52.35900 43.38500
C  46.14900 49.65000 42.18700
O  45.20600 50.42400 42.05900
C  46.09400 48.14300 41.82100
C  44.99200 47.53200 42.60400
O  44.91900 47.42500 43.79100
O  44.00400 47.15500 41.67000
C  42.69400 46.62000 42.21600
H  51.08800 43.06600 41.97000
H  54.68800 47.24900 45.14000
H  50.67600 51.83700 44.46800
H  46.44200 44.96500 41.98000
H  48.69000 43.83800 40.36800
H  46.92800 42.41700 41.84700
H  48.14400 42.78700 43.11200
H  48.56900 41.87200 41.87200
H  47.31500 44.97300 39.11400
H  47.03300 46.64800 39.54900
H  44.87600 46.14800 39.05200
H  44.89900 44.97000 40.35500
H  54.38500 41.91300 43.09700
H  54.14500 42.66000 41.50300
H  52.82900 41.90900 42.37900
H  57.68900 45.54400 44.70800
H  56.33700 45.95100 45.50000
H  56.52200 46.65500 43.80500
H  54.90000 49.76900 45.10700
H  52.70900 51.39800 46.01900
H  54.87500 48.85200 47.22100
H  53.00800 48.90900 47.28000
H  54.05400 50.34300 47.53800
H  53.38800 51.81500 43.04200
H  54.69500 51.88500 44.19400
H  52.37700 53.46900 45.14700
H  52.74400 53.78200 43.40500
H  53.80600 54.08500 44.72100
H  46.91800 52.49300 43.41700
H  48.49500 53.04200 42.69400
H  48.35800 52.75300 44.33600
H  45.93400 48.10500 40.74400
H  42.34200 45.88700 41.49000
H  42.02000 47.46500 42.36400
H  42.74800 46.14000 43.19300
Mg -10.76800 17.21100 40.13000
C  -7.37000 16.41400 40.10900
C  -10.09900 20.38800 39.27800
C  -13.96000 17.66800 39.71300
C  -11.33400 13.71800 40.65300
N  -8.97700 18.24800 39.87700
C  -7.65000 17.79800 39.89400
C  -6.69800 18.93100 39.73900
C  -7.63900 20.18800 39.87100
C  -9.00700 19.61800 39.68400
C  -7.45800 21.00800 41.22000
C  -5.91600 18.78700 38.44400
C  -4.38700 18.49100 38.49200
H  -3.88600 17.33900 37.66400
N  -11.91800 18.86400 39.55500
C  -11.47100 20.13300 39.16300
C  -12.59300 20.99100 38.79200
C  -13.74300 20.11100 38.81200
C  -13.24400 18.81300 39.36500
C  -12.54800 22.38100 38.39400
C  -15.13500 20.50600 38.51400
O  -15.48400 21.66400 38.40100
C  -16.16900 19.43200 38.28900
N  -12.45900 15.71600 39.75000
C  -13.65200 16.33500 39.91600
C  -14.70900 15.25800 40.19100
C  -13.85700 14.02400 40.58300
C  -12.45300 14.51200 40.30400
C  -15.89200 15.44700 41.17700
C  -14.24100 12.74700 39.77300
C  -14.92000 11.62600 40.55900
N  -9.61200 15.41600 40.19800
C  -10.02100 14.11200 40.48400
C  -8.86400 13.25200 40.65800
C  -7.81000 14.13700 40.53700
C  -8.31300 15.39100 40.22900
C  -8.84500 11.73100 40.87500
C  -6.37800 14.22600 40.55500
O  -5.55200 13.35400 40.84500
C  -6.07500 15.69000 40.28300
C  -5.37800 16.11500 41.45900
O  -5.90100 16.40900 42.56000
O  -4.04000 16.22800 41.20500
C  -3.25100 16.82700 42.31600
H  -9.76600 21.40500 39.06100
H  -15.03600 17.80800 39.59200
H  -11.39400 12.65500 40.89500
H  -6.11900 18.79700 40.65300
H  -7.41700 20.84300 39.02800
H  -6.69000 20.66000 41.91000
H  -8.39100 21.08200 41.77800
H  -7.04600 21.98100 40.95100
H  -6.09400 19.68600 37.85400
H  -6.31400 17.99400 37.81100
H  -4.07000 18.35900 39.52700
H  -3.84600 19.42900 38.36300
H  -13.08000 23.00600 39.11200
H  -12.71600 22.44500 37.31900
H  -11.49400 22.64500 38.47800
H  -15.70000 18.66600 37.67200
H  -16.97100 19.73300 37.61500
H  -16.55000 19.17100 39.27700
H  -15.12900 15.05200 39.20600
H  -13.92900 13.77900 41.64300
H  -15.76000 16.33500 41.79600
H  -16.04100 14.55200 41.78100
H  -16.77700 15.62200 40.56500
H  -13.41100 12.33600 39.19800
H  -14.96000 13.10300 39.03500
H  -14.64100 11.63000 41.61300
H  -14.61200 10.63200 40.23700
H  -15.97300 11.55300 40.29000
H  -8.15200 11.28300 40.16200
H  -9.80800 11.22900 40.78200
H  -8.41200 11.48000 41.84300
H  -5.43100 15.65300 39.40400
H  -3.26700 16.07800 43.10800
H  -3.66900 17.79800 42.58200
H  -2.18900 16.96000 42.11100

