158

Mg -2.21900 17.58000 25.71800
C  -2.83400 15.19400 28.23800
C  -2.91500 20.03800 27.85700
C  -2.02100 19.63100 23.09700
C  -2.08500 14.79500 23.51600
N  -2.81200 17.54300 27.75400
C  -2.98200 16.48900 28.66800
C  -3.53700 16.98400 29.99600
C  -3.43000 18.53600 29.79700
C  -3.09500 18.74100 28.37100
C  -4.68400 19.36500 30.30000
C  -2.68100 16.47700 31.23300
C  -2.50700 17.41100 32.45700
H  -2.51000 16.84200 33.82800
N  -2.36700 19.61700 25.48900
C  -2.54900 20.45000 26.56100
C  -2.38800 21.80400 26.12800
C  -2.23400 21.70900 24.69100
C  -2.16500 20.30900 24.35900
C  -2.53800 22.99100 26.96000
C  -2.03900 22.76200 23.63800
O  -1.77200 22.44400 22.46500
C  -2.13400 24.18100 24.04300
N  -1.97700 17.23400 23.64200
C  -2.03000 18.26600 22.77700
C  -2.00000 17.81800 21.31000
C  -1.95200 16.28000 21.48500
C  -1.98400 16.05800 22.94400
C  -3.21800 18.38100 20.38700
C  -0.67600 15.65000 20.82500
C  0.52500 15.30200 21.69100
N  -2.26900 15.43500 25.80900
C  -2.18000 14.46600 24.88600
C  -2.41000 13.15100 25.45200
C  -2.59600 13.40700 26.80900
C  -2.53900 14.83200 26.93400
C  -2.29300 11.82000 24.82400
C  -2.68100 12.76400 28.10700
O  -2.57000 11.55600 28.42600
C  -2.88600 13.89200 29.08000
C  -1.63300 13.68900 29.99800
O  -0.50200 14.00600 29.77400
O  -2.03100 12.83100 31.03000
C  -0.96600 12.35000 31.93400
H  -3.03900 20.78000 28.64900
H  -1.97200 20.24600 22.19600
H  -2.18800 13.97300 22.80400
H  -4.55400 16.60200 30.09200
H  -2.54700 19.02500 30.20800
H  -5.14900 19.77600 29.40400
H  -4.52200 20.22000 30.95600
H  -5.36900 18.75900 30.89200
H  -1.68500 16.32600 30.81800
H  -3.15300 15.53000 31.49500
H  -3.37100 18.07500 32.47400
H  -1.56500 17.94900 32.34500
H  -3.46000 23.54300 26.77500
H  -1.65600 23.60500 26.77800
H  -2.47600 22.65600 27.99500
H  -2.05300 24.75500 23.12000
H  -1.24100 24.40400 24.62600
H  -3.07500 24.11100 24.58900
H  -0.96800 18.13500 21.16300
H  -2.78000 15.70100 21.07400
H  -3.86200 19.10300 20.88800
H  -3.65600 17.44800 20.03400
H  -2.77800 18.91500 19.54500
H  -0.22800 16.34400 20.11400
H  -0.98000 14.77700 20.24700
H  0.96500 14.38300 21.30200
H  0.37200 15.25200 22.76900
H  1.33700 16.02800 21.64200
H  -1.26400 11.49800 24.98500
H  -2.53500 11.80400 23.76200
H  -2.97900 11.18900 25.38900
H  -3.83500 13.80600 29.60900
H  -0.61400 11.33200 31.76900
H  -1.29900 12.28000 32.97000
H  -0.07900 12.95900 32.10600
Mg 54.60300 24.25400 44.73400
C  51.98100 26.31700 43.53500
C  52.97000 21.65400 43.42800
C  57.49800 22.51400 44.86800
C  56.25600 27.11400 45.88600
N  52.86400 24.13500 43.29200
C  51.86300 25.04100 43.00600
C  50.77900 24.40400 42.12300
C  50.87700 22.90000 42.52900
C  52.35300 22.88000 43.08200
C  49.94900 22.41600 43.62000
C  51.14600 24.67800 40.60500
C  49.93400 24.58000 39.79400
H  50.19500 25.07700 38.32300
N  55.14700 22.38300 44.18800
C  54.33400 21.38500 43.67200
C  55.01100 20.14800 43.63100
C  56.33500 20.37600 43.95200
C  56.39600 21.83700 44.35000
C  54.21500 18.85400 43.29900
C  57.35200 19.28100 44.05500
O  57.11800 18.09500 43.91300
C  58.71700 19.51600 44.50700
N  56.64600 24.73900 45.06400
C  57.64700 23.88400 45.20100
C  58.96600 24.41400 45.69500
C  58.52600 26.00500 45.79200
C  57.03000 25.94900 45.57500
C  59.51400 23.73100 46.94900
C  59.26700 27.05900 44.86400
C  58.55300 27.38200 43.50400
N  54.17800 26.25500 44.93900
C  54.89800 27.27800 45.51200
C  54.02000 28.42800 45.62600
C  52.84200 28.03700 44.86300
C  53.06600 26.74300 44.48700
C  54.33000 29.73600 46.29800
C  51.54100 28.51300 44.37900
O  50.92700 29.59800 44.49400
C  50.95700 27.39300 43.54500
C  50.42200 27.93500 42.25800
O  51.10300 28.44100 41.39900
O  49.10300 27.71800 42.19700
C  48.49000 27.98700 40.88700
H  52.28800 20.92300 42.98900
H  58.26200 21.78800 45.15200
H  56.69400 28.07100 46.17800
H  49.75800 24.73400 42.31000
H  50.81800 22.14100 41.74800
H  49.33400 23.18500 44.08700
H  50.39200 21.88400 44.46200
H  49.29800 21.75300 43.05000
H  51.76200 23.84500 40.26800
H  51.76300 25.54600 40.37100
H  49.10000 25.17000 40.17500
H  49.59300 23.55300 39.66200
H  54.23300 18.01700 43.99700
H  54.82500 18.53200 42.45500
H  53.24200 19.05700 42.85100
H  58.83000 19.86300 45.53400
H  59.10700 20.24500 43.79600
H  59.31200 18.61700 44.34600
H  59.75200 24.28700 44.95100
H  58.59200 26.43000 46.79400
H  59.81100 24.45400 47.71000
H  60.31900 23.02600 46.74500
H  58.73900 23.19100 47.49300
H  60.26900 26.70500 44.62300
H  59.50400 27.96000 45.43000
H  58.05700 28.34800 43.41300
H  57.73300 26.69900 43.28300
H  59.44700 27.30700 42.88500
H  54.46100 29.63800 47.37500
H  53.51700 30.44700 46.14800
H  55.24400 30.14600 45.86800
H  50.06400 26.96300 43.99800
H  49.12700 27.73700 40.03800
H  47.92700 28.90400 40.71500
H  47.59600 27.38800 40.71800

