158

Mg -0.71700 18.08400 27.39000
C  -1.33600 15.80200 30.09500
C  -1.49500 20.57600 29.40500
C  -0.60400 19.96700 24.66900
C  -0.56600 15.14600 25.28500
N  -1.32900 18.19500 29.51400
C  -1.29900 17.16200 30.49700
C  -1.49100 17.70100 31.88700
C  -1.75000 19.21000 31.56700
C  -1.61600 19.31700 30.05700
C  -3.06000 19.79200 32.17400
C  -0.40000 17.41200 33.01300
C  -1.01500 16.90100 34.39500
H  -0.18600 17.25300 35.65600
N  -0.76700 20.04800 27.07200
C  -1.09300 20.95500 28.08300
C  -0.93000 22.30200 27.54300
C  -0.69800 22.14700 26.12300
C  -0.64900 20.70700 25.88500
C  -1.21200 23.57700 28.39700
C  -0.58500 23.17700 25.03800
O  -0.41900 22.94100 23.87800
C  -0.72300 24.62800 25.38000
N  -0.66200 17.61000 25.26600
C  -0.50300 18.63600 24.38400
C  -0.45100 17.97900 22.99000
C  -0.04800 16.57400 23.24400
C  -0.50100 16.43400 24.66000
C  -1.66700 18.29600 22.03100
C  1.57400 16.37600 23.05200
C  2.51000 17.25600 23.92000
N  -0.99200 16.00200 27.52700
C  -0.98400 14.93500 26.60100
C  -1.20800 13.69000 27.15300
C  -1.35100 13.96900 28.47000
C  -1.25700 15.35700 28.72900
C  -1.31600 12.41400 26.35300
C  -1.61700 13.31200 29.75900
O  -1.81300 12.08700 30.03600
C  -1.60300 14.52700 30.83500
C  -0.58500 14.16600 31.90000
O  0.63900 14.18400 31.77700
O  -1.29900 13.62000 32.94400
C  -0.52500 12.91800 34.00100
H  -1.73700 21.44600 30.01900
H  -0.54500 20.67000 23.83600
H  -0.32400 14.30700 24.62800
H  -2.42600 17.29600 32.27300
H  -0.96100 19.79000 32.04600
H  -3.70200 20.16900 31.37800
H  -2.93100 20.71700 32.73600
H  -3.59600 19.04100 32.75300
H  0.19400 18.31600 33.14400
H  0.31500 16.64500 32.71500
H  -1.14300 15.82300 34.49000
H  -1.93100 17.49000 34.44400
H  -1.62000 23.41400 29.39500
H  -1.93900 24.25900 27.95400
H  -0.40400 24.26900 28.63500
H  -0.72800 25.24800 24.48400
H  0.00200 24.99600 26.10700
H  -1.75000 24.66300 25.74500
H  0.34200 18.55600 22.51500
H  -0.67500 15.85500 22.71600
H  -2.02700 17.45100 21.44400
H  -1.12100 18.89200 21.29900
H  -2.47000 18.79100 22.57700
H  1.77800 16.59600 22.00400
H  1.83200 15.32300 23.16800
H  2.97400 16.67900 24.72000
H  2.02700 18.03900 24.50500
H  3.31000 17.65700 23.29700
H  -0.34300 12.01400 26.06800
H  -1.80100 12.60000 25.39500
H  -1.91300 11.65900 26.86500
H  -2.62700 14.53200 31.20900
H  -1.05000 13.25400 34.89600
H  0.53100 13.14900 34.14000
H  -0.68100 11.84200 33.92900
Mg 10.17000 48.90600 25.97100
C  7.54000 49.33000 28.44900
C  12.28100 50.42200 28.09700
C  12.25500 49.05000 23.46100
C  7.63000 47.82600 23.84500
N  9.90300 49.79100 28.03000
C  8.83000 49.72500 28.94000
C  9.26900 50.19800 30.33400
C  10.66500 50.93200 29.96900
C  10.93400 50.38500 28.59500
C  10.70800 52.48600 30.08100
C  9.60500 48.99100 31.30300
C  9.80100 49.29200 32.80300
H  9.08100 48.49100 33.88900
N  12.00000 49.50200 25.83900
C  12.79200 50.00800 26.84300
C  14.16900 50.08700 26.35100
C  14.15900 49.68300 25.03400
C  12.75500 49.34800 24.69800
C  15.32900 50.54300 27.23400
C  15.31200 49.46900 24.09700
O  15.18200 49.00800 22.91100
C  16.60600 49.88300 24.54700
N  9.97500 48.41300 23.88200
C  10.96200 48.65500 23.02700
C  10.51600 48.34400 21.50700
C  9.10400 47.72600 21.77400
C  8.86000 47.98500 23.27000
C  10.60100 49.62200 20.54100
C  9.01200 46.25400 21.31800
C  9.53100 45.19500 22.30700
N  8.13600 48.52600 26.09500
C  7.24200 48.00500 25.19500
C  5.92000 47.79200 25.70400
C  5.99900 48.31300 26.97400
C  7.35000 48.75400 27.18700
C  4.58700 47.49300 24.92900
C  5.28200 48.53700 28.18400
O  4.12300 48.23900 28.55000
C  6.29300 49.24100 29.19800
C  6.36900 48.22000 30.27000
O  7.04300 47.20100 30.21300
O  5.33700 48.40000 31.18200
C  5.22500 47.55500 32.30400
H  13.01800 50.70900 28.85000
H  12.88100 49.34700 22.61700
H  6.87000 47.38200 23.19900
H  8.56300 50.82600 30.87700
H  11.55600 50.65000 30.52900
H  11.57200 52.78700 30.67400
H  9.76400 52.69600 30.58400
H  10.76100 52.91800 29.08200
H  10.51800 48.54400 30.91100
H  8.84300 48.21300 31.26200
H  9.69300 50.37500 32.86200
H  10.87200 49.11200 32.89500
H  15.88700 51.41000 26.88200
H  16.05600 49.80400 27.57000
H  14.86400 50.98000 28.11800
H  16.71700 50.89200 24.94400
H  17.32000 49.81400 23.72700
H  17.02400 49.17700 25.26400
H  11.20100 47.57100 21.16000
H  8.48700 48.38800 21.16600
H  9.64100 49.63000 20.02600
H  11.53200 49.59600 19.97500
H  10.62900 50.53900 21.13100
H  9.67200 46.01900 20.48300
H  7.98500 46.05300 21.01400
H  10.35600 45.59800 22.89200
H  9.94700 44.34900 21.76000
H  8.75700 44.73900 22.92500
H  3.71600 47.46200 25.58500
H  4.66200 46.54600 24.39600
H  4.44500 48.38300 24.31700
H  5.95500 50.13100 29.72800
H  4.49500 46.79000 32.03900
H  4.87200 48.14600 33.14900
H  6.13300 47.03600 32.60800

